158

Mg 0.30100 8.36500 26.42500
C  0.86600 10.18300 29.50600
C  -0.06900 5.50000 28.37200
C  0.31000 6.73600 23.63100
C  1.23400 11.27400 24.80200
N  0.34600 7.96600 28.70300
C  0.56900 8.88300 29.72400
C  0.51600 8.11600 31.08800
C  0.46800 6.58000 30.62600
C  0.20300 6.64900 29.14200
C  1.71500 5.68100 30.99300
C  -0.66600 8.57300 32.00300
C  -0.47000 8.48300 33.58300
H  0.85900 7.89300 34.19400
N  0.08300 6.39100 26.04300
C  -0.00200 5.30900 26.88200
C  -0.03500 4.07300 26.09900
C  -0.08000 4.43900 24.75100
C  0.12400 5.89600 24.79100
C  -0.11400 2.68600 26.69800
C  -0.15600 3.59400 23.55500
O  -0.14400 4.07600 22.42400
C  -0.26300 2.09800 23.70800
N  0.43600 9.01900 24.46100
C  0.54100 8.10200 23.46400
C  0.69300 8.87600 22.13000
C  0.69700 10.37200 22.51600
C  0.91200 10.19600 24.03500
C  2.02200 8.43700 21.44000
C  -0.67900 11.06500 22.39700
C  -1.21200 11.23000 20.88800
N  0.89300 10.42100 26.97500
C  1.17100 11.42300 26.20500
C  1.43500 12.56200 27.00200
C  1.43600 12.06600 28.28400
C  0.97900 10.80900 28.27100
C  1.67700 13.93800 26.63900
C  1.66300 12.46600 29.68500
O  2.00100 13.54100 30.20000
C  1.24200 11.24000 30.50300
C  2.22900 10.86900 31.58800
O  3.27500 10.23000 31.46500
O  1.77800 11.35300 32.77300
C  2.70700 11.45100 33.91700
H  -0.02900 4.53900 28.88900
H  0.37800 6.21900 22.67100
H  1.48400 12.22100 24.31900
H  1.45500 8.33600 31.59500
H  -0.50700 6.20700 30.94200
H  2.41700 6.11400 31.70500
H  2.26700 5.42400 30.08900
H  1.44700 4.72900 31.45100
H  -1.48800 7.88900 31.79100
H  -0.94300 9.59600 31.75000
H  -1.25500 7.82300 33.95200
H  -0.67700 9.49700 33.92500
H  0.18800 2.65100 27.74500
H  0.49400 1.99200 26.11600
H  -1.16500 2.40500 26.63600
H  -0.64100 1.63100 22.79800
H  -1.00800 1.94200 24.48800
H  0.72900 1.74300 23.98700
H  -0.11100 8.77800 21.40100
H  1.48400 10.98000 22.07000
H  2.36700 7.67300 22.13600
H  2.73000 9.25600 21.31100
H  1.81400 7.92900 20.49800
H  -0.69500 12.06400 22.83300
H  -1.40100 10.44200 22.92400
H  -0.39400 11.08500 20.18300
H  -1.58700 12.24300 20.74500
H  -1.98100 10.50200 20.62900
H  1.90500 14.09000 25.58400
H  2.34300 14.39800 27.36800
H  0.71200 14.43600 26.73300
H  0.32400 11.55600 30.99700
H  2.93100 12.51100 34.04100
H  3.67600 11.04400 33.62900
H  2.34400 10.91700 34.79500
Mg 40.90500 9.06900 29.43400
C  42.56400 10.67800 32.06100
C  38.78600 7.55100 31.72200
C  39.44800 7.74200 26.94400
C  43.54100 10.37500 27.27300
N  40.71400 9.18700 31.67500
C  41.38900 10.02100 32.54700
C  40.89900 9.82400 34.00300
C  39.71700 8.69800 33.81500
C  39.81800 8.38000 32.36200
C  39.81000 7.42600 34.80000
C  40.42800 11.20100 34.57400
C  39.65000 11.10600 35.95200
H  40.29000 11.69800 37.20300
N  39.30800 7.82200 29.34200
C  38.51700 7.42700 30.36400
C  37.41600 6.65700 29.72400
C  37.46300 6.84900 28.30500
C  38.76000 7.56200 28.14000
C  36.35300 5.94900 30.59200
C  36.52000 6.51200 27.22900
O  36.76300 6.95900 26.07600
C  35.24600 5.75500 27.49700
N  41.37500 9.06700 27.34600
C  40.62400 8.35500 26.52800
C  41.08200 8.59900 25.08500
C  42.23500 9.66200 25.17400
C  42.41900 9.64500 26.67100
C  41.59700 7.33600 24.31300
C  41.74000 11.05700 24.68700
C  42.11500 11.57700 23.29500
N  42.71500 10.12000 29.56600
C  43.70800 10.58800 28.64400
C  44.66700 11.35200 29.31600
C  44.25800 11.40300 30.66800
C  43.10600 10.62500 30.70800
C  45.88400 11.77900 28.70200
C  44.62500 11.89600 31.99200
O  45.53600 12.64100 32.40500
C  43.55700 11.42200 32.96000
C  44.07900 10.44600 33.87500
O  44.56300 9.37300 33.53900
O  43.95400 10.91100 35.19800
C  44.55400 10.05500 36.19900
H  38.12500 6.93000 32.33100
H  38.93100 7.33800 26.07000
H  44.13500 10.86300 26.49700
H  41.73000 9.51000 34.63500
H  38.73600 9.16200 33.91600
H  38.79500 7.27800 35.16800
H  40.44900 7.68400 35.64500
H  40.23800 6.57000 34.27900
H  39.91700 11.65400 33.72400
H  41.26800 11.89500 34.60800
H  39.19900 10.13200 36.14300
H  38.84200 11.81300 35.76100
H  35.30200 6.19000 30.43000
H  36.56000 5.83500 31.65600
H  36.27900 4.90900 30.27500
H  34.85800 5.40900 26.53900
H  34.57000 6.50700 27.90600
H  35.42600 4.97900 28.24100
H  40.24300 8.91500 24.46400
H  43.08300 9.42200 24.53200
H  42.38900 6.91400 24.93300
H  42.09400 7.62400 23.38600
H  40.72700 6.68500 24.22800
H  42.30900 11.76800 25.28600
H  40.67600 11.24300 24.83200
H  42.48100 12.60100 23.22200
H  41.15300 11.56200 22.78400
H  42.84500 10.86400 22.91200
H  46.63900 11.97700 29.46300
H  45.65700 12.72700 28.21400
H  46.25600 11.03200 28.00000
H  43.18100 12.26300 33.54400
H  44.01000 9.11100 36.17100
H  44.30100 10.43900 37.18700
H  45.63500 9.95600 36.10800

