158

Mg 29.72000 57.26400 40.57000
C  27.15600 55.29500 39.47000
C  32.10400 54.97500 39.24200
C  32.43200 59.28300 41.41400
C  27.45700 59.83200 41.37000
N  29.58900 55.31000 39.53500
C  28.39500 54.81700 39.03700
C  28.71800 53.81900 37.92000
C  30.26200 53.57800 38.11100
C  30.71700 54.69800 39.04900
C  30.67700 52.25400 38.69200
C  28.28000 54.24300 36.45900
C  27.06600 53.54100 35.82200
H  26.28700 54.25400 34.78700
N  32.01300 57.08700 40.52700
C  32.73700 56.03300 39.91800
C  34.06900 56.37000 40.10000
C  34.21400 57.61900 40.67900
C  32.89700 58.05300 40.90600
C  35.19800 55.49000 39.63200
C  35.56700 58.33200 41.01900
O  36.62000 57.72000 40.90200
C  35.68400 59.85700 41.48900
N  29.90900 59.29800 41.25400
C  31.15300 59.88700 41.53200
C  30.99000 61.32100 42.02300
C  29.42600 61.46600 42.17500
C  28.84400 60.17100 41.54400
C  31.79400 61.63900 43.28400
C  28.85100 62.77500 41.58000
C  28.30400 63.95000 42.55500
N  27.72800 57.58100 40.51100
C  26.89100 58.57100 40.94500
C  25.50700 58.14000 40.91500
C  25.57100 56.90000 40.25400
C  26.88500 56.54700 40.03300
C  24.32300 59.00300 41.33500
C  24.80600 55.76800 39.71100
O  23.58000 55.61000 39.64900
C  25.79700 54.74200 39.13100
C  25.36300 53.51200 39.78300
O  25.80800 53.09000 40.84800
O  24.43700 52.86300 38.96900
C  23.88900 51.62300 39.52400
H  32.78500 54.21500 38.85200
H  33.23100 59.99400 41.63500
H  26.71800 60.54700 41.73800
H  28.11900 52.91600 38.04100
H  30.62300 53.56200 37.08300
H  30.81900 52.30700 39.77100
H  31.62800 51.96300 38.24500
H  29.88300 51.53700 38.48500
H  29.13600 54.08500 35.80300
H  28.01000 55.29400 36.35600
H  26.49100 53.18000 36.67500
H  27.38500 52.63300 35.31100
H  34.84100 54.47400 39.80100
H  36.13900 55.53000 40.18000
H  35.33600 55.70000 38.57100
H  35.27500 60.69100 40.91900
H  36.71700 60.11600 41.72000
H  35.25900 59.90700 42.49100
H  31.36600 61.91300 41.18900
H  29.24100 61.29100 43.23500
H  32.47900 60.82100 43.50800
H  31.17100 61.96600 44.11700
H  32.46100 62.47300 43.06800
H  27.99000 62.51700 40.96300
H  29.60100 63.16500 40.89200
H  27.22500 63.88400 42.69900
H  28.52000 64.91500 42.09700
H  28.87000 63.94500 43.48700
H  24.24900 59.93200 40.77000
H  24.29200 59.13900 42.41600
H  23.38700 58.51700 41.05900
H  25.65000 54.63600 38.05600
H  23.13100 51.93800 40.24100
H  24.58800 51.04600 40.12900
H  23.54200 50.93300 38.75500
Mg 8.62300 48.52600 25.32700
C  6.23400 49.11700 27.82100
C  11.07400 49.42700 27.59700
C  10.75000 48.01600 22.95800
C  5.93800 48.16700 23.04400
N  8.60000 49.21400 27.47300
C  7.52600 49.30400 28.31500
C  8.01000 49.59000 29.73900
C  9.44500 50.28800 29.44400
C  9.77000 49.53500 28.11700
C  9.39700 51.85500 29.08200
C  8.25300 48.34700 30.62500
C  8.51100 48.71400 32.09900
H  8.09800 47.72100 33.16900
N  10.65200 48.65500 25.32800
C  11.52900 49.04900 26.35800
C  12.89300 48.94400 25.86100
C  12.86000 48.44300 24.55200
C  11.40800 48.24500 24.23000
C  14.15400 49.38900 26.68500
C  13.95000 48.19900 23.40300
O  13.73800 47.96100 22.21600
C  15.32800 48.42600 23.83000
N  8.35600 48.14800 23.35300
C  9.45700 47.98900 22.56000
C  9.05800 47.69900 21.07900
C  7.51800 47.74400 21.17100
C  7.24100 48.03500 22.56900
C  9.65500 48.75400 20.07700
C  6.78800 46.52300 20.67100
C  5.66800 46.87300 19.61900
N  6.55900 48.71500 25.33900
C  5.57100 48.44500 24.37300
C  4.28000 48.47200 24.99300
C  4.51300 48.76700 26.28600
C  5.90300 48.83200 26.48200
C  2.80800 48.34500 24.37800
C  3.78500 48.97400 27.59000
O  2.57700 48.93300 27.92100
C  4.92900 49.34000 28.57000
C  4.73400 48.54100 29.80700
O  5.05200 47.45100 30.02200
O  4.11000 49.36300 30.71600
C  3.94500 48.80700 32.13500
H  11.83900 49.78700 28.28800
H  11.41000 47.70800 22.14500
H  5.23200 48.05300 22.21800
H  7.29200 50.26200 30.20800
H  10.27200 50.08000 30.12300
H  8.35700 52.16100 29.20200
H  9.64400 51.98100 28.02800
H  10.14700 52.42200 29.63300
H  8.94700 47.65900 30.14300
H  7.29300 47.83300 30.57900
H  8.16500 49.74100 32.21600
H  9.58900 48.87800 32.09100
H  13.96100 49.39200 27.75800
H  14.46300 50.36700 26.31800
H  15.04100 48.79200 26.47400
H  15.32700 49.37900 24.35800
H  16.01500 48.26200 23.00000
H  15.56500 47.61100 24.51300
H  9.46200 46.70000 20.91900
H  7.16800 48.63700 20.65300
H  10.44300 49.28500 20.61300
H  8.79300 49.38300 19.85800
H  10.01400 48.21100 19.20300
H  6.49200 45.95700 21.55400
H  7.51700 45.96600 20.08200
H  5.51800 45.96400 19.03700
H  5.98500 47.65300 18.92600
H  4.79300 47.23600 20.15900
H  2.59300 47.31600 24.09200
H  2.80500 48.96300 23.47900
H  2.07600 48.55000 25.16000
H  4.85100 50.38600 28.86800
H  2.90500 48.50300 32.25700
H  4.24200 49.58300 32.84100
H  4.56200 47.95400 32.41300

