158

Mg 7.57800 2.31000 27.50300
C  9.15900 1.28100 30.49800
C  5.66900 4.50900 29.28000
C  6.00800 3.17100 24.64600
C  9.15000 -0.32700 25.88500
N  7.46700 2.89700 29.65600
C  8.18300 2.29800 30.71400
C  7.73900 2.92300 32.06200
C  6.53600 3.88300 31.66800
C  6.50900 3.69800 30.11400
C  5.13100 3.58600 32.20300
C  8.96100 3.55600 32.87500
C  9.29900 2.92800 34.19800
H  9.85100 3.85700 35.27000
N  6.14100 3.71200 26.99000
C  5.57700 4.58300 27.88300
C  4.71400 5.53000 27.16900
C  4.82200 5.13000 25.79600
C  5.66400 3.98100 25.74300
C  4.07200 6.74700 27.76700
C  4.23400 5.76600 24.58700
O  4.48100 5.31600 23.47400
C  3.45200 7.05200 24.70000
N  7.59200 1.50200 25.59400
C  6.80600 2.01400 24.63100
C  6.88600 1.13200 23.35700
C  7.87400 0.03600 23.81000
C  8.25200 0.45800 25.17300
C  5.49400 0.65200 22.81800
C  9.14200 0.03900 22.77500
C  9.28000 -1.35300 22.17400
N  8.93300 0.80900 28.05100
C  9.45100 -0.22200 27.25200
C  10.43800 -0.99300 28.04600
C  10.37800 -0.41000 29.29100
C  9.38100 0.59700 29.30500
C  11.33000 -2.06700 27.55000
C  10.91200 -0.52100 30.62200
O  11.75300 -1.25700 31.10700
C  10.19100 0.65400 31.48600
C  9.62000 0.05000 32.72100
O  8.44800 -0.29200 32.82900
O  10.54900 -0.14000 33.78000
C  10.05600 -0.62800 35.07600
H  4.99900 5.21200 29.77900
H  5.58300 3.25100 23.64300
H  9.57800 -1.11000 25.25500
H  7.33000 2.03500 32.54300
H  6.62500 4.95400 31.85000
H  4.36000 3.93900 31.51800
H  4.99200 4.19300 33.09800
H  5.00700 2.51500 32.36200
H  8.75500 4.61700 33.01800
H  9.76900 3.58200 32.14400
H  10.12400 2.26300 33.94300
H  8.41200 2.40600 34.55900
H  2.99200 6.61100 27.73600
H  4.40500 7.70900 27.37700
H  4.23100 6.80200 28.84500
H  3.05500 7.31100 23.71800
H  4.16900 7.74400 25.14100
H  2.56900 6.98100 25.33500
H  7.30900 1.79900 22.60600
H  7.29200 -0.88600 23.82600
H  4.70500 0.94800 23.51000
H  5.43500 -0.43500 22.77100
H  5.34300 1.07400 21.82500
H  10.01300 0.46900 23.26800
H  8.95600 0.69200 21.92300
H  10.29700 -1.52500 21.82100
H  8.53700 -1.34300 21.37700
H  8.93500 -2.00900 22.97400
H  10.83400 -2.88100 28.07800
H  12.34000 -1.97000 27.94800
H  11.19900 -2.34800 26.50500
H  10.81700 1.44300 31.90200
H  9.42000 0.10300 35.57500
H  10.81700 -1.05500 35.73000
H  9.33600 -1.43900 34.96500
Mg 44.58000 4.21600 45.80900
C  43.14800 7.30900 45.82900
C  41.42100 2.78800 45.32000
C  46.07400 1.30900 44.91700
C  47.69000 5.76000 45.85100
N  42.46700 5.01200 45.71900
C  42.12800 6.33500 45.66500
C  40.60500 6.52900 45.57000
C  40.14000 5.05900 45.47300
C  41.38900 4.18500 45.55300
C  39.06100 4.67700 46.57000
C  40.18300 7.36200 44.26200
C  41.06700 7.43100 42.94200
H  40.42600 7.98100 41.65800
N  43.86100 2.28400 45.19500
C  42.52600 1.96300 45.06000
C  42.52700 0.52800 44.68700
C  43.80200 0.08400 44.58700
C  44.65800 1.21500 44.92000
C  41.26400 -0.28100 44.35800
C  44.23200 -1.30800 44.19800
O  43.42700 -2.19400 43.92600
C  45.64100 -1.75900 43.92800
N  46.60100 3.63200 45.45200
C  46.95900 2.34000 45.25800
C  48.48500 2.16800 45.43900
C  49.02900 3.65400 45.52000
C  47.70000 4.37800 45.54800
C  48.85900 1.21700 46.61100
C  50.09500 4.14800 44.53000
C  51.42900 4.62300 45.09800
N  45.27700 6.08900 45.84100
C  46.55800 6.58900 45.88300
C  46.52100 8.00800 45.94500
C  45.20800 8.34400 45.96000
C  44.49700 7.13700 45.87900
C  47.69100 8.88700 46.12700
C  44.32500 9.38000 46.20000
O  44.53100 10.58600 46.38700
C  42.89900 8.79600 45.98700
C  42.06800 9.13500 47.17700
O  42.12000 8.53900 48.23700
O  41.25100 10.20900 46.83000
C  40.46900 10.58200 47.97900
H  40.49800 2.21800 45.19400
H  46.54300 0.34100 44.73300
H  48.69500 6.18500 45.88900
H  40.23100 6.94000 46.50700
H  39.76700 4.80000 44.48200
H  38.84200 5.55400 47.17900
H  39.56500 3.92800 47.18200
H  38.15400 4.37100 46.04900
H  40.12900 8.40400 44.57600
H  39.13800 7.06800 44.15900
H  41.50500 6.44600 42.78400
H  41.92800 8.04900 43.19500
H  41.26900 -0.59600 43.31400
H  40.33000 0.17200 44.68900
H  41.28600 -1.27200 44.81200
H  45.72600 -2.80300 43.62800
H  46.17800 -1.62000 44.86700
H  46.01700 -1.09800 43.14800
H  48.93400 1.72000 44.55200
H  49.47400 3.72900 46.51200
H  48.05100 0.94300 47.29000
H  49.63800 1.73600 47.16800
H  49.27100 0.37400 46.05600
H  49.75500 4.98900 43.92600
H  50.38000 3.41300 43.77700
H  52.22600 4.11500 44.55500
H  51.65300 4.49700 46.15700
H  51.52300 5.67700 44.83500
H  48.54100 8.43000 46.63300
H  47.39800 9.80300 46.64100
H  48.04300 9.21800 45.15000
H  42.33700 9.24900 45.17100
H  39.81300 11.37700 47.62600
H  41.08200 10.83900 48.84300
H  39.94200 9.69600 48.33400

