158

Mg 53.63000 23.67900 44.33900
C  51.25900 26.25300 43.86200
C  51.51600 21.49600 42.71600
C  56.16300 21.40100 44.39700
C  55.86000 26.24500 45.40800
N  51.70500 23.91700 43.26200
C  50.92500 25.06000 43.21800
C  49.70700 24.87500 42.30900
C  49.51700 23.29300 42.54600
C  50.97100 22.84200 42.84400
C  48.60400 22.97900 43.73500
C  50.01900 25.23800 40.78200
C  51.42700 25.39200 40.28600
H  51.74900 26.14100 39.02200
N  53.74400 21.65500 43.72400
C  52.74800 20.94900 43.17100
C  53.15100 19.55600 43.07400
C  54.50600 19.47300 43.46600
C  54.86800 20.85000 43.94000
C  52.25200 18.50400 42.58700
C  55.30700 18.18200 43.51400
O  54.82800 17.15800 43.06200
C  56.66500 18.02700 44.02200
N  55.75500 23.83200 44.58600
C  56.54600 22.74200 44.72300
C  57.98100 23.08400 45.14500
C  57.83200 24.63400 45.45400
C  56.37300 24.95300 45.10200
C  58.49700 22.28900 46.31100
C  58.77000 25.46000 44.60500
C  59.19500 26.86700 45.03700
N  53.66900 25.88000 44.54000
C  54.56000 26.71400 45.05900
C  53.98700 28.07100 45.16200
C  52.65200 27.94600 44.73600
C  52.53400 26.59200 44.33700
C  54.62300 29.37600 45.70600
C  51.40500 28.64500 44.55900
O  51.09100 29.79200 44.89100
C  50.46100 27.59100 43.92700
C  50.07600 28.20800 42.55500
O  50.82500 28.33900 41.59000
O  48.75900 28.46500 42.58900
C  48.03300 28.56200 41.35900
H  50.67500 20.89400 42.36600
H  56.99700 20.69900 44.33300
H  56.45600 26.97500 45.96000
H  48.87500 25.44700 42.72100
H  49.24400 22.85600 41.58500
H  48.17200 23.91400 44.09000
H  49.38000 22.82100 44.48400
H  48.01700 22.12100 43.40700
H  49.40900 26.09500 40.49600
H  49.60600 24.49100 40.10400
H  51.71500 24.34100 40.25300
H  52.08500 25.74400 41.08100
H  52.84200 17.79000 42.01100
H  51.48900 18.90900 41.92300
H  51.85400 17.99200 43.46300
H  57.03000 17.04200 44.31300
H  56.51500 18.47500 45.00400
H  57.39800 18.41800 43.31600
H  58.57500 22.91700 44.24700
H  57.94100 24.80700 46.52400
H  59.50600 21.92600 46.11300
H  57.88400 21.39200 46.21900
H  58.42600 22.74500 47.29800
H  58.36100 25.66800 43.61600
H  59.63800 24.82900 44.41500
H  58.92000 27.57800 44.25800
H  60.27400 27.02300 45.03600
H  58.90300 27.10400 46.06000
H  55.65500 29.23700 45.38500
H  54.58600 29.28800 46.79200
H  54.02300 30.17000 45.26200
H  49.65800 27.52100 44.66100
H  48.42700 28.03400 40.49100
H  47.86800 29.59700 41.06000
H  47.06400 28.13000 41.60600
Mg 47.35400 24.99100 29.18800
C  48.21100 27.43300 31.41200
C  46.61000 22.90200 31.76800
C  46.70100 22.56300 26.87300
C  49.01700 26.76800 26.68000
N  47.41200 25.19200 31.34200
C  47.59800 26.36300 32.01700
C  47.27800 26.08600 33.51700
C  47.18500 24.54500 33.69000
C  47.01900 24.19100 32.15500
C  48.41300 23.80800 34.27000
C  45.98400 26.86600 34.05500
C  46.06800 27.64800 35.39700
H  46.12900 26.74400 36.63700
N  46.48600 23.16000 29.27000
C  46.22200 22.44000 30.40100
C  45.58600 21.16300 30.04000
C  45.53400 21.09000 28.60400
C  46.24200 22.29200 28.19800
C  45.01500 20.17100 30.96500
C  44.99900 19.98400 27.63100
O  44.85100 20.22300 26.43600
C  44.44200 18.61600 28.07700
N  47.75200 24.68300 27.06500
C  47.39700 23.64900 26.31400
C  47.84400 23.76400 24.84100
C  48.45000 25.19600 24.77700
C  48.49100 25.54600 26.27300
C  48.78300 22.66300 24.30200
C  47.60300 26.16800 23.91500
C  48.33100 27.03700 22.88200
N  48.49700 26.71700 29.01500
C  48.97900 27.45200 27.93600
C  49.51700 28.77000 28.41700
C  49.18600 28.75200 29.78500
C  48.66200 27.47600 30.06800
C  50.15300 29.80100 27.58600
C  49.26000 29.58300 30.97100
O  49.71000 30.70500 31.08400
C  48.78000 28.71700 32.06600
C  49.95000 28.43800 32.90300
O  51.07500 28.06300 32.48400
O  49.65500 28.64500 34.27300
C  50.64300 28.25300 35.31500
H  46.32600 22.22900 32.57900
H  46.45800 21.75600 26.17900
H  49.49200 27.30400 25.85500
H  48.17800 26.51600 33.95700
H  46.29100 24.34300 34.27900
H  48.04000 23.22700 35.11300
H  49.18600 24.47700 34.64900
H  48.79200 23.22400 33.43100
H  45.20700 26.10600 33.97300
H  45.75500 27.52700 33.21900
H  45.21400 28.32200 35.46900
H  46.91400 28.32800 35.29700
H  45.23100 19.16600 30.60200
H  43.93900 20.33800 30.99800
H  45.26500 20.38700 32.00400
H  43.59700 18.82400 28.73300
H  45.25200 18.08100 28.57200
H  44.13000 17.98600 27.24400
H  46.92700 23.76100 24.25100
H  49.45000 25.10700 24.35100
H  48.96600 22.73600 23.23000
H  48.44200 21.64300 24.48000
H  49.63700 22.77400 24.96900
H  47.04400 26.81600 24.59000
H  46.83200 25.78400 23.24700
H  47.70600 27.06500 21.99000
H  49.37800 26.78500 22.71400
H  48.43600 28.03300 23.31400
H  49.44900 30.33800 26.95000
H  50.84300 29.24200 26.95400
H  50.76700 30.46400 28.19600
H  48.10300 29.31900 32.67100
H  50.47200 28.96600 36.12100
H  51.64700 28.37900 34.91000
H  50.52500 27.21300 35.61900

