158

Mg 55.56600 24.69600 44.12800
C  52.92500 26.96800 43.13100
C  53.82700 22.27900 42.75900
C  58.27300 22.88400 44.46100
C  57.13500 27.49200 45.44900
N  53.76300 24.75600 42.77200
C  52.75900 25.71200 42.62800
C  51.42600 25.09300 42.13100
C  51.67300 23.60500 42.59300
C  53.19200 23.51700 42.67200
C  50.94000 23.13900 43.93500
C  51.11900 25.29800 40.63400
C  52.20100 25.71100 39.56000
H  51.77600 26.13600 38.19400
N  55.94300 22.81300 43.70100
C  55.13300 21.92100 43.09600
C  55.73300 20.62200 42.97100
C  57.02800 20.71200 43.54200
C  57.13100 22.18200 43.94300
C  55.08100 19.43600 42.29500
C  58.00000 19.65400 43.66400
O  57.75300 18.64100 43.04400
C  59.15100 19.79000 44.59800
N  57.44500 25.18000 44.78200
C  58.42200 24.21500 44.77800
C  59.76300 24.77800 45.23100
C  59.38000 26.25600 45.74100
C  57.93800 26.39300 45.30100
C  60.66700 23.94500 46.22100
C  60.32900 27.27600 45.12200
C  60.67800 28.60200 45.92500
N  55.14700 26.77500 44.30000
C  55.91600 27.74500 44.91800
C  55.17900 28.94800 44.85800
C  54.04300 28.70800 44.08900
C  54.05700 27.32600 43.83100
C  55.62400 30.22700 45.50900
C  52.84200 29.32000 43.56300
O  52.48400 30.49800 43.43400
C  51.94400 28.13500 43.24700
C  51.16500 28.37400 42.03300
O  51.45200 28.93200 40.97300
O  49.85800 28.02300 42.32000
C  48.94400 28.39500 41.23200
H  53.17700 21.48500 42.38500
H  59.20400 22.32800 44.59800
H  57.56900 28.38200 45.90900
H  50.58000 25.41300 42.73900
H  51.33200 22.89700 41.83700
H  51.52600 23.33600 44.83300
H  50.77600 22.06400 43.87100
H  49.87800 23.38400 43.94400
H  50.16500 25.80800 40.50300
H  50.69000 24.35400 40.29600
H  52.76100 24.77600 39.52100
H  52.95300 26.43200 39.88100
H  55.63900 19.15300 41.40200
H  54.09100 19.66500 41.90300
H  54.96600 18.71000 43.10000
H  58.74000 20.23600 45.50400
H  59.89500 20.45000 44.15100
H  59.45500 18.81600 44.98000
H  60.39900 24.80000 44.34600
H  59.41100 26.30700 46.83000
H  60.29500 22.92100 46.18600
H  60.50500 24.42300 47.18800
H  61.74500 23.94800 46.06400
H  59.92300 27.66500 44.18800
H  61.33300 26.94300 44.85900
H  60.75300 28.25100 46.95400
H  59.98000 29.39900 45.66600
H  61.67900 28.90600 45.61900
H  55.30200 30.15400 46.54800
H  55.23900 31.15200 45.07900
H  56.71200 30.21900 45.44800
H  51.30500 28.01300 44.12200
H  47.96600 28.04700 41.56300
H  49.16100 27.84800 40.31400
H  48.99800 29.48300 41.26900
Mg 26.86100 49.50200 27.39800
C  24.86700 50.96800 29.92500
C  29.25200 48.80800 29.77800
C  28.79100 48.46300 24.91200
C  24.54200 50.74700 25.05900
N  26.97000 49.76900 29.56600
C  26.04700 50.35000 30.40900
C  26.55900 50.31400 31.89000
C  27.99600 49.79400 31.78800
C  28.08700 49.46700 30.26800
C  29.16500 50.72800 32.28500
C  25.62100 49.45100 32.90300
C  25.07000 50.32500 34.11200
H  24.99700 49.59300 35.43300
N  28.76000 48.61100 27.35300
C  29.50500 48.35000 28.44500
C  30.66900 47.62900 27.99300
C  30.65800 47.62800 26.60400
C  29.36400 48.23200 26.22900
C  31.66800 46.98100 28.91500
C  31.63800 47.15900 25.54400
O  31.48600 47.27700 24.32700
C  32.95900 46.70800 26.00100
N  26.80500 49.86000 25.24400
C  27.66900 49.24200 24.48600
C  27.27700 49.32200 23.03800
C  25.82300 49.94400 22.97700
C  25.64200 50.12200 24.52300
C  28.31800 49.92700 22.02500
C  24.73100 49.08600 22.24500
C  24.17600 47.82300 23.01700
N  25.13300 50.72200 27.40200
C  24.31700 51.14000 26.40300
C  23.19200 51.93000 26.93000
C  23.34000 51.88600 28.31600
C  24.55600 51.16700 28.57100
C  22.07000 52.66300 26.21400
C  22.73500 52.21600 29.55900
O  21.75900 52.87200 29.88200
C  23.63800 51.58500 30.66100
C  23.97200 52.61200 31.60700
O  24.93400 53.35600 31.61400
O  23.04300 52.56400 32.60800
C  23.31300 53.34600 33.79300
H  30.02300 48.55500 30.50900
H  29.37300 47.96700 24.13300
H  23.66500 51.06400 24.49200
H  26.58700 51.37600 32.13200
H  28.23100 48.90800 32.37900
H  29.60700 51.22000 31.41900
H  29.91200 50.07000 32.72900
H  28.94300 51.46900 33.05200
H  26.07800 48.57600 33.36500
H  24.79400 49.02500 32.33500
H  24.07900 50.65000 33.79600
H  25.63500 51.24200 34.28300
H  31.29800 47.05700 29.93700
H  32.70600 47.28800 28.78200
H  31.61200 45.90600 28.74500
H  33.28900 47.53000 26.63600
H  33.63100 46.59200 25.15100
H  32.88100 45.80500 26.60600
H  27.16400 48.31200 22.64500
H  25.73500 50.93600 22.53500
H  29.02200 50.56100 22.56400
H  27.90700 50.54600 21.22800
H  28.86000 49.11800 21.53600
H  25.11600 48.65700 21.32000
H  23.80400 49.63200 22.07100
H  23.33500 48.09400 23.65500
H  25.05300 47.54700 23.60200
H  23.92200 47.06500 22.27600
H  21.95600 52.07600 25.30200
H  22.37500 53.65900 25.89300
H  21.20400 52.54100 26.86400
H  23.13800 50.78900 31.21300
H  24.37400 53.43700 34.02700
H  22.75300 52.84600 34.58300
H  22.89400 54.35000 33.72300

