158

Mg 54.63200 22.05400 45.13500
C  52.80200 24.85600 43.90500
C  52.29900 20.04900 43.93700
C  56.83300 19.51000 45.76900
C  57.38100 24.36000 45.68800
N  52.84500 22.42800 43.73900
C  52.21100 23.62200 43.49800
C  50.76600 23.41100 42.98000
C  50.61900 21.91500 43.33100
C  52.00500 21.43700 43.73200
C  49.59900 21.57700 44.46900
C  50.45200 23.69800 41.47800
C  48.93300 24.07300 41.34200
H  48.40300 23.97100 39.89800
N  54.60700 19.98600 44.93000
C  53.47100 19.34000 44.45600
C  53.68200 17.91500 44.56200
C  54.98800 17.71100 45.08000
C  55.53600 19.08600 45.30600
C  52.62100 16.90100 44.09800
C  55.64700 16.43700 45.38000
O  55.13100 15.37300 45.02100
C  56.90200 16.28600 46.15400
N  56.87000 21.95200 45.53900
C  57.41700 20.79700 45.91200
C  58.89400 21.04600 46.34600
C  59.10000 22.56400 46.13400
C  57.69600 23.03900 45.67800
C  59.31000 20.48700 47.76600
C  60.23200 22.93400 45.07100
C  61.70700 22.88000 45.55900
N  55.05200 24.09800 44.99000
C  56.12900 24.92800 45.28200
C  55.73400 26.31500 45.27200
C  54.48500 26.27100 44.73300
C  54.10700 24.96700 44.50300
C  56.45100 27.47400 45.71800
C  53.40400 27.14900 44.26600
O  53.33800 28.39500 44.21800
C  52.23000 26.24200 43.83400
C  51.86000 26.54800 42.45600
O  52.58300 26.32900 41.53500
O  50.62600 27.08700 42.37700
C  50.37700 27.63900 41.03200
H  51.37100 19.48400 43.82100
H  57.50100 18.74000 46.16000
H  58.12200 25.10700 45.97900
H  50.08900 23.94200 43.64900
H  50.30800 21.43100 42.40500
H  49.61200 22.42000 45.16000
H  49.91600 20.67400 44.99200
H  48.62900 21.32700 44.04000
H  50.69400 22.83400 40.85900
H  51.02700 24.55500 41.12500
H  48.84800 25.03900 41.84000
H  48.31900 23.38500 41.92300
H  52.89300 16.66700 43.06800
H  51.64300 17.37300 44.19300
H  52.51400 15.99900 44.70000
H  57.70800 16.56600 45.47600
H  57.14600 15.25400 46.40300
H  56.99800 16.84800 47.08300
H  59.42500 20.56500 45.52500
H  59.40300 23.10900 47.02900
H  59.61200 21.24800 48.48600
H  60.14100 19.78400 47.70100
H  58.43400 20.00500 48.20000
H  59.92700 23.90100 44.67000
H  60.05500 22.27700 44.21900
H  62.16900 23.74300 45.07900
H  62.18100 21.97800 45.17400
H  61.76900 22.85700 46.64700
H  57.32900 27.58300 45.08100
H  56.79900 27.22000 46.71900
H  55.89700 28.40300 45.84800
H  51.31500 26.47100 44.37900
H  49.58400 28.38400 41.10300
H  50.22400 26.92300 40.22500
H  51.25700 28.16400 40.66100
Mg 47.27000 24.23300 28.34100
C  48.23200 26.53200 30.69400
C  46.34200 22.08400 30.99000
C  47.11500 21.68900 26.20100
C  48.51600 26.31000 25.83900
N  47.46200 24.18700 30.53500
C  47.67900 25.35100 31.24100
C  47.37800 25.24900 32.71200
C  46.96100 23.70000 32.88100
C  46.81700 23.34900 31.41300
C  47.99700 22.75800 33.59600
C  46.20700 26.20900 33.12500
C  46.36500 26.71600 34.68700
H  45.23200 26.52000 35.66500
N  46.65600 22.25500 28.54500
C  46.26300 21.62400 29.67100
C  45.89300 20.26700 29.29500
C  46.05200 20.12900 27.84200
C  46.63000 21.40500 27.48300
C  45.47300 19.12200 30.38300
C  45.82500 18.85100 27.05100
O  46.00200 18.81500 25.84000
C  45.21000 17.60000 27.77900
N  48.02700 23.96500 26.36200
C  47.77800 22.81300 25.65000
C  47.89400 23.06300 24.13200
C  48.15900 24.59100 23.97400
C  48.34100 25.00000 25.45700
C  48.89900 22.07400 23.51200
C  47.17100 25.32400 23.15100
C  45.88100 25.72200 23.78100
N  48.23400 26.06200 28.24900
C  48.65300 26.81800 27.17600
C  49.04200 28.16000 27.63000
C  48.85300 28.13000 29.04400
C  48.44200 26.81600 29.32800
C  49.67800 29.26400 26.85200
C  48.92600 28.93500 30.27400
O  49.12800 30.17000 30.45800
C  48.64100 27.82700 31.38600
C  49.82700 27.69100 32.23500
O  50.91300 27.29100 31.88100
O  49.45700 27.99500 33.50900
C  50.46000 27.68100 34.53100
H  45.91000 21.53100 31.82700
H  46.93600 20.97200 25.39700
H  48.65400 27.09900 25.09700
H  48.28200 25.49700 33.26800
H  45.94000 23.51600 33.21400
H  48.60200 23.38600 34.25000
H  48.71400 22.23500 32.96400
H  47.49500 21.95600 34.13700
H  45.22500 25.75700 32.99000
H  46.04200 27.10400 32.52500
H  46.45200 27.80200 34.65600
H  47.32000 26.28600 34.99100
H  44.53100 18.81400 29.92900
H  45.16500 19.58100 31.32300
H  46.23300 18.36200 30.56500
H  45.07600 16.79700 27.05500
H  44.23500 17.84200 28.20400
H  45.76800 17.06400 28.54600
H  46.87300 22.87000 23.80300
H  49.20100 24.71500 23.68000
H  49.33500 21.41300 24.26100
H  49.60300 22.64700 22.91000
H  48.51100 21.41300 22.73700
H  46.93900 24.71400 22.27800
H  47.72900 26.23300 22.92500
H  45.22700 25.28600 23.02600
H  45.80500 26.80400 23.89500
H  45.72900 25.33200 24.78800
H  50.18500 28.76700 26.02400
H  50.35300 29.72000 27.57600
H  48.99000 30.02700 26.48800
H  47.79600 28.32700 31.85900
H  49.87600 27.34200 35.38600
H  50.92600 28.62200 34.82200
H  51.19700 26.95800 34.17800

