158

Mg 1.95500 41.35900 26.42900
C  3.80100 41.98900 29.20200
C  -0.84200 40.53900 28.20200
C  0.50500 40.30000 23.54500
C  4.84700 42.20500 24.48500
N  1.50400 41.29100 28.49000
C  2.40300 41.64100 29.51500
C  1.71500 41.62700 30.87200
C  0.24700 41.19800 30.51800
C  0.26900 41.04700 28.98800
C  -0.20400 39.81000 31.12300
C  1.77600 43.03000 31.60100
C  2.24300 43.19600 33.07300
H  1.91000 41.97200 33.94800
N  0.13200 40.41700 26.01500
C  -0.92400 40.21200 26.86600
C  -2.02000 39.54900 26.20400
C  -1.56700 39.45500 24.79400
C  -0.24500 39.99800 24.73000
C  -3.35000 39.00900 26.86300
C  -2.30100 38.86600 23.54600
O  -1.84200 38.83000 22.41400
C  -3.73400 38.35200 23.79600
N  2.59200 41.31700 24.24200
C  1.74100 40.88300 23.29300
C  2.39500 40.95400 21.88900
C  3.80600 41.66700 22.15500
C  3.73300 41.75600 23.73600
C  2.58000 39.54800 21.14800
C  3.97300 43.00700 21.35000
C  4.11500 44.43500 22.12600
N  3.87900 42.02100 26.68200
C  4.91500 42.31400 25.84300
C  6.04400 42.77100 26.60500
C  5.66400 42.63200 27.96300
C  4.35700 42.13200 27.93200
C  7.37900 43.34000 26.09700
C  6.00900 42.79100 29.31000
O  7.04500 43.18500 29.85700
C  4.91500 42.23000 30.17400
C  5.45500 40.89500 30.78000
O  6.02000 39.99200 30.13800
O  5.15200 40.74700 32.06600
C  5.40800 39.51000 32.73200
H  -1.81900 40.32200 28.64000
H  0.06000 39.92500 22.62100
H  5.64900 42.56000 23.83400
H  2.27100 40.85000 31.39700
H  -0.52400 41.88200 30.87200
H  0.54300 39.49600 31.85100
H  -0.27400 39.01100 30.38600
H  -1.15400 39.88400 31.65300
H  0.75100 43.39500 31.65500
H  2.48200 43.72300 31.14400
H  1.94600 44.16900 33.46300
H  3.33200 43.18000 33.04100
H  -4.17400 39.70800 26.71900
H  -3.08300 38.87800 27.91100
H  -3.67700 38.05000 26.46100
H  -4.42100 39.05300 24.27000
H  -3.70300 37.44300 24.39700
H  -4.05800 38.11900 22.78200
H  1.78600 41.52300 21.18700
H  4.53300 40.99100 21.70500
H  1.99400 38.76500 21.63000
H  3.55000 39.19900 20.79600
H  1.88600 39.66500 20.31600
H  3.09800 43.10200 20.70800
H  4.82600 42.88900 20.68200
H  3.33600 45.13100 21.81600
H  5.04200 44.90600 21.79900
H  3.84300 44.46900 23.18100
H  8.13000 42.63500 25.74200
H  7.86600 44.03400 26.78200
H  7.12200 44.04500 25.30600
H  4.64000 42.91200 30.97800
H  4.93000 39.64100 33.70300
H  6.44800 39.24300 32.92400
H  4.89600 38.67600 32.25300
Mg -0.97400 33.73500 26.94000
C  -2.89500 32.09200 29.10400
C  0.21700 35.82500 29.51800
C  0.82400 35.43200 24.68400
C  -2.75800 32.32200 24.21200
N  -1.43500 34.04300 28.99700
C  -2.09100 33.02600 29.73200
C  -1.99500 33.29600 31.23000
C  -1.46900 34.80200 31.15600
C  -0.82700 34.91700 29.80800
C  -2.58200 35.85400 31.36500
C  -1.10500 32.23800 31.98100
C  -0.76100 32.57000 33.40000
H  -1.24300 31.46200 34.45100
N  0.53900 35.19000 27.09300
C  0.86600 35.92100 28.22400
C  1.94000 36.79500 27.91300
C  2.01900 36.82000 26.53900
C  1.11300 35.77700 26.05500
C  2.55500 37.71400 28.95400
C  2.77000 37.74400 25.51500
O  2.40700 37.84800 24.33500
C  3.85000 38.62900 25.97000
N  -0.98600 34.00600 24.73400
C  -0.07700 34.64900 24.01600
C  -0.27100 34.43900 22.50400
C  -1.20800 33.14700 22.45400
C  -1.74600 33.18900 23.86500
C  -0.59000 35.72200 21.65900
C  -0.55100 31.78800 22.02700
C  0.55000 31.33400 22.93700
N  -2.53600 32.59600 26.67800
C  -3.12900 31.99600 25.56000
C  -4.05800 31.03700 25.97500
C  -4.04300 31.06100 27.38500
C  -3.10000 31.99200 27.72100
C  -4.85800 30.25400 25.10600
C  -4.62000 30.44700 28.56800
O  -5.43900 29.56900 28.70700
C  -3.80100 31.08900 29.77500
C  -4.80500 31.81200 30.55100
O  -5.37900 32.89400 30.14500
O  -5.04600 31.26400 31.75400
C  -6.03600 31.85500 32.65200
H  0.53500 36.49300 30.32100
H  1.52400 35.85100 23.95800
H  -3.18000 31.79800 23.35200
H  -2.99600 33.39400 31.65000
H  -0.74400 35.05600 31.93000
H  -2.76700 36.08500 32.41400
H  -3.50900 35.46600 30.94300
H  -2.22200 36.76300 30.88300
H  -0.17700 32.09400 31.42700
H  -1.63200 31.28600 31.92000
H  -1.15200 33.51700 33.77300
H  0.32800 32.62600 33.37300
H  2.58900 37.20700 29.91900
H  1.96400 38.63000 28.98100
H  3.58600 37.81600 28.61600
H  4.51000 38.97300 25.17300
H  4.41200 38.25500 26.82500
H  3.20800 39.46900 26.23600
H  0.69500 34.14100 22.09800
H  -1.96400 33.38700 21.70600
H  -1.17400 35.45600 20.77900
H  0.35700 36.03200 21.21700
H  -1.14700 36.36400 22.34200
H  -0.04000 31.97100 21.08200
H  -1.33900 31.05000 21.87500
H  0.55200 31.82500 23.91000
H  1.53200 31.52400 22.50300
H  0.53600 30.25400 23.08500
H  -4.89900 29.25200 25.53300
H  -4.38200 30.14400 24.13200
H  -5.88700 30.58000 24.95200
H  -3.32900 30.26800 30.31500
H  -5.63200 32.59800 33.33900
H  -6.56900 31.07500 33.19400
H  -6.76200 32.50100 32.15700

