158

Mg 9.03100 2.68800 27.62900
C  9.97800 1.05300 30.61500
C  7.47800 5.02100 29.41200
C  7.70000 3.87500 24.65000
C  10.52000 0.04300 25.72500
N  8.80100 3.05300 29.73300
C  9.26600 2.24900 30.83300
C  8.94500 2.98100 32.18800
C  8.02000 4.22400 31.82200
C  8.08700 4.08700 30.22000
C  6.63900 4.11800 32.48100
C  10.22100 3.35800 32.91800
C  10.07000 4.02000 34.37700
H  11.01700 3.59800 35.49200
N  7.92500 4.33100 27.11200
C  7.30700 5.13400 27.99300
C  6.53400 6.15300 27.28500
C  6.51900 5.78600 25.90300
C  7.43800 4.63200 25.83800
C  5.87400 7.41700 27.95200
C  5.83200 6.50700 24.71700
O  6.04100 6.07400 23.56700
C  4.94400 7.69300 24.98200
N  9.09400 2.01300 25.54200
C  8.45400 2.67500 24.54200
C  8.64200 1.93300 23.16600
C  9.74300 0.85700 23.47900
C  9.78400 0.94200 25.05000
C  7.27000 1.36400 22.45600
C  11.08900 0.92500 22.69600
C  11.17200 0.14000 21.38800
N  9.94200 0.85700 27.99100
C  10.56700 -0.03900 27.15000
C  11.14800 -1.11200 27.93200
C  10.96700 -0.72200 29.29500
C  10.20500 0.47100 29.27000
C  12.00900 -2.27600 27.40100
C  11.25800 -1.07500 30.71400
O  11.91100 -2.03700 31.13800
C  10.68300 0.15600 31.59500
C  9.80500 -0.42600 32.58400
O  8.86900 -1.17400 32.38500
O  10.35900 -0.17700 33.85600
C  9.68300 -0.96300 34.89600
H  6.95600 5.76600 30.01700
H  7.30600 4.17700 23.67800
H  10.95800 -0.77000 25.14200
H  8.40300 2.19000 32.70600
H  8.47400 5.12900 32.22500
H  5.88300 3.90200 31.72500
H  6.40000 5.04000 33.01100
H  6.53600 3.20100 33.06100
H  10.69500 4.18000 32.38100
H  10.90300 2.50800 32.90800
H  9.01700 4.19200 34.60100
H  10.36500 5.06100 34.24500
H  6.08100 7.55300 29.01400
H  4.82000 7.18800 27.79300
H  6.19200 8.31400 27.42100
H  4.05000 7.31300 25.47600
H  4.55100 7.91700 23.99100
H  5.40300 8.58400 25.41000
H  9.01800 2.66300 22.45000
H  9.21300 -0.06900 23.25300
H  7.39400 0.30700 22.22300
H  7.07400 1.98200 21.58000
H  6.50400 1.51700 23.21700
H  11.94200 0.57200 23.27600
H  11.31500 1.97600 22.51500
H  10.89400 0.76100 20.53600
H  10.45500 -0.67600 21.47800
H  12.15400 -0.28000 21.17200
H  12.84600 -1.88200 26.82500
H  11.60900 -3.10300 26.81500
H  12.30300 -2.82000 28.29900
H  11.49300 0.67900 32.10400
H  9.72300 -0.50800 35.88600
H  10.10100 -1.96900 34.93800
H  8.61600 -1.02500 34.68600
Mg 40.32600 7.36900 29.43500
C  41.95700 9.33000 31.89300
C  38.15400 6.20700 31.73100
C  38.79300 5.93100 26.86900
C  42.96100 8.30500 27.22100
N  40.07000 7.80300 31.55700
C  40.91800 8.54600 32.42900
C  40.42900 8.50100 33.91400
C  39.29700 7.38200 33.84200
C  39.14500 7.09200 32.27300
C  39.67800 6.14000 34.64100
C  39.97300 9.86800 34.53500
C  39.07700 9.78300 35.84300
H  39.45300 10.75100 36.98700
N  38.71300 6.23300 29.25800
C  37.89200 5.91100 30.33400
C  36.78700 5.15800 29.89000
C  36.91500 5.09000 28.46500
C  38.19200 5.71400 28.12700
C  35.62200 4.65300 30.74700
C  35.96300 4.52400 27.47400
O  36.25500 4.39900 26.29800
C  34.57700 4.04200 27.88900
N  40.95700 6.98300 27.36300
C  40.02400 6.51900 26.49900
C  40.53800 6.45700 25.04600
C  41.92700 7.07300 25.12000
C  41.97800 7.53700 26.63600
C  40.45900 4.99400 24.45500
C  42.28700 8.29200 24.14900
C  41.45400 9.62200 24.43200
N  42.09200 8.50300 29.50100
C  43.06800 8.77500 28.51500
C  43.98800 9.77100 29.01800
C  43.58300 9.97700 30.30100
C  42.43400 9.22300 30.55200
C  45.04000 10.42400 28.17000
C  43.88600 10.78000 31.47900
O  44.80400 11.57700 31.63100
C  42.91700 10.35100 32.57900
C  43.74100 9.62500 33.61300
O  44.33900 8.50600 33.54100
O  43.76200 10.44300 34.75900
C  44.26800 9.84600 36.00800
H  37.51200 5.68200 32.44100
H  38.25900 5.60900 25.97300
H  43.74600 8.70400 26.57600
H  41.30400 8.23200 34.50600
H  38.33800 7.78700 34.16600
H  39.23600 6.18600 35.63600
H  40.76200 6.16600 34.75600
H  39.31700 5.13800 34.41100
H  39.48900 10.31300 33.66600
H  40.83800 10.45100 34.85100
H  38.74100 8.80100 36.17400
H  38.18600 10.26600 35.44000
H  35.63800 4.86300 31.81600
H  35.64600 3.57000 30.63000
H  34.70100 5.13200 30.41300
H  34.04500 3.52800 27.08800
H  34.14000 5.00500 28.15200
H  34.72800 3.33600 28.70600
H  39.75200 7.04500 24.57200
H  42.76900 6.38300 25.06900
H  41.47500 4.67900 24.21800
H  39.79600 5.04300 23.59000
H  40.10300 4.30600 25.22100
H  41.98900 8.02100 23.13600
H  43.34100 8.57200 24.14400
H  40.82000 9.55400 25.31600
H  40.85300 9.68600 23.52500
H  42.02100 10.54400 24.56000
H  45.84700 9.69700 28.08500
H  45.29700 11.26000 28.82000
H  44.67000 10.75700 27.20100
H  42.39000 11.21200 32.99000
H  45.00300 9.07300 35.78400
H  43.58200 9.30900 36.66300
H  44.82500 10.59200 36.57500

