158

Mg 16.22900 -1.66700 27.78100
C  15.20700 0.54400 30.23000
C  18.18000 -3.34400 29.98500
C  17.73200 -3.13700 25.13000
C  14.43700 0.30900 25.38900
N  16.76700 -1.30300 29.81300
C  16.12400 -0.42700 30.70100
C  16.59600 -0.62800 32.13900
C  17.51700 -1.89600 32.10000
C  17.49400 -2.24000 30.55200
C  18.93300 -1.76200 32.57300
C  15.46700 -0.80800 33.25700
C  15.71000 -0.29400 34.65400
H  17.13700 0.28100 34.96000
N  17.66600 -2.98800 27.53100
C  18.27700 -3.68600 28.60000
C  19.21100 -4.64100 28.05500
C  19.07100 -4.62800 26.66200
C  18.14400 -3.54800 26.38000
C  20.04800 -5.49700 28.97300
C  19.77300 -5.43000 25.62400
O  19.56500 -5.32800 24.40600
C  20.84800 -6.42300 26.02300
N  16.13400 -1.42000 25.51500
C  16.85600 -2.16900 24.65100
C  16.51600 -1.88600 23.12100
C  15.36900 -0.78000 23.40000
C  15.21200 -0.71900 24.87000
C  17.66700 -1.27900 22.30400
C  13.96000 -1.00200 22.65100
C  13.52300 -0.07300 21.52200
N  14.95000 -0.03800 27.75100
C  14.23900 0.54400 26.77500
C  13.34400 1.49300 27.31900
C  13.63100 1.50000 28.64600
C  14.66200 0.63500 28.89900
C  12.39300 2.45400 26.55400
C  13.28600 2.21300 29.84700
O  12.47300 3.10600 30.06800
C  14.26200 1.55300 30.97000
C  14.97800 2.65200 31.61600
O  15.71300 3.44300 31.10000
O  14.48300 2.85700 32.90000
C  14.79100 4.14600 33.47900
H  18.53600 -3.98600 30.79400
H  18.16700 -3.62900 24.25800
H  13.77400 0.77000 24.65400
H  17.24100 0.22900 32.33400
H  17.16900 -2.75600 32.67400
H  19.50000 -1.07700 31.94400
H  19.43800 -2.71700 32.71900
H  18.68100 -1.40700 33.57200
H  15.22100 -1.86900 33.30200
H  14.57600 -0.27600 32.92500
H  15.49500 -1.02800 35.43100
H  14.98200 0.51700 34.68600
H  19.60500 -5.52400 29.96800
H  21.04900 -5.06900 29.02200
H  20.06000 -6.51700 28.58900
H  20.51100 -7.23900 26.66200
H  21.65300 -5.89200 26.53100
H  21.18600 -6.81700 25.06400
H  15.98800 -2.65800 22.56200
H  15.71700 0.19300 23.05300
H  18.56300 -1.42000 22.90900
H  17.63400 -0.21000 22.09200
H  17.82100 -1.79600 21.35800
H  13.20600 -1.02100 23.43800
H  14.00100 -2.00200 22.21800
H  14.31100 0.67800 21.45100
H  12.60500 0.45900 21.77100
H  13.34100 -0.65700 20.62000
H  11.58200 1.84500 26.15400
H  12.96100 2.94000 25.76200
H  11.98200 3.24500 27.18200
H  13.58700 1.08900 31.68800
H  14.31300 4.95500 32.92600
H  15.86800 4.27300 33.37600
H  14.43700 4.22800 34.50700
Mg 40.65700 9.31200 29.27000
C  42.49600 10.00100 32.08100
C  38.31000 7.70700 31.21400
C  39.14100 8.49500 26.36000
C  43.34400 10.64100 27.26700
N  40.53900 8.75800 31.32800
C  41.30400 9.31400 32.35800
C  40.65700 9.15100 33.72600
C  39.54900 8.15200 33.41700
C  39.44400 8.15700 31.90300
C  39.84800 6.82200 34.12200
C  40.11300 10.48300 34.34400
C  40.19200 10.51900 35.83900
H  40.88800 11.56500 36.70200
N  39.06900 8.11500 28.85200
C  38.19300 7.56600 29.79600
C  37.13700 6.82400 29.08800
C  37.22800 7.28600 27.73200
C  38.51000 7.97400 27.57700
C  36.04900 6.08100 29.85500
C  36.12300 7.35500 26.66800
O  36.38200 7.81400 25.59600
C  34.78300 6.81100 26.99400
N  41.24000 9.58100 27.01000
C  40.36000 9.20700 26.09700
C  40.93100 9.65300 24.69200
C  42.33600 10.33200 24.99300
C  42.32900 10.21600 26.49400
C  41.03200 8.50900 23.73000
C  42.54100 11.74400 24.39800
C  41.46000 12.80600 24.86900
N  42.53600 10.03400 29.58000
C  43.38900 10.76400 28.67800
C  44.40600 11.46800 29.50400
C  44.11800 11.05900 30.77700
C  42.97000 10.29200 30.79900
C  45.57400 12.29700 29.03700
C  44.55200 11.38700 32.14700
O  45.53600 12.10300 32.54500
C  43.46100 10.63300 33.05900
C  44.11600 9.74400 33.95500
O  44.63400 8.69800 33.66700
O  44.18700 10.19900 35.21700
C  44.99400 9.58500 36.24500
H  37.56900 7.19600 31.83200
H  38.58900 8.31600 25.43500
H  44.17400 11.01300 26.66300
H  41.48200 8.82400 34.35800
H  38.63000 8.50400 33.88600
H  39.24700 6.11400 33.55200
H  39.57800 6.85200 35.17800
H  40.90800 6.62100 33.96800
H  39.09700 10.78700 34.09000
H  40.72700 11.32400 34.02200
H  40.55700 9.54400 36.16000
H  39.15400 10.40900 36.15600
H  35.11900 6.64200 29.93700
H  36.49600 5.80200 30.80900
H  35.70700 5.18900 29.33000
H  34.83200 6.03100 27.75300
H  34.56400 6.30500 26.05400
H  34.17700 7.70400 27.14600
H  40.37500 10.48400 24.25800
H  43.12000 9.62400 24.72300
H  41.26000 7.54600 24.18600
H  41.91000 8.78900 23.14700
H  40.15100 8.55300 23.09100
H  42.67100 11.74900 23.31500
H  43.46800 12.09000 24.85700
H  41.98400 13.75300 24.73900
H  41.07300 12.51300 25.84500
H  40.62900 12.86400 24.16600
H  45.74400 13.19100 29.63800
H  45.31200 12.65800 28.04200
H  46.48400 11.70300 28.95700
H  42.89800 11.34700 33.66000
H  44.55100 9.44200 37.23100
H  45.76200 10.34300 36.39600
H  45.50900 8.65900 35.99000

