158

Mg 54.52400 23.73600 44.06600
C  52.01400 26.01700 43.35500
C  52.36800 21.19500 43.37100
C  57.22000 21.71700 43.76400
C  56.69200 26.46900 44.72100
N  52.39500 23.61600 43.21600
C  51.53900 24.69000 42.99800
C  50.07500 24.22400 42.73600
C  50.24800 22.66200 43.09900
C  51.77100 22.42100 43.25800
C  49.54400 22.02000 44.28900
C  49.35600 24.56700 41.41200
C  50.29400 24.63100 40.13700
H  49.71200 25.40200 38.94200
N  54.78900 21.72400 43.69400
C  53.75600 20.83800 43.49000
C  54.30300 19.54400 43.27000
C  55.69200 19.63600 43.62800
C  55.96800 21.07800 43.67500
C  53.43200 18.33500 43.02400
C  56.61000 18.51600 43.96300
O  56.28800 17.32700 43.82500
C  58.02200 18.78400 44.57400
N  56.62300 24.12100 44.11800
C  57.51200 23.10600 44.00200
C  59.00900 23.50400 44.27600
C  58.83800 25.02700 44.32000
C  57.28500 25.21600 44.46100
C  59.64300 22.88400 45.54000
C  59.58400 25.83600 43.21200
C  58.79700 25.81800 41.86400
N  54.46900 25.79400 44.16700
C  55.34100 26.77000 44.55100
C  54.69700 28.05700 44.55800
C  53.32100 27.84900 44.23200
C  53.28800 26.43400 43.85600
C  55.30800 29.37200 44.86200
C  51.91000 28.39000 44.05400
O  51.45900 29.53500 44.22700
C  51.12800 27.23800 43.40900
C  50.72200 27.68000 42.02900
O  51.44600 27.56600 41.04000
O  49.43100 28.17600 42.02600
C  49.02200 28.69000 40.72600
H  51.74400 20.31900 43.18400
H  58.03800 21.02800 43.54400
H  57.35600 27.29400 44.98700
H  49.48500 24.62200 43.56200
H  49.95000 22.05000 42.24800
H  49.06700 21.10300 43.94300
H  48.86500 22.68600 44.82200
H  50.27400 21.63900 45.00300
H  48.88400 25.53100 41.60000
H  48.50000 23.91700 41.22800
H  50.32500 23.63600 39.69300
H  51.30700 24.83000 40.48600
H  54.03100 17.45400 42.79200
H  52.81200 18.43600 42.13200
H  52.84400 18.13200 43.91900
H  58.75500 18.82400 43.76800
H  58.19900 17.85700 45.11900
H  58.18800 19.56600 45.31500
H  59.51200 23.09000 43.40200
H  59.20100 25.40900 45.27400
H  58.92200 22.21500 46.00900
H  59.85700 23.74500 46.17300
H  60.52300 22.28500 45.31000
H  60.57600 25.40500 43.07900
H  59.72500 26.72600 43.82600
H  58.15800 24.93500 41.87900
H  59.49700 25.75200 41.03000
H  58.06900 26.62700 41.82400
H  55.78900 29.84400 44.00500
H  56.13700 29.25400 45.55900
H  54.55600 30.03900 45.28500
H  50.25100 27.09100 44.03900
H  48.18100 29.36800 40.86900
H  48.65900 27.97200 39.99100
H  49.77600 29.28700 40.21200
Mg 27.04200 51.64300 26.03200
C  24.70400 52.76100 28.68000
C  29.14900 50.65800 28.52800
C  29.03500 50.85300 23.67300
C  24.58600 53.00600 23.74500
N  26.91400 51.76700 28.39900
C  25.82500 52.02300 29.19000
C  26.14200 51.56300 30.59900
C  27.70000 51.30000 30.56000
C  27.94600 51.21600 29.05900
C  28.63300 52.32500 31.13200
C  25.23400 50.31600 31.11100
C  24.67400 50.48000 32.49300
H  25.24900 51.38200 33.59600
N  28.86000 50.84200 26.10500
C  29.59500 50.51900 27.21200
C  30.91500 49.90900 26.75700
C  30.87400 49.93300 25.30000
C  29.59400 50.57100 24.94700
C  31.94700 49.38100 27.74300
C  31.91700 49.55500 24.26800
O  31.69200 49.70900 23.06900
C  33.18400 48.92900 24.75800
N  26.79300 51.83100 24.01800
C  27.80300 51.34700 23.24300
C  27.46200 51.48000 21.79000
C  25.98300 52.09000 21.82600
C  25.78400 52.35000 23.29400
C  28.48200 52.44200 21.10200
C  24.81000 51.28200 21.22100
C  24.37400 50.07800 22.02500
N  25.11000 52.72800 26.09000
C  24.28600 53.13600 25.07900
C  23.07700 53.75600 25.69700
C  23.25300 53.67200 27.07600
C  24.46600 52.97600 27.27700
C  21.96000 54.39500 24.88200
C  22.73500 54.00700 28.38500
O  21.77400 54.69900 28.74500
C  23.56300 53.21900 29.48300
C  23.89500 54.23700 30.53200
O  24.82400 55.04400 30.60100
O  22.92500 54.27400 31.45500
C  23.24400 55.06500 32.65300
H  29.86700 50.23100 29.23200
H  29.59800 50.58500 22.77700
H  23.84800 53.38400 23.03400
H  25.97800 52.44800 31.21400
H  27.90300 50.32100 30.99500
H  29.06000 52.81400 30.25700
H  29.46700 51.94300 31.72200
H  28.10500 53.00800 31.79800
H  25.86100 49.44200 30.93200
H  24.42300 50.23300 30.38700
H  24.50600 49.51700 32.97400
H  23.73800 51.00500 32.29700
H  32.50000 50.24100 28.11900
H  32.60600 48.56900 27.43400
H  31.50400 48.91800 28.62500
H  33.68200 48.52400 23.87800
H  33.04000 48.12200 25.47600
H  33.84600 49.68000 25.18900
H  27.44500 50.47200 21.37500
H  26.08300 53.09000 21.40600
H  29.17100 52.80900 21.86300
H  27.98100 53.30800 20.66900
H  29.03400 51.86400 20.36100
H  25.11700 50.98400 20.21900
H  23.93600 51.92500 21.11500
H  25.02800 49.25400 21.74000
H  23.32400 49.95700 21.76000
H  24.40800 50.10400 23.11500
H  22.20700 54.64100 23.84900
H  21.62000 55.36600 25.24400
H  21.11200 53.72100 24.75700
H  22.97300 52.40500 29.90400
H  22.42400 54.96100 33.36300
H  23.34200 56.09800 32.31900
H  24.12500 54.70800 33.18600

