158

Mg 25.67800 1.39900 30.28200
C  27.74000 1.36800 33.15600
C  22.96400 1.59200 32.60200
C  23.55700 1.18900 27.71600
C  28.31100 0.42200 28.40600
N  25.48300 1.70000 32.52700
C  26.47200 1.67200 33.47400
C  25.84600 1.90900 34.86100
C  24.33300 1.65700 34.65400
C  24.25200 1.70800 33.11900
C  23.79200 0.35400 35.34800
C  26.10400 3.42400 35.33600
C  27.19700 3.61200 36.43000
H  26.72800 4.49600 37.60300
N  23.56500 1.41500 30.16500
C  22.65000 1.55500 31.21300
C  21.34800 1.48800 30.65300
C  21.48400 1.51100 29.18600
C  22.97800 1.36300 28.92200
C  20.13500 1.49000 31.53200
C  20.40500 1.63400 28.08000
O  20.60300 1.48700 26.85800
C  19.14400 2.03900 28.56600
N  25.96800 0.93700 28.32300
C  24.90800 0.98300 27.35900
C  25.44700 0.66900 25.96100
C  26.99400 0.71300 26.20900
C  27.08600 0.64200 27.71300
C  24.96800 -0.72500 25.52400
C  27.79400 1.87800 25.63300
C  27.10600 3.24300 25.27400
N  27.66700 0.95000 30.67100
C  28.58700 0.61800 29.74600
C  29.92200 0.40300 30.40200
C  29.62800 0.69700 31.76000
C  28.24200 1.01400 31.88500
C  31.19100 -0.02800 29.69600
C  30.16500 0.74000 33.05600
O  31.26800 0.44100 33.48100
C  29.00400 1.20100 33.99000
C  28.84400 0.19300 35.09300
O  28.26400 -0.83600 35.08000
O  29.33300 0.74100 36.30300
C  28.99700 -0.14300 37.43600
H  22.23400 1.81300 33.38300
H  22.86700 1.01800 26.88800
H  29.21500 0.26200 27.81500
H  26.29100 1.30900 35.65500
H  23.68300 2.38500 35.13900
H  24.49900 -0.27800 35.88500
H  23.55500 -0.30800 34.51600
H  22.85300 0.48600 35.88600
H  25.16900 3.89900 35.63300
H  26.53300 4.03600 34.54300
H  28.07400 4.07300 35.97500
H  27.45500 2.65900 36.89100
H  19.67000 2.47500 31.50700
H  20.32300 1.13200 32.54500
H  19.39700 0.81800 31.09300
H  18.59000 1.22100 29.02800
H  18.51500 2.32900 27.72400
H  19.17900 2.89500 29.23900
H  25.16000 1.40800 25.21400
H  27.49300 -0.18700 25.85000
H  24.52900 -0.61200 24.53400
H  24.27600 -1.13400 26.26100
H  25.82800 -1.38800 25.42200
H  28.23900 1.45700 24.73100
H  28.64800 2.11600 26.26600
H  26.70400 3.78200 26.13200
H  26.36000 3.11900 24.48800
H  27.88200 3.83200 24.78600
H  31.73800 0.86200 29.38300
H  30.87200 -0.59000 28.81800
H  31.83500 -0.62800 30.33800
H  29.26200 2.22200 34.27400
H  29.56000 -1.07500 37.48400
H  27.91400 -0.22900 37.52100
H  29.24700 0.44300 38.32000
Mg 47.84100 16.49900 28.87100
C  45.73200 16.18200 31.58300
C  49.99500 18.29800 30.76200
C  49.80500 16.64100 26.14900
C  45.33200 14.86900 26.96400
N  47.82600 17.22600 30.91800
C  46.94700 16.89700 31.89400
C  47.27800 17.35700 33.26800
C  48.61100 18.17000 32.97100
C  48.90400 17.85200 31.47700
C  48.47700 19.66800 33.25000
C  47.45500 16.21100 34.36100
C  47.65200 16.78400 35.87000
H  47.29500 18.25900 36.21100
N  49.64500 17.39400 28.50700
C  50.35700 18.12900 29.46000
C  51.62500 18.50600 28.85200
C  51.56400 18.06100 27.48800
C  50.29400 17.36200 27.33100
C  52.69200 19.32100 29.55200
C  52.66000 18.12900 26.41100
O  52.49000 17.58400 25.37000
C  53.94600 18.90100 26.47700
N  47.61400 15.84600 26.85600
C  48.47900 16.16100 25.89000
C  47.99500 15.79800 24.40300
C  46.63800 15.07900 24.76100
C  46.49300 15.25600 26.28200
C  47.80300 17.09300 23.59500
C  46.41200 13.69500 24.25500
C  45.86500 13.66400 22.84500
N  45.97800 15.73100 29.10500
C  45.07800 15.13100 28.30200
C  43.86500 14.78000 29.07000
C  44.06200 15.14500 30.36300
C  45.32200 15.76200 30.32800
C  42.71600 13.98600 28.51500
C  43.51100 15.15400 31.67900
O  42.48500 14.70300 32.14800
C  44.64600 15.83100 32.55700
C  43.95800 16.97500 33.25800
O  43.29700 17.82700 32.69100
O  43.91400 16.81600 34.66700
C  42.91700 17.59400 35.38500
H  50.64600 18.89100 31.40800
H  50.29100 16.76100 25.17800
H  44.48000 14.41900 26.45100
H  46.46400 18.00600 33.59300
H  49.55900 17.82000 33.38100
H  47.57200 19.99000 33.76500
H  48.71000 20.33800 32.42200
H  49.27200 19.94100 33.94300
H  48.36400 15.69500 34.05300
H  46.56900 15.57700 34.40000
H  48.72900 16.66000 35.97900
H  47.10000 16.13500 36.55000
H  52.35900 19.67100 30.52900
H  53.08100 20.20800 29.05200
H  53.50700 18.60800 29.67900
H  53.79000 19.83800 27.01100
H  54.11800 19.15200 25.43000
H  54.76400 18.23900 26.76300
H  48.64000 15.02500 23.98600
H  45.76800 15.67100 24.47600
H  47.92900 16.98300 22.51800
H  48.56600 17.76800 23.98100
H  46.78300 17.43500 23.77400
H  45.74600 13.11200 24.89200
H  47.35900 13.15800 24.32500
H  46.57700 14.03100 22.10600
H  44.91900 14.20400 22.80300
H  45.49700 12.67000 22.59200
H  42.87300 12.91800 28.36400
H  42.39200 14.39900 27.56000
H  41.87900 14.10100 29.20300
H  44.88700 15.05300 33.28200
H  42.72200 18.58900 34.98500
H  43.12000 17.75900 36.44300
H  41.98400 17.03100 35.34500

