158

Mg 2.90700 -1.25100 42.04700
C  6.26200 -0.30300 41.90100
C  2.05400 1.65100 40.37200
C  -0.22900 -2.62400 41.46000
C  3.95600 -4.41800 43.24900
N  4.03400 0.55800 41.32700
C  5.39300 0.74000 41.41600
C  5.75700 2.00100 40.72600
C  4.39000 2.62700 40.43800
C  3.39800 1.56400 40.74800
C  4.09400 3.95300 41.25500
C  6.76300 1.82000 39.55300
C  6.97500 0.47700 38.80900
H  6.66900 0.45600 37.29900
N  1.18900 -0.57800 41.05500
C  1.04600 0.70200 40.53500
C  -0.37700 0.75700 40.09700
C  -1.07800 -0.39400 40.50200
C  -0.03600 -1.25100 41.07100
C  -0.96100 2.10300 39.48300
C  -2.57200 -0.55200 40.43500
O  -3.29700 0.32100 39.97400
C  -3.27800 -1.63600 41.19900
N  2.08100 -3.30400 42.26100
C  0.73400 -3.53000 41.91600
C  0.32100 -5.01200 42.19900
C  1.69300 -5.57100 42.78400
C  2.64700 -4.37500 42.77900
C  -0.96600 -5.17300 43.01800
C  2.28100 -6.82400 42.06100
C  2.87900 -7.90200 43.01200
N  4.70200 -2.14900 42.67400
C  4.98800 -3.43200 43.19900
C  6.41100 -3.56500 43.30400
C  6.94700 -2.38300 42.86000
C  5.84500 -1.53100 42.49100
C  7.03400 -4.78500 43.90400
C  8.19300 -1.63500 42.59600
O  9.32100 -2.01500 42.82300
C  7.76800 -0.30000 42.04000
C  8.38000 0.82300 42.81600
O  9.28500 1.49700 42.39100
O  7.98100 0.87500 44.14300
C  8.66000 1.77800 45.10700
H  1.63000 2.57500 39.97300
H  -1.09900 -3.15600 41.06700
H  4.21000 -5.44600 43.51800
H  6.32700 2.61700 41.42100
H  4.13000 2.84200 39.40100
H  3.04600 4.21000 41.09800
H  4.59100 4.85300 40.89300
H  4.31900 3.88800 42.31900
H  7.68900 2.23600 39.94900
H  6.54700 2.64200 38.87000
H  6.38100 -0.33600 39.22800
H  8.03500 0.22600 38.84800
H  -0.22900 2.78800 39.05500
H  -1.57300 2.63700 40.20900
H  -1.50200 1.74100 38.60800
H  -4.35800 -1.52000 41.10800
H  -2.95200 -1.35400 42.20000
H  -3.03700 -2.64200 40.85700
H  0.04100 -5.49100 41.26100
H  1.54100 -5.82300 43.83400
H  -1.36600 -4.18400 43.24600
H  -0.71800 -5.70400 43.93700
H  -1.76300 -5.66300 42.46000
H  3.06300 -6.44800 41.40200
H  1.57100 -7.23700 41.34400
H  3.87800 -8.07800 42.61300
H  2.31100 -8.82200 43.14900
H  3.09100 -7.60400 44.03900
H  7.28000 -5.46800 43.09200
H  6.34500 -5.25900 44.60300
H  7.94700 -4.42700 44.38000
H  8.23700 -0.24300 41.05800
H  8.19800 2.76300 45.04700
H  9.70000 1.99100 44.86200
H  8.57500 1.45100 46.14300
Mg 49.00600 34.72100 27.97700
C  46.89400 32.97900 30.26200
C  49.46600 37.12100 30.38200
C  50.33100 36.78400 25.51100
C  48.02400 32.48500 25.46500
N  48.36200 34.89600 30.11200
C  47.58300 34.04900 30.87000
C  47.70200 34.43500 32.30200
C  48.12300 35.93700 32.22900
C  48.73000 35.96700 30.84400
C  47.05400 37.12000 32.38600
C  48.74100 33.55700 33.11500
C  48.57000 33.38700 34.61200
H  47.95300 34.48700 35.39200
N  49.88100 36.67400 28.00600
C  50.07200 37.39600 29.10200
C  50.81400 38.60000 28.74400
C  51.04700 38.54200 27.32000
C  50.36600 37.30100 26.88200
C  51.08300 39.69100 29.80800
C  51.86100 39.51800 26.42200
O  51.90800 39.50200 25.21000
C  52.43600 40.69000 27.08900
N  49.20500 34.68200 25.76000
C  49.89500 35.52300 25.04600
C  50.15800 35.10600 23.58900
C  49.42900 33.65300 23.58600
C  48.83000 33.58500 25.02200
C  49.69400 36.07200 22.54800
C  50.34200 32.38400 23.28000
C  50.37700 32.02300 21.81600
N  47.83700 33.02000 27.90100
C  47.50400 32.26000 26.77900
C  46.65800 31.09300 27.23500
C  46.30900 31.42600 28.53100
C  47.08700 32.56400 28.93000
C  46.18500 29.99800 26.43200
C  45.42600 31.09300 29.67000
O  44.57600 30.23100 29.81900
C  45.75000 32.06900 30.84300
C  46.07600 31.36100 32.10900
O  46.69900 30.33300 32.21700
O  45.56100 32.07500 33.17400
C  45.46300 31.43500 34.55900
H  49.52700 37.90900 31.13500
H  50.85400 37.42100 24.79600
H  47.76800 31.78400 24.66800
H  46.68400 34.40500 32.68800
H  48.84200 36.12100 33.02700
H  45.97800 36.94300 32.40800
H  47.34100 37.83900 31.61900
H  47.17300 37.56100 33.37600
H  49.74800 33.93700 32.94200
H  48.72900 32.53200 32.74300
H  49.55700 33.21200 35.04100
H  47.92500 32.53100 34.80800
H  52.08100 40.11700 29.71300
H  50.98700 39.38700 30.85100
H  50.41700 40.52500 29.58400
H  53.44100 40.58900 27.49800
H  51.75800 40.98800 27.88900
H  52.67200 41.38200 26.28100
H  51.24700 35.08000 23.60600
H  48.61500 33.84800 22.88800
H  48.63100 35.89000 22.39100
H  50.26300 36.00400 21.62100
H  49.88300 37.09900 22.86100
H  49.99400 31.52000 23.84500
H  51.37900 32.57200 23.55600
H  51.40000 31.74300 21.56400
H  49.97800 32.83500 21.20700
H  49.68500 31.23900 21.50900
H  46.54200 28.99100 26.64900
H  46.51900 30.15100 25.40600
H  45.09600 30.00200 26.45700
H  44.90500 32.70100 31.11600
H  45.16200 32.22000 35.25300
H  46.43800 30.97200 34.71100
H  44.65600 30.71700 34.41800

