158

Mg 53.78800 24.92800 44.81800
C  51.08900 26.99300 44.05100
C  52.04900 22.29900 43.39900
C  56.64800 23.21600 44.39700
C  55.57500 27.83000 45.51400
N  51.79600 24.69900 43.91000
C  50.80500 25.71600 43.75300
C  49.55100 25.13800 43.08700
C  49.83200 23.65800 43.27800
C  51.32100 23.50000 43.49800
C  49.00300 22.90900 44.36900
C  49.46600 25.55700 41.62200
C  48.02500 25.78700 41.07700
H  47.81100 25.42500 39.62500
N  54.32200 23.03100 44.05800
C  53.46100 22.07500 43.57400
C  54.14600 20.78000 43.42200
C  55.46400 20.96400 43.81000
C  55.53800 22.43300 44.08900
C  53.42400 19.52000 42.98900
C  56.58300 19.97400 43.81000
O  56.35700 18.83500 43.40700
C  57.92300 20.28600 44.27900
N  55.74400 25.50200 44.80700
C  56.80000 24.56000 44.69800
C  58.10000 25.16300 44.97700
C  57.83300 26.66700 45.12200
C  56.31500 26.74500 45.03100
C  58.89700 24.47800 46.18700
C  58.54400 27.61700 44.10000
C  59.49900 28.63400 44.70600
N  53.44800 27.03700 44.90700
C  54.20900 28.04300 45.36600
C  53.44300 29.25800 45.55800
C  52.22500 28.89900 44.89100
C  52.26800 27.53600 44.58400
C  53.82400 30.44300 46.27600
C  50.91500 29.42100 44.56900
O  50.47300 30.54400 44.81100
C  50.26800 28.30700 43.76000
C  50.44600 28.69300 42.31500
O  51.50700 28.76200 41.78700
O  49.25900 28.99300 41.79100
C  49.21700 29.54200 40.42900
H  51.41100 21.44600 43.16000
H  57.61500 22.77500 44.14900
H  56.13400 28.70700 45.84600
H  48.65800 25.35800 43.67300
H  49.47700 23.12900 42.39300
H  48.32500 22.23300 43.84800
H  48.38200 23.55600 44.98900
H  49.73200 22.37600 44.98000
H  49.85100 24.71500 41.04600
H  50.13500 26.37800 41.36500
H  47.72700 26.83200 41.16600
H  47.28200 25.22100 41.63800
H  53.52100 19.43900 41.90700
H  52.43100 19.45000 43.43200
H  53.96400 18.65400 43.37300
H  58.33200 20.93800 43.50600
H  58.57600 19.42600 44.13400
H  57.90600 20.63500 45.31200
H  58.70600 24.92300 44.10300
H  58.18200 26.89800 46.12800
H  58.76600 25.13600 47.04600
H  59.95600 24.43000 45.93600
H  58.55400 23.50500 46.54000
H  57.90800 28.19100 43.42700
H  59.04400 26.92800 43.42000
H  60.51800 28.47800 44.35300
H  59.35500 28.71400 45.78400
H  59.13500 29.57000 44.28300
H  54.73100 30.22000 46.83800
H  52.99200 30.83500 46.86000
H  53.97700 31.27900 45.59300
H  49.24000 28.25100 44.12000
H  50.24700 29.75400 40.14400
H  48.78700 30.53800 40.31600
H  48.68100 28.93800 39.69700
Mg 47.77400 25.76300 28.06700
C  48.53800 28.07200 30.65600
C  46.29800 23.69800 30.54600
C  47.20400 23.50300 25.63200
C  49.33500 27.87000 25.77200
N  47.52500 25.94000 30.33300
C  47.79600 26.97400 31.11500
C  47.37100 26.69900 32.49200
C  46.66300 25.27800 32.52300
C  46.82300 24.94100 31.04300
C  47.30300 24.23600 33.48300
C  46.42400 27.81800 33.02100
C  45.71200 27.45400 34.34200
H  45.53300 28.46000 35.45500
N  46.84400 23.92700 28.07800
C  46.29900 23.24800 29.16600
C  45.84500 21.89800 28.71000
C  46.09500 21.89400 27.31200
C  46.78100 23.18300 26.93900
C  45.26200 20.84200 29.62100
C  45.84700 20.71900 26.24700
O  46.22800 20.78900 25.06800
C  44.96000 19.58800 26.59000
N  48.16900 25.70200 25.95100
C  47.80100 24.63100 25.22400
C  48.10800 24.92800 23.71400
C  48.67600 26.41100 23.74100
C  48.84400 26.68300 25.24900
C  49.18200 23.85800 23.20800
C  47.65800 27.41300 23.08300
C  48.03900 27.56900 21.52900
N  48.72600 27.51100 28.16900
C  49.32100 28.27300 27.13000
C  49.88900 29.53000 27.69900
C  49.59800 29.45900 29.09200
C  48.95600 28.21200 29.27500
C  50.71400 30.49000 26.93900
C  49.81300 30.13400 30.31900
O  50.49200 31.11100 30.57700
C  49.05800 29.27600 31.41900
C  49.87300 28.96000 32.63200
O  50.75500 28.10200 32.67400
O  49.42900 29.73200 33.74500
C  50.13500 29.41000 34.93000
H  45.84300 22.98600 31.23700
H  47.03700 22.79600 24.81700
H  49.67600 28.65200 25.09000
H  48.30000 26.80700 33.05200
H  45.59000 25.41300 32.66400
H  48.13300 24.58700 34.09700
H  47.64400 23.46000 32.79800
H  46.50500 23.76700 34.05800
H  45.72900 28.18900 32.26800
H  47.04100 28.66900 33.30900
H  46.19800 26.53900 34.67900
H  44.70300 27.16300 34.05100
H  45.27600 19.81300 29.26200
H  44.17800 20.93300 29.70200
H  45.65300 20.84400 30.63900
H  45.56900 18.84100 27.09900
H  44.62700 19.10400 25.67200
H  44.19700 20.02900 27.23300
H  47.20900 24.75700 23.12300
H  49.72900 26.47500 23.46700
H  50.16800 24.24000 22.94500
H  48.75600 23.34200 22.34800
H  49.36000 23.13700 24.00600
H  47.73900 28.35400 23.62700
H  46.64500 27.03300 23.21800
H  47.40300 26.94300 20.90300
H  49.03600 27.20000 21.28900
H  48.03700 28.58600 21.13500
H  51.61900 29.92400 26.71400
H  50.94100 31.22000 27.71600
H  50.40700 30.78600 25.93600
H  48.15800 29.77300 31.77900
H  51.12200 29.82700 34.72600
H  50.34400 28.38500 35.23400
H  49.79000 30.00000 35.77900

