158

Mg 48.06400 15.91300 28.72000
C  45.82000 15.33600 31.33700
C  50.13800 17.44100 30.87500
C  49.90100 16.81700 26.09200
C  45.73000 14.54000 26.51000
N  47.93100 16.41300 30.83800
C  47.02100 16.01900 31.78000
C  47.31000 16.36600 33.18200
C  48.53800 17.32300 32.93300
C  48.97100 17.04400 31.52600
C  48.26900 18.81100 33.33600
C  47.49900 15.11500 34.13300
C  46.67400 15.02500 35.40300
H  46.57800 16.18600 36.39100
N  49.80800 16.90900 28.55700
C  50.62600 17.42000 29.56500
C  51.85700 17.89300 29.02100
C  51.77600 17.71000 27.59600
C  50.41700 17.18400 27.36600
C  52.99100 18.38800 29.89000
C  52.87600 17.94500 26.55900
O  52.89500 17.59000 25.38300
C  54.09900 18.74900 26.91900
N  47.77200 15.93800 26.50700
C  48.67300 16.30600 25.62400
C  48.31600 15.92900 24.14300
C  47.03500 15.06000 24.43000
C  46.86500 15.08500 25.91600
C  48.17800 17.10400 23.07900
C  47.17100 13.67400 23.71500
C  46.45000 13.56700 22.27900
N  46.18500 15.08500 28.86100
C  45.38500 14.56000 27.91000
C  44.22000 13.94900 28.41700
C  44.25200 14.32800 29.80100
C  45.53100 14.94500 30.00900
C  43.09000 13.35400 27.66200
C  43.57400 14.24400 31.03400
O  42.49300 13.67200 31.36200
C  44.50000 14.99300 32.13300
C  43.75600 15.97900 32.82200
O  43.50000 17.11200 32.49500
O  43.38600 15.47700 34.03300
C  42.76400 16.49800 34.87400
H  50.75500 17.95100 31.61700
H  50.53000 17.13300 25.25800
H  45.06500 13.93200 25.89300
H  46.42300 16.88600 33.54400
H  49.33600 16.94800 33.57500
H  48.97100 19.24900 34.04600
H  47.20800 18.92500 33.56000
H  48.39100 19.34800 32.39500
H  48.55100 14.90800 34.33000
H  47.18600 14.24300 33.55700
H  47.11500 14.17700 35.92700
H  45.65700 14.71500 35.16300
H  52.91900 19.40700 30.27000
H  54.02500 18.35200 29.54500
H  52.99100 17.74000 30.76700
H  54.93700 18.17800 27.31900
H  53.81000 19.58000 27.56200
H  54.44400 19.24300 26.01100
H  49.20300 15.39100 23.80900
H  46.15900 15.62700 24.11600
H  47.10700 17.27200 22.96600
H  48.77600 16.87400 22.19800
H  48.58400 18.04600 23.44900
H  46.79600 12.82100 24.28000
H  48.22200 13.46800 23.51500
H  46.87300 14.08400 21.41800
H  45.41700 13.91500 22.28900
H  46.53400 12.48600 22.16500
H  42.62600 14.12200 27.04300
H  42.34000 12.86200 28.28200
H  43.56400 12.52700 27.13400
H  44.74700 14.20700 32.84700
H  43.49200 17.23900 35.20200
H  42.20900 16.08100 35.71400
H  41.98700 17.02900 34.32400
Mg 16.03400 52.52200 27.02300
C  17.76300 50.84500 29.63100
C  13.60100 53.16100 29.24300
C  14.28500 53.68300 24.40400
C  18.22300 50.94100 24.80300
N  15.82300 52.14400 29.18500
C  16.61400 51.45900 30.06100
C  16.24300 51.51300 31.55700
C  14.79400 52.12500 31.34000
C  14.70700 52.51100 29.83400
C  13.65900 51.14400 31.69400
C  17.26200 52.27900 32.47500
C  17.52700 51.68600 33.86600
H  16.73400 52.21000 35.02500
N  14.20800 53.45200 26.84200
C  13.33700 53.58800 27.89900
C  12.23700 54.47000 27.42000
C  12.34800 54.55700 25.97000
C  13.64300 53.88400 25.70400
C  11.06400 54.95200 28.33000
C  11.47300 55.09300 24.97500
O  11.70000 55.03000 23.79500
C  10.21600 55.79300 25.41800
N  16.17000 52.33800 24.91800
C  15.37000 52.90400 23.99500
C  16.00000 52.86200 22.60100
C  17.18200 51.92200 22.78600
C  17.19800 51.76700 24.29700
C  14.95500 52.44900 21.48900
C  18.56000 52.53900 22.08400
C  19.15100 53.71100 22.83100
N  17.71400 51.21500 27.13400
C  18.51300 50.74900 26.18600
C  19.71400 50.17700 26.78700
C  19.44300 50.18800 28.16800
C  18.21400 50.78900 28.31200
C  20.89500 49.43700 26.14600
C  19.96100 49.87800 29.40700
O  21.11700 49.54400 29.74800
C  18.92700 50.32900 30.51000
C  18.55100 49.18600 31.38500
O  17.91400 48.20500 31.12700
O  19.10200 49.44700 32.65500
C  19.02200 48.34100 33.62100
H  12.78100 53.33200 29.94500
H  13.93600 54.14100 23.47600
H  18.91600 50.47600 24.10000
H  16.20300 50.47300 31.88100
H  14.75300 53.05300 31.91000
H  12.95400 51.64600 32.35600
H  14.07700 50.18500 32.00000
H  13.08900 50.87500 30.80500
H  16.92500 53.30100 32.64800
H  18.18800 52.47500 31.93500
H  18.58400 51.71800 34.12700
H  17.26200 50.63200 33.77800
H  11.18400 54.79700 29.40300
H  10.18900 54.39000 28.00500
H  10.83500 55.97500 28.03000
H  10.41300 56.63900 26.07700
H  9.78100 55.07900 26.11700
H  9.54600 56.03900 24.59400
H  16.18200 53.93100 22.49400
H  16.91300 50.92700 22.43400
H  13.97100 52.15200 21.85200
H  15.33500 51.64600 20.85700
H  14.79000 53.26400 20.78400
H  18.39700 52.80600 21.04000
H  19.13200 51.61500 22.16400
H  19.05900 54.73200 22.46100
H  20.18900 53.52200 23.10400
H  18.64700 53.82900 23.79000
H  20.59200 49.23400 25.11900
H  21.02700 48.44300 26.57500
H  21.87200 49.91700 26.08800
H  19.40500 51.19600 30.96700
H  18.02900 47.96800 33.87300
H  19.49200 48.69700 34.53800
H  19.60100 47.47000 33.31400

