158

Mg 37.13600 49.70500 24.76100
C  37.28100 47.86600 27.85800
C  35.68600 52.22900 26.44400
C  36.26000 51.25200 21.69000
C  38.10500 46.97600 23.03200
N  36.46700 49.88300 26.92700
C  36.67500 49.11900 28.04500
C  36.15700 49.69100 29.28600
C  35.63000 51.07400 28.76300
C  35.90200 51.06200 27.22000
C  34.15600 51.42700 28.95700
C  37.27500 49.85600 30.40200
C  36.94500 49.42200 31.84500
H  35.42300 49.32300 32.22100
N  36.25400 51.60300 24.18500
C  35.77700 52.52200 25.06600
C  35.24600 53.69700 24.29500
C  35.33300 53.35900 22.96000
C  35.95700 51.96500 22.85800
C  34.69400 54.95500 24.98200
C  34.95200 54.24000 21.77300
O  35.18300 53.83600 20.66300
C  34.39500 55.57500 21.91700
N  37.29100 49.32000 22.76500
C  36.83900 50.02300 21.67500
C  37.08900 49.29400 20.41700
C  38.00000 48.10800 20.83200
C  37.77800 48.12700 22.33000
C  35.68500 48.82100 19.84800
C  39.52800 48.30400 20.59400
C  40.37300 47.09000 20.13600
N  37.61300 47.84500 25.23000
C  37.96300 46.80000 24.43400
C  38.52400 45.65000 25.29100
C  38.27200 46.06100 26.62100
C  37.72000 47.40500 26.54600
C  39.19900 44.45000 24.75300
C  38.36200 45.56500 28.04900
O  38.84400 44.63100 28.62000
C  37.65600 46.78100 28.82900
C  36.49700 46.33100 29.72100
O  35.28300 46.30800 29.41000
O  36.97300 45.85700 30.97500
C  36.03100 45.11700 31.77100
H  35.32500 53.12100 26.96100
H  35.94300 51.63500 20.71800
H  38.44700 46.13600 22.42300
H  35.32200 49.18100 29.76600
H  36.27200 51.90200 29.06400
H  33.50500 50.57000 29.13200
H  33.73000 52.03900 28.16200
H  34.05000 51.87000 29.94700
H  37.48900 50.91800 30.51800
H  38.23400 49.42400 30.11600
H  37.51100 49.97700 32.59300
H  37.34700 48.43400 32.06700
H  35.29300 55.82000 24.69800
H  34.76300 54.92100 26.06900
H  33.63200 55.12200 24.79900
H  33.61500 55.64100 22.67600
H  33.86700 55.73900 20.97800
H  35.14200 56.35200 22.08000
H  37.61000 49.87800 19.65900
H  37.61700 47.19300 20.38000
H  35.54800 49.33200 18.89500
H  34.84400 49.07600 20.49200
H  35.72300 47.73500 19.76300
H  40.02000 48.87300 21.38300
H  39.59100 48.96000 19.72500
H  41.07800 46.62600 20.82500
H  40.98900 47.35600 19.27700
H  39.63800 46.40700 19.70900
H  39.99400 44.60400 24.02300
H  38.51500 43.69700 24.36200
H  39.69600 43.99000 25.60800
H  38.41500 47.05800 29.56000
H  35.69700 45.79800 32.55400
H  36.44900 44.21500 32.21900
H  35.11800 44.84600 31.24100
Mg 7.98800 53.00200 40.99700
C  7.64400 49.55400 40.63600
C  11.17900 52.70200 39.91500
C  8.03300 56.34300 40.65100
C  4.62100 53.11100 41.86500
N  9.13500 51.31400 40.08900
C  8.89700 49.97200 40.15000
C  9.99400 49.19600 39.50700
C  11.22600 50.11900 39.91900
C  10.48800 51.50700 39.94200
C  12.05000 49.81900 41.24400
C  9.84700 49.09800 37.89600
C  9.96800 47.70000 37.27100
H  8.78500 47.20800 36.31400
N  9.44200 54.44000 40.33100
C  10.69800 54.07800 39.96800
C  11.45900 55.24200 39.75500
C  10.56900 56.37500 39.91200
C  9.30500 55.76500 40.38800
C  12.97600 55.23300 39.27900
C  11.02200 57.81400 39.63100
O  12.17200 58.02500 39.19700
C  10.12700 59.05200 39.86600
N  6.56900 54.54600 41.24600
C  6.80100 55.81700 40.89700
C  5.60200 56.72500 41.14500
C  4.46100 55.69800 41.45600
C  5.24700 54.39200 41.54900
C  5.87200 57.71200 42.27600
C  3.27900 55.63700 40.49400
C  3.70700 55.10500 39.17700
N  6.43100 51.64000 41.27500
C  5.16000 51.82200 41.77600
C  4.50300 50.59300 42.00300
C  5.49700 49.65500 41.59200
C  6.59300 50.36500 41.14000
C  3.11800 50.41800 42.61500
C  5.82600 48.23800 41.61100
O  5.26600 47.28200 42.10900
C  7.18700 48.17800 40.93500
C  7.07000 47.43800 39.61800
O  6.68800 47.86800 38.52500
O  7.35000 46.10200 39.85200
C  6.88900 45.08800 38.90200
H  12.20900 52.44000 39.66500
H  7.99200 57.40800 40.41200
H  3.58900 53.19700 42.21300
H  10.05400 48.19900 39.94400
H  11.94900 50.02200 39.10900
H  11.50000 49.09500 41.84500
H  12.23800 50.69800 41.86100
H  12.93900 49.39900 40.77300
H  10.56300 49.77200 37.42700
H  8.86300 49.50100 37.65400
H  10.11200 46.95200 38.05100
H  10.74100 47.64400 36.50500
H  12.99400 55.92200 38.43400
H  13.41200 54.24900 39.10500
H  13.51000 55.62800 40.14300
H  9.49900 58.96900 40.75200
H  9.46000 59.12400 39.00700
H  10.69000 59.98400 39.89000
H  5.29400 57.15800 40.19300
H  4.14600 55.93000 42.47300
H  6.70000 57.38600 42.90600
H  4.95700 57.81000 42.85900
H  6.26900 58.66100 41.91600
H  2.84900 56.58700 40.17500
H  2.39900 55.12700 40.88400
H  3.15400 55.53600 38.34200
H  3.62100 54.01900 39.22500
H  4.75400 55.34000 38.98900
H  2.49200 51.19400 42.17600
H  3.18400 50.54600 43.69600
H  2.63600 49.46300 42.40800
H  7.73300 47.64100 41.71100
H  7.76500 44.78400 38.33000
H  6.13400 45.36600 38.16700
H  6.53200 44.16200 39.35300

