158

Mg 41.73500 41.12500 26.67900
C  40.65400 43.21800 29.29500
C  42.66100 38.89700 29.30700
C  43.06800 39.12400 24.41000
C  41.16200 43.66000 24.33300
N  41.70400 41.11900 29.06900
C  41.10900 42.05600 29.86300
C  41.25200 41.67300 31.35900
C  42.12300 40.43600 31.36600
C  42.21700 40.13200 29.81200
C  43.55200 40.66700 32.03400
C  39.88700 41.65700 32.17400
C  39.57600 42.70300 33.30400
H  38.74400 42.45600 34.53400
N  42.70900 39.30500 26.81500
C  43.00100 38.53000 27.95300
C  43.59000 37.30600 27.58700
C  43.79100 37.31000 26.15000
C  43.19100 38.65100 25.73200
C  44.00500 36.26100 28.58300
C  44.28300 36.22500 25.21300
O  44.17300 36.26700 23.98300
C  44.74200 34.96100 25.84000
N  42.13400 41.37600 24.64700
C  42.49100 40.28100 23.90100
C  42.44400 40.66600 22.37700
C  41.87100 42.08000 22.38500
C  41.69100 42.45700 23.87200
C  43.85200 40.63800 21.66200
C  40.50000 42.03900 21.80100
C  39.98900 43.43000 21.38000
N  40.94100 42.99600 26.72200
C  40.80300 43.92400 25.69400
C  40.27100 45.11100 26.31400
C  40.18400 44.88100 27.67800
C  40.70000 43.57600 27.91400
C  39.95300 46.36300 25.70200
C  39.99000 45.48000 28.93900
O  39.60400 46.65100 29.24000
C  40.16400 44.39000 30.06000
C  41.08900 44.94800 31.04000
O  42.29400 44.91900 30.87500
O  40.43000 45.64700 32.04800
C  41.35900 46.35200 32.95600
H  42.87300 38.29200 30.19100
H  43.61300 38.56500 23.64700
H  40.89700 44.54700 23.75300
H  41.82500 42.49800 31.78300
H  41.55600 39.62600 31.82400
H  44.38500 40.61300 31.33300
H  43.56800 39.89900 32.80800
H  43.67600 41.66900 32.44300
H  39.82400 40.73400 32.75000
H  39.07200 41.74500 31.45500
H  38.89500 43.37500 32.78100
H  40.51400 43.22600 33.48700
H  43.63500 35.28900 28.25600
H  43.84200 36.43400 29.64600
H  45.07500 36.08900 28.46000
H  45.17600 34.32300 25.07100
H  43.94600 34.31500 26.21000
H  45.57200 35.19900 26.50500
H  41.94000 39.94500 21.73400
H  42.65400 42.76700 22.06400
H  44.07200 39.63800 21.28900
H  44.55400 41.02000 22.40300
H  43.79900 41.20200 20.73100
H  39.90800 41.59700 22.60200
H  40.44100 41.34500 20.96300
H  39.75600 43.35600 20.31800
H  40.75300 44.20500 21.32500
H  39.07500 43.77000 21.86700
H  38.87800 46.51400 25.79800
H  40.24300 46.46000 24.65600
H  40.51600 47.08500 26.29400
H  39.21000 44.33700 30.58500
H  42.02200 45.54400 33.26500
H  40.84000 46.64100 33.87000
H  41.90400 47.18000 32.50300
Mg 6.31500 54.15500 41.17800
C  5.42200 50.65900 40.58800
C  9.39600 53.53500 40.08500
C  6.76500 57.41800 41.39400
C  2.80400 54.60500 41.72100
N  7.20500 52.21300 40.32400
C  6.74400 50.88900 40.28100
C  7.88000 49.95300 40.00800
C  9.18400 50.92600 39.90300
C  8.61400 52.31100 40.10500
C  10.29300 50.60200 40.87300
C  7.67500 49.13300 38.67300
C  7.09200 49.87500 37.49100
H  6.25400 49.11100 36.40300
N  7.94300 55.39500 40.88200
C  9.15600 54.90600 40.38200
C  10.02300 56.05000 40.29500
C  9.30500 57.19700 40.78000
C  7.94500 56.73400 41.03100
C  11.43000 56.02000 39.78700
C  9.81600 58.59700 40.92700
O  11.02400 58.85400 40.77800
C  9.00400 59.74800 41.28000
N  4.97000 55.72700 41.52700
C  5.42400 57.02200 41.58400
C  4.32700 57.97700 42.01300
C  3.05300 57.05800 42.05500
C  3.59600 55.68300 41.78400
C  4.59400 58.64200 43.35100
C  1.82700 57.44500 41.25300
C  1.89000 57.33700 39.75000
N  4.50600 52.95200 41.23800
C  3.17100 53.25400 41.52700
C  2.37300 52.13700 41.62500
C  3.20700 51.03600 41.41300
C  4.49900 51.57800 41.07000
C  0.85000 52.10400 41.82000
C  3.29700 49.58400 41.29900
O  2.49300 48.72400 41.56000
C  4.83200 49.30000 40.87200
C  4.66500 48.38600 39.74100
O  4.12400 48.68400 38.68600
O  5.08400 47.06000 40.03300
C  4.68400 46.09500 39.05200
H  10.42800 53.34100 39.78300
H  6.85200 58.49600 41.54700
H  1.71800 54.69800 41.78200
H  7.99900 49.21400 40.80000
H  9.77100 50.88900 38.98600
H  10.15400 49.63600 41.35600
H  10.07800 51.31200 41.67200
H  11.30300 50.83600 40.53400
H  7.16200 48.18200 38.81300
H  8.64700 48.89900 38.23900
H  7.90500 50.36200 36.95200
H  6.47900 50.67500 37.90600
H  11.37900 56.22000 38.71700
H  11.89000 55.04000 39.91000
H  12.03200 56.77600 40.29200
H  9.64500 60.59500 41.52400
H  8.48800 59.45900 42.19500
H  8.34500 60.02500 40.45600
H  4.27300 58.69500 41.19500
H  2.73700 56.93400 43.09100
H  3.99800 58.47200 44.24800
H  4.31100 59.64100 43.01900
H  5.67100 58.59900 43.51500
H  1.68900 58.50200 41.48300
H  0.96300 56.98100 41.72800
H  1.62700 58.28000 39.27000
H  1.23500 56.54300 39.39200
H  2.91900 57.18900 39.42200
H  0.67800 51.94200 42.88500
H  0.49400 51.20900 41.31000
H  0.30400 52.94800 41.40000
H  5.30000 48.76900 41.70000
H  5.11200 45.12300 39.29900
H  5.08800 46.30000 38.06000
H  3.59400 46.09000 39.07700

