158

Mg 49.82400 47.41400 42.42300
C  46.39300 47.97800 41.44900
C  49.75000 44.40400 40.72400
C  53.15900 47.16200 42.86000
C  49.99200 50.87100 43.33500
N  48.25200 46.38700 41.07300
C  46.88700 46.74900 40.96500
C  46.21300 45.68600 40.10700
C  47.30100 44.51100 40.00700
C  48.52100 45.17300 40.67100
C  46.85300 43.05500 40.47500
C  45.56000 46.18500 38.77700
C  44.03200 45.95500 38.63700
H  43.49600 45.81400 37.23700
N  51.24600 45.93800 41.97000
C  51.00300 44.73800 41.30500
C  52.14400 43.88600 41.33500
C  53.22200 44.78200 41.86400
C  52.57100 46.05600 42.26100
C  52.25500 42.48100 40.61700
C  54.64100 44.28900 41.92500
O  54.96100 43.16500 41.64500
C  55.63000 45.15600 42.55600
N  51.37900 48.93800 42.86800
C  52.64500 48.47900 43.19800
C  53.59200 49.75800 43.52200
C  52.53200 50.94000 43.72300
C  51.21600 50.21700 43.35700
C  54.50100 49.56100 44.82000
C  52.82300 52.21300 42.76700
C  54.11200 52.90700 42.95000
N  48.45600 49.08300 42.44100
C  48.70000 50.38800 42.91600
C  47.42700 51.11700 42.85100
C  46.41600 50.17600 42.46000
C  47.15500 48.96300 42.07500
C  47.32900 52.56700 43.18600
C  45.04100 50.02800 42.11600
O  44.10600 50.83100 42.13300
C  44.95500 48.60900 41.44700
C  44.00300 47.77000 42.30000
O  43.97600 47.77200 43.50900
O  43.24000 46.85800 41.56200
C  42.36900 45.88700 42.27600
H  49.68000 43.38500 40.33700
H  54.23900 47.19300 43.01800
H  50.05500 51.89200 43.71500
H  45.39800 45.23700 40.67400
H  47.53000 44.49100 38.94200
H  46.61800 42.42100 39.62000
H  45.96300 43.15500 41.09800
H  47.63100 42.71500 41.15800
H  46.04800 45.71400 37.92300
H  45.78900 47.24900 38.72800
H  43.41300 46.76000 39.03200
H  43.85400 45.02000 39.16900
H  51.36100 42.28800 40.02400
H  52.18000 41.66700 41.33800
H  53.19200 42.24600 40.11100
H  55.70100 45.94800 41.81000
H  56.59700 44.65500 42.61500
H  55.43800 45.46000 43.58500
H  54.14700 50.03100 42.62500
H  52.22200 51.14100 44.74800
H  54.58100 48.49000 45.01000
H  54.17200 50.08600 45.71700
H  55.46600 49.91800 44.46000
H  52.00000 52.91900 42.87700
H  52.67800 51.96100 41.71700
H  54.96100 52.31800 43.29600
H  53.98300 53.81500 43.53800
H  54.46400 53.13100 41.94300
H  47.59000 53.20200 42.33900
H  47.95600 52.92100 44.00500
H  46.30500 52.92100 43.30000
H  44.45600 48.80100 40.49700
H  43.01100 45.15600 42.76900
H  41.63800 45.42100 41.61500
H  41.75900 46.39300 43.02400
Mg 1.12300 42.07900 26.31800
C  2.72300 41.91800 29.38000
C  -1.76100 41.01600 27.63900
C  -0.14400 41.63200 23.14300
C  4.20000 43.28600 24.88500
N  0.62400 41.37000 28.25600
C  1.37900 41.54700 29.39800
C  0.47300 41.34100 30.62200
C  -0.98800 41.07800 30.05000
C  -0.72500 41.24200 28.54200
C  -1.61600 39.72000 30.54300
C  0.50100 42.49300 31.65400
C  0.94000 42.25500 33.10800
H  -0.07700 42.47700 34.28100
N  -0.66900 41.40500 25.60200
C  -1.74500 40.88600 26.28700
C  -2.75700 40.55100 25.34300
C  -2.31400 40.80000 24.05900
C  -0.94000 41.24600 24.19700
C  -4.06800 39.99000 25.82500
C  -3.09000 40.78600 22.69900
O  -2.65100 40.90000 21.57800
C  -4.65500 40.59900 22.78300
N  1.83300 42.40100 24.35700
C  1.13800 42.12600 23.19700
C  2.00100 42.55400 21.91900
C  3.31200 43.17000 22.64100
C  3.05600 42.96400 24.09100
C  2.28300 41.44300 20.82900
C  3.60600 44.61900 22.11000
C  3.56400 44.87000 20.58900
N  3.03200 42.49300 26.93700
C  4.14700 42.93200 26.24700
C  5.28400 43.00200 27.14800
C  4.71900 42.68100 28.36100
C  3.41100 42.26300 28.18600
C  6.62400 43.48100 26.91900
C  5.04000 42.50600 29.78700
O  6.14000 42.76700 30.33700
C  3.75100 42.03300 30.54000
C  4.00800 40.76000 31.26600
O  4.43000 39.69700 30.86000
O  3.94000 41.06800 32.56100
C  3.86200 39.90100 33.48500
H  -2.64800 40.81500 28.24400
H  -0.48100 41.41200 22.12800
H  5.12500 43.59500 24.39400
H  0.88500 40.42400 31.04200
H  -1.66200 41.88900 30.32700
H  -1.17200 39.37600 31.47700
H  -1.39000 38.93900 29.81700
H  -2.70000 39.76100 30.64200
H  -0.43100 43.05500 31.71000
H  1.14800 43.32000 31.36200
H  1.65300 43.04800 33.33300
H  1.34100 41.24300 33.17500
H  -4.67000 39.52700 25.04400
H  -4.67700 40.81400 26.19700
H  -3.95200 39.20900 26.57700
H  -5.05400 41.20600 23.59600
H  -4.89400 39.54100 22.89100
H  -5.10300 41.01100 21.87900
H  1.38000 43.36900 21.54700
H  4.25000 42.65500 22.43200
H  2.18000 40.39100 21.09400
H  3.23100 41.62700 20.32300
H  1.49600 41.49300 20.07700
H  4.63500 44.83300 22.40100
H  2.98000 45.27100 22.71900
H  4.28300 44.23600 20.07000
H  4.00900 45.82600 20.31400
H  2.57900 44.87300 20.12200
H  6.58000 44.56800 26.98200
H  6.89600 43.18500 25.90600
H  7.21900 43.05200 27.72500
H  3.48600 42.79400 31.27500
H  3.22900 40.35900 34.24500
H  4.81100 39.74700 33.99900
H  3.30800 39.04600 33.09800

