158

Mg 53.57900 23.75900 44.90300
C  51.19800 26.11600 44.01300
C  51.56900 21.26900 43.53900
C  56.20300 21.70900 45.26200
C  55.61200 26.43900 45.98000
N  51.71000 23.81600 43.74700
C  50.89500 24.84200 43.49000
C  49.71000 24.38500 42.62100
C  49.60200 22.86300 43.07200
C  51.05800 22.60200 43.47200
C  48.59000 22.55500 44.15000
C  49.97400 24.39400 41.05100
C  51.38700 24.76100 40.59900
H  51.55100 25.37500 39.17700
N  53.84000 21.70500 44.41400
C  52.90600 20.83000 43.92400
C  53.50800 19.48700 43.90700
C  54.79800 19.62900 44.46700
C  54.97400 21.05300 44.77400
C  52.87900 18.33100 43.33000
C  55.70000 18.44100 44.77900
O  55.44100 17.36400 44.29900
C  56.85300 18.46400 45.70000
N  55.70200 24.09600 45.43700
C  56.50000 23.03200 45.59300
C  57.86600 23.52000 46.22500
C  57.75500 25.08600 46.22900
C  56.23400 25.27800 45.86400
C  58.11900 22.88600 47.64100
C  58.82000 25.84100 45.26100
C  58.43800 25.96200 43.77800
N  53.47300 25.83500 45.07000
C  54.32600 26.74300 45.58600
C  53.72900 28.09900 45.62000
C  52.43500 27.85000 44.99300
C  52.38400 26.46700 44.66000
C  54.32800 29.32400 46.22700
C  51.26100 28.51500 44.50200
O  50.93300 29.69700 44.57700
C  50.45000 27.38600 43.81300
C  50.18600 27.86400 42.38900
O  51.02800 28.13200 41.55900
O  48.85000 27.81400 42.19800
C  48.33600 27.84600 40.83500
H  50.93600 20.39000 43.40100
H  57.10500 21.12500 45.45700
H  56.20300 27.25100 46.40700
H  48.69500 24.73000 42.82200
H  49.32200 22.21200 42.24300
H  47.61500 22.23800 43.78100
H  48.39900 23.46700 44.71500
H  48.99200 21.79900 44.82600
H  49.43500 25.27200 40.69500
H  49.72400 23.50000 40.47900
H  51.87100 23.78500 40.56200
H  51.77200 25.48600 41.31700
H  53.48800 17.99200 42.49300
H  51.88000 18.65400 43.03700
H  52.72800 17.46800 43.97800
H  56.83100 17.50400 46.21600
H  56.70600 19.23400 46.45700
H  57.78700 18.58400 45.15000
H  58.69300 23.21500 45.58400
H  57.87000 25.49000 47.23400
H  58.60200 23.69800 48.18400
H  58.76200 22.01100 47.54100
H  57.16300 22.58100 48.06600
H  59.80500 25.37600 45.31400
H  58.90800 26.86800 45.61400
H  57.94800 26.92900 43.66300
H  57.68100 25.23100 43.49500
H  59.22600 25.86500 43.03100
H  53.85900 30.22900 45.84000
H  55.32500 29.53100 45.84000
H  54.25700 29.27600 47.31400
H  49.47100 27.42400 44.29100
H  48.11500 28.88900 40.60900
H  47.49400 27.19100 40.61100
H  49.05400 27.44200 40.12200
Mg -6.44400 25.38900 25.82700
C  -4.60500 26.85800 28.33600
C  -7.60700 23.05000 28.04100
C  -7.88800 23.78000 23.24400
C  -4.90200 27.64900 23.63100
N  -5.97500 24.90800 27.90300
C  -5.36500 25.78100 28.77800
C  -5.74100 25.36200 30.29100
C  -6.40400 23.99000 30.08800
C  -6.67700 23.98100 28.59100
C  -5.58800 22.81000 30.60600
C  -6.72600 26.41200 30.88400
C  -6.36800 26.69900 32.36600
H  -5.87200 25.54000 33.32800
N  -7.63500 23.67100 25.67700
C  -8.04800 22.84100 26.74700
C  -8.96800 21.85800 26.21800
C  -9.05300 22.11600 24.81600
C  -8.12800 23.20200 24.47900
C  -9.61900 20.66700 26.95800
C  -9.97300 21.42000 23.78500
O  -9.85100 21.59400 22.58000
C  -11.05000 20.50900 24.26500
N  -6.37500 25.68800 23.73200
C  -7.14400 24.91300 22.88000
C  -6.98500 25.41100 21.45600
C  -6.09700 26.69800 21.58100
C  -5.81800 26.72600 23.10800
C  -6.38800 24.29200 20.47000
C  -6.73500 27.99500 20.96000
C  -5.98700 28.65500 19.82400
N  -5.06200 26.93800 25.96100
C  -4.49500 27.72900 24.96600
C  -3.58200 28.68800 25.49500
C  -3.66500 28.45200 26.86900
C  -4.44300 27.30600 27.09200
C  -2.80700 29.77300 24.79000
C  -3.17900 28.82000 28.23700
O  -2.36200 29.67800 28.49900
C  -3.83800 27.89600 29.25100
C  -2.82000 27.22300 30.06500
O  -1.81500 26.61800 29.68000
O  -3.14300 27.39800 31.41900
C  -2.21500 26.83000 32.38400
H  -8.12400 22.37600 28.72700
H  -8.40500 23.28100 22.42200
H  -4.37300 28.29400 22.92700
H  -4.83700 25.38400 30.90000
H  -7.37300 23.95200 30.58600
H  -5.23100 22.13200 29.83100
H  -6.26400 22.28500 31.28100
H  -4.70200 23.22000 31.09200
H  -7.75800 26.07200 30.96300
H  -6.73300 27.30800 30.26400
H  -7.31600 27.09800 32.72700
H  -5.59400 27.44400 32.18100
H  -9.46600 19.70600 26.46600
H  -10.66100 20.92700 27.14700
H  -9.19900 20.55100 27.95700
H  -10.78100 19.49200 24.55000
H  -11.71800 20.39400 23.41100
H  -11.61900 21.07300 25.00300
H  -7.99000 25.73000 21.18000
H  -5.22400 26.42800 20.98600
H  -7.21100 23.67400 20.11000
H  -5.63100 23.66400 20.94200
H  -5.92600 24.74800 19.59400
H  -6.85400 28.59400 21.86300
H  -7.73800 27.74200 20.61400
H  -5.09800 28.04600 19.66200
H  -5.73800 29.70000 20.00900
H  -6.58000 28.52900 18.91800
H  -3.44400 30.12000 23.97700
H  -1.90800 29.38900 24.30700
H  -2.61000 30.63600 25.42600
H  -4.48300 28.42600 29.95300
H  -1.38900 27.54100 32.40600
H  -1.89400 25.81900 32.13200
H  -2.65500 26.89900 33.37900

