158

Mg 0.94900 7.68300 25.41200
C  1.37200 9.91700 28.13100
C  1.05400 5.03600 27.52400
C  0.42700 5.88100 22.77800
C  1.36000 10.67100 23.27700
N  1.00300 7.50100 27.60600
C  1.09100 8.56400 28.55000
C  1.17000 7.98700 29.96100
C  1.18900 6.40300 29.74200
C  1.10700 6.28900 28.22400
C  2.46000 5.69600 30.31800
C  0.00300 8.44000 30.85300
C  0.42300 8.81100 32.24200
H  1.54600 7.95500 32.95000
N  0.60800 5.73800 25.19800
C  0.78500 4.76900 26.19100
C  0.61300 3.48800 25.59200
C  0.35300 3.65500 24.20500
C  0.39400 5.14700 23.98300
C  0.64900 2.19800 26.37300
C  0.19200 2.55700 23.14500
O  0.11700 2.87100 21.99800
C  0.19900 1.06200 23.54700
N  1.01400 8.24400 23.27000
C  0.59600 7.26400 22.47000
C  0.60000 7.83200 20.94800
C  0.86200 9.31800 21.16800
C  1.02600 9.43800 22.69400
C  1.65700 7.10100 20.10400
C  -0.21500 10.28400 20.50600
C  -1.56800 10.51900 21.29300
N  1.36300 9.80000 25.58100
C  1.50300 10.87300 24.63900
C  1.64600 12.20900 25.31900
C  1.63000 11.87300 26.71000
C  1.48400 10.40900 26.78200
C  1.92700 13.63100 24.63300
C  1.84500 12.41800 28.05800
O  2.08900 13.57600 28.37700
C  1.64700 11.19900 29.03300
C  2.94400 11.10400 29.78700
O  4.07000 11.29600 29.28100
O  2.73700 11.05300 31.14200
C  3.83200 11.51800 31.99000
H  1.15000 4.12900 28.12400
H  0.23000 5.32400 21.86000
H  1.51000 11.58800 22.70400
H  2.03400 8.42000 30.46500
H  0.27200 5.93200 30.09700
H  2.77500 6.36200 31.12300
H  3.24300 5.69800 29.56000
H  2.19700 4.72700 30.74100
H  -0.73000 7.63800 30.77300
H  -0.33000 9.37300 30.39800
H  -0.44000 8.94800 32.89300
H  0.85700 9.80900 32.29400
H  -0.28800 1.64200 26.31600
H  0.66700 2.29500 27.45900
H  1.38800 1.51300 25.95700
H  -0.55300 0.80000 24.29300
H  1.16100 0.75800 23.95900
H  -0.12200 0.65400 22.58900
H  -0.42200 7.73800 20.58100
H  1.88800 9.50100 20.84900
H  1.04700 6.40100 19.53200
H  2.50200 6.67100 20.64100
H  2.16100 7.79100 19.42600
H  -0.55400 9.75900 19.61200
H  0.39600 11.18000 20.39500
H  -1.70100 11.58500 21.47600
H  -1.55100 10.11700 22.30600
H  -2.42900 10.09600 20.77400
H  0.95700 14.12500 24.58300
H  2.27100 13.55700 23.60100
H  2.56200 14.25400 25.26300
H  0.89200 11.39500 29.79400
H  3.73600 11.09900 32.99100
H  3.82000 12.60800 31.96200
H  4.83000 11.27300 31.62600
Mg -6.13800 25.71600 25.37200
C  -4.43400 27.10900 28.21400
C  -7.45100 23.54900 27.59400
C  -7.34100 24.12600 22.68100
C  -4.17800 27.72000 23.35800
N  -6.03200 25.44000 27.69600
C  -5.28700 26.12500 28.59400
C  -5.63200 25.80100 29.99600
C  -6.39500 24.41000 29.78900
C  -6.57100 24.40400 28.26200
C  -5.76000 23.16100 30.43300
C  -6.40800 26.85800 30.78900
C  -5.82800 27.23000 32.14400
H  -6.59200 26.41100 33.23200
N  -7.31800 24.12300 25.19800
C  -7.90000 23.42900 26.24300
C  -9.05400 22.70000 25.72500
C  -8.95300 22.76800 24.28500
C  -7.85400 23.72200 23.95000
C  -10.07700 22.04600 26.57400
C  -9.63900 21.95000 23.28000
O  -9.50600 22.04600 22.06400
C  -10.61300 20.84300 23.69500
N  -5.84700 25.90600 23.37300
C  -6.45400 25.12600 22.43500
C  -6.06600 25.53600 20.98500
C  -5.17000 26.79200 21.23700
C  -5.03900 26.80500 22.74500
C  -5.36500 24.44100 20.05000
C  -5.65700 28.16500 20.73000
C  -5.78100 28.52500 19.19900
N  -4.65700 27.17300 25.70400
C  -3.93300 27.88200 24.74600
C  -3.00700 28.76300 25.43600
C  -3.26900 28.58800 26.77800
C  -4.20300 27.60100 26.90300
C  -2.06500 29.78700 24.76700
C  -2.93600 29.06900 28.06600
O  -2.21200 29.95100 28.46300
C  -3.61800 28.09500 29.03800
C  -2.67300 27.35800 29.89000
O  -1.96500 26.46300 29.53900
O  -2.59900 27.85600 31.17900
C  -1.86400 27.24900 32.26500
H  -8.09100 22.96700 28.26000
H  -7.82800 23.58600 21.86600
H  -3.47900 28.35100 22.80600
H  -4.64400 25.58200 30.40200
H  -7.43800 24.36700 30.10200
H  -6.32600 22.92600 31.33400
H  -4.73200 23.27300 30.77900
H  -5.85500 22.30900 29.75900
H  -7.38100 26.40800 30.98800
H  -6.54400 27.74800 30.17500
H  -6.03100 28.29200 32.27800
H  -4.76000 27.05100 32.26800
H  -9.95700 20.96300 26.55200
H  -11.08000 22.27100 26.21300
H  -10.00000 22.32700 27.62400
H  -10.02000 20.07400 24.19000
H  -10.95500 20.34700 22.78600
H  -11.42200 21.17700 24.34500
H  -7.02600 25.84900 20.57300
H  -4.13800 26.75900 20.88700
H  -6.07900 23.92200 19.41000
H  -4.83200 23.90900 20.83700
H  -4.67900 24.85300 19.30900
H  -5.16700 29.04400 21.14900
H  -6.71600 28.19100 20.98500
H  -5.64700 27.62200 18.60300
H  -5.02800 29.27000 18.94100
H  -6.76000 28.94600 18.97000
H  -1.45400 29.29900 24.00800
H  -1.43700 30.04300 25.62000
H  -2.67700 30.53900 24.26900
H  -4.25600 28.77000 29.60900
H  -2.46200 26.75100 33.02800
H  -1.27200 28.01800 32.76100
H  -1.10400 26.55900 31.89800

