158

Mg 24.88800 -4.68500 46.61600
C  26.67700 -2.18100 44.83900
C  22.23500 -4.14000 44.38100
C  23.37700 -7.62900 47.52200
C  27.68700 -5.29300 48.38000
N  24.51300 -3.45900 44.78400
C  25.36100 -2.44700 44.33900
C  24.81100 -1.86500 43.02100
C  23.27200 -2.24500 43.10200
C  23.32000 -3.31100 44.16900
C  22.26100 -1.04200 43.32000
C  25.53600 -2.43300 41.71400
C  26.37900 -1.43700 40.92000
H  26.28900 -1.60700 39.34100
N  22.97400 -5.72500 46.10900
C  22.04800 -5.33900 45.16900
C  20.96900 -6.29000 45.10000
C  21.39400 -7.35100 45.96800
C  22.58300 -6.94900 46.62900
C  19.76600 -6.16600 44.24900
C  20.61400 -8.59200 46.20800
O  19.45100 -8.67100 45.82900
C  21.20200 -9.86500 46.81500
N  25.43200 -6.24700 47.72400
C  24.66900 -7.32900 48.02400
C  25.47000 -8.32600 48.91300
C  26.77600 -7.51100 49.22200
C  26.62600 -6.24700 48.39700
C  24.83400 -8.77200 50.21200
C  28.09300 -8.34100 48.98400
C  28.99800 -8.63900 50.21500
N  26.78000 -3.89800 46.71200
C  27.81800 -4.17500 47.52300
C  28.91000 -3.30100 47.29300
C  28.51400 -2.49800 46.22200
C  27.21500 -2.90600 45.97200
C  30.25500 -3.50300 47.96400
C  29.05400 -1.56600 45.26000
O  30.20200 -1.18000 44.96600
C  27.78700 -1.15700 44.44300
C  27.43300 0.30600 44.55400
O  27.98800 1.18000 43.91000
O  26.40000 0.37600 45.41000
C  25.74000 1.67900 45.60700
H  21.32600 -3.89000 43.83000
H  22.92100 -8.52200 47.95300
H  28.55500 -5.34600 49.04000
H  24.90700 -0.77900 43.03000
H  22.95900 -2.79700 42.21600
H  21.65900 -1.14400 44.22300
H  21.59500 -0.85400 42.47800
H  22.86500 -0.14000 43.42000
H  24.79500 -2.73900 40.97500
H  26.15900 -3.29400 41.95500
H  27.40900 -1.60500 41.23300
H  26.09300 -0.46000 41.31000
H  19.98800 -6.76400 43.36600
H  19.57300 -5.16100 43.87300
H  18.81700 -6.55300 44.62100
H  22.16000 -10.06400 46.33400
H  20.51000 -10.70200 46.71700
H  21.34600 -9.74500 47.88900
H  25.66400 -9.24500 48.36000
H  26.76200 -7.16900 50.25700
H  24.02400 -8.07400 50.42500
H  25.51100 -8.72400 51.06500
H  24.35800 -9.74800 50.30500
H  28.74700 -7.76600 48.32900
H  27.72700 -9.24100 48.49000
H  28.96200 -9.72400 50.32200
H  28.60000 -8.29100 51.16900
H  30.02400 -8.35300 49.98200
H  30.83300 -2.58300 47.88200
H  30.89500 -4.25000 47.49400
H  30.20000 -3.90500 48.97600
H  28.07500 -1.30200 43.40200
H  24.95700 1.69200 44.84800
H  26.40000 2.50100 45.33100
H  25.20100 1.71800 46.55400
Mg 56.36600 24.77200 44.79100
C  53.56200 26.36200 43.56300
C  55.24200 21.75100 43.69000
C  59.36200 23.54200 45.14000
C  57.64900 28.01100 45.51700
N  54.70800 24.14500 43.73900
C  53.69200 24.96600 43.35700
C  52.64200 24.14600 42.49600
C  52.95300 22.75300 43.00700
C  54.40400 22.85800 43.44300
C  52.03200 22.22000 44.07100
C  52.99000 24.18300 40.95500
C  51.76500 24.16000 39.99800
H  51.82100 24.64400 38.55300
N  57.15600 22.81100 44.58100
C  56.52200 21.70400 44.19200
C  57.47300 20.65600 44.35000
C  58.69500 21.11100 44.73900
C  58.44600 22.56200 44.79000
C  57.05000 19.26300 44.01200
C  59.98900 20.26600 44.99500
O  59.93700 19.04700 44.89000
C  61.32600 20.80300 45.40500
N  58.21800 25.63700 45.19600
C  59.35700 24.90400 45.26900
C  60.62600 25.75000 45.55700
C  59.99900 27.15400 45.73800
C  58.48100 26.92700 45.50800
C  61.61600 25.29400 46.52100
C  60.59700 28.35500 44.87100
C  60.38900 28.19900 43.36200
N  55.64400 26.80500 44.88300
C  56.25600 27.99500 45.25300
C  55.24500 29.06800 45.13200
C  54.12700 28.39600 44.45600
C  54.49300 27.07400 44.28700
C  55.44500 30.51900 45.54000
C  52.93500 28.68500 43.80800
O  52.37800 29.73100 43.51300
C  52.36300 27.32300 43.40300
C  51.98500 27.55500 41.95800
O  52.72200 27.57800 41.01800
O  50.61700 27.79100 41.92100
C  49.85200 28.05300 40.67500
H  54.74800 20.79800 43.49200
H  60.38500 23.17400 45.24700
H  58.12300 28.97100 45.73200
H  51.66000 24.55500 42.73200
H  52.99800 21.96900 42.25100
H  51.22600 22.92200 44.28400
H  52.44300 21.90600 45.03100
H  51.44400 21.32200 43.87900
H  53.61400 23.33700 40.66500
H  53.55700 25.07200 40.67700
H  51.03000 24.68200 40.61000
H  51.32500 23.16900 40.11200
H  57.86200 18.95400 43.35400
H  56.12100 19.17500 43.44900
H  56.96100 18.64300 44.90400
H  61.15200 21.19200 46.40800
H  61.50700 21.50200 44.58800
H  62.16300 20.10800 45.45700
H  61.11600 25.73500 44.58400
H  59.98500 27.45900 46.78400
H  61.19900 24.57400 47.22500
H  61.98500 26.20100 46.99900
H  62.39500 24.75300 45.98300
H  61.66100 28.36100 45.10800
H  60.15600 29.30100 45.18200
H  59.76900 27.31400 43.21500
H  61.35500 28.16300 42.85900
H  59.78800 29.05300 43.05200
H  54.84600 31.00100 44.76700
H  56.47300 30.87700 45.59600
H  55.04800 30.77100 46.52300
H  51.43000 26.98400 43.85300
H  49.01000 27.36000 40.66000
H  50.49900 27.65400 39.89500
H  49.42100 29.03700 40.49100

