158

Mg 2.12300 -0.88300 44.21400
C  5.58400 -0.35000 43.65000
C  1.51400 1.93600 42.26400
C  -1.11900 -1.82900 43.97900
C  2.93900 -4.16000 45.37700
N  3.47200 0.58100 42.98900
C  4.81800 0.58600 43.00400
C  5.34000 1.74500 42.18800
C  4.01700 2.54100 41.87700
C  2.92700 1.70900 42.44600
C  3.91700 3.97400 42.40800
C  6.03000 1.23300 40.90500
C  7.19100 2.08100 40.37300
H  6.73900 2.93600 39.23900
N  0.45000 0.00200 43.35800
C  0.40900 1.14600 42.66100
C  -0.99100 1.51200 42.48800
C  -1.82700 0.46100 42.92100
C  -0.85100 -0.53600 43.45000
C  -1.31400 2.96500 42.00200
C  -3.39800 0.51400 43.08500
O  -3.98200 1.52700 42.80400
C  -4.16800 -0.58500 43.66100
N  1.07900 -2.66200 44.75900
C  -0.28500 -2.75700 44.66600
C  -0.82300 -4.14500 45.13500
C  0.47600 -4.82100 45.57800
C  1.56400 -3.85200 45.18200
C  -1.88500 -4.04200 46.29500
C  0.65600 -6.22000 44.89000
C  1.28300 -7.32200 45.81600
N  3.92900 -1.96500 44.54700
C  4.05500 -3.24400 45.04000
C  5.49500 -3.50600 45.25100
C  6.14200 -2.34900 44.73800
C  5.10700 -1.48200 44.32800
C  5.95300 -4.73000 46.01200
C  7.42000 -1.72600 44.51400
O  8.51900 -2.18700 44.79200
C  7.10200 -0.33500 43.83500
C  7.73400 0.79100 44.67400
O  7.22500 1.20800 45.70300
O  8.80100 1.31500 44.03600
C  9.48700 2.41300 44.70300
H  1.37700 2.85600 41.69100
H  -2.13300 -2.23400 43.95500
H  3.00000 -5.21000 45.67300
H  5.92700 2.46800 42.75400
H  3.85600 2.69400 40.81000
H  3.86100 3.78200 43.47900
H  3.06500 4.54200 42.03200
H  4.80600 4.50900 42.07400
H  5.31800 1.08300 40.09300
H  6.48100 0.28800 41.20900
H  7.95200 1.37500 40.03900
H  7.54700 2.76400 41.14400
H  -2.35500 3.07200 41.69600
H  -0.71700 3.16300 41.11200
H  -1.07600 3.62800 42.83400
H  -5.16300 -0.27700 43.98100
H  -3.71800 -0.83800 44.62100
H  -4.16000 -1.40100 42.93800
H  -1.41200 -4.64600 44.36700
H  0.51900 -4.89100 46.66500
H  -1.74600 -4.82800 47.03700
H  -2.84000 -4.31900 45.84800
H  -2.04900 -3.04000 46.69300
H  1.31000 -6.01500 44.04300
H  -0.32400 -6.57000 44.56600
H  1.61900 -6.88500 46.75600
H  2.19500 -7.73700 45.38800
H  0.42100 -7.97600 45.95500
H  5.27300 -5.06100 46.79600
H  7.00800 -4.60500 46.25500
H  5.93300 -5.62600 45.39100
H  7.60900 -0.26100 42.87300
H  10.37600 2.63900 44.11500
H  9.73300 2.11800 45.72300
H  8.86900 3.30100 44.83100
Mg -11.24800 16.31800 42.55000
C  -8.02000 16.96600 42.89300
C  -11.97100 19.44000 41.65000
C  -14.42000 15.37900 42.24000
C  -10.40400 12.81800 42.40300
N  -10.17200 17.96100 42.05400
C  -8.79600 18.00000 42.31000
C  -8.32500 19.41700 42.05300
C  -9.62700 20.25700 41.82500
C  -10.67500 19.17400 41.85800
C  -9.92700 21.38400 42.86100
C  -7.34800 19.57000 40.83600
C  -6.20200 20.56500 40.93600
H  -4.90600 20.00200 40.39100
N  -13.04400 17.29600 42.07200
C  -13.12900 18.59500 41.76700
C  -14.50400 18.98800 41.57700
C  -15.26300 17.79500 41.74700
C  -14.29100 16.75400 41.96400
C  -14.97700 20.42300 41.40800
C  -16.77800 17.73600 41.58000
O  -17.42700 18.76500 41.35400
C  -17.56300 16.49200 41.81800
N  -12.28000 14.32300 42.18200
C  -13.57300 14.28400 42.39800
C  -13.97900 12.85600 42.71100
C  -12.77700 12.12500 42.07600
C  -11.69400 13.11300 42.18900
C  -14.22200 12.43400 44.13300
C  -13.06300 11.56900 40.73000
C  -13.51800 10.07500 40.63600
N  -9.56200 15.11000 42.77600
C  -9.40200 13.68900 42.75100
C  -7.99500 13.42000 43.03700
C  -7.43600 14.70100 43.19200
C  -8.44600 15.68800 43.06600
C  -7.30100 12.04300 43.12000
C  -6.17500 15.50800 43.55600
O  -5.01700 15.10900 43.83600
C  -6.64000 16.98400 43.36800
C  -6.50200 17.71800 44.64200
O  -7.08800 17.36000 45.63300
O  -5.72800 18.84700 44.51700
C  -5.36900 19.36600 45.85500
H  -12.21300 20.49500 41.50800
H  -15.45400 15.07700 42.41700
H  -10.24900 11.74000 42.47600
H  -7.83100 19.77200 42.95700
H  -9.76800 20.76600 40.87100
H  -10.40200 20.98100 43.75500
H  -10.55300 22.15300 42.40900
H  -9.06700 21.93300 43.24500
H  -7.87500 19.90500 39.94200
H  -6.99700 18.57000 40.58200
H  -5.99200 20.73000 41.99200
H  -6.41900 21.52200 40.46100
H  -14.14600 21.12600 41.34600
H  -15.55900 20.58500 42.31500
H  -15.49200 20.58400 40.46100
H  -18.64100 16.65600 41.81100
H  -17.24300 16.17400 42.81000
H  -17.30500 15.73200 41.08100
H  -14.91300 12.68700 42.17600
H  -12.54000 11.25900 42.69400
H  -15.22700 12.03600 44.27000
H  -14.00900 13.21000 44.86700
H  -13.60100 11.59400 44.44600
H  -12.11800 11.57900 40.18700
H  -13.81900 12.23200 40.30900
H  -13.11800 9.65900 41.56000
H  -13.22300 9.50600 39.75500
H  -14.60600 10.12300 40.58000
H  -8.10500 11.30800 43.16500
H  -6.76100 11.97200 44.06400
H  -6.73000 11.79300 42.22500
H  -5.83800 17.41500 42.76800
H  -4.87600 18.64100 46.50200
H  -6.22600 19.84100 46.33300
H  -4.60800 20.12400 45.67000

