158

Mg 47.48800 16.22400 28.05300
C  45.64600 15.76700 30.93000
C  50.01500 17.78400 29.80400
C  49.30000 16.50900 25.10200
C  44.78100 15.00600 26.21000
N  47.74700 16.81000 30.10600
C  46.90900 16.37100 31.11600
C  47.45900 16.80800 32.45500
C  48.64700 17.73900 32.10200
C  48.81800 17.51200 30.56900
C  48.59700 19.29400 32.41900
C  47.91700 15.69100 33.42900
C  48.40600 16.13200 34.83900
H  48.14900 17.59700 35.30200
N  49.37500 16.90700 27.55600
C  50.29400 17.43800 28.44700
C  51.55400 17.67700 27.79000
C  51.32600 17.39600 26.43800
C  49.92700 16.89200 26.27700
C  52.83800 18.11000 28.51500
C  52.30800 17.52600 25.27100
O  52.00900 17.36400 24.14500
C  53.75800 17.97300 25.59600
N  47.08200 15.79400 25.98400
C  47.98400 16.01800 24.93500
C  47.37400 15.68900 23.57200
C  46.03100 14.96300 24.02200
C  45.92900 15.23400 25.47600
C  47.09300 16.94100 22.65900
C  46.07300 13.40600 23.77600
C  44.93700 12.92100 22.88000
N  45.44700 15.81500 28.47500
C  44.51700 15.24100 27.61300
C  43.35300 14.83400 28.44200
C  43.72500 15.14100 29.71700
C  45.05200 15.66600 29.67300
C  42.08800 14.19500 27.93900
C  43.31000 15.02100 31.05500
O  42.29800 14.61600 31.54900
C  44.59300 15.37800 31.92400
C  44.30200 16.46100 32.93300
O  44.09900 17.66100 32.64100
O  44.44400 15.92200 34.20600
C  44.03200 16.74200 35.37300
H  50.79800 18.15400 30.46900
H  49.80800 16.75000 24.16600
H  43.97000 14.51900 25.66500
H  46.70900 17.43900 32.93200
H  49.59100 17.31800 32.44900
H  48.98800 19.82900 31.55300
H  49.15300 19.51900 33.32900
H  47.56800 19.60200 32.60600
H  48.64900 15.02900 32.96600
H  47.08700 14.98700 33.50000
H  49.45600 15.84900 34.90500
H  47.88100 15.54400 35.59200
H  53.53100 17.31200 28.25000
H  52.72800 18.24600 29.59100
H  53.23000 19.04700 28.12000
H  53.92200 19.03000 25.80500
H  54.27900 17.77600 24.65900
H  54.33100 17.28100 26.21400
H  48.04900 15.02900 23.02800
H  45.26600 15.50800 23.47000
H  47.83800 17.73600 22.66700
H  46.14900 17.43000 22.90000
H  46.99300 16.61400 21.62400
H  45.95300 12.92800 24.74800
H  47.01700 13.07100 23.34600
H  44.14400 12.35500 23.37000
H  45.33900 12.22000 22.15000
H  44.43700 13.73500 22.35400
H  42.10700 13.10600 27.98500
H  41.94200 14.55800 26.92200
H  41.21600 14.34200 28.57700
H  44.98200 14.50000 32.43900
H  43.17200 17.37700 35.16300
H  44.84200 17.31600 35.82300
H  43.74000 16.03800 36.15200
Mg 41.00400 40.93900 26.13400
C  40.43700 43.27600 28.87300
C  42.39000 38.89000 28.40200
C  41.75700 38.93000 23.60400
C  40.30800 43.60400 23.94200
N  41.42300 41.19100 28.35300
C  40.94400 42.08200 29.27600
C  41.06300 41.58600 30.67500
C  41.63600 40.17100 30.47700
C  41.80000 40.04700 28.97400
C  42.86200 39.90200 31.38000
C  39.69700 41.59900 31.45000
C  39.65100 42.32900 32.84200
H  38.83500 41.75300 34.03500
N  41.90600 39.12800 26.05000
C  42.36000 38.37800 27.06500
C  42.86800 37.07500 26.62200
C  42.55700 37.06900 25.21200
C  41.98600 38.41500 24.85600
C  43.51300 36.06700 27.57800
C  42.77700 35.89800 24.27300
O  42.38600 35.81900 23.12600
C  43.49400 34.71700 24.78600
N  41.17700 41.27500 24.07400
C  41.35300 40.22900 23.20000
C  41.00900 40.58200 21.75900
C  40.37900 42.00200 21.97400
C  40.67800 42.37800 23.42000
C  42.28300 40.53000 20.81400
C  38.84900 42.26300 21.61900
C  37.81500 41.81700 22.63000
N  40.55600 43.00800 26.26200
C  40.26200 43.94700 25.32800
C  39.86300 45.27100 25.93600
C  39.85300 44.99200 27.29500
C  40.38200 43.66000 27.50300
C  39.59900 46.56100 25.21500
C  39.64500 45.65800 28.59200
O  39.29400 46.78400 28.94000
C  40.08200 44.48100 29.71300
C  41.18800 44.99800 30.56200
O  42.34900 45.24500 30.17700
O  40.80000 45.06800 31.88100
C  41.79500 45.40700 32.89800
H  42.58700 38.11700 29.14700
H  41.94000 38.19100 22.82100
H  39.81900 44.27800 23.23600
H  41.81200 42.20800 31.16500
H  40.86900 39.50600 30.87300
H  42.78800 38.84400 31.63300
H  42.87500 40.44900 32.32200
H  43.76100 40.06000 30.78400
H  39.32100 40.58900 31.61200
H  39.03200 42.11000 30.75500
H  39.31300 43.35500 32.69300
H  40.67900 42.35200 33.20300
H  42.69400 35.36500 27.73000
H  43.86300 36.59300 28.46700
H  44.44400 35.68500 27.15900
H  43.48500 33.85700 24.11600
H  43.10000 34.32000 25.72100
H  44.52700 35.04700 24.89700
H  40.21600 40.01600 21.26900
H  41.10500 42.72100 21.59600
H  43.23700 40.39100 21.32400
H  42.38600 41.49800 20.32300
H  42.15100 39.79300 20.02200
H  38.62300 41.64500 20.75100
H  38.69400 43.30600 21.34400
H  37.00400 42.52100 22.81200
H  38.30900 41.59900 23.57700
H  37.43600 40.86500 22.25700
H  39.97400 46.61500 24.19300
H  40.12200 47.33600 25.77600
H  38.53900 46.78200 25.08700
H  39.17900 44.26600 30.28300
H  42.78800 45.71100 32.56600
H  42.01100 44.57200 33.56500
H  41.47600 46.19300 33.58200

