158

Mg 35.98500 49.08100 24.38900
C  35.97800 47.47800 27.56300
C  34.33700 51.70600 26.14400
C  35.38900 50.46700 21.40600
C  37.06500 46.07600 23.08300
N  35.19300 49.55200 26.61400
C  35.48800 48.79400 27.69500
C  35.10700 49.59600 28.96900
C  34.40500 50.88100 28.52400
C  34.63400 50.72100 27.04800
C  32.91000 51.03500 28.84900
C  36.36700 49.83200 29.92700
C  36.05800 49.86200 31.41500
H  34.52900 49.80100 31.87500
N  35.19300 50.88500 23.83600
C  34.56300 51.82100 24.73500
C  34.13200 52.95200 23.89900
C  34.37300 52.66500 22.55400
C  35.01000 51.27900 22.49600
C  33.44400 54.25100 24.42900
C  34.06900 53.49700 21.29200
O  34.27700 52.97300 20.13400
C  33.83200 54.92000 21.32800
N  36.30400 48.48200 22.56200
C  35.98000 49.19700 21.43700
C  36.42500 48.45200 20.18100
C  37.21400 47.21600 20.72100
C  36.85800 47.19200 22.22100
C  35.34200 48.18100 19.06000
C  38.69900 46.99500 20.31500
C  39.70900 47.93000 21.06100
N  36.54100 47.13000 25.11300
C  36.99100 45.99700 24.50400
C  37.19200 44.93800 25.37300
C  36.87500 45.48100 26.61200
C  36.38800 46.76600 26.39600
C  37.65600 43.50900 25.03500
C  36.85300 45.16400 28.00200
O  37.12000 44.09400 28.58300
C  36.40200 46.45500 28.70400
C  35.27600 46.16000 29.59900
O  34.09200 46.01900 29.24900
O  35.72700 46.02500 30.94300
C  34.92900 45.13400 31.72300
H  33.71800 52.53100 26.50400
H  35.11300 50.60300 20.35800
H  37.59800 45.18100 22.75700
H  34.45400 48.95900 29.56500
H  34.99800 51.71700 28.89400
H  32.28800 51.01300 27.95400
H  32.72900 51.98100 29.36000
H  32.68900 50.25700 29.57900
H  36.85300 50.74700 29.58900
H  37.05500 49.06000 29.58000
H  36.51900 50.76200 31.82200
H  36.44900 49.01200 31.97300
H  34.22700 55.00800 24.47900
H  33.12700 54.17700 25.47000
H  32.49700 54.54500 23.97700
H  32.97000 55.16400 21.95000
H  33.75600 55.21400 20.28100
H  34.75800 55.34800 21.71200
H  37.20100 49.06000 19.71400
H  36.68000 46.32800 20.38100
H  34.54800 48.92700 19.11000
H  34.81800 47.25500 19.29600
H  35.86300 48.21800 18.10400
H  38.84000 47.16800 19.24800
H  39.09300 45.98000 20.36800
H  39.03800 48.69100 21.45800
H  40.48700 48.39700 20.45800
H  40.07200 47.34600 21.90700
H  37.62100 43.22400 23.98300
H  36.94700 42.80900 25.47700
H  38.64600 43.34800 25.46200
H  37.30900 46.61400 29.28600
H  34.92300 44.13100 31.29600
H  33.89300 45.47100 31.75900
H  35.24200 45.14500 32.76700
Mg 26.61300 50.11700 26.04500
C  24.53900 51.39100 28.54000
C  28.98300 49.47200 28.37900
C  28.72100 49.34600 23.52900
C  24.35800 51.37600 23.75600
N  26.69400 50.41200 28.29100
C  25.68300 50.80700 29.08200
C  26.04700 50.59700 30.59600
C  27.61400 50.21900 30.47500
C  27.79000 50.00600 28.92400
C  28.63900 51.23700 31.05500
C  25.18300 49.57800 31.37800
C  24.64300 50.04000 32.69600
H  24.90700 49.06900 33.81300
N  28.51300 49.30600 25.97900
C  29.34200 49.04300 27.06200
C  30.62900 48.48200 26.57900
C  30.54200 48.48000 25.15000
C  29.18900 49.04200 24.79400
C  31.66000 47.93400 27.54700
C  31.48200 48.09800 24.08900
O  31.38700 48.40600 22.91800
C  32.83000 47.40200 24.50100
N  26.58900 50.43900 23.91900
C  27.58500 49.99100 23.09000
C  27.22200 50.20400 21.57100
C  25.73800 50.76500 21.65300
C  25.50600 50.87900 23.19200
C  28.35200 50.98500 20.70100
C  24.69900 49.80900 20.95400
C  24.47700 48.38700 21.44800
N  24.82100 51.25900 26.04500
C  23.98100 51.69400 25.04000
C  22.81300 52.31900 25.60700
C  22.96900 52.25500 26.98400
C  24.18900 51.58100 27.20100
C  21.76400 52.91500 24.70700
C  22.40700 52.66500 28.23200
O  21.39900 53.25000 28.46600
C  23.32000 51.98400 29.34500
C  23.73400 53.09900 30.29400
O  24.36600 54.12000 29.97400
O  23.08600 52.91200 31.51700
C  23.27300 53.91300 32.56700
H  29.74500 49.03800 29.03000
H  29.23100 49.28500 22.56500
H  23.60800 51.59800 22.99400
H  25.87900 51.57900 31.03900
H  27.68600 49.22100 30.90700
H  28.20000 51.72300 31.92600
H  28.76100 51.98900 30.27600
H  29.56900 50.91800 31.52600
H  25.85200 48.74700 31.60300
H  24.38700 49.12900 30.78300
H  23.56600 50.07000 32.53000
H  24.93500 51.07400 32.87900
H  31.30200 46.91400 27.68400
H  31.53100 48.26900 28.57600
H  32.66400 48.14600 27.17900
H  33.25600 48.22500 25.07500
H  33.35500 47.03700 23.61800
H  32.66600 46.56500 25.18000
H  27.29500 49.22900 21.09100
H  25.69400 51.75600 21.20000
H  28.61200 50.42200 19.80500
H  29.20400 51.26300 21.32100
H  27.93000 51.93100 20.36200
H  25.03700 49.88600 19.92000
H  23.70700 50.25200 20.86500
H  23.49400 48.29400 21.91100
H  25.21000 48.12300 22.21100
H  24.51800 47.69400 20.60700
H  21.84800 52.47200 23.71500
H  22.02700 53.96800 24.60600
H  20.72500 52.89000 25.03600
H  22.86700 51.15100 29.88200
H  23.92200 53.71100 33.41800
H  22.27600 54.00200 32.99900
H  23.56000 54.87800 32.15000

