158

Mg 16.46500 52.33100 25.83900
C  18.23200 50.89300 28.57600
C  13.92500 53.18700 28.12300
C  14.74100 53.63500 23.31900
C  18.87100 51.11300 23.76900
N  16.10700 52.00200 28.07900
C  17.08700 51.57400 28.96300
C  16.65400 51.91500 30.50400
C  15.12200 52.28600 30.30000
C  15.02200 52.51800 28.76200
C  14.10800 51.34000 30.83400
C  17.50700 53.04200 31.16800
C  17.99600 52.81300 32.56900
H  17.02400 51.94200 33.37400
N  14.57500 53.24600 25.70600
C  13.71000 53.61700 26.74900
C  12.65500 54.50200 26.18000
C  12.95500 54.61100 24.76100
C  14.12700 53.78200 24.57300
C  11.57800 55.07900 27.03300
C  12.21200 55.38600 23.73500
O  12.56900 55.54300 22.56000
C  10.95900 56.10900 24.13900
N  16.67600 52.25300 23.83500
C  15.84100 52.92200 22.96100
C  16.36800 52.96400 21.52800
C  17.66800 52.05000 21.66200
C  17.73800 51.78400 23.21000
C  15.39800 52.52300 20.45900
C  18.95400 52.64600 21.15100
C  19.84000 51.60600 20.44900
N  18.19900 51.28800 26.00900
C  19.04600 50.78300 25.09300
C  20.15000 50.09900 25.70100
C  19.81100 50.15600 27.09400
C  18.58300 50.81900 27.25000
C  21.29500 49.43500 25.06100
C  20.27600 49.63400 28.29200
O  21.17700 48.91800 28.64600
C  19.29500 50.17400 29.33000
C  18.67300 49.14400 30.14500
O  17.65400 48.49800 29.90700
O  19.38400 48.97700 31.28200
C  18.63500 48.18400 32.31600
H  13.05700 53.44100 28.73600
H  14.41500 54.18800 22.43500
H  19.58500 50.68600 23.06200
H  16.74800 51.02000 31.11900
H  15.00600 53.27600 30.74000
H  13.35300 52.02300 31.22200
H  14.66500 50.82800 31.61900
H  13.76500 50.62600 30.08400
H  16.96300 53.98400 31.23400
H  18.39400 53.16600 30.54700
H  18.15500 53.77100 33.06300
H  18.99600 52.38400 32.49600
H  11.70100 56.16200 27.04800
H  11.59300 54.74000 28.06900
H  10.55600 54.88600 26.70800
H  10.95100 56.79900 24.98300
H  10.35600 55.21500 24.30000
H  10.46000 56.64500 23.33200
H  16.61100 54.02500 21.47100
H  17.39500 51.05800 21.30000
H  15.09300 53.35400 19.82300
H  14.55000 52.06300 20.96700
H  15.82800 51.70500 19.88100
H  19.55600 53.03700 21.97200
H  18.62300 53.49800 20.55700
H  19.85100 51.91900 19.40500
H  19.39800 50.61100 20.49600
H  20.74700 51.60700 21.05200
H  21.77800 50.18700 24.43800
H  20.89300 48.65500 24.41400
H  21.96000 49.11900 25.86500
H  19.85000 50.91400 29.90700
H  17.60800 48.52400 32.44800
H  19.19200 48.25700 33.25000
H  18.59200 47.17400 31.90900
Mg 9.25500 48.27200 25.57300
C  7.33100 48.32700 28.51400
C  11.83700 49.57600 27.39600
C  11.13500 48.27500 22.85000
C  6.38500 47.79100 23.65000
N  9.46100 48.94900 27.66200
C  8.65400 48.81000 28.74900
C  9.33800 49.17900 30.06200
C  10.51000 50.05000 29.57000
C  10.69000 49.47700 28.10300
C  10.13000 51.58600 29.57100
C  9.76400 47.88900 30.83600
C  10.25800 48.09600 32.22700
H  9.90700 46.96500 33.21400
N  11.28200 48.64700 25.23300
C  12.22900 49.14000 26.11200
C  13.54600 49.20500 25.46300
C  13.29400 48.81000 24.13600
C  11.91500 48.55100 24.03000
C  14.79200 49.65100 26.14600
C  14.30500 48.75400 22.93700
O  13.94400 48.33900 21.86500
C  15.73600 49.05500 23.21600
N  8.74000 47.95100 23.50700
C  9.77300 48.08000 22.57300
C  9.17300 47.79000 21.11300
C  7.68800 47.56200 21.38200
C  7.57000 47.84300 22.92100
C  9.62400 48.89700 20.08400
C  7.13900 46.11600 21.07900
C  5.85000 46.05700 20.31700
N  7.27200 48.14500 25.95000
C  6.23500 47.92100 25.07900
C  4.99100 47.82100 25.83500
C  5.38500 47.92800 27.17200
C  6.77600 48.14300 27.14300
C  3.62800 47.45500 25.38400
C  4.96300 47.80500 28.52400
O  3.86600 47.66400 28.97200
C  6.21000 48.02400 29.46400
C  6.46200 46.88600 30.26000
O  6.92500 45.78000 29.96400
O  6.15000 47.27300 31.56800
C  6.29900 46.17000 32.52300
H  12.62300 50.06900 27.97200
H  11.70100 48.27200 21.91600
H  5.45900 47.66400 23.08500
H  8.67800 49.84600 30.61700
H  11.35800 49.92500 30.24300
H  9.10000 51.75800 29.88500
H  10.38700 51.88700 28.55500
H  10.88400 52.04700 30.20800
H  10.45200 47.32400 30.20600
H  8.92800 47.19600 30.73600
H  9.87300 49.05500 32.57600
H  11.34400 48.16600 32.15800
H  14.67700 49.75000 27.22500
H  15.00000 50.63700 25.73200
H  15.62300 48.98200 25.92200
H  16.21100 48.13300 23.55100
H  15.85000 49.89600 23.90100
H  16.03400 49.32300 22.20300
H  9.68600 46.86500 20.85100
H  7.15900 48.34100 20.83300
H  10.11800 49.67900 20.66000
H  8.72900 49.35000 19.65700
H  10.24900 48.50400 19.28200
H  6.98300 45.66200 22.05800
H  7.88000 45.61100 20.46000
H  5.85800 45.74400 19.27300
H  5.36900 47.03200 20.24100
H  5.14800 45.42000 20.85400
H  3.44800 47.34700 24.31500
H  2.93400 48.23100 25.70800
H  3.19800 46.60100 25.90700
H  6.02400 48.92600 30.04700
H  6.95700 46.50100 33.32600
H  6.77200 45.22400 32.26000
H  5.31000 46.02400 32.95900

