158

Mg 45.83600 5.34400 48.24700
C  43.45400 7.90800 47.29700
C  43.28700 3.07800 47.14400
C  48.09400 3.07900 48.11700
C  48.17000 7.86800 48.66700
N  43.52600 5.49700 47.38600
C  42.93900 6.62600 46.97900
C  41.62500 6.33800 46.25700
C  41.39600 4.82600 46.65200
C  42.83300 4.40000 47.06000
C  40.34200 4.66600 47.80700
C  41.60500 6.66300 44.75400
C  40.41300 7.56400 44.28500
H  39.57800 7.04400 43.10000
N  45.72900 3.31000 47.87100
C  44.60400 2.60300 47.47200
C  45.02700 1.17100 47.44700
C  46.44000 1.10300 47.54900
C  46.82700 2.51800 47.82400
C  44.06800 0.05500 47.17800
C  47.25900 -0.13300 47.47600
O  46.73200 -1.22800 47.22300
C  48.86900 -0.18900 47.58800
N  47.83800 5.51100 48.29200
C  48.58700 4.35300 48.34900
C  50.03500 4.59000 48.73100
C  50.00800 6.12400 48.94600
C  48.59600 6.52800 48.63600
C  50.61500 3.73600 49.84700
C  51.01400 6.94100 48.09900
C  52.00800 7.98700 48.79800
N  45.82700 7.46700 48.26700
C  46.89800 8.32500 48.41900
C  46.41600 9.66400 48.08100
C  45.07600 9.55900 47.73900
C  44.74400 8.17900 47.83000
C  47.34400 10.84600 48.07600
C  43.84900 10.27300 47.36000
O  43.73600 11.49500 47.06600
C  42.76000 9.24200 47.12700
C  41.78800 9.50500 48.29400
O  41.87600 8.85700 49.32300
O  40.87200 10.44900 47.98200
C  39.80000 10.66600 48.96200
H  42.55100 2.31800 46.87400
H  48.92900 2.39300 48.27300
H  48.91100 8.63700 48.89500
H  40.88400 6.90800 46.81600
H  41.00300 4.30300 45.78000
H  39.80900 5.55300 48.14900
H  40.78100 4.27800 48.72600
H  39.58300 3.91200 47.60000
H  41.68700 5.73000 44.19600
H  42.47300 7.27600 44.51100
H  40.87300 8.50000 43.96900
H  39.80000 7.84100 45.14300
H  43.07200 0.44700 46.97000
H  43.84900 -0.52900 48.07200
H  44.42200 -0.57400 46.36100
H  49.25700 -1.20700 47.55400
H  49.13600 0.10400 48.60300
H  49.41100 0.48500 46.92400
H  50.69100 4.33300 47.90000
H  50.24800 6.35400 49.98400
H  51.41300 4.18900 50.43400
H  50.93200 2.82000 49.34800
H  49.83900 3.29600 50.47400
H  50.41400 7.57000 47.44100
H  51.62800 6.28500 47.48300
H  51.80200 8.96300 48.35900
H  53.02000 7.68800 48.52500
H  52.05400 7.98500 49.88700
H  47.87900 10.86800 47.12700
H  47.98800 10.88600 48.95500
H  46.67200 11.70100 48.15200
H  42.20400 9.34500 46.19500
H  39.52700 9.76600 49.51300
H  38.93000 10.94900 48.36900
H  40.03700 11.50000 49.62400
Mg 6.09600 54.14100 41.39100
C  5.68100 50.73600 40.61700
C  9.18000 54.08200 40.07000
C  5.79000 57.47400 41.51000
C  2.54800 54.02500 42.66800
N  7.27200 52.55500 40.40700
C  6.88800 51.32100 40.20600
C  8.17600 50.45500 39.69600
C  9.34600 51.50800 39.81400
C  8.53100 52.81700 40.02800
C  10.53400 51.28000 40.88400
C  8.07500 49.82600 38.38600
C  7.78000 50.74500 37.15500
H  6.80200 50.09400 36.13800
N  7.35100 55.61200 40.94300
C  8.66000 55.37800 40.46000
C  9.29900 56.72000 40.34800
C  8.30300 57.68900 40.78900
C  7.06200 56.92900 41.04900
C  10.76700 57.01300 39.84400
C  8.52000 59.19700 40.91000
O  9.59200 59.64800 40.54000
C  7.58000 60.19900 41.47200
N  4.52100 55.55800 42.32400
C  4.65800 56.82100 41.96200
C  3.44100 57.64800 42.34300
C  2.47600 56.57400 42.93800
C  3.22900 55.28100 42.58500
C  3.78200 58.80300 43.36100
C  1.04400 56.65500 42.30300
C  -0.12300 56.38300 43.23500
N  4.45100 52.73600 41.68800
C  3.14800 52.79000 42.23400
C  2.68300 51.42900 42.47300
C  3.57200 50.59200 41.82700
C  4.61100 51.41500 41.31500
C  1.53800 50.99000 43.35200
C  3.90400 49.16900 41.55900
O  3.34800 48.13700 41.92600
C  5.20800 49.28400 40.63500
C  4.75600 48.73700 39.31700
O  3.96500 49.28300 38.54500
O  5.30200 47.45000 39.06100
C  4.75500 46.81400 37.87200
H  10.24700 54.12000 39.84000
H  5.66100 58.52500 41.24100
H  1.47800 54.11700 42.86500
H  8.49300 49.73600 40.45100
H  9.83200 51.56700 38.84000
H  10.32400 51.94800 41.71900
H  11.55300 51.44800 40.53500
H  10.46600 50.27600 41.30200
H  7.41000 48.96300 38.39200
H  9.05800 49.44400 38.10900
H  8.75100 51.00200 36.73000
H  7.35800 51.67100 37.54600
H  11.30100 56.08200 40.03900
H  11.28600 57.75900 40.44500
H  10.85500 57.22100 38.77800
H  8.14600 61.10000 41.70800
H  6.98300 59.90700 42.33600
H  6.82700 60.44900 40.72500
H  3.01400 58.11100 41.45300
H  2.46600 56.77400 44.01000
H  3.73800 59.75900 42.83900
H  4.72600 58.61100 43.87100
H  2.97400 58.79600 44.09300
H  0.91500 55.91700 41.51000
H  0.83100 57.61600 41.83600
H  -0.92000 57.12600 43.20400
H  0.04100 56.33000 44.31100
H  -0.51300 55.37700 43.08000
H  0.77500 51.73200 43.11300
H  1.76200 50.93100 44.41700
H  1.21100 50.00300 43.02300
H  5.94300 48.65700 41.14000
H  3.96500 46.08400 38.05100
H  5.60500 46.27300 37.45600
H  4.42100 47.51700 37.10900

