158

Mg 47.66700 15.45200 28.37200
C  45.51300 15.45300 31.10500
C  49.69200 17.58500 30.04300
C  49.53500 15.54000 25.64500
C  45.16900 13.62400 26.55700
N  47.51400 16.43200 30.24100
C  46.63800 16.16000 31.29900
C  47.21000 16.60100 32.67200
C  48.27100 17.65400 32.16200
C  48.51800 17.19900 30.71200
C  47.83800 19.21300 32.15100
C  47.73900 15.46000 33.55900
C  47.53800 15.71200 35.01300
H  48.72800 15.45600 35.97300
N  49.34300 16.46100 27.92200
C  50.03100 17.25900 28.76200
C  51.29600 17.68300 28.05600
C  51.19500 17.05800 26.73900
C  49.96900 16.30600 26.70500
C  52.40100 18.48700 28.77600
C  52.24500 17.16100 25.61400
O  52.27700 16.51700 24.60400
C  53.37500 18.22300 25.57500
N  47.36100 14.69600 26.39300
C  48.39100 14.75700 25.51300
C  48.03100 13.98800 24.20900
C  46.72200 13.25200 24.56900
C  46.35700 13.90500 25.92200
C  47.96100 14.90000 22.90200
C  46.82700 11.70000 24.54300
C  47.09400 11.09300 23.14100
N  45.74700 14.71000 28.72800
C  44.88400 14.03100 27.87800
C  43.68000 13.73200 28.62800
C  43.93400 14.20000 29.91600
C  45.18600 14.77500 29.93900
C  42.51800 12.86100 28.25500
C  43.37000 14.19300 31.24900
O  42.30600 13.74600 31.65100
C  44.51900 15.00800 32.12200
C  43.73200 16.15200 32.63600
O  43.07200 16.93600 31.94700
O  43.89000 16.14700 34.04500
C  42.91400 16.89100 34.76400
H  50.47300 18.11200 30.59600
H  50.28400 15.46700 24.85300
H  44.40500 13.05100 26.02800
H  46.39900 17.08100 33.22000
H  49.22900 17.60400 32.68100
H  48.73700 19.71100 32.51400
H  46.93000 19.28800 32.74900
H  47.46800 19.54300 31.18000
H  48.82900 15.48800 33.54900
H  47.38300 14.44100 33.40600
H  46.82400 15.06000 35.51600
H  47.32400 16.76700 35.18400
H  53.33400 18.42900 28.21500
H  52.54900 18.25200 29.83000
H  52.00100 19.50000 28.81800
H  54.12100 17.95300 26.32200
H  52.80200 19.13600 25.73600
H  53.96300 18.15000 24.65900
H  48.73000 13.18300 23.97800
H  45.96900 13.54700 23.83800
H  48.22200 14.31100 22.02300
H  48.71000 15.68900 22.97700
H  46.93300 15.25000 22.81400
H  45.81500 11.41100 24.82500
H  47.59500 11.27400 25.18800
H  47.61600 11.82600 22.52600
H  46.24100 10.72100 22.57400
H  47.75300 10.27900 23.44200
H  42.68600 11.78800 28.34300
H  42.14500 13.15200 27.27300
H  41.75200 13.14100 28.97900
H  44.95600 14.40800 32.92100
H  43.29800 17.07900 35.76600
H  42.09100 16.18900 34.89400
H  42.65600 17.87700 34.37900
Mg 46.90600 24.80300 28.79700
C  47.62400 26.88800 31.47500
C  45.98200 22.39200 30.97700
C  46.98000 22.67300 26.27900
C  48.07100 27.24700 26.67700
N  46.60600 24.79100 30.85400
C  47.04900 25.67200 31.83900
C  46.67300 25.27100 33.24700
C  46.41100 23.80100 33.00500
C  46.23100 23.69700 31.52600
C  47.54400 22.85000 33.59000
C  45.57100 26.08500 33.94000
C  45.79900 26.60500 35.39100
H  44.62600 26.41300 36.35100
N  46.49400 22.80900 28.68100
C  46.05300 21.96300 29.63000
C  45.78900 20.67600 29.11500
C  46.31900 20.66100 27.76400
C  46.66100 22.09000 27.50500
C  45.01900 19.55300 29.87100
C  46.33100 19.57600 26.67100
O  46.69900 19.86900 25.52400
C  45.95900 18.16000 26.94400
N  47.21900 25.00600 26.73500
C  47.28700 23.94600 25.91600
C  47.41500 24.36600 24.42100
C  47.47800 25.92500 24.52500
C  47.52300 26.09700 26.01600
C  48.45900 23.70900 23.51900
C  46.27600 26.67900 23.86200
C  44.81600 26.38500 24.37300
N  47.60300 26.77300 28.96700
C  48.04700 27.61800 28.04400
C  48.39800 28.91400 28.58400
C  48.28400 28.64700 29.95500
C  47.77600 27.36900 30.13800
C  49.00100 30.05800 27.88200
C  48.58000 29.15900 31.27200
O  49.11300 30.26800 31.56400
C  48.21600 28.01200 32.40300
C  49.44500 27.61500 33.09500
O  50.57100 27.62700 32.55400
O  49.25800 27.51700 34.49100
C  50.45100 27.34600 35.28100
H  45.85900 21.61400 31.73400
H  47.04300 22.06500 25.37400
H  48.37400 28.00500 25.95100
H  47.51200 25.40000 33.93000
H  45.49100 23.47900 33.49200
H  48.21200 23.35000 34.29200
H  48.16700 22.50000 32.76600
H  47.02000 22.04000 34.09900
H  44.74200 25.39400 34.09200
H  45.32000 26.92300 33.28900
H  46.07100 27.65900 35.33000
H  46.58600 26.06700 35.92100
H  45.51100 18.58300 29.94300
H  44.15300 19.28400 29.26600
H  44.65400 19.81200 30.86500
H  44.93500 18.24600 27.30800
H  46.60200 17.84000 27.76500
H  46.14800 17.60300 26.02600
H  46.47100 24.18700 23.90500
H  48.46300 26.27700 24.21900
H  47.96600 23.63900 22.54900
H  48.76200 22.75500 23.95100
H  49.37100 24.30500 23.56700
H  46.26800 26.38300 22.81300
H  46.49300 27.73800 24.00500
H  44.29900 25.97900 23.50400
H  44.32100 27.28900 24.72600
H  44.87700 25.64700 25.17300
H  49.50200 30.67800 28.62500
H  48.14000 30.65000 27.57100
H  49.60200 29.69800 27.04700
H  47.48600 28.33000 33.14800
H  51.41900 27.40900 34.78500
H  50.33400 26.35400 35.71800
H  50.48100 28.16100 36.00300

