158

Mg 50.44200 46.62700 41.15300
C  47.08700 47.36300 40.02600
C  49.82700 43.34400 40.16500
C  53.77400 46.18900 41.04900
C  50.85500 50.14000 41.59100
N  48.57800 45.52100 40.32100
C  47.43700 46.00100 39.83400
C  46.56300 44.93700 39.17900
C  47.34900 43.62100 39.66900
C  48.68300 44.19100 40.05200
C  46.81000 42.81200 40.79900
C  46.40000 45.15800 37.63800
C  44.94600 45.16700 37.15500
H  44.66300 43.99800 36.13000
N  51.69300 44.93600 40.71100
C  51.16900 43.65600 40.38000
C  52.34700 42.83600 40.30600
C  53.53600 43.62800 40.51300
C  53.05900 44.94900 40.80300
C  52.32200 41.35900 40.04200
C  54.94600 43.00600 40.46700
O  55.16800 41.84000 40.12500
C  56.04100 43.95200 40.76400
N  52.11700 48.05200 41.16400
C  53.33300 47.52800 41.24800
C  54.33400 48.65000 41.72700
C  53.42200 49.90600 41.98100
C  52.01800 49.38400 41.52000
C  55.20100 48.27400 42.98900
C  53.91900 51.25800 41.28300
C  54.08400 52.49700 42.21500
N  49.19200 48.42600 41.10800
C  49.51300 49.74900 41.23300
C  48.31900 50.53300 41.06700
C  47.34200 49.66200 40.51700
C  47.96400 48.37400 40.50300
C  48.34100 52.02300 41.24800
C  46.07200 49.59900 39.90800
O  45.32600 50.53500 39.62900
C  45.80400 48.06100 39.69500
C  44.71100 47.70600 40.66600
O  44.86300 47.41200 41.80000
O  43.50600 47.98200 40.11500
C  42.41700 48.13300 41.07900
H  49.55400 42.31800 39.91100
H  54.86200 46.23300 41.13000
H  50.98400 51.20400 41.79900
H  45.53700 44.94400 39.54700
H  47.61700 42.91400 38.88400
H  46.59900 41.81800 40.40700
H  45.89300 43.18200 41.25700
H  47.54300 42.69400 41.59700
H  46.91700 44.32500 37.16300
H  46.81900 46.04300 37.15800
H  44.69600 46.13400 36.71700
H  44.14300 45.04100 37.88100
H  51.34500 41.00800 39.71200
H  52.57200 40.93800 41.01600
H  53.00000 41.08200 39.23500
H  55.82800 44.41900 41.72600
H  55.98600 44.67300 39.94900
H  56.94300 43.34400 40.69600
H  55.05500 48.81900 40.92700
H  53.49600 50.09300 43.05200
H  56.21400 48.28600 42.58700
H  54.93300 47.31200 43.42600
H  55.18700 48.91800 43.86900
H  53.23300 51.36200 40.44300
H  54.93600 51.06300 40.94100
H  53.70000 53.28200 41.56500
H  55.13200 52.65900 42.46700
H  53.56500 52.50200 43.17300
H  49.22700 52.39600 40.73600
H  48.23000 52.34400 42.28400
H  47.51300 52.54300 40.76700
H  45.47900 47.95800 38.66000
H  41.50300 47.57600 40.87200
H  42.16600 49.18900 40.97800
H  42.64400 47.78500 42.08600
Mg 35.10800 48.77000 25.53200
C  35.57700 46.89900 28.61500
C  33.87800 51.36000 27.66000
C  34.32300 50.43900 22.80500
C  36.11400 45.97100 23.76100
N  34.71700 49.05200 27.81400
C  35.06100 48.15500 28.83200
C  34.75500 48.70800 30.24500
C  34.02400 50.03700 29.83900
C  34.27900 50.16700 28.35200
C  32.53900 49.85700 30.05600
C  36.06500 49.04600 31.05100
C  35.92800 48.92400 32.58900
H  34.65400 48.92300 33.30500
N  34.22600 50.69700 25.25000
C  33.84800 51.60400 26.24300
C  33.57700 52.88300 25.52000
C  33.67700 52.64100 24.16500
C  34.12200 51.23900 23.99900
C  33.21600 54.06200 26.25600
C  33.50700 53.59700 23.01000
O  33.75500 53.28000 21.85100
C  33.02800 55.03200 23.10800
N  35.12500 48.20200 23.66400
C  34.80800 49.10400 22.65300
C  34.81500 48.46300 21.29200
C  35.30000 46.98200 21.61800
C  35.57900 47.03800 23.07500
C  33.38600 48.60000 20.61800
C  36.46400 46.42500 20.68800
C  36.47000 44.97700 20.45000
N  35.67600 46.77000 26.03900
C  36.12900 45.76900 25.19000
C  36.58300 44.66800 26.04100
C  36.37500 45.05300 27.35000
C  35.86800 46.33100 27.29100
C  36.96500 43.33700 25.39700
C  36.54800 44.62100 28.76400
O  37.01300 43.55100 29.20400
C  36.01700 45.87300 29.66000
C  35.04600 45.27800 30.59300
O  34.10200 44.59900 30.22200
O  35.26300 45.54100 31.96200
C  34.35600 45.02500 32.94700
H  33.58100 52.22300 28.26000
H  34.10400 50.97800 21.88000
H  36.63900 45.22300 23.16300
H  34.06300 48.01200 30.72100
H  34.30900 50.86500 30.48800
H  32.12600 49.48100 29.12000
H  32.03900 50.82000 30.16100
H  32.31900 49.26400 30.94400
H  36.19800 50.10200 30.81600
H  36.91600 48.42700 30.76500
H  36.62800 49.55500 33.13500
H  36.35200 47.94200 32.80000
H  32.13100 54.16400 26.24000
H  33.52600 54.92800 25.67200
H  33.43300 54.09300 27.32300
H  32.88000 55.45500 22.11400
H  33.82900 55.59100 23.59100
H  32.11900 55.07500 23.70800
H  35.54300 48.96000 20.65100
H  34.45200 46.29800 21.64600
H  33.14700 47.60900 20.23300
H  33.57200 49.30600 19.80800
H  32.65700 49.05100 21.29200
H  37.40000 46.53600 21.23500
H  36.53400 47.03500 19.78700
H  36.79000 44.78000 19.42700
H  35.46600 44.57100 20.56700
H  37.04200 44.44000 21.20700
H  37.88700 43.35500 24.81600
H  36.19300 43.12100 24.65700
H  36.87100 42.58500 26.18100
H  36.82800 46.28900 30.25700
H  34.67700 45.23600 33.96700
H  34.36700 43.93500 32.92000
H  33.31100 45.32900 32.88200

