158

Mg 17.34700 -1.09000 27.76300
C  16.04000 1.01100 30.33300
C  18.96600 -2.81900 30.14800
C  19.05300 -2.61800 25.33000
C  15.99800 1.05100 25.40800
N  17.50400 -0.83400 29.91500
C  16.97900 0.08900 30.78200
C  17.42800 -0.21300 32.27200
C  18.51300 -1.29600 32.07800
C  18.28200 -1.68600 30.62800
C  19.98500 -0.98900 32.40700
C  16.35900 -0.62400 33.20100
C  16.41200 -0.07400 34.66800
H  17.73600 0.50100 35.28800
N  18.61900 -2.72600 27.76200
C  19.05300 -3.31600 28.85100
C  19.72100 -4.51200 28.44000
C  19.85600 -4.53100 26.99600
C  19.21000 -3.24400 26.64700
C  20.26100 -5.41100 29.45300
C  20.53100 -5.45900 25.97700
O  20.56800 -5.24800 24.76400
C  21.25400 -6.76200 26.46000
N  17.45400 -0.86000 25.68500
C  18.25600 -1.58200 24.88400
C  18.07000 -1.24300 23.39000
C  16.83400 -0.19600 23.45300
C  16.72400 -0.05100 24.92800
C  19.32900 -0.69400 22.71200
C  15.52800 -0.50300 22.65700
C  14.48200 -1.57600 23.16500
N  16.21100 0.72700 27.81700
C  15.69500 1.38300 26.78100
C  14.83400 2.45000 27.26400
C  14.87000 2.24800 28.65400
C  15.76700 1.24100 28.93400
C  14.02400 3.41600 26.54700
C  14.41100 2.79400 29.87200
O  13.62900 3.71500 30.13900
C  15.21800 2.02900 31.03400
C  15.97400 3.05700 31.74600
O  16.76500 3.84300 31.18000
O  15.60000 3.11300 33.07900
C  16.36300 3.99300 33.96200
H  19.50500 -3.40500 30.89600
H  19.58800 -3.14400 24.53700
H  15.71000 1.69700 24.57700
H  17.85800 0.70600 32.67000
H  18.22300 -2.10000 32.75500
H  20.54200 -0.82900 31.48400
H  20.48700 -1.88100 32.78100
H  20.14300 -0.21000 33.15200
H  16.21000 -1.69500 33.34100
H  15.40000 -0.22500 32.87000
H  16.10100 -0.95000 35.23700
H  15.61900 0.65100 34.85500
H  21.20300 -5.06100 29.87500
H  20.41100 -6.36000 28.93800
H  19.59700 -5.50300 30.31300
H  20.55900 -7.58000 26.64800
H  21.74300 -6.59600 27.41900
H  21.97700 -7.14000 25.73600
H  17.72300 -2.17800 22.95200
H  17.22200 0.75300 23.08300
H  19.16700 0.30400 22.30500
H  19.68800 -1.30500 21.88400
H  20.11300 -0.70400 23.46900
H  15.69500 -0.89900 21.65500
H  15.13000 0.49200 22.45900
H  13.68300 -0.98200 23.60700
H  14.83800 -2.31100 23.88800
H  14.02900 -2.04500 22.29100
H  13.82000 3.02900 25.54900
H  14.52800 4.37900 26.46800
H  13.06800 3.54400 27.05500
H  14.37400 1.62000 31.59000
H  17.30000 4.38800 33.56800
H  16.57400 3.66300 34.97900
H  15.78400 4.89700 34.14700
Mg 35.89700 2.51900 29.86700
C  33.59600 3.31500 32.31200
C  38.30100 2.36400 32.25900
C  37.95500 1.68500 27.48800
C  33.21100 2.66000 27.50300
N  35.90300 2.79800 31.98300
C  34.86300 3.01500 32.82900
C  35.25500 3.03200 34.29500
C  36.79100 2.92500 34.29900
C  36.97100 2.62300 32.76100
C  37.55700 4.14900 34.85500
C  34.51500 1.97900 35.22100
C  33.90500 2.51500 36.47700
H  34.55800 3.62400 37.17100
N  37.92200 2.10500 29.85500
C  38.77200 2.07800 30.93800
C  40.18300 1.83700 30.46000
C  40.09900 1.58800 29.03100
C  38.62100 1.75700 28.73800
C  41.36400 1.74400 31.35200
C  41.17200 1.04600 28.01100
O  40.89600 0.71900 26.88800
C  42.57600 0.75600 28.53800
N  35.59100 2.09500 27.84500
C  36.62400 1.93200 27.04400
C  36.26100 1.82200 25.57800
C  34.78500 2.06100 25.58800
C  34.45200 2.30100 27.08600
C  36.97900 2.71200 24.55100
C  33.80400 1.13600 24.72800
C  33.20000 -0.04600 25.43100
N  33.80200 2.95800 29.88500
C  32.82600 2.93500 28.85200
C  31.49800 3.38700 29.40500
C  31.76600 3.61000 30.73000
C  33.14100 3.31100 30.98300
C  30.20400 3.56900 28.61000
C  31.14600 4.04500 31.98000
O  30.01500 4.37900 32.26500
C  32.32800 3.80000 33.07000
C  32.41800 5.00400 33.84200
O  32.99100 6.00400 33.52900
O  31.69900 4.87400 34.98100
C  31.68100 6.03000 35.92000
H  39.12200 2.38200 32.97800
H  38.53900 1.24300 26.67900
H  32.39400 2.70100 26.78000
H  34.96900 4.01900 34.66000
H  37.16000 2.02800 34.79700
H  37.18300 4.71200 35.71000
H  37.59800 4.87500 34.04300
H  38.55600 3.76800 35.06800
H  35.15800 1.13500 35.47100
H  33.73000 1.53900 34.60500
H  33.79700 1.65800 37.14100
H  32.85300 2.73400 36.29800
H  41.89700 0.80000 31.23600
H  41.19300 2.02000 32.39200
H  41.99800 2.47200 30.84600
H  43.16300 0.63000 27.62900
H  42.78700 -0.09000 29.19300
H  42.99600 1.50100 29.21400
H  36.54500 0.81800 25.26200
H  34.49800 3.00300 25.12100
H  36.32600 3.52700 24.24000
H  37.43000 2.07400 23.79000
H  37.84400 3.19100 25.00800
H  34.46300 0.73300 23.95900
H  33.00800 1.81600 24.42400
H  33.72700 -0.43200 26.30300
H  33.24900 -0.87900 24.72900
H  32.17200 0.15700 25.73300
H  29.39900 3.14900 29.21200
H  30.12400 3.11700 27.62200
H  29.98800 4.63000 28.47900
H  31.93900 3.02000 33.72400
H  30.91000 6.75800 35.66700
H  32.63600 6.55500 35.96600
H  31.35300 5.59100 36.86100

