158

Mg 25.19100 1.18700 29.87600
C  27.31000 1.05100 32.64400
C  22.41100 1.04300 31.89600
C  23.08200 0.99200 27.17300
C  27.82800 0.45600 27.83400
N  24.96400 1.21800 32.05900
C  25.93700 1.15600 33.00200
C  25.26000 1.25600 34.36200
C  23.71000 1.00200 34.09000
C  23.68100 1.07400 32.57200
C  23.15600 -0.25900 34.68200
C  25.67400 2.51000 35.15800
C  26.11400 2.22700 36.60500
H  25.49500 3.17000 37.68600
N  23.03700 1.18900 29.55100
C  22.09400 1.12100 30.53600
C  20.75200 1.09300 29.97000
C  20.93300 1.09100 28.56200
C  22.40400 1.05500 28.35900
C  19.46800 1.09400 30.83300
C  19.86600 1.03000 27.54900
O  20.07800 0.87100 26.35300
C  18.38900 0.74600 27.94400
N  25.38400 0.68700 27.86500
C  24.41100 0.85900 26.92600
C  24.95600 1.01000 25.49300
C  26.54300 0.94800 25.79300
C  26.60200 0.71000 27.24800
C  24.40200 -0.04500 24.58600
C  27.27400 2.24400 25.39400
C  26.93400 3.50100 26.15200
N  27.10400 0.72100 30.14500
C  28.03000 0.42400 29.20800
C  29.30800 0.24100 29.81100
C  29.09600 0.50900 31.23800
C  27.74700 0.84100 31.36400
C  30.60500 -0.24800 28.98600
C  29.71600 0.61400 32.53100
O  30.90900 0.38900 32.80800
C  28.62800 1.05500 33.49500
C  28.65000 0.03300 34.49100
O  28.30400 -1.12700 34.37600
O  29.09900 0.51700 35.72000
C  29.04300 -0.41800 36.86100
H  21.65700 0.89200 32.67200
H  22.43600 1.05700 26.29500
H  28.72500 0.55900 27.22000
H  25.74800 0.38300 34.79400
H  23.04500 1.80000 34.42400
H  22.99800 -1.00000 33.89800
H  22.29700 0.01100 35.29700
H  23.81000 -0.81100 35.35700
H  24.90700 3.28300 35.10400
H  26.47700 3.03100 34.63500
H  27.20000 2.31000 36.62900
H  26.03900 1.15100 36.75700
H  19.77900 0.81000 31.83800
H  18.67900 0.41800 30.50200
H  18.99200 2.07200 30.75600
H  18.53000 -0.08700 28.63200
H  17.87400 0.38900 27.05200
H  17.93700 1.64200 28.37100
H  24.68000 2.03200 25.23400
H  26.91500 0.03400 25.32900
H  23.31900 -0.12200 24.67600
H  24.74600 -1.04400 24.85400
H  24.64800 0.09800 23.53300
H  26.91800 2.43700 24.38200
H  28.36000 2.18200 25.32800
H  25.93300 3.43600 26.57900
H  26.88500 4.36500 25.49000
H  27.65400 3.53100 26.97000
H  31.25900 0.61300 28.84300
H  30.34300 -0.65200 28.00800
H  31.15600 -0.99200 29.56200
H  28.82100 1.98300 34.03400
H  29.91500 -0.17800 37.47000
H  28.94300 -1.48500 36.66300
H  28.17200 -0.19200 37.47600
Mg -12.95700 15.90900 41.98300
C  -9.82500 14.22000 41.77500
C  -11.40700 18.61400 40.45000
C  -15.95000 17.16900 41.66300
C  -14.24700 12.85800 42.92300
N  -10.83600 16.33400 41.16500
C  -9.77800 15.54400 41.18600
C  -8.57000 16.22900 40.57300
C  -9.03700 17.68900 40.40100
C  -10.53000 17.55900 40.64100
C  -8.42100 18.63400 41.47700
C  -7.96200 15.51400 39.33100
C  -6.46400 15.33800 39.24200
H  -5.71900 16.02500 38.08700
N  -13.59300 17.70000 41.20700
C  -12.82500 18.71500 40.57600
C  -13.69600 19.80700 40.25900
C  -15.03400 19.38200 40.52500
C  -14.92300 18.04000 41.17300
C  -13.12600 21.11500 39.62900
C  -16.31000 20.11700 40.15400
O  -16.19400 21.16700 39.51900
C  -17.69000 19.57300 40.40500
N  -14.81600 15.05500 42.09700
C  -15.92900 15.81800 42.00400
C  -17.24200 15.10400 42.32900
C  -16.72100 13.63900 42.47100
C  -15.14200 13.85900 42.49100
C  -18.03200 15.62700 43.57700
C  -17.13700 12.73300 41.37900
C  -17.08400 11.15600 41.54000
N  -12.26200 13.97200 42.51800
C  -12.88400 12.80400 42.88700
C  -11.94900 11.68600 43.16700
C  -10.73200 12.29500 42.82000
C  -10.97300 13.61100 42.37700
C  -12.17900 10.29400 43.46300
C  -9.28300 11.97300 42.62600
O  -8.59700 11.03000 42.96000
C  -8.73700 13.16600 41.76900
C  -7.58800 13.54700 42.58200
O  -7.67900 13.89800 43.78100
O  -6.46500 13.58700 41.73400
C  -5.19800 13.95400 42.36500
H  -10.96100 19.52700 40.05000
H  -16.93600 17.63200 41.73300
H  -14.70400 11.93500 43.28400
H  -7.90300 16.20300 41.43500
H  -8.73600 18.11700 39.44500
H  -7.73100 19.29200 40.94800
H  -8.02300 18.05900 42.31300
H  -9.17300 19.29500 41.90800
H  -8.10500 16.14000 38.45000
H  -8.52400 14.60500 39.11900
H  -6.24700 14.27000 39.23200
H  -6.08700 15.61900 40.22500
H  -12.52200 20.99800 38.72900
H  -12.60000 21.70700 40.37700
H  -13.83000 21.87200 39.28100
H  -18.45300 20.30600 40.14300
H  -17.85300 19.51900 41.48100
H  -17.88100 18.58800 39.97700
H  -17.87900 15.15700 41.44600
H  -17.04100 13.17300 43.40300
H  -19.05100 15.88600 43.29000
H  -17.53600 16.50300 43.99400
H  -18.02800 14.90400 44.39200
H  -16.41600 13.04400 40.62300
H  -18.13500 13.07400 41.10200
H  -16.21700 10.75700 41.01500
H  -17.95400 10.73000 41.04000
H  -17.05500 10.87300 42.59200
H  -13.11100 10.25400 44.02700
H  -11.43200 9.93800 44.17300
H  -12.32100 9.68500 42.57100
H  -8.39200 12.74700 40.82300
H  -4.52600 14.14500 41.52900
H  -4.79900 13.11000 42.92700
H  -5.36900 14.77800 43.05800

