158

Mg 24.26600 -6.91200 47.22300
C  27.10700 -4.73700 46.39200
C  22.42400 -5.19400 44.85200
C  22.08900 -9.39900 47.30100
C  26.73000 -8.98300 48.87000
N  24.82300 -5.25100 45.72500
C  25.94100 -4.41100 45.69900
C  25.77400 -3.19800 44.77800
C  24.14700 -3.31700 44.54300
C  23.79800 -4.76500 45.00700
C  23.33800 -2.23300 45.31800
C  26.55800 -3.33300 43.38900
C  26.78800 -2.04400 42.65000
H  25.96200 -1.75700 41.46500
N  22.42800 -7.17800 46.40800
C  21.80100 -6.31500 45.50700
C  20.50000 -6.78900 45.26000
C  20.36900 -8.06400 45.86800
C  21.66900 -8.25300 46.61500
C  19.54500 -6.17200 44.25900
C  19.12800 -8.98600 45.83200
O  18.14900 -8.66400 45.19000
C  19.03900 -10.26800 46.54400
N  24.46100 -8.90300 47.78800
C  23.35100 -9.70300 47.82400
C  23.65400 -11.09600 48.40300
C  25.16300 -10.95500 48.81400
C  25.52900 -9.53400 48.42500
C  22.67100 -11.43400 49.65500
C  26.11300 -12.01700 48.23700
C  26.09600 -13.31600 49.13100
N  26.42500 -6.83100 47.64900
C  27.24400 -7.71600 48.45300
C  28.57100 -7.19700 48.63100
C  28.51900 -5.99800 47.87600
C  27.27400 -5.88700 47.18500
C  29.72800 -7.78600 49.41200
C  29.30400 -4.90300 47.46700
O  30.42100 -4.57700 47.78800
C  28.45800 -4.05500 46.34000
C  28.37100 -2.64800 46.67900
O  28.00100 -2.12500 47.71200
O  28.86900 -1.94300 45.57700
C  28.95000 -0.48400 45.70700
H  21.85200 -4.51800 44.21200
H  21.56000 -10.35300 47.23700
H  27.23600 -9.52800 49.66900
H  25.99100 -2.23000 45.23000
H  23.90800 -3.32500 43.48000
H  22.66000 -1.72500 44.63100
H  23.99700 -1.44300 45.67800
H  22.84200 -2.59000 46.22000
H  25.96600 -3.96800 42.73000
H  27.52800 -3.79700 43.56500
H  27.83900 -1.97700 42.36700
H  26.73100 -1.17300 43.30300
H  18.51000 -6.02900 44.56900
H  19.58900 -6.59500 43.25600
H  19.91400 -5.15100 44.16600
H  19.56400 -11.11900 46.11200
H  17.96900 -10.43200 46.42100
H  19.30300 -10.21400 47.60000
H  23.66000 -11.84300 47.61000
H  25.25200 -11.08900 49.89200
H  21.96000 -12.14400 49.23500
H  22.18800 -10.50300 49.95300
H  23.26200 -11.88400 50.45300
H  27.09400 -11.55100 48.33100
H  25.95800 -12.29300 47.19400
H  26.98100 -13.40000 49.76100
H  26.06100 -14.11800 48.39300
H  25.25200 -13.44300 49.80900
H  30.18400 -8.73900 49.14400
H  29.25900 -7.88600 50.39100
H  30.44000 -6.96400 49.48800
H  28.94500 -4.18800 45.37400
H  29.08700 0.02000 44.75000
H  29.84500 -0.26100 46.28800
H  28.06600 -0.01600 46.14000
Mg 36.29500 49.53400 24.65700
C  36.46400 48.02200 27.81300
C  35.46700 52.56000 26.34500
C  36.02800 50.98900 21.64800
C  36.94900 46.38300 23.14300
N  35.91600 50.18000 26.81300
C  36.10300 49.38900 27.94200
C  35.73400 50.18500 29.19900
C  35.50800 51.64900 28.70400
C  35.63100 51.45200 27.16300
C  34.25500 52.36000 29.17700
C  36.64700 50.02600 30.49700
C  35.96000 49.65500 31.84700
H  34.43400 49.98400 32.05300
N  35.78600 51.51100 24.04400
C  35.54400 52.56600 24.87400
C  35.28100 53.70900 23.95100
C  35.37200 53.22200 22.62600
C  35.76900 51.84700 22.71000
C  35.00800 55.09700 24.48200
C  35.31500 54.10500 21.42100
O  35.44800 53.63100 20.31500
C  35.18700 55.59800 21.47500
N  36.44600 48.81600 22.65900
C  36.24900 49.63800 21.61700
C  36.38200 48.78800 20.30500
C  36.82300 47.34600 20.77000
C  36.80600 47.53600 22.25800
C  35.11500 48.74500 19.45400
C  38.29100 47.03100 20.37100
C  38.48600 45.58200 19.80500
N  36.65100 47.69300 25.24500
C  36.85200 46.47400 24.52700
C  36.92700 45.40500 25.41700
C  36.81100 45.99700 26.69400
C  36.64100 47.39100 26.55000
C  37.06200 43.92900 25.13500
C  36.83800 45.66000 28.12100
O  37.03800 44.62700 28.70300
C  36.44800 46.93300 28.85700
C  35.13800 46.77600 29.50700
O  34.07100 47.21500 29.14600
O  35.27800 45.96200 30.61500
C  34.08700 45.54400 31.27800
H  35.28000 53.49400 26.88000
H  35.91100 51.37900 20.63500
H  37.13300 45.37400 22.76800
H  34.74300 49.83700 29.49200
H  36.34300 52.30800 28.94400
H  33.54400 52.40300 28.35200
H  34.60900 53.30200 29.59500
H  33.81500 51.69000 29.91600
H  37.40900 50.80600 30.51100
H  37.23200 49.14200 30.24400
H  36.40900 50.21100 32.67000
H  36.14900 48.61600 32.11600
H  33.98900 55.28100 24.14100
H  35.73900 55.81200 24.10400
H  34.98900 55.07700 25.57100
H  34.33500 55.94900 22.05700
H  35.00800 55.96200 20.46300
H  36.02400 56.14800 21.90500
H  37.14000 49.30600 19.71600
H  36.12300 46.58800 20.41700
H  34.48200 47.92000 19.77900
H  35.62900 48.48300 18.52900
H  34.69200 49.74100 19.31900
H  38.81500 47.19100 21.31400
H  38.76500 47.73100 19.68300
H  37.62600 44.93200 19.97000
H  39.26600 45.08000 20.37700
H  38.71100 45.58100 18.73900
H  37.86900 43.68000 24.44600
H  36.17200 43.45600 24.72100
H  37.23100 43.36600 26.05300
H  37.17300 47.17800 29.63400
H  33.99100 46.19500 32.14700
H  34.25500 44.55400 31.70400
H  33.16200 45.63600 30.70900

