158

Mg -2.54000 17.46300 27.54200
C  -3.06700 15.22200 30.17600
C  -2.97200 20.10300 29.74500
C  -2.26900 19.43900 25.07200
C  -2.70800 14.73900 25.39700
N  -2.89100 17.62600 29.77900
C  -3.10600 16.58200 30.67100
C  -3.37100 17.14700 32.10500
C  -3.47200 18.70400 31.86500
C  -3.08900 18.83600 30.36100
C  -4.77800 19.40200 32.17400
C  -2.37500 16.55900 33.13500
C  -1.98900 17.42300 34.38900
H  -1.74900 16.68700 35.63900
N  -2.32000 19.47500 27.44400
C  -2.50100 20.42200 28.48100
C  -2.21400 21.70100 27.92600
C  -2.09700 21.59800 26.51700
C  -2.17200 20.17300 26.28400
C  -2.29900 22.88800 28.87700
C  -1.96300 22.71200 25.46700
O  -1.64300 22.44800 24.31700
C  -2.02800 24.18500 25.86000
N  -2.68800 17.14200 25.52700
C  -2.49900 18.09800 24.71100
C  -2.50600 17.62800 23.21000
C  -2.41600 16.06700 23.32600
C  -2.62700 15.98200 24.82900
C  -3.67000 18.13600 22.35100
C  -1.13600 15.29100 22.84800
C  0.17000 15.67100 23.58900
N  -2.92400 15.40700 27.67000
C  -2.94700 14.41200 26.72700
C  -3.03300 13.06500 27.34700
C  -3.07600 13.40000 28.73500
C  -3.01500 14.79500 28.83700
C  -3.02900 11.71900 26.79300
C  -3.29700 12.79600 30.07900
O  -3.55600 11.69800 30.37400
C  -3.24400 14.00200 31.11500
C  -2.02500 13.55200 31.89100
O  -0.88600 13.95600 31.65400
O  -2.36500 12.78900 32.99400
C  -1.22500 12.55800 33.91700
H  -3.12000 20.90700 30.46900
H  -2.08700 20.08200 24.20800
H  -2.58700 13.90900 24.69800
H  -4.29700 16.73900 32.51000
H  -2.65500 19.11600 32.45800
H  -5.03200 20.16700 31.44000
H  -4.70200 19.79100 33.18900
H  -5.63000 18.72300 32.21000
H  -1.45500 16.25100 32.63800
H  -2.85000 15.67300 33.55600
H  -2.91800 17.99000 34.46100
H  -1.06200 17.97300 34.22700
H  -1.65600 23.61200 28.37700
H  -1.79400 22.64100 29.81000
H  -3.25500 23.35000 29.12300
H  -2.26000 24.85400 25.03000
H  -1.08700 24.48700 26.31900
H  -2.73800 24.28200 26.68100
H  -1.54200 17.97700 22.84100
H  -3.27600 15.56200 22.88600
H  -4.16100 18.99400 22.81000
H  -4.40700 17.39900 22.03200
H  -3.20100 18.55600 21.46100
H  -1.03500 15.45800 21.77600
H  -1.29200 14.21400 22.91600
H  0.74800 16.33800 22.95000
H  0.76300 14.78600 23.82400
H  -0.05300 16.20800 24.51100
H  -2.81200 11.08800 27.65500
H  -2.35300 11.55000 25.95500
H  -4.03800 11.49100 26.45000
H  -4.20100 13.82600 31.60700
H  -1.46000 11.68800 34.53000
H  -0.93000 13.36000 34.59400
H  -0.28100 12.14900 33.55700
Mg 36.32900 49.47500 24.95700
C  36.18800 47.57600 27.98900
C  34.98300 52.10800 26.64000
C  36.12700 51.25100 22.12800
C  37.38200 46.63900 23.31300
N  35.79800 49.73900 27.04800
C  35.94500 48.89900 28.10200
C  35.59300 49.60800 29.38500
C  34.95800 50.93900 28.91400
C  35.34300 50.96600 27.46000
C  33.36200 51.04300 29.27700
C  36.80200 49.77300 30.39400
C  36.62400 49.64900 31.89300
H  35.18600 49.72100 32.40000
N  35.47800 51.40600 24.42500
C  35.06500 52.38200 25.28900
C  34.79400 53.61600 24.58200
C  35.18600 53.37200 23.23300
C  35.58100 51.95800 23.20700
C  34.04200 54.78500 25.15500
C  35.11900 54.41100 22.00800
O  35.41500 54.04700 20.88300
C  34.63100 55.85700 22.15900
N  36.69000 48.97200 22.98400
C  36.54800 49.90600 21.99900
C  36.79800 49.22300 20.61800
C  37.41200 47.79600 21.01400
C  37.17500 47.76100 22.54400
C  35.54900 49.22500 19.72300
C  38.95700 47.61300 20.69900
C  39.97300 48.61000 21.45500
N  36.80100 47.51000 25.48400
C  37.18100 46.46600 24.67200
C  37.27700 45.27700 25.50800
C  36.82500 45.66600 26.76000
C  36.49300 46.97400 26.72000
C  37.73100 43.85300 24.98200
C  36.63900 45.22900 28.13700
O  36.83400 44.12500 28.59700
C  36.29100 46.48900 29.00600
C  35.01400 46.14900 29.67600
O  33.86700 46.26100 29.20000
O  35.33400 45.49400 30.85000
C  34.21600 45.04700 31.71400
H  34.60400 52.96300 27.20500
H  36.13000 51.82000 21.19600
H  37.60900 45.69600 22.81100
H  34.93300 49.03200 30.03300
H  35.47000 51.78200 29.37800
H  32.76100 51.10500 28.36900
H  33.20300 51.96100 29.84300
H  33.05900 50.16900 29.85300
H  37.35800 50.70400 30.28600
H  37.55200 49.03600 30.10700
H  37.22900 50.50200 32.20400
H  37.16400 48.82900 32.36700
H  32.96400 54.76400 24.99800
H  34.37500 55.77600 24.84700
H  34.16300 54.84300 26.23700
H  34.57700 56.43600 21.23700
H  35.29400 56.40000 22.83200
H  33.71400 55.78700 22.74500
H  37.56200 49.77200 20.06700
H  36.94300 46.97900 20.46500
H  35.62400 49.79200 18.79500
H  34.68800 49.68100 20.21100
H  35.27100 48.23200 19.37000
H  39.11900 47.84600 19.64700
H  39.10700 46.55300 20.90200
H  40.06200 48.42600 22.52600
H  39.62700 49.63800 21.34500
H  40.96000 48.56500 20.99400
H  38.53500 43.97200 24.25600
H  36.84700 43.39500 24.53800
H  38.11600 43.36600 25.87700
H  37.05500 46.72000 29.74800
H  33.39100 45.75600 31.78800
H  34.67100 44.93000 32.69700
H  33.93300 44.09700 31.26200

