158

Mg 0.94800 8.79500 26.73700
C  1.41700 10.73300 29.46200
C  1.28900 6.02900 28.64200
C  0.77300 7.02800 23.90200
C  0.59400 11.76700 24.84000
N  1.46400 8.43300 28.86100
C  1.42900 9.39800 29.82300
C  1.26300 8.81200 31.24300
C  1.62400 7.28800 30.87200
C  1.41800 7.21000 29.37400
C  2.97100 6.72600 31.51600
C  -0.08900 9.08400 31.85700
C  -0.23100 9.22200 33.35300
H  0.94300 8.74500 34.26200
N  1.02700 6.79600 26.32900
C  1.15100 5.81500 27.27700
C  1.22200 4.54700 26.64700
C  1.10400 4.78100 25.20700
C  0.93800 6.21800 25.07900
C  1.26000 3.22500 27.46000
C  0.90600 3.80200 23.98900
O  0.74100 4.13200 22.81500
C  1.13200 2.31000 24.23700
N  0.66400 9.36300 24.72800
C  0.64000 8.40900 23.72600
C  0.48300 8.97800 22.30200
C  0.22800 10.47600 22.62200
C  0.49100 10.56900 24.15800
C  1.68900 8.72500 21.39400
C  -1.22100 10.98800 22.24900
C  -1.34000 12.06200 21.17000
N  1.13100 10.79700 27.04000
C  0.95600 11.90500 26.19800
C  1.16100 13.13600 26.97000
C  1.35700 12.70300 28.25600
C  1.31200 11.31700 28.23600
C  1.11300 14.56100 26.42300
C  1.64900 13.11000 29.53100
O  1.95500 14.18700 29.93700
C  1.40100 11.86000 30.45100
C  2.46700 11.83100 31.49900
O  3.61700 11.51900 31.24400
O  1.90100 12.06300 32.69600
C  2.76800 11.94200 33.90700
H  1.44000 5.14000 29.25900
H  0.73600 6.65300 22.87800
H  0.56400 12.68200 24.24600
H  2.13600 9.12900 31.81400
H  0.82500 6.69600 31.31800
H  2.70100 5.88900 32.16100
H  3.53500 7.53600 31.97800
H  3.60200 6.35700 30.70700
H  -0.84000 8.34300 31.58300
H  -0.53100 9.95400 31.37100
H  -1.13300 8.69400 33.66500
H  -0.52300 10.23600 33.62600
H  1.27600 2.34400 26.82000
H  0.34700 3.21700 28.05500
H  2.14500 3.27700 28.09500
H  0.23600 1.89000 24.69300
H  2.06400 2.30800 24.80200
H  1.27000 1.76200 23.30500
H  -0.39300 8.50600 21.85600
H  0.97000 11.07500 22.09500
H  2.59400 8.45100 21.93700
H  1.92200 9.60100 20.78900
H  1.42100 7.88900 20.74800
H  -1.71900 11.24200 23.18500
H  -1.83100 10.17600 21.85200
H  -0.61600 11.86900 20.37800
H  -1.11900 12.96200 21.74400
H  -2.31300 12.19000 20.69600
H  1.90500 14.65600 25.67900
H  1.01000 15.36400 27.15300
H  0.11600 14.60200 25.98600
H  0.50200 12.00200 31.05100
H  3.15400 12.96100 33.92500
H  3.53700 11.17300 33.83100
H  2.17300 11.73500 34.79600
Mg -0.19000 44.04100 25.71200
C  2.27000 44.17500 28.39600
C  -2.44300 43.13600 28.04000
C  -2.19900 43.66000 23.15900
C  2.56200 44.30400 23.55900
N  0.00400 43.59100 27.93800
C  1.00400 43.85100 28.84800
C  0.59300 43.73600 30.34200
C  -0.95300 43.22000 30.08900
C  -1.13800 43.28200 28.57200
C  -1.38000 41.84700 30.70000
C  0.61600 45.10400 31.03100
C  0.83500 45.07200 32.66200
H  0.44900 43.82800 33.44500
N  -2.11200 43.55400 25.61500
C  -2.91600 43.25200 26.71500
C  -4.28300 43.05800 26.23700
C  -4.19500 43.25600 24.79700
C  -2.77800 43.50200 24.43900
C  -5.40800 42.67500 27.05200
C  -5.32600 43.09700 23.69600
O  -5.08400 43.06900 22.52700
C  -6.71700 42.82000 24.01000
N  0.14800 43.89400 23.72800
C  -0.87300 43.73400 22.79400
C  -0.35100 43.68300 21.33100
C  1.07900 44.18300 21.49000
C  1.27000 44.08700 23.01500
C  -0.54700 42.26800 20.67000
C  1.36900 45.64400 20.89600
C  1.27200 46.89700 21.88400
N  1.94000 44.36700 25.88800
C  2.88200 44.40400 24.92100
C  4.28100 44.40200 25.49500
C  4.01900 44.42600 26.88700
C  2.61900 44.32500 27.02000
C  5.57700 44.62200 24.75000
C  4.71200 44.52400 28.21800
O  5.87900 44.62000 28.47700
C  3.53900 44.41700 29.30500
C  3.81000 43.24600 30.13000
O  3.67900 42.12600 29.72100
O  4.14200 43.67900 31.37200
C  4.48500 42.64900 32.30100
H  -3.25200 42.96900 28.75400
H  -2.87100 43.77000 22.30600
H  3.30200 44.39000 22.76000
H  1.26500 43.06900 30.88300
H  -1.70300 43.90100 30.49300
H  -0.47100 41.35000 31.04100
H  -1.92100 41.27000 29.95000
H  -1.96800 41.97800 31.60800
H  -0.33500 45.62500 30.92000
H  1.32300 45.65700 30.41300
H  0.55300 45.97500 33.20500
H  1.92500 45.08700 32.66500
H  -6.28300 43.06900 26.53500
H  -5.40900 43.25800 27.97300
H  -5.45800 41.60700 27.26300
H  -6.65600 41.95100 24.66400
H  -7.27800 42.50800 23.12900
H  -7.17700 43.63000 24.57600
H  -1.08000 44.34500 20.86500
H  1.79200 43.54300 20.97000
H  -1.37700 41.84400 21.23600
H  0.38100 41.69700 20.63600
H  -0.97800 42.36300 19.67300
H  0.58600 45.70200 20.13900
H  2.26800 45.68500 20.28100
H  0.63600 47.73300 21.59100
H  2.25000 47.28100 22.17400
H  0.75200 46.55000 22.77600
H  6.10000 45.49300 25.14500
H  5.27000 44.74800 23.71200
H  6.20800 43.76000 24.96700
H  3.52800 45.34500 29.87800
H  4.06800 43.00300 33.24400
H  5.56600 42.56100 32.41000
H  4.23900 41.60500 32.10700

