158

Mg 8.94800 3.63100 27.16900
C  9.98700 2.29600 30.35400
C  6.69300 5.54200 28.88700
C  8.44400 5.12800 24.35700
C  10.93500 1.30900 25.59400
N  8.34000 3.81300 29.39300
C  8.97000 3.25900 30.46100
C  8.41100 3.69600 31.70900
C  7.17900 4.58200 31.24000
C  7.41800 4.64600 29.74300
C  5.82000 4.00100 31.66500
C  9.47500 4.43900 32.55600
C  9.54400 3.79100 34.02100
H  10.77000 4.11400 34.95200
N  7.70800 5.05600 26.64900
C  6.76800 5.69300 27.45400
C  6.09700 6.71400 26.71300
C  6.77600 6.72900 25.41000
C  7.77700 5.63300 25.43500
C  4.86400 7.47500 27.29900
C  6.55400 7.66600 24.23300
O  7.09500 7.53800 23.18100
C  5.70000 8.83300 24.42500
N  9.57200 3.31500 25.26100
C  9.15100 3.97900 24.27900
C  9.61500 3.48100 22.88400
C  10.47900 2.25400 23.25700
C  10.39900 2.34500 24.74600
C  8.40100 3.22200 21.93900
C  11.88100 2.30600 22.61000
C  12.17300 1.01800 21.76300
N  10.18000 2.11800 27.80100
C  10.96300 1.24600 27.01400
C  11.69100 0.33700 27.84700
C  11.45300 0.80400 29.16000
C  10.44200 1.82600 29.07800
C  12.66000 -0.54700 27.38300
C  11.80800 0.60800 30.57500
O  12.50800 -0.21600 31.12700
C  10.89300 1.58900 31.37100
C  10.17900 0.74600 32.36500
O  9.08600 0.21800 32.19400
O  10.96600 0.71300 33.55600
C  10.32500 0.04800 34.70000
H  5.96900 6.16200 29.42000
H  8.32200 5.61600 23.38800
H  11.39400 0.52200 24.99200
H  8.07600 2.76600 32.16800
H  7.29200 5.57100 31.68400
H  5.20000 4.88600 31.81200
H  5.88300 3.29300 32.49100
H  5.26700 3.42200 30.92500
H  9.04200 5.43600 32.64200
H  10.46100 4.48000 32.09300
H  9.47100 2.70400 33.99900
H  8.58400 4.09500 34.43800
H  4.48200 6.94500 28.17200
H  4.16900 7.74700 26.50400
H  5.25000 8.41300 27.69800
H  4.69700 8.54000 24.11600
H  6.06100 9.67700 23.83800
H  5.75600 8.96700 25.50500
H  10.19200 4.24600 22.36600
H  9.99100 1.31300 23.00200
H  7.44500 3.55800 22.34000
H  8.44400 2.18700 21.60000
H  8.47400 3.87900 21.07200
H  12.59700 2.18300 23.42200
H  12.15100 3.15200 21.97900
H  13.17300 1.26500 21.40700
H  11.47900 0.86100 20.93700
H  12.09400 0.10000 22.34700
H  12.11500 -1.43100 27.05100
H  13.45300 -0.78300 28.09200
H  13.12700 -0.11200 26.50000
H  11.55600 2.29100 31.87600
H  9.97300 0.69200 35.50600
H  11.02900 -0.66700 35.12500
H  9.47600 -0.58800 34.44800
Mg 6.22800 53.85600 39.74800
C  5.84400 50.38500 39.55300
C  9.43000 53.52800 38.48300
C  6.27500 57.09300 39.17500
C  2.78100 54.05700 40.60300
N  7.48200 52.18000 39.07800
C  7.12500 50.83100 39.16000
C  8.30500 49.97900 38.53200
C  9.52100 51.00700 38.66300
C  8.77400 52.29700 38.79100
C  10.40400 50.74400 39.95500
C  8.31300 49.49600 37.05000
C  7.30900 50.24700 36.12500
H  7.87000 51.32300 35.25400
N  7.70600 55.19100 39.02400
C  8.94600 54.84500 38.54400
C  9.59000 56.02700 38.02100
C  8.69700 57.11400 38.33900
C  7.54100 56.49500 38.89500
C  10.86800 56.08500 37.27400
C  9.02700 58.54300 38.15500
O  10.14400 58.85700 37.70900
C  8.13100 59.70200 38.51600
N  4.60600 55.42900 39.72700
C  4.98400 56.68800 39.67800
C  3.78300 57.59000 40.15800
C  2.70700 56.62100 40.69600
C  3.42700 55.27200 40.36300
C  4.19900 58.75600 41.21700
C  1.24800 56.76500 40.21100
C  0.19100 56.61300 41.34200
N  4.63900 52.54500 40.15100
C  3.26100 52.74700 40.51200
C  2.68800 51.44800 40.84300
C  3.53600 50.52600 40.39000
C  4.76400 51.22500 40.03500
C  1.39800 51.14400 41.46900
C  3.78300 49.14500 40.26700
O  3.15000 48.17000 40.48900
C  5.26500 49.04700 39.72500
C  5.34100 48.27300 38.42700
O  4.77100 48.60200 37.40200
O  6.24900 47.24500 38.57100
C  6.31300 46.40900 37.34100
H  10.43600 53.39600 38.07900
H  6.19200 58.16900 39.00900
H  1.76600 54.14500 40.99500
H  8.41800 49.08200 39.14100
H  10.28000 50.98300 37.88100
H  11.40400 50.41300 39.67300
H  9.82500 50.12300 40.63800
H  10.61600 51.68800 40.45800
H  8.11600 48.42400 37.00800
H  9.24200 49.44800 36.48100
H  6.50100 50.68000 36.71500
H  6.94700 49.48900 35.43100
H  10.65600 56.57100 36.32100
H  11.29000 55.11200 37.02500
H  11.68300 56.60800 37.77400
H  8.76000 60.57000 38.31900
H  7.89900 59.61900 39.57800
H  7.22800 59.73500 37.90700
H  3.33100 58.04700 39.27700
H  2.69700 56.71400 41.78200
H  5.26300 58.93800 41.07100
H  4.14000 58.36300 42.23200
H  3.62400 59.67500 41.10800
H  0.98800 56.00100 39.47900
H  1.15600 57.64900 39.58100
H  0.65300 56.43300 42.31200
H  -0.45400 55.74400 41.21400
H  -0.44800 57.49300 41.42000
H  0.98800 50.14000 41.36100
H  0.63200 51.85200 41.15300
H  1.58200 51.30600 42.53100
H  5.80800 48.59200 40.55400
H  6.89200 45.50500 37.52800
H  6.71200 46.96500 36.49200
H  5.34900 45.98400 37.06200

