158

Mg 6.41100 54.69600 40.88900
C  6.05000 51.14900 40.80600
C  9.51700 54.42700 39.99900
C  6.43100 58.12200 40.52000
C  3.00700 54.81800 41.73100
N  7.61600 52.99800 40.38800
C  7.31700 51.66200 40.39600
C  8.41900 50.79500 39.78800
C  9.52100 51.91300 39.60200
C  8.91900 53.17600 40.11700
C  10.84400 51.60700 40.32300
C  8.17900 50.15300 38.35100
C  7.18400 50.88200 37.29900
H  7.56600 51.06300 35.84400
N  7.81300 56.10000 40.38700
C  9.07400 55.77600 40.01200
C  9.79800 56.89100 39.61300
C  8.90400 58.02000 39.73500
C  7.61300 57.45500 40.20600
C  11.28000 56.80000 39.24500
C  9.30800 59.52000 39.33300
O  10.42300 59.70300 38.84100
C  8.41600 60.60900 39.66900
N  4.90200 56.21000 41.00600
C  5.13800 57.57100 40.80700
C  3.86100 58.40200 41.07000
C  2.78900 57.22700 41.23500
C  3.58800 55.99100 41.32000
C  3.82200 59.37500 42.25700
C  1.66600 56.96400 40.04900
C  0.23300 57.20600 40.59500
N  4.83200 53.34400 41.22900
C  3.58300 53.53300 41.77900
C  2.93700 52.27100 42.12100
C  3.90200 51.31200 41.76400
C  5.01500 52.01100 41.31100
C  1.59400 52.08100 42.83900
C  4.17100 49.89500 41.73200
O  3.51100 49.01200 42.18500
C  5.53900 49.70900 41.10100
C  5.27900 48.81300 39.96600
O  4.95100 49.15000 38.85900
O  5.57800 47.51800 40.30600
C  5.29400 46.51500 39.30400
H  10.57700 54.37300 39.74200
H  6.32500 59.20300 40.39900
H  2.02900 54.91700 42.20800
H  8.59800 49.99500 40.50700
H  9.65100 52.08900 38.53400
H  10.84300 52.29500 41.16900
H  11.57500 51.71700 39.52200
H  10.81400 50.58900 40.71100
H  7.74300 49.16900 38.52600
H  9.16200 49.89100 37.95900
H  7.06900 51.89500 37.68300
H  6.22200 50.36900 37.28100
H  11.35200 56.06600 38.44200
H  11.63300 56.22800 40.10300
H  11.92700 57.67600 39.20400
H  8.86600 61.59800 39.59100
H  8.13200 60.47700 40.71300
H  7.61900 60.67000 38.92800
H  3.82500 59.03600 40.18400
H  2.31500 57.24200 42.21700
H  2.86600 59.42600 42.77800
H  3.92000 60.35000 41.78100
H  4.62200 59.14200 42.96000
H  1.70000 55.92000 39.73900
H  1.97800 57.55200 39.18600
H  0.29400 57.85500 41.46800
H  -0.28500 56.28000 40.84300
H  -0.28200 57.73000 39.79000
H  1.36700 53.04600 43.29000
H  1.85100 51.44200 43.68400
H  0.86700 51.55900 42.21700
H  6.26900 49.20700 41.73600
H  5.78800 45.61600 39.67300
H  5.79800 46.75600 38.36800
H  4.22300 46.39700 39.14400
Mg 10.17000 48.90600 25.97100
C  7.54000 49.33000 28.44900
C  12.28100 50.42200 28.09700
C  12.25500 49.05000 23.46100
C  7.63000 47.82600 23.84500
N  9.90300 49.79100 28.03000
C  8.83000 49.72500 28.94000
C  9.26900 50.19800 30.33400
C  10.66500 50.93200 29.96900
C  10.93400 50.38500 28.59500
C  10.70800 52.48600 30.08100
C  9.60500 48.99100 31.30300
C  9.80100 49.29200 32.80300
H  9.08100 48.49100 33.88900
N  12.00000 49.50200 25.83900
C  12.79200 50.00800 26.84300
C  14.16900 50.08700 26.35100
C  14.15900 49.68300 25.03400
C  12.75500 49.34800 24.69800
C  15.32900 50.54300 27.23400
C  15.31200 49.46900 24.09700
O  15.18200 49.00800 22.91100
C  16.60600 49.88300 24.54700
N  9.97500 48.41300 23.88200
C  10.96200 48.65500 23.02700
C  10.51600 48.34400 21.50700
C  9.10400 47.72600 21.77400
C  8.86000 47.98500 23.27000
C  10.60100 49.62200 20.54100
C  9.01200 46.25400 21.31800
C  9.53100 45.19500 22.30700
N  8.13600 48.52600 26.09500
C  7.24200 48.00500 25.19500
C  5.92000 47.79200 25.70400
C  5.99900 48.31300 26.97400
C  7.35000 48.75400 27.18700
C  4.58700 47.49300 24.92900
C  5.28200 48.53700 28.18400
O  4.12300 48.23900 28.55000
C  6.29300 49.24100 29.19800
C  6.36900 48.22000 30.27000
O  7.04300 47.20100 30.21300
O  5.33700 48.40000 31.18200
C  5.22500 47.55500 32.30400
H  13.01800 50.70900 28.85000
H  12.88100 49.34700 22.61700
H  6.87000 47.38200 23.19900
H  8.56300 50.82600 30.87700
H  11.55600 50.65000 30.52900
H  11.57200 52.78700 30.67400
H  9.76400 52.69600 30.58400
H  10.76100 52.91800 29.08200
H  10.51800 48.54400 30.91100
H  8.84300 48.21300 31.26200
H  9.69300 50.37500 32.86200
H  10.87200 49.11200 32.89500
H  15.88700 51.41000 26.88200
H  16.05600 49.80400 27.57000
H  14.86400 50.98000 28.11800
H  16.71700 50.89200 24.94400
H  17.32000 49.81400 23.72700
H  17.02400 49.17700 25.26400
H  11.20100 47.57100 21.16000
H  8.48700 48.38800 21.16600
H  9.64100 49.63000 20.02600
H  11.53200 49.59600 19.97500
H  10.62900 50.53900 21.13100
H  9.67200 46.01900 20.48300
H  7.98500 46.05300 21.01400
H  10.35600 45.59800 22.89200
H  9.94700 44.34900 21.76000
H  8.75700 44.73900 22.92500
H  3.71600 47.46200 25.58500
H  4.66200 46.54600 24.39600
H  4.44500 48.38300 24.31700
H  5.95500 50.13100 29.72800
H  4.49500 46.79000 32.03900
H  4.87200 48.14600 33.14900
H  6.13300 47.03600 32.60800

