158

Mg 1.51800 9.10200 26.78300
C  1.74200 11.34000 29.57100
C  1.70700 6.51400 29.00300
C  2.13200 7.02800 24.09400
C  1.78600 11.76000 24.64400
N  1.74800 8.98300 29.00600
C  1.45300 9.98300 29.84100
C  1.23600 9.43700 31.25400
C  1.53500 7.93900 31.16600
C  1.63300 7.77200 29.62700
C  2.79500 7.37000 31.90200
C  -0.26100 9.75500 31.68700
C  -0.47400 9.57500 33.20000
H  0.70700 9.01400 34.10900
N  1.76200 6.96300 26.54900
C  1.83500 6.15100 27.64900
C  1.99500 4.77700 27.12300
C  2.00800 4.84900 25.66500
C  1.96100 6.30000 25.35200
C  1.98900 3.52600 28.11300
C  1.98500 3.85700 24.53600
O  1.86700 4.16400 23.33500
C  2.20500 2.44500 24.87500
N  1.68200 9.32900 24.73700
C  1.98100 8.37500 23.84400
C  2.01500 8.94800 22.44200
C  1.41900 10.35100 22.65800
C  1.66600 10.47700 24.11300
C  3.47900 9.01500 21.86000
C  -0.14600 10.45200 22.32100
C  -0.46200 11.46900 21.18400
N  1.76900 11.18800 26.95700
C  1.89100 12.16000 25.99500
C  2.12000 13.44400 26.69100
C  2.08000 13.13800 28.09800
C  1.91000 11.74800 28.21000
C  2.38900 14.80800 26.03400
C  2.16800 13.67700 29.42400
O  2.51700 14.80000 29.64500
C  1.83100 12.52900 30.46700
C  2.93000 12.48100 31.44700
O  4.08700 12.37800 31.16200
O  2.45000 12.57200 32.69500
C  3.40300 12.44100 33.74000
H  1.73900 5.73700 29.77000
H  2.28400 6.52300 23.13800
H  1.71300 12.61000 23.96200
H  1.97500 9.95300 31.86800
H  0.67000 7.37200 31.51000
H  3.21500 7.89900 32.75800
H  3.63800 7.17600 31.23900
H  2.51600 6.42800 32.37400
H  -0.86000 9.12100 31.03400
H  -0.60400 10.76800 31.47900
H  -1.29200 8.86900 33.33800
H  -0.57200 10.58300 33.60200
H  2.70400 3.73300 28.90900
H  2.24700 2.57600 27.64700
H  1.01200 3.46800 28.59300
H  1.27300 2.10900 25.33000
H  2.90100 2.35000 25.70800
H  2.54200 1.87600 24.00900
H  1.39200 8.35300 21.77400
H  1.92300 11.13800 22.09600
H  3.85400 10.03800 21.85500
H  3.27300 8.64000 20.85700
H  4.17600 8.47500 22.50100
H  -0.71900 10.76100 23.19500
H  -0.38600 9.48800 21.87200
H  0.45500 11.37900 20.60100
H  -0.45200 12.50900 21.51100
H  -1.39300 11.36200 20.62700
H  1.56400 15.50000 26.20600
H  2.58200 14.74800 24.96300
H  3.40500 15.00500 26.37600
H  0.91700 12.81900 30.98600
H  4.16900 11.68300 33.57700
H  2.78300 12.16500 34.59200
H  3.74000 13.46400 33.90100
Mg 36.38900 48.76000 25.03100
C  35.81100 46.90400 28.08700
C  35.33000 51.60000 26.72900
C  36.05900 50.17300 22.13500
C  36.81900 45.58900 23.44800
N  35.61200 49.16700 27.17400
C  35.55300 48.28700 28.24900
C  35.42300 49.10100 29.58100
C  34.98100 50.52600 29.01600
C  35.38100 50.42500 27.54500
C  33.45200 50.73100 29.22300
C  36.67600 49.11500 30.44300
C  36.33600 48.93400 31.93800
H  34.97400 49.14000 32.56700
N  35.89900 50.73900 24.51400
C  35.51200 51.76700 25.32100
C  35.33700 52.98500 24.55300
C  35.60900 52.60200 23.20900
C  35.88200 51.13300 23.22200
C  34.92900 54.34700 25.09400
C  35.50200 53.50600 21.90200
O  35.86100 53.06400 20.80600
C  35.08700 54.92000 21.90800
N  36.31300 47.97300 23.08600
C  36.31700 48.81800 22.05100
C  36.53400 48.08500 20.72900
C  37.13600 46.69200 21.27600
C  36.72300 46.73800 22.71300
C  35.34400 48.01300 19.80300
C  38.64300 46.39300 21.12400
C  39.17200 46.38900 19.69700
N  36.25400 46.56800 25.58500
C  36.59200 45.46400 24.83300
C  36.78600 44.31700 25.70700
C  36.44200 44.84000 26.96400
C  36.09000 46.21800 26.82200
C  37.39900 43.03500 25.26700
C  36.23600 44.44300 28.41200
O  36.31600 43.34500 28.92700
C  35.95300 45.82600 29.18200
C  34.70100 45.70000 30.00000
O  33.64100 46.25300 29.80600
O  35.03900 44.99300 31.12400
C  33.95800 44.99300 32.07500
H  35.08100 52.50800 27.28100
H  35.97600 50.69600 21.18000
H  37.01200 44.64000 22.94300
H  34.67800 48.44900 30.03700
H  35.43500 51.35800 29.55400
H  33.07300 50.98900 28.23400
H  33.28000 51.61500 29.83700
H  32.88900 49.90200 29.65400
H  37.28200 50.01800 30.36400
H  37.39600 48.36900 30.10600
H  37.12300 49.47100 32.46700
H  36.55000 47.86700 32.00600
H  35.35400 54.51600 26.08300
H  33.84700 54.46400 25.02600
H  35.37900 55.05700 24.40100
H  34.08900 54.99900 22.33800
H  34.87900 55.21000 20.87800
H  35.72500 55.56800 22.51000
H  37.34600 48.60400 20.22100
H  36.47000 45.95700 20.82500
H  35.53600 48.62900 18.92400
H  34.49500 48.56500 20.20400
H  35.00300 47.01000 19.54500
H  38.85500 45.40200 21.52600
H  39.26000 47.04100 21.74700
H  38.33400 46.37100 19.00000
H  39.73900 45.48800 19.46400
H  39.84800 47.20100 19.43000
H  38.16700 42.82800 26.01300
H  37.89400 42.98300 24.29700
H  36.65500 42.27100 25.49200
H  36.79300 46.12600 29.80800
H  32.93200 45.14300 31.73900
H  34.11300 45.52800 33.01200
H  33.84600 43.95200 32.37500

