158

Mg 8.06100 2.06300 28.19800
C  9.74800 0.75400 30.93200
C  6.23300 4.05400 30.37600
C  6.17000 3.22400 25.59400
C  9.35200 -0.44200 26.20200
N  7.84500 2.15200 30.45900
C  8.84600 1.72800 31.27900
C  8.71200 2.41400 32.69400
C  7.48400 3.34700 32.62700
C  7.10400 3.17800 31.04200
C  6.37600 2.87800 33.64800
C  10.04300 3.02700 33.32500
C  10.55700 2.58400 34.73800
H  10.90800 3.69800 35.78500
N  6.51400 3.40800 27.97900
C  5.85900 4.12800 28.99800
C  4.92800 5.02600 28.45000
C  4.85600 4.75500 27.06500
C  5.86400 3.77700 26.81200
C  4.12400 5.94700 29.27100
C  3.96100 5.39700 25.98500
O  4.06700 5.05800 24.78400
C  2.97800 6.43500 26.38700
N  7.82700 1.46800 26.24000
C  7.09200 2.16800 25.27700
C  7.45000 1.76900 23.77700
C  8.31700 0.52800 24.11500
C  8.59200 0.56100 25.59400
C  6.30600 1.50800 22.79300
C  9.75100 0.56700 23.45400
C  10.20500 -0.77400 22.90600
N  9.29700 0.54500 28.43700
C  9.69400 -0.45200 27.59400
C  10.57400 -1.36200 28.29900
C  10.60500 -0.91100 29.58700
C  9.82600 0.20900 29.66300
C  11.41100 -2.49800 27.85100
C  11.21700 -1.22100 30.84500
O  11.94100 -2.08900 31.25800
C  10.69200 -0.07700 31.81000
C  10.05700 -0.70200 32.99300
O  9.04900 -1.36300 32.97100
O  10.83500 -0.45800 34.14400
C  10.34900 -1.07000 35.44300
H  5.75800 4.72800 31.09100
H  5.72300 3.52400 24.64400
H  9.79300 -1.29700 25.68600
H  8.52500 1.64300 33.44100
H  7.64200 4.42000 32.73200
H  6.16400 3.78500 34.21400
H  6.90300 2.14800 34.26300
H  5.42300 2.48000 33.30000
H  9.96800 4.11400 33.29800
H  10.82600 2.69100 32.64500
H  11.42200 1.95900 34.51400
H  9.85500 1.88300 35.18900
H  4.21900 5.70500 30.32900
H  3.05200 5.91300 29.07900
H  4.36400 7.00500 29.16500
H  2.48900 6.74500 25.46400
H  3.41400 7.29800 26.89100
H  2.21900 5.96400 27.01100
H  8.01300 2.60600 23.36600
H  7.71500 -0.34000 23.84700
H  5.34600 1.67400 23.28000
H  6.44700 0.48600 22.44000
H  6.45000 2.12200 21.90400
H  10.53500 0.94200 24.11300
H  9.79900 1.25200 22.60700
H  9.36100 -1.45600 23.00400
H  10.88900 -1.30600 23.56700
H  10.69300 -0.83500 21.93400
H  12.36100 -2.04300 27.57000
H  11.01800 -2.91200 26.92300
H  11.51300 -3.14300 28.72400
H  11.61500 0.37300 32.17700
H  10.02600 -0.27300 36.11300
H  11.17300 -1.61100 35.90600
H  9.66100 -1.89100 35.24200
Mg 47.69700 16.96200 29.17800
C  45.56400 16.52000 31.95600
C  49.65800 18.94700 31.11000
C  49.59000 17.47800 26.50600
C  45.22100 15.54100 27.21900
N  47.61300 17.74700 31.36100
C  46.71600 17.22900 32.34000
C  47.29100 17.52800 33.65000
C  48.32200 18.64100 33.41200
C  48.57700 18.40700 31.86300
C  47.92800 20.13700 33.75700
C  47.81900 16.24100 34.32100
C  47.91800 16.04000 35.94000
H  47.58100 17.19000 36.91900
N  49.51200 17.83500 28.94600
C  50.16000 18.69800 29.84600
C  51.40700 19.12600 29.21000
C  51.38800 18.72600 27.90000
C  50.17900 17.92100 27.73600
C  52.41400 19.92700 30.05900
C  52.39600 18.95500 26.78700
O  52.26200 18.35900 25.74500
C  53.50200 19.88600 26.92700
N  47.37500 16.59200 27.15300
C  48.36500 16.89800 26.24700
C  47.84500 16.69200 24.79700
C  46.56300 15.85500 25.05000
C  46.33600 16.03200 26.56800
C  47.54300 17.98000 23.87900
C  46.65100 14.30500 24.79000
C  46.05800 13.81300 23.42500
N  45.75500 16.22400 29.45100
C  44.91800 15.61900 28.61400
C  43.66900 15.30400 29.30700
C  43.91400 15.56000 30.66400
C  45.20300 16.08200 30.68600
C  42.39400 14.74000 28.71700
C  43.38500 15.44200 32.02100
O  42.36800 14.88000 32.45300
C  44.46800 16.08000 32.92500
C  43.94900 17.13200 33.84300
O  43.70400 18.31900 33.56700
O  43.68500 16.60500 35.07500
C  43.17200 17.57700 36.03300
H  50.30000 19.49500 31.80200
H  50.08300 17.58900 25.53700
H  44.49800 14.96100 26.64100
H  46.55800 17.94100 34.34400
H  49.35200 18.56700 33.76100
H  47.84700 20.63300 32.79000
H  48.72000 20.69000 34.26200
H  46.94200 20.28200 34.20000
H  48.78200 16.00600 33.86800
H  47.25300 15.37900 33.96600
H  48.91200 15.70300 36.23500
H  47.17600 15.28000 36.18500
H  52.03300 20.22400 31.03600
H  52.48200 20.87700 29.52900
H  53.39900 19.47800 30.18900
H  53.06600 20.85700 26.69500
H  54.13800 19.47000 26.14600
H  54.02400 19.76800 27.87700
H  48.54500 16.04900 24.26400
H  45.71500 16.35400 24.58100
H  47.93900 17.76700 22.88600
H  48.22900 18.71600 24.29800
H  46.49400 18.26200 23.96600
H  46.09300 13.84100 25.60400
H  47.62900 13.87100 24.99600
H  46.93800 13.58100 22.82500
H  45.51500 14.64300 22.97200
H  45.39600 12.95400 23.53000
H  42.51300 14.99800 27.66400
H  41.53400 15.29200 29.09600
H  42.21200 13.69300 28.96200
H  44.88100 15.25700 33.50700
H  43.10900 17.08600 37.00400
H  42.14900 17.79400 35.72500
H  43.77700 18.48300 36.06600

