158

Mg 26.07000 0.32300 29.17500
C  27.93000 0.00300 32.17200
C  23.23700 0.37300 31.22200
C  24.20000 0.73500 26.50800
C  28.89900 -0.55900 27.35600
N  25.68800 0.23300 31.42600
C  26.58700 0.25300 32.44900
C  25.99300 0.25100 33.86800
C  24.43500 0.24800 33.45400
C  24.48700 0.27000 31.95500
C  23.63400 -1.02300 33.94300
C  26.39900 1.50900 34.70300
C  27.30600 1.47800 35.92700
H  27.07500 2.41400 37.10600
N  24.00400 0.60600 28.87400
C  22.98600 0.52400 29.83500
C  21.72400 0.61300 29.13500
C  21.97300 0.88000 27.79100
C  23.44300 0.80400 27.68300
C  20.46800 0.64800 29.93700
C  21.02800 1.08200 26.60700
O  21.39200 1.28100 25.44400
C  19.58500 1.18400 26.91000
N  26.42900 0.02500 27.20000
C  25.57000 0.46200 26.23000
C  26.30100 0.60400 24.85200
C  27.70600 0.10100 25.15700
C  27.68000 -0.24400 26.67200
C  25.55900 -0.10800 23.67400
C  28.73300 1.18300 24.79000
C  29.96300 0.77300 24.06500
N  28.00500 -0.28200 29.61000
C  29.05600 -0.58000 28.78000
C  30.24500 -0.86800 29.52500
C  29.92400 -0.56000 30.93700
C  28.52000 -0.19800 30.89800
C  31.58600 -1.33700 28.93500
C  30.40700 -0.48700 32.33900
O  31.55800 -0.58600 32.79700
C  29.11500 -0.11100 33.17500
C  29.05800 -1.28400 34.10300
O  28.53100 -2.37500 33.92200
O  29.56000 -0.97800 35.26800
C  29.75400 -2.03800 36.28700
H  22.46700 0.52900 31.98000
H  23.69600 0.81600 25.54300
H  29.79300 -0.76400 26.76400
H  26.26300 -0.69600 34.33700
H  23.82700 1.11200 33.72400
H  24.21800 -1.88400 34.26700
H  22.99700 -1.39000 33.13900
H  22.99100 -0.72400 34.77100
H  25.46900 1.94600 35.06700
H  26.90100 2.23700 34.06700
H  28.23400 1.84700 35.49000
H  27.27900 0.42100 36.19200
H  19.92700 1.58400 29.80500
H  20.67800 0.53600 31.00100
H  19.76300 -0.13800 29.66800
H  19.43300 1.90200 27.71600
H  19.18900 0.27500 27.36300
H  18.97400 1.53500 26.07900
H  26.25300 1.68100 24.69200
H  27.96600 -0.74800 24.52500
H  24.56100 -0.46700 23.92500
H  26.08600 -0.97800 23.28400
H  25.56500 0.53500 22.79400
H  29.00400 1.58600 25.76500
H  28.34900 1.97700 24.15000
H  30.78000 1.14300 24.68400
H  29.93300 1.13400 23.03700
H  30.14200 -0.30200 24.03500
H  31.60000 -2.42600 28.91000
H  32.38900 -0.93100 29.55000
H  31.71700 -1.01400 27.90200
H  29.35100 0.80400 33.71800
H  28.83300 -2.53300 36.59300
H  30.27100 -1.70300 37.18600
H  30.41000 -2.86500 36.01700
Mg 35.49600 50.25400 25.27000
C  35.17700 48.23300 28.13300
C  33.95100 52.80200 27.06200
C  35.52400 52.00900 22.45100
C  36.25500 47.31600 23.35100
N  34.65000 50.47900 27.32000
C  34.75900 49.53200 28.34800
C  34.55800 50.22300 29.68400
C  33.90100 51.58900 29.33600
C  34.18900 51.63300 27.80500
C  32.41200 51.77300 29.76700
C  35.85100 50.33500 30.56400
C  35.57700 50.30300 32.13200
H  34.12200 50.22500 32.60200
N  34.96300 52.12400 24.87400
C  34.41800 53.04500 25.75200
C  34.29200 54.33000 25.12700
C  34.61900 54.10800 23.75100
C  35.08400 52.73500 23.66700
C  33.72300 55.59000 25.84800
C  34.52600 55.05800 22.60200
O  34.69900 54.67600 21.42000
C  34.14200 56.56700 22.60300
N  35.57000 49.71100 23.15300
C  35.66800 50.65100 22.19400
C  36.16600 50.02300 20.86800
C  36.37900 48.52900 21.13700
C  36.08600 48.52400 22.70200
C  35.30200 50.41100 19.70700
C  37.75400 47.93500 20.76300
C  38.97000 48.58500 21.46800
N  35.63500 48.14500 25.59300
C  36.09300 47.16800 24.77600
C  36.32500 45.99400 25.61600
C  36.01700 46.32200 26.96600
C  35.54300 47.65500 26.90400
C  36.93800 44.67500 25.15300
C  35.96700 45.83900 28.30900
O  36.34100 44.80600 28.85800
C  35.32300 47.11200 29.16700
C  34.10500 46.63100 29.93300
O  33.00700 46.49100 29.43100
O  34.39500 46.48000 31.27000
C  33.50200 45.67800 32.10000
H  33.57900 53.56200 27.75200
H  35.60400 52.66100 21.57900
H  36.61900 46.49900 22.72500
H  33.85700 49.64500 30.28600
H  34.49900 52.36000 29.82100
H  31.92700 52.02300 28.82400
H  32.30200 52.65000 30.40600
H  31.87100 50.93900 30.21400
H  36.34800 51.29400 30.42100
H  36.54700 49.55500 30.25800
H  35.89400 51.26500 32.53500
H  36.14900 49.47100 32.54200
H  33.11100 56.13200 25.12600
H  34.50500 56.27400 26.17600
H  33.12800 55.50300 26.75700
H  34.79000 57.12800 23.27700
H  33.09000 56.73000 22.83700
H  34.45500 57.11000 21.71200
H  37.07600 50.56600 20.61600
H  35.49800 48.04500 20.71400
H  35.74600 51.19400 19.09200
H  34.31200 50.69900 20.06100
H  35.07200 49.59000 19.02700
H  37.83100 48.14500 19.69600
H  37.75500 46.85700 20.92700
H  39.44400 47.77500 22.02200
H  38.57400 49.35600 22.12900
H  39.64500 49.11900 20.79900
H  37.67500 44.28600 25.85500
H  37.52900 44.80600 24.24700
H  36.12400 43.98800 24.92000
H  36.09300 47.35400 29.90000
H  32.48700 45.91500 31.78000
H  33.56400 45.88200 33.16900
H  33.81500 44.64500 31.94800

