158

Mg 17.50300 -2.40600 27.89000
C  16.33300 -0.31600 30.45900
C  19.38100 -4.17300 30.11200
C  18.95300 -3.97600 25.16900
C  16.12000 -0.15900 25.64900
N  17.80100 -2.26000 30.06200
C  17.15900 -1.36000 30.91100
C  17.56500 -1.67000 32.33300
C  18.61500 -2.83500 32.22100
C  18.60900 -3.14500 30.70700
C  19.99800 -2.38300 32.72500
C  16.27300 -2.05100 33.13100
C  16.09400 -1.35500 34.52300
H  17.31700 -0.91700 35.30800
N  18.80100 -3.98600 27.68700
C  19.52000 -4.56100 28.74400
C  20.42100 -5.53100 28.25400
C  20.26300 -5.53300 26.80000
C  19.30700 -4.45600 26.49100
C  21.42400 -6.29600 29.19700
C  20.86600 -6.42000 25.75100
O  20.56900 -6.31500 24.57200
C  21.99200 -7.44000 26.14100
N  17.53200 -2.17800 25.69800
C  18.15000 -2.92500 24.81500
C  17.99100 -2.45900 23.33100
C  17.06500 -1.33800 23.59100
C  16.83200 -1.22600 25.09100
C  19.37000 -2.04300 22.61300
C  15.81700 -1.25300 22.68900
C  14.49200 -1.91300 23.16400
N  16.40400 -0.64600 28.01000
C  15.82400 0.05700 27.00700
C  14.85900 0.95500 27.53300
C  15.11100 0.91500 28.92500
C  16.03900 -0.08200 29.11800
C  13.94200 1.88500 26.85400
C  14.79300 1.58300 30.25400
O  14.14900 2.64200 30.46400
C  15.50500 0.74600 31.26100
C  16.40800 1.67800 31.99900
O  17.53800 2.06400 31.60800
O  15.74500 2.13900 33.10200
C  16.56100 3.06400 33.86000
H  20.03800 -4.70000 30.80700
H  19.34800 -4.32400 24.21200
H  15.56400 0.53100 25.01100
H  17.99600 -0.70800 32.60900
H  18.26600 -3.62500 32.88600
H  20.55700 -2.01000 31.86700
H  20.47200 -3.24700 33.19100
H  19.79400 -1.55000 33.39700
H  16.11600 -3.12700 33.21100
H  15.40900 -1.75200 32.53800
H  15.50300 -1.99000 35.18200
H  15.40000 -0.52700 34.37600
H  22.27600 -6.79700 28.73600
H  20.81200 -6.95600 29.81100
H  21.78000 -5.39800 29.70200
H  22.84400 -6.95400 26.61500
H  22.17100 -8.04000 25.24800
H  21.48900 -7.91700 26.98200
H  17.52100 -3.23800 22.73000
H  17.64600 -0.44500 23.35700
H  20.26900 -2.28100 23.18300
H  19.45700 -0.97800 22.39700
H  19.56600 -2.61500 21.70600
H  16.17100 -1.75100 21.78700
H  15.50200 -0.29000 22.28700
H  13.61200 -1.27100 23.19400
H  14.54000 -2.50000 24.08200
H  14.10200 -2.56500 22.38300
H  13.36200 2.17200 27.73100
H  13.29300 1.28200 26.21900
H  14.48500 2.75000 26.47500
H  14.75900 0.36900 31.96000
H  16.16800 3.35200 34.83500
H  16.61100 3.99200 33.29100
H  17.64300 2.92700 33.88300
Mg 6.70500 53.93000 40.99900
C  5.91600 50.49900 40.89900
C  9.79400 53.05800 39.77700
C  7.06400 57.12400 40.04100
C  3.46000 54.53200 42.01000
N  7.70500 51.94400 40.38100
C  7.23400 50.72800 40.42700
C  8.28100 49.65800 40.00200
C  9.60400 50.47000 40.11200
C  9.03100 51.89800 40.03600
C  10.42800 50.23100 41.39200
C  8.03600 49.03100 38.54300
C  7.68000 49.96400 37.40300
H  6.45600 49.63000 36.50300
N  8.23300 54.95200 40.00500
C  9.43500 54.37600 39.67900
C  10.25800 55.51000 38.95100
C  9.46900 56.69600 38.99200
C  8.19000 56.28800 39.69700
C  11.61400 55.29200 38.32900
C  9.84800 58.03700 38.34600
O  10.96000 58.10400 37.76800
C  9.05700 59.22400 38.47800
N  5.31300 55.61500 40.83200
C  5.87600 56.85500 40.63300
C  4.91500 57.94100 41.21800
C  3.60200 57.11800 41.52700
C  4.13300 55.66700 41.52000
C  5.52100 58.62700 42.39700
C  2.63700 57.33100 40.30200
C  1.25500 56.66700 40.26900
N  5.03100 52.81800 41.52600
C  3.87000 53.22100 42.06200
C  3.15200 52.04000 42.57100
C  3.87700 50.99000 42.13400
C  5.00600 51.49400 41.38400
C  1.84200 52.06600 43.24600
C  3.93600 49.57200 42.14800
O  3.18200 48.88700 42.72900
C  5.24700 49.15900 41.32900
C  4.67500 48.34700 40.23200
O  3.86700 48.82300 39.41000
O  5.22900 47.08800 40.26300
C  4.48800 46.17700 39.42200
H  10.79300 52.87500 39.37600
H  7.36800 58.16300 39.89300
H  2.42300 54.75200 42.27100
H  8.31800 48.81200 40.68900
H  10.26600 50.21700 39.28400
H  10.50500 51.14700 41.97800
H  11.44300 49.97600 41.08800
H  10.09200 49.45100 42.07500
H  7.15500 48.39300 38.60600
H  8.99000 48.57100 38.28500
H  8.54600 50.00900 36.74200
H  7.47600 50.97300 37.76000
H  11.78100 55.55500 37.28400
H  11.76100 54.21400 38.25800
H  12.41600 55.78600 38.87700
H  8.09800 59.06600 37.98600
H  9.50500 60.08500 37.98100
H  8.84000 59.36000 39.53800
H  4.77900 58.58500 40.35000
H  3.11100 57.28600 42.48500
H  6.61000 58.59900 42.42700
H  5.15100 58.21400 43.33600
H  5.34000 59.69500 42.27400
H  3.19900 57.01900 39.42100
H  2.40600 58.39500 40.34300
H  0.47100 57.40200 40.08900
H  0.89500 56.32000 41.23800
H  1.28300 55.86900 39.52700
H  1.28300 52.99100 43.10700
H  1.85500 52.05400 44.33600
H  1.21300 51.24300 42.90500
H  5.89300 48.48500 41.89200
H  3.41400 46.18600 39.61100
H  4.93000 45.18400 39.50500
H  4.61500 46.53400 38.40000

