158

Mg 35.72100 2.47500 30.45400
C  33.04300 3.33700 32.61800
C  37.79400 2.64400 33.15000
C  38.21400 1.58300 28.36300
C  33.58300 2.89400 27.68900
N  35.44600 2.92800 32.60900
C  34.28100 3.14200 33.26100
C  34.43900 3.18600 34.81200
C  35.99700 3.26400 34.94800
C  36.45900 2.93000 33.51400
C  36.55100 4.56800 35.55200
C  33.63800 1.96200 35.46700
C  32.83800 2.29400 36.70500
H  33.53400 3.23500 37.72700
N  37.62900 2.12800 30.69600
C  38.32200 2.12600 31.90400
C  39.73100 1.76200 31.65700
C  39.88200 1.71700 30.27100
C  38.55100 1.82300 29.69200
C  40.66900 1.49300 32.77300
C  41.21600 1.53800 29.51400
O  41.23600 1.50900 28.31500
C  42.45300 1.34900 30.30000
N  35.93300 2.37200 28.21600
C  37.09700 1.88100 27.67500
C  36.97400 1.96600 26.12500
C  35.34400 2.16900 25.95300
C  34.93600 2.59000 27.32400
C  37.83200 3.07500 25.50900
C  34.54800 0.84300 25.43600
C  33.14200 0.96900 24.78700
N  33.75000 3.05900 30.16100
C  33.05200 3.13200 28.98000
C  31.69100 3.44700 29.32700
C  31.62600 3.55200 30.72600
C  32.95700 3.31000 31.20000
C  30.49600 3.62100 28.37600
C  30.67100 3.93500 31.83000
O  29.47100 4.15500 31.86100
C  31.63600 3.66300 33.11400
C  31.47900 4.91000 33.86100
O  32.10400 5.93600 33.49000
O  30.70300 4.80700 35.01600
C  30.72700 5.99200 35.88700
H  38.45300 2.69600 34.01900
H  39.06500 1.28900 27.74400
H  32.85600 3.05600 26.89100
H  34.07400 4.12900 35.21800
H  36.18800 2.41000 35.59800
H  36.33200 4.77500 36.60000
H  36.28200 5.38800 34.88600
H  37.62700 4.48500 35.40300
H  34.33800 1.13700 35.60000
H  32.98800 1.54100 34.69900
H  32.61000 1.33200 37.16400
H  31.86600 2.60500 36.32000
H  40.24900 1.33400 33.76600
H  41.28600 2.39200 32.76400
H  41.33200 0.63600 32.66300
H  42.55500 2.20600 30.96600
H  43.27900 1.34800 29.59000
H  42.51000 0.43400 30.88900
H  37.16400 0.98100 25.69900
H  35.10500 3.04900 25.35600
H  37.31500 3.81100 24.89200
H  38.48800 2.52300 24.83600
H  38.42900 3.53900 26.29400
H  34.50500 0.12200 26.25200
H  35.19000 0.41500 24.66600
H  33.17800 0.84800 23.70400
H  32.62400 1.86800 25.11900
H  32.49600 0.21000 25.22900
H  29.55400 3.63800 28.92400
H  30.28100 2.83300 27.65500
H  30.43000 4.61200 27.92600
H  31.08800 2.94500 33.72400
H  29.95600 6.74700 35.73100
H  31.64900 6.57300 35.85900
H  30.59300 5.67600 36.92100
Mg 16.94300 51.98900 25.64200
C  18.87500 50.66400 28.28400
C  14.64700 53.00100 27.88000
C  15.29800 53.38200 23.07300
C  19.53200 50.84300 23.43200
N  16.74300 51.67400 27.92200
C  17.68300 51.24800 28.77400
C  17.22800 51.42300 30.29600
C  15.82300 52.15100 29.99000
C  15.76600 52.33800 28.56300
C  14.57100 51.28300 30.44300
C  18.24000 52.37800 31.07200
C  18.49400 52.16900 32.59600
H  17.43900 51.34700 33.30200
N  15.18300 53.00500 25.49600
C  14.38000 53.37900 26.56300
C  13.37200 54.33400 26.01100
C  13.42900 54.19100 24.55000
C  14.69400 53.50800 24.32000
C  12.37000 55.11000 26.90000
C  12.48900 54.73100 23.46000
O  12.64400 54.56900 22.23100
C  11.34900 55.56900 23.87400
N  17.31800 52.03100 23.49400
C  16.53800 52.80400 22.71700
C  17.19800 53.00200 21.28600
C  18.51100 52.13300 21.47000
C  18.48200 51.64400 22.90500
C  16.29600 52.48900 20.17700
C  19.72300 53.05800 21.31900
C  20.73100 52.49200 20.35400
N  18.62400 50.66000 25.72800
C  19.57300 50.33400 24.74700
C  20.71600 49.71300 25.38300
C  20.40200 49.83600 26.78200
C  19.16400 50.44900 26.93400
C  22.00900 49.38200 24.73900
C  21.02200 49.52400 28.02000
O  22.09200 48.97000 28.19000
C  20.03400 50.04800 29.10400
C  19.67400 48.95300 30.09200
O  18.98400 47.99300 29.88800
O  20.35600 49.19800 31.20200
C  20.17000 48.30800 32.37800
H  14.02400 53.65600 28.49200
H  14.72400 53.63400 22.17900
H  20.27800 50.47800 22.72200
H  17.25600 50.48300 30.84700
H  15.77900 53.11400 30.49900
H  14.35300 50.61700 29.60800
H  13.68600 51.84900 30.73500
H  14.83300 50.62800 31.27400
H  17.85500 53.38900 30.94000
H  19.22100 52.31900 30.60000
H  18.45200 53.10800 33.14900
H  19.42000 51.60300 32.68500
H  12.69100 55.00900 27.93700
H  11.31600 54.84800 26.80500
H  12.49700 56.17000 26.68100
H  10.79100 55.81700 22.97100
H  11.81200 56.45000 24.31700
H  10.71500 54.89400 24.44900
H  17.43600 54.05800 21.15200
H  18.54700 51.30300 20.76400
H  15.77100 51.56900 20.43400
H  16.78500 52.33500 19.21600
H  15.62800 53.30800 19.91000
H  20.18200 53.35700 22.26100
H  19.46500 54.07600 21.02500
H  20.20200 51.70000 19.82500
H  21.59000 52.12200 20.91300
H  21.01700 53.19700 19.57300
H  22.65600 48.89000 25.46500
H  22.47600 50.29700 24.37400
H  21.79900 48.63300 23.97500
H  20.53800 50.85500 29.63500
H  21.00100 47.61500 32.50200
H  19.20000 47.81600 32.29800
H  20.12800 49.00400 33.21600

