158

Mg 0.79400 8.26600 26.86700
C  1.42900 10.04100 29.91400
C  0.67900 5.28800 28.72000
C  0.73200 6.65000 24.05200
C  1.40200 11.22200 25.21100
N  0.97800 7.77500 29.03800
C  1.25400 8.68400 30.11700
C  1.10000 7.96300 31.44200
C  1.22700 6.45000 31.07400
C  0.91000 6.47800 29.56100
C  2.50800 5.68600 31.47500
C  -0.13900 8.29900 32.22800
C  0.10600 8.73100 33.70400
H  1.19500 7.90300 34.56200
N  0.57900 6.25900 26.43500
C  0.46100 5.18500 27.28700
C  0.11000 3.96800 26.53500
C  0.01700 4.39800 25.19400
C  0.50600 5.85900 25.14000
C  0.03500 2.61500 27.12200
C  -0.41100 3.54000 24.09000
O  -0.51800 3.97700 22.95000
C  -0.97600 2.05600 24.24300
N  1.30900 8.82200 24.89100
C  1.09400 7.96800 23.86600
C  1.29100 8.64000 22.48500
C  1.16100 10.12500 22.92800
C  1.33100 10.05100 24.44000
C  2.52700 8.19200 21.74300
C  -0.12400 10.76800 22.50900
C  -1.47800 10.32700 23.09600
N  1.27400 10.28900 27.44000
C  1.45000 11.37900 26.61400
C  1.74300 12.59400 27.33800
C  1.78200 12.13600 28.70100
C  1.54000 10.70100 28.69100
C  1.84700 14.00400 26.81200
C  1.89100 12.49200 30.06800
O  2.19200 13.61800 30.51400
C  1.65100 11.22400 30.92400
C  2.72300 11.07900 31.93500
O  3.84500 10.64900 31.72400
O  2.20200 11.42900 33.14100
C  3.22000 11.37000 34.14000
H  0.96500 4.38700 29.26800
H  0.61300 6.06900 23.13600
H  1.56800 12.14700 24.65500
H  1.98500 8.33600 31.95800
H  0.45300 5.96800 31.67100
H  2.24000 4.66600 31.74900
H  3.03300 6.21800 32.26800
H  3.10200 5.66600 30.56100
H  -0.72400 7.38400 32.32300
H  -0.68600 9.05200 31.66000
H  -0.81900 8.58400 34.26200
H  0.32900 9.79800 33.68400
H  0.66200 1.80400 26.75100
H  -0.99100 2.26700 27.00800
H  0.22200 2.67500 28.19400
H  -0.27800 1.24900 24.46500
H  -1.54100 1.85600 23.33200
H  -1.74900 2.11200 25.00900
H  0.42000 8.38100 21.88200
H  2.01700 10.66500 22.52300
H  2.22500 7.23800 21.31200
H  3.29700 8.00700 22.49300
H  2.77500 8.91000 20.96100
H  -0.18700 10.49900 21.45500
H  -0.14800 11.85600 22.55900
H  -2.04100 11.18900 23.45500
H  -1.39300 9.50200 23.80400
H  -2.04200 9.84700 22.29600
H  2.21000 14.13000 25.79200
H  2.53400 14.58700 27.42600
H  0.85000 14.44400 26.78800
H  0.75500 11.31200 31.53900
H  3.60200 10.34900 34.14600
H  2.80100 11.62500 35.11300
H  4.00900 12.06400 33.85200
Mg -12.68000 16.01900 42.10600
C  -9.61600 14.15700 41.84200
C  -11.08200 18.56100 40.36100
C  -15.65700 17.20100 41.35500
C  -14.05800 13.10100 43.60900
N  -10.51200 16.30900 41.28100
C  -9.45800 15.43800 41.28900
C  -8.25600 16.00100 40.46300
C  -8.72300 17.55400 40.28100
C  -10.18700 17.55700 40.78400
C  -7.85900 18.64300 41.12500
C  -8.08600 15.21300 39.10200
C  -6.66100 15.07500 38.49500
H  -6.02000 16.03900 37.50800
N  -13.29100 17.70600 41.06600
C  -12.49700 18.70600 40.49700
C  -13.30600 19.81900 40.08400
C  -14.67900 19.50600 40.37300
C  -14.63800 18.11900 41.07600
C  -12.82200 21.12800 39.47300
C  -15.89100 20.39200 40.12800
O  -15.72600 21.47000 39.60900
C  -17.25000 20.18900 40.67200
N  -14.52400 15.20400 42.42200
C  -15.62900 15.95500 42.00200
C  -16.93000 15.22500 42.38100
C  -16.42300 13.99700 43.19400
C  -14.88100 14.08800 43.07400
C  -18.01300 16.07700 43.09800
C  -16.99700 12.62000 42.78300
C  -17.22900 11.65100 43.93300
N  -12.05800 13.96000 42.56700
C  -12.70400 12.93300 43.28000
C  -11.80800 11.84400 43.58500
C  -10.57400 12.25700 42.94400
C  -10.80700 13.51000 42.36200
C  -12.14800 10.55800 44.32100
C  -9.19400 11.86300 42.66000
O  -8.51500 10.90400 42.87900
C  -8.56500 13.00600 41.91200
C  -7.36900 13.50000 42.62900
O  -7.30400 13.68800 43.85600
O  -6.38600 13.76700 41.73900
C  -5.22800 14.44100 42.27800
H  -10.58300 19.41400 39.89600
H  -16.65600 17.54000 41.07400
H  -14.54400 12.27300 44.13000
H  -7.40800 16.01100 41.14700
H  -8.84400 17.77700 39.22100
H  -7.22700 19.21300 40.44400
H  -7.12500 18.05900 41.68000
H  -8.46200 19.28000 41.77300
H  -8.60500 15.75300 38.31000
H  -8.57900 14.24700 39.20600
H  -6.62700 14.03400 38.17500
H  -5.97800 15.14100 39.34200
H  -12.66600 21.81200 40.30700
H  -13.42800 21.42900 38.61800
H  -11.81100 21.01200 39.08400
H  -17.73500 19.54900 39.93600
H  -17.67000 21.18500 40.81400
H  -17.06800 19.57100 41.55100
H  -17.37700 14.78500 41.49000
H  -16.68700 14.12100 44.24500
H  -17.61500 17.06400 43.33000
H  -18.26600 15.70300 44.09000
H  -18.89600 16.03900 42.45900
H  -16.26700 12.16500 42.11300
H  -17.95300 12.78400 42.28500
H  -18.19000 11.14400 43.85100
H  -17.18300 12.15600 44.89800
H  -16.38700 10.97500 44.08300
H  -11.22400 9.98800 44.42300
H  -12.80300 9.89400 43.75700
H  -12.48600 10.82500 45.32200
H  -8.21600 12.73100 40.91700
H  -4.74500 15.06700 41.52800
H  -4.58900 13.62700 42.62000
H  -5.43400 14.99600 43.19300

