158

Mg 1.81300 -1.30100 43.61500
C  5.28900 -0.88700 42.61000
C  1.18500 1.42800 41.45100
C  -1.34700 -2.07700 43.76600
C  2.84900 -4.49500 44.65000
N  3.14400 -0.05200 42.13800
C  4.46900 0.00500 41.95400
C  4.97600 1.16300 41.15200
C  3.67000 1.99200 40.93700
C  2.54900 1.09700 41.56300
C  3.58900 3.46000 41.48600
C  5.80700 0.85100 39.94000
C  7.23700 1.29300 39.93500
H  7.72900 2.10200 38.68400
N  0.16400 -0.32300 42.91900
C  0.13200 0.79800 42.04900
C  -1.24800 1.19500 41.89400
C  -2.04300 0.26600 42.62600
C  -1.13400 -0.77500 43.17500
C  -1.60300 2.46100 41.06200
C  -3.54300 0.24300 42.67100
O  -4.24200 1.09200 42.07300
C  -4.27300 -0.73100 43.54700
N  0.84500 -3.10100 44.06400
C  -0.47400 -3.11400 44.15600
C  -0.93800 -4.50800 44.70400
C  0.44400 -5.29800 44.95400
C  1.47700 -4.28800 44.47800
C  -1.95500 -4.49700 45.88900
C  0.48700 -6.68100 44.24100
C  -0.15000 -7.67500 45.19000
N  3.66200 -2.39900 43.86000
C  3.91800 -3.65900 44.35100
C  5.34200 -3.85000 44.64700
C  5.90700 -2.79000 43.87400
C  4.86400 -1.93700 43.48900
C  5.97900 -5.02900 45.25900
C  7.21400 -2.28000 43.44600
O  8.36900 -2.67900 43.61200
C  6.81900 -0.89400 42.73700
C  7.39400 0.15500 43.57000
O  6.86900 0.36700 44.61800
O  8.40800 0.83200 43.02000
C  8.94600 2.01200 43.69800
H  1.02600 2.21100 40.70600
H  -2.38800 -2.35100 43.94600
H  3.01900 -5.49500 45.05400
H  5.55800 1.73700 41.87300
H  3.44000 2.10600 39.87700
H  2.87700 3.39400 42.30900
H  3.34800 4.13300 40.66300
H  4.50700 3.81500 41.95300
H  5.33500 1.33200 39.08300
H  5.86900 -0.23600 39.87500
H  7.87800 0.41200 39.97200
H  7.49700 1.97100 40.74800
H  -1.52300 2.30400 39.98700
H  -0.93700 3.29300 41.28900
H  -2.62700 2.81500 41.18200
H  -4.69900 -1.61600 43.07400
H  -5.18000 -0.16200 43.75400
H  -3.88200 -1.03200 44.51900
H  -1.52600 -5.00300 43.93200
H  0.59100 -5.34100 46.03400
H  -1.48300 -4.67500 46.85500
H  -2.70500 -5.28300 45.80800
H  -2.46900 -3.53600 45.92100
H  1.48400 -7.11700 44.17800
H  0.02200 -6.49100 43.27400
H  -1.05900 -8.02300 44.70000
H  -0.47400 -7.20800 46.12000
H  0.48600 -8.54300 45.36800
H  6.19300 -5.86200 44.59000
H  5.28000 -5.40100 46.00800
H  6.91000 -4.68700 45.71100
H  7.34200 -0.84800 41.78200
H  9.63900 1.73500 44.49200
H  8.18600 2.75600 43.93400
H  9.53200 2.51400 42.92800
Mg 35.82900 0.79000 29.40900
C  33.55200 2.03400 31.97100
C  38.20500 0.65600 31.88100
C  38.06300 -0.09100 27.05900
C  33.51400 1.70900 26.98900
N  35.80600 0.98500 31.75800
C  34.82600 1.61300 32.50500
C  35.28300 1.70100 33.96900
C  36.84200 1.60600 33.84400
C  36.96500 1.08500 32.39700
C  37.52700 2.97100 34.11200
C  34.57400 0.68500 34.84900
C  34.38600 1.01200 36.36800
H  35.16400 2.21600 36.98300
N  37.80600 0.22300 29.48400
C  38.53900 0.17000 30.60200
C  39.82100 -0.38000 30.29500
C  39.85600 -0.54500 28.84700
C  38.50600 -0.18000 28.40400
C  40.89200 -0.63900 31.36600
C  40.95200 -1.15800 27.94800
O  40.87800 -1.25800 26.68900
C  42.20100 -1.73300 28.67000
N  35.92500 1.07200 27.35300
C  36.84900 0.53500 26.59100
C  36.50400 0.60100 25.01400
C  34.97200 1.00000 25.06700
C  34.81500 1.33600 26.56400
C  37.44400 1.58000 24.14200
C  34.03200 -0.22300 24.72400
C  32.81800 0.14700 23.87300
N  34.00900 1.63100 29.41000
C  33.18700 2.03700 28.37600
C  31.91100 2.55800 28.84800
C  32.08700 2.62600 30.23500
C  33.35300 2.11400 30.55200
C  30.66800 2.89600 28.16300
C  31.37600 2.90200 31.43000
O  30.21300 3.29000 31.55300
C  32.36100 2.66600 32.67500
C  32.60100 4.07600 33.21800
O  33.45600 4.82900 32.82000
O  31.62400 4.44100 34.11900
C  31.72700 5.62700 34.80900
H  38.83900 0.51400 32.75900
H  38.73100 -0.50100 26.29900
H  32.75700 1.96200 26.24400
H  35.07300 2.74300 34.21200
H  37.26500 0.83900 34.49300
H  38.15600 3.30000 33.28500
H  38.19200 2.77000 34.95200
H  36.94800 3.81900 34.47800
H  35.16300 -0.20600 34.63100
H  33.60100 0.44300 34.42100
H  34.59300 0.06200 36.86000
H  33.35100 1.35200 36.37300
H  41.72000 -0.01700 31.02500
H  41.35300 -1.62600 31.40800
H  40.80300 -0.40400 32.42600
H  42.78000 -0.86800 28.99200
H  42.74800 -2.41100 28.01400
H  41.81900 -2.21900 29.56800
H  36.67000 -0.41500 24.65800
H  34.80000 1.87200 24.43600
H  37.14000 2.60500 23.92800
H  37.58900 1.18100 23.13900
H  38.44700 1.76100 24.52900
H  33.66800 -0.53500 25.70300
H  34.59800 -0.98700 24.19100
H  33.02100 0.99500 23.21900
H  32.03000 0.49700 24.54000
H  32.48300 -0.68500 23.25300
H  29.90600 2.12600 28.03700
H  30.77300 3.41500 27.21100
H  30.17000 3.66700 28.75100
H  31.87500 1.97600 33.36400
H  31.07700 5.54000 35.67900
H  31.30900 6.48200 34.27800
H  32.71800 5.98700 35.08400

