158

Mg 10.25200 47.31000 25.85700
C  8.25100 47.50700 28.57500
C  12.81300 48.75500 27.88900
C  12.23900 47.69500 23.16700
C  7.49000 46.98100 23.80000
N  10.51200 48.06300 28.08500
C  9.54500 47.94400 29.00500
C  10.05800 48.27500 30.41700
C  11.34800 49.16100 30.05100
C  11.64900 48.44100 28.66600
C  11.09000 50.70400 30.10200
C  10.45600 46.97500 31.19500
C  10.03200 47.04000 32.64700
H  10.48000 45.96200 33.67700
N  12.31300 47.85400 25.59300
C  13.22400 48.31500 26.56200
C  14.52300 48.60500 25.94400
C  14.40200 48.14100 24.57000
C  12.95800 47.87700 24.36900
C  15.79700 49.10100 26.70800
C  15.46900 47.89900 23.49700
O  15.19600 47.49700 22.38600
C  16.94000 48.28700 23.73100
N  9.93500 47.49600 23.80400
C  10.88800 47.57200 22.91300
C  10.41800 47.29800 21.44500
C  8.89300 47.14800 21.64300
C  8.75800 47.11900 23.18200
C  10.73700 48.40100 20.43400
C  8.23800 45.93000 20.84800
C  7.07500 46.33600 19.93000
N  8.31500 47.19800 26.12100
C  7.24600 47.07500 25.19900
C  6.08300 46.78300 25.95700
C  6.39600 47.02700 27.28600
C  7.78300 47.27000 27.29500
C  4.81400 46.42100 25.37400
C  5.86700 46.96700 28.57900
O  4.72100 46.84800 28.89600
C  6.98900 47.29400 29.51400
C  7.14700 46.17900 30.49300
O  7.82700 45.19200 30.30300
O  6.18600 46.38900 31.45000
C  6.12900 45.30900 32.46300
H  13.61100 49.35500 28.33200
H  12.90000 47.66200 22.29800
H  6.59400 46.87400 23.18500
H  9.35900 48.82400 31.04700
H  12.24900 49.05600 30.65500
H  10.08800 51.03600 30.37300
H  11.42300 51.10400 29.14400
H  11.74600 51.17400 30.83400
H  11.53500 46.84100 31.27100
H  10.10000 46.14700 30.58200
H  8.97100 46.79100 32.64300
H  10.16700 48.01100 33.12300
H  15.68100 49.31900 27.77000
H  16.07300 50.06500 26.28000
H  16.51100 48.27900 26.65800
H  17.23700 47.65900 24.57100
H  17.02000 49.36300 23.88600
H  17.56800 48.09900 22.86000
H  10.94100 46.43100 21.04100
H  8.36700 48.02700 21.26900
H  10.48300 49.38300 20.83500
H  10.12300 48.14200 19.57200
H  11.80800 48.31700 20.25000
H  7.89500 45.23700 21.61600
H  9.00700 45.50600 20.20300
H  6.23800 45.68000 20.17000
H  7.29000 46.19800 18.87000
H  6.85700 47.40500 19.93400
H  4.20200 47.32200 25.36500
H  4.23100 45.87400 26.11500
H  4.79600 46.03300 24.35600
H  6.72900 48.21700 30.03100
H  5.88800 44.39100 31.92800
H  5.27900 45.57100 33.09400
H  7.01400 45.20700 33.09100
Mg -11.88500 16.30900 40.76500
C  -8.72000 14.83400 40.34700
C  -10.52900 19.22100 39.31900
C  -15.04300 17.64600 40.45900
C  -13.25300 13.02400 40.89100
N  -9.78200 16.92000 39.93200
C  -8.66300 16.21000 40.05100
C  -7.55600 17.04900 39.44000
C  -8.11900 18.46600 39.29500
C  -9.55500 18.20800 39.54200
C  -7.44400 19.55200 40.14300
C  -7.06500 16.45800 38.11500
C  -5.48500 16.49500 37.86800
H  -5.01700 17.07600 36.56500
N  -12.65500 18.19500 40.10400
C  -11.90100 19.20500 39.60100
C  -12.76400 20.37000 39.27700
C  -14.10500 19.96500 39.67900
C  -13.99600 18.60300 40.20600
C  -12.21100 21.69100 38.83500
C  -15.34100 20.88000 39.56700
O  -15.23600 22.04300 39.21200
C  -16.70500 20.36800 39.93400
N  -13.84200 15.41700 40.53200
C  -14.96400 16.15200 40.55600
C  -16.21700 15.26100 40.50800
C  -15.65700 13.84300 40.82800
C  -14.14200 14.12500 40.80700
C  -17.37200 15.73800 41.39600
C  -16.17900 12.73700 39.81100
C  -17.01000 11.64900 40.45900
N  -11.20500 14.31500 40.76900
C  -11.87600 13.15100 40.86200
C  -10.89000 12.04000 40.87000
C  -9.67100 12.69200 40.72200
C  -9.90000 14.05000 40.62200
C  -11.13900 10.55600 41.04900
C  -8.22400 12.40600 40.58800
O  -7.62000 11.30800 40.62000
C  -7.58500 13.77300 40.26900
C  -6.60100 13.92900 41.36900
O  -6.78900 14.10600 42.57500
O  -5.39500 14.10200 40.79400
C  -4.26600 14.44100 41.63000
H  -10.05700 20.12800 38.93500
H  -16.05100 18.06600 40.48300
H  -13.72600 12.04200 40.95800
H  -6.69400 17.17600 40.09600
H  -8.01000 18.86700 38.28700
H  -6.39200 19.30200 40.27700
H  -8.00900 19.72700 41.05900
H  -7.48900 20.49000 39.58900
H  -7.47400 17.12200 37.35300
H  -7.41700 15.44800 37.90000
H  -5.15700 15.46500 38.01000
H  -5.00400 17.10000 38.63700
H  -11.45000 21.54400 38.06800
H  -11.66100 22.21800 39.61500
H  -12.86900 22.48900 38.49300
H  -17.37600 21.22300 39.85500
H  -16.69000 20.02300 40.96800
H  -17.04600 19.66100 39.17900
H  -16.54300 15.36200 39.47300
H  -15.87100 13.61400 41.87200
H  -17.06200 16.15000 42.35600
H  -17.91000 14.83200 41.67600
H  -18.09800 16.34600 40.85600
H  -15.37700 12.24000 39.26500
H  -16.84400 13.18300 39.07200
H  -16.64300 10.68900 40.09500
H  -18.06100 11.75700 40.19000
H  -16.86400 11.58600 41.53700
H  -11.35600 10.36400 42.09900
H  -10.29700 9.92900 40.75300
H  -12.08800 10.38400 40.54200
H  -7.12200 13.83800 39.28400
H  -4.59300 14.65400 42.64800
H  -3.93100 15.41900 41.28700
H  -3.51700 13.64800 41.63500

