158

Mg 17.65600 -0.88700 28.07000
C  16.13800 0.96500 30.51700
C  19.37200 -2.74000 30.39800
C  19.40700 -2.14600 25.49400
C  15.94300 1.16500 25.68200
N  17.85400 -0.75000 30.23100
C  17.01300 -0.03900 31.01300
C  17.34100 -0.42100 32.43400
C  18.48000 -1.46200 32.38600
C  18.63700 -1.71700 30.91900
C  19.86700 -0.96400 32.98800
C  16.15300 -0.82200 33.30600
C  15.94000 -0.20800 34.72700
H  17.19900 0.45800 35.37500
N  19.12700 -2.31000 27.91000
C  19.56800 -3.02300 28.97600
C  20.47700 -4.07700 28.46500
C  20.49500 -3.93500 27.01200
C  19.63400 -2.76900 26.69500
C  21.26700 -5.01300 29.38200
C  21.30300 -4.73700 26.01900
O  21.17000 -4.53100 24.80900
C  22.26500 -5.71700 26.48500
N  17.72000 -0.48900 25.84900
C  18.70200 -1.09300 25.05000
C  18.68700 -0.54300 23.60300
C  17.32700 0.23000 23.62300
C  16.99500 0.37400 25.12700
C  19.97500 0.04900 23.05400
C  16.22800 -0.44500 22.77700
C  15.88300 0.24900 21.44000
N  16.29200 0.68100 28.02900
C  15.73500 1.43200 27.01400
C  14.87400 2.45600 27.54900
C  15.02900 2.31400 28.89100
C  15.87400 1.22900 29.16700
C  14.06400 3.51100 26.79100
C  14.68600 2.93300 30.17300
O  14.05500 3.91800 30.48400
C  15.38200 1.94900 31.28600
C  16.29100 2.86400 32.12100
O  17.33200 3.23200 31.75700
O  15.65100 3.30500 33.22400
C  16.45400 4.22700 34.08500
H  19.78800 -3.28300 31.25000
H  19.86500 -2.72800 24.69100
H  15.65200 1.90200 24.93000
H  17.72200 0.49400 32.88800
H  18.20200 -2.33500 32.97600
H  20.64700 -0.88900 32.23000
H  20.16900 -1.55100 33.85500
H  19.70600 0.02500 33.41500
H  16.13500 -1.91100 33.28000
H  15.23900 -0.45100 32.84200
H  15.64000 -0.97000 35.44600
H  15.20800 0.59800 34.77200
H  20.64100 -5.87400 29.61800
H  21.40300 -4.50400 30.33600
H  22.18500 -5.29700 28.86700
H  21.93900 -6.58700 27.05400
H  23.21800 -5.25800 26.74700
H  22.59700 -6.19800 25.56400
H  18.46500 -1.41300 22.98600
H  17.44000 1.20700 23.15300
H  20.32200 -0.40800 22.12800
H  20.84200 -0.09900 23.69800
H  19.85400 1.12800 22.95600
H  15.29000 -0.35500 23.32500
H  16.41400 -1.51900 22.77600
H  14.87800 0.66500 21.51600
H  16.01500 -0.51100 20.67000
H  16.56100 1.03500 21.10700
H  13.82900 4.28500 27.52100
H  13.11300 3.13700 26.41000
H  14.56900 3.86100 25.89000
H  14.58400 1.42200 31.80900
H  16.24100 5.24800 33.76700
H  17.50700 3.95400 34.01500
H  16.08900 4.07200 35.10100
Mg 35.07900 48.29300 25.81500
C  35.10600 46.38800 28.88900
C  33.82400 50.97000 27.67100
C  34.61900 50.02900 22.94900
C  35.54000 45.37200 24.18400
N  34.57800 48.58300 28.01100
C  34.87000 47.79000 29.06500
C  34.82700 48.53900 30.42700
C  33.99400 49.78900 29.96700
C  34.17300 49.85000 28.46700
C  32.50200 49.82200 30.49700
C  36.24000 48.56100 31.18100
C  36.36300 48.09500 32.64500
H  36.34100 49.19400 33.68800
N  34.49400 50.25500 25.37000
C  34.09800 51.18900 26.24300
C  33.81100 52.45400 25.55400
C  34.14000 52.16700 24.20500
C  34.44300 50.71900 24.13500
C  33.34400 53.73700 26.25800
C  34.14900 53.12800 23.00900
O  34.70300 52.84900 21.93500
C  33.63000 54.49400 23.09500
N  35.17800 47.78300 23.80800
C  34.91900 48.67800 22.75900
C  34.89700 47.93300 21.41400
C  35.46700 46.50000 21.85500
C  35.32800 46.52200 23.37300
C  33.57400 47.93200 20.68900
C  36.86600 46.14700 21.40100
C  37.05700 44.89300 20.49900
N  35.25000 46.21800 26.33400
C  35.51400 45.13000 25.55400
C  35.74800 43.91100 26.40600
C  35.61500 44.44400 27.73600
C  35.22800 45.76300 27.63300
C  36.10700 42.53400 25.97800
C  35.66700 44.11200 29.09800
O  36.10100 43.07500 29.57800
C  35.51500 45.38500 29.92100
C  34.45800 45.03200 30.96200
O  33.39400 44.45000 30.72700
O  34.97500 45.22700 32.20500
C  34.18500 44.87400 33.40900
H  33.35600 51.80000 28.20500
H  34.31200 50.52500 22.02500
H  35.72800 44.43200 23.66100
H  34.16600 47.94100 31.05400
H  34.36400 50.73000 30.37400
H  32.45000 50.51900 31.33400
H  32.29100 48.83700 30.91400
H  31.76300 50.05200 29.72900
H  36.51200 49.61600 31.22100
H  36.98400 47.94700 30.67300
H  37.22400 47.42700 32.64000
H  35.52300 47.46400 32.93900
H  34.03000 54.48700 25.86300
H  33.44700 53.85200 27.33700
H  32.31300 53.94500 25.97400
H  32.70400 54.45400 23.66900
H  33.54700 54.73700 22.03500
H  34.47400 54.99700 23.56700
H  35.65800 48.46200 20.84000
H  34.69900 45.77600 21.58600
H  32.80100 48.33400 21.34500
H  33.16900 46.97700 20.35400
H  33.60000 48.52600 19.77600
H  37.47400 45.83500 22.25000
H  37.42800 46.96100 20.94400
H  37.78300 44.20600 20.93500
H  37.41600 45.23400 19.52900
H  36.04400 44.50100 20.41200
H  35.21600 41.91400 26.08400
H  36.94800 42.13200 26.54300
H  36.47100 42.61600 24.95400
H  36.54300 45.50800 30.26300
H  33.20900 45.35000 33.50300
H  34.68200 45.22800 34.31200
H  34.05000 43.79200 33.37400

