158

Mg 16.55800 51.53300 26.15700
C  18.35600 49.97300 28.81900
C  14.43400 52.88700 28.47200
C  14.73900 52.73100 23.57000
C  18.65700 49.86800 23.85200
N  16.33500 51.32100 28.38600
C  17.21800 50.75500 29.27400
C  16.88800 51.00600 30.77700
C  15.45200 51.69400 30.63500
C  15.34900 51.99400 29.09500
C  14.25900 50.88700 31.12600
C  17.92500 51.82000 31.60500
C  17.58000 52.06500 33.11800
H  16.44600 51.27000 33.77000
N  14.91100 52.76400 26.02800
C  14.13900 53.17600 27.09900
C  13.06200 54.10800 26.63900
C  13.27700 54.12700 25.22500
C  14.37900 53.17500 24.84600
C  11.93400 54.59900 27.55600
C  12.52300 54.96800 24.17600
O  12.80500 54.96500 23.00900
C  11.50900 56.00400 24.64900
N  16.61100 51.23900 24.03900
C  15.72700 51.77900 23.19500
C  15.81600 51.03600 21.82200
C  17.24500 50.50900 21.87300
C  17.53200 50.54900 23.34900
C  14.68000 49.99700 21.69800
C  18.31700 51.39000 21.20100
C  19.58800 50.59200 20.79000
N  18.20500 50.25200 26.28800
C  18.92800 49.62000 25.25900
C  20.09100 48.82400 25.82200
C  19.83400 48.96900 27.21800
C  18.79700 49.86700 27.47000
C  21.20400 48.02300 25.16800
C  20.30600 48.48800 28.53700
O  21.26800 47.77800 28.77500
C  19.44200 49.19500 29.63700
C  18.87900 48.24000 30.56900
O  17.97700 47.46600 30.29200
O  19.47100 48.24400 31.78500
C  18.88800 47.47100 32.85900
H  13.86800 53.44800 29.21900
H  14.01300 53.05200 22.82100
H  19.19400 49.21300 23.16300
H  16.81900 49.97900 31.13700
H  15.39600 52.64000 31.17300
H  13.74900 51.43100 31.92000
H  14.59000 49.93300 31.53600
H  13.49200 50.72600 30.36900
H  18.09100 52.78000 31.11600
H  18.89300 51.32800 31.50900
H  17.29300 53.11700 33.13300
H  18.49400 51.89900 33.68700
H  11.75100 55.66500 27.69700
H  11.99200 54.20300 28.57000
H  10.98900 54.27100 27.12400
H  11.01700 56.46500 23.79300
H  11.95800 56.87200 25.13000
H  10.80700 55.38100 25.20400
H  15.69400 51.90900 21.18000
H  17.26100 49.53500 21.38400
H  14.03300 50.34400 20.89200
H  14.11500 49.87500 22.62200
H  14.97500 48.97900 21.44200
H  18.62300 52.20900 21.85200
H  17.93200 51.95700 20.35400
H  19.73100 50.59100 19.70900
H  19.47200 49.52400 20.97400
H  20.49100 51.03700 21.20800
H  21.94600 48.78100 24.91700
H  20.82400 47.63000 24.22500
H  21.69400 47.25200 25.76300
H  20.17400 49.90600 30.01900
H  19.14300 46.41200 32.82400
H  17.82400 47.69500 32.93100
H  19.15400 47.93900 33.80700
Mg -6.21200 24.79000 25.53300
C  -4.96300 26.49300 28.28300
C  -8.25900 23.04900 27.43100
C  -7.30400 23.36400 22.75100
C  -3.92700 26.61100 23.58900
N  -6.45700 24.74400 27.67000
C  -5.91200 25.54200 28.65000
C  -6.29500 25.11000 30.05200
C  -7.12500 23.78600 29.73800
C  -7.36100 23.85900 28.18200
C  -6.39600 22.43700 30.18800
C  -7.00200 26.23500 30.81700
C  -6.43600 26.54400 32.21700
H  -5.86900 25.42200 33.08100
N  -7.65100 23.53900 25.15300
C  -8.48200 22.96400 26.10700
C  -9.58600 22.20200 25.39200
C  -9.15700 22.18900 24.05800
C  -7.94900 23.03500 23.94700
C  -10.68700 21.49500 26.09100
C  -9.93300 21.44900 22.88800
O  -9.60700 21.59100 21.69700
C  -10.97000 20.39600 23.19300
N  -5.74100 25.05100 23.44400
C  -6.28900 24.29800 22.42900
C  -5.69700 24.49300 21.09100
C  -4.69800 25.75700 21.37200
C  -4.72700 25.74800 22.88400
C  -4.98800 23.24700 20.51200
C  -5.17400 27.00600 20.60100
C  -4.39100 27.46300 19.38200
N  -4.79200 26.25200 25.82400
C  -3.96400 26.90900 24.93500
C  -3.13100 27.91400 25.65800
C  -3.52900 27.77200 26.96700
C  -4.54000 26.77600 26.99900
C  -2.30800 28.94000 25.00000
C  -3.28500 28.22200 28.28300
O  -2.55400 29.07700 28.73800
C  -4.06300 27.32000 29.16700
C  -3.18700 26.42500 29.90000
O  -2.77700 25.30800 29.58700
O  -2.92800 26.93300 31.15000
C  -1.82900 26.30300 31.99100
H  -9.03300 22.50600 27.97800
H  -7.58900 22.81600 21.85100
H  -3.10200 26.93900 22.95200
H  -5.39000 24.77000 30.55700
H  -8.04400 23.75200 30.32300
H  -5.34600 22.57300 30.44800
H  -6.40400 21.79100 29.30900
H  -6.95100 21.93200 30.97900
H  -8.06400 25.99300 30.87600
H  -6.98000 27.13000 30.19600
H  -7.33800 26.99300 32.63400
H  -5.71200 27.34900 32.33800
H  -11.59600 21.79400 25.57000
H  -10.68000 21.79300 27.14000
H  -10.57500 20.41500 25.99100
H  -10.71200 19.66600 23.96100
H  -11.00000 19.77700 22.29700
H  -11.99400 20.75900 23.28300
H  -6.55900 24.74900 20.47500
H  -3.69700 25.48400 21.03700
H  -4.81000 22.46400 21.24900
H  -4.02900 23.58200 20.11700
H  -5.63500 22.85700 19.72700
H  -5.22400 27.82400 21.32000
H  -6.18800 26.89900 20.21500
H  -4.93900 27.70700 18.47100
H  -3.77700 26.70300 18.90100
H  -3.65000 28.24100 19.56700
H  -1.64100 29.33700 25.76400
H  -2.93600 29.72800 24.58500
H  -1.66700 28.46600 24.25700
H  -4.65600 27.86100 29.90500
H  -0.85200 26.16300 31.52900
H  -2.26400 25.39200 32.40300
H  -1.55300 27.05000 32.73500

