158

Mg 26.24100 -1.19200 29.90900
C  28.09600 -0.81400 32.72600
C  23.49300 -0.67700 31.83100
C  24.30500 -1.63900 27.14300
C  29.19600 -1.73100 28.03500
N  25.80000 -0.80000 32.00700
C  26.70400 -0.51700 32.97900
C  26.05400 -0.28300 34.39800
C  24.54200 -0.69400 34.11800
C  24.55000 -0.78500 32.57700
C  23.94000 -1.91200 34.90700
C  26.34300 1.15000 35.00500
C  26.87800 0.97000 36.47800
H  26.12800 1.84500 37.54500
N  24.18500 -1.27600 29.60000
C  23.25100 -0.96800 30.51600
C  21.92900 -0.93600 29.86800
C  22.16500 -1.22800 28.51000
C  23.59100 -1.39500 28.38400
C  20.61900 -0.65500 30.66800
C  21.20900 -1.17200 27.30700
O  21.57200 -1.40800 26.14500
C  19.75900 -0.84500 27.58400
N  26.68800 -1.86800 27.91800
C  25.69900 -1.78800 26.95200
C  26.36300 -1.85600 25.52800
C  27.89100 -1.82800 25.83800
C  28.02700 -1.72900 27.35400
C  25.97400 -3.13600 24.64900
C  28.61000 -0.58300 25.14000
C  28.40600 0.87500 25.66600
N  28.22100 -1.36400 30.26000
C  29.34400 -1.60700 29.41600
C  30.52400 -1.49000 30.24200
C  30.07300 -1.21600 31.57200
C  28.64400 -1.16300 31.50500
C  31.79300 -1.72200 29.68100
C  30.53000 -0.94700 32.93200
O  31.65400 -0.96800 33.38800
C  29.20600 -0.70800 33.77300
C  29.18900 -1.60800 34.98800
O  28.56100 -2.62200 35.13200
O  29.86700 -0.96900 35.97100
C  29.67900 -1.42100 37.39000
H  22.61200 -0.58500 32.46900
H  23.77000 -1.69100 26.19200
H  30.10200 -1.94400 27.46500
H  26.65300 -1.08600 34.82900
H  23.91700 0.13800 34.44300
H  23.23400 -1.62200 35.68500
H  24.61200 -2.60400 35.41500
H  23.58800 -2.65700 34.19300
H  25.45900 1.78600 35.04900
H  27.04800 1.71200 34.39100
H  27.90800 1.31600 36.39400
H  26.87900 -0.01900 36.93500
H  20.17800 0.33400 30.54100
H  20.84300 -0.83400 31.71900
H  19.93500 -1.40800 30.27900
H  19.31900 -0.63600 26.60900
H  19.69300 0.12500 28.07700
H  19.29700 -1.69700 28.08300
H  25.93800 -1.04000 24.94300
H  28.27500 -2.75100 25.40400
H  25.81900 -3.96200 25.34300
H  26.75400 -3.39900 23.93400
H  25.10500 -2.85100 24.05600
H  28.20800 -0.57700 24.12700
H  29.64700 -0.92000 25.13600
H  29.33300 1.17800 26.15400
H  27.69500 0.92600 26.49100
H  28.21400 1.65400 24.92800
H  31.91800 -1.65900 28.60000
H  32.13300 -2.69400 30.03800
H  32.49100 -1.00200 30.10800
H  29.29200 0.35200 34.01300
H  30.36500 -2.25000 37.56400
H  28.67100 -1.80600 37.54300
H  29.99900 -0.76500 38.19900
Mg 35.92100 48.53600 25.00100
C  36.08100 46.78600 28.00500
C  34.76900 51.27900 26.72300
C  35.37300 50.00900 22.02500
C  37.09600 45.75900 23.34400
N  35.50600 48.97300 27.05300
C  35.57400 48.08100 28.12800
C  35.29000 48.71900 29.47400
C  34.68300 50.08200 28.96900
C  35.12700 50.17600 27.49700
C  33.17000 50.26100 29.23200
C  36.60800 48.94100 30.32700
C  36.42500 49.02100 31.88500
H  35.09300 49.27300 32.50900
N  35.21500 50.37500 24.47900
C  34.76100 51.37900 25.32600
C  34.30600 52.48900 24.55200
C  34.45200 52.09400 23.21400
C  35.07600 50.76500 23.20000
C  33.77000 53.78700 25.21700
C  34.12000 52.89100 22.00000
O  34.33100 52.60600 20.84300
C  33.45700 54.22500 22.19300
N  36.20000 48.01500 22.99800
C  35.95700 48.82100 21.93400
C  36.09200 48.04200 20.63000
C  36.88900 46.85900 21.11800
C  36.75400 46.93000 22.64400
C  34.74100 47.85800 19.70000
C  38.40700 46.88300 20.77800
C  39.13400 45.64100 20.41000
N  36.51000 46.58200 25.44400
C  36.98800 45.59300 24.74500
C  37.22100 44.42900 25.58800
C  36.85400 44.85300 26.83900
C  36.46100 46.13600 26.75600
C  37.49500 43.01900 25.13500
C  36.81600 44.46900 28.27000
O  37.09900 43.41000 28.79900
C  36.35700 45.73100 29.13900
C  35.10900 45.42600 29.84300
O  34.07900 44.99600 29.33300
O  35.15800 45.61300 31.21000
C  33.87100 45.25000 31.91700
H  34.10700 51.99100 27.22100
H  35.08700 50.38700 21.04100
H  37.36100 44.82700 22.83900
H  34.53500 48.17200 30.03900
H  35.20900 50.76900 29.63200
H  32.63600 49.38300 29.59500
H  32.71900 50.45900 28.26000
H  32.92800 51.12600 29.85000
H  37.14100 49.82300 29.97200
H  37.23700 48.08000 30.10400
H  37.22400 49.59700 32.35200
H  36.78300 48.04600 32.21400
H  32.70800 53.85200 24.97800
H  34.24900 54.66900 24.79100
H  33.79000 53.76300 26.30700
H  34.18600 54.96100 22.53200
H  32.54600 54.11700 22.78100
H  33.12500 54.56800 21.21300
H  36.78000 48.61900 20.01200
H  36.49400 45.98200 20.60500
H  33.99300 48.06500 20.46500
H  34.48400 46.87200 19.31200
H  34.65700 48.64600 18.95200
H  38.87900 47.32800 21.65300
H  38.50400 47.51700 19.89700
H  38.46900 44.82000 20.68000
H  40.04000 45.35900 20.94700
H  39.34000 45.53300 19.34500
H  37.23200 42.98800 24.07800
H  36.80600 42.27800 25.54300
H  38.55100 42.78700 25.27300
H  37.08600 45.99300 29.90600
H  33.49700 44.23200 31.80700
H  33.13600 46.02100 31.68300
H  34.07200 45.34000 32.98400

