158

Mg 54.36900 24.02300 44.74500
C  51.80500 26.13800 43.77100
C  52.49200 21.37000 43.88700
C  57.12200 22.18200 45.03000
C  56.28300 26.89800 45.46900
N  52.48900 23.83600 43.61800
C  51.58500 24.82600 43.29600
C  50.29000 24.18400 42.66600
C  50.37200 22.71800 43.26500
C  51.85800 22.59900 43.54800
C  49.50400 22.51200 44.62900
C  50.39900 24.14600 41.13500
C  51.76200 24.35700 40.41600
H  52.97700 23.39000 40.57800
N  54.76900 22.07700 44.30800
C  53.83500 21.05400 44.14500
C  54.49600 19.78000 44.18600
C  55.81800 19.98500 44.52900
C  55.96800 21.49100 44.63600
C  53.70500 18.49700 43.85500
C  56.83500 18.79500 44.74400
O  56.54000 17.62800 44.71200
C  58.20500 19.06200 45.11600
N  56.44100 24.49300 44.91900
C  57.34800 23.54200 45.27300
C  58.68100 24.04100 45.81300
C  58.38400 25.49400 46.06900
C  56.97800 25.68700 45.36600
C  59.37000 23.26500 46.97500
C  59.43800 26.51600 45.60000
C  60.04400 27.47000 46.68400
N  54.10100 26.14200 44.90200
C  54.93300 27.20000 45.16200
C  54.14500 28.42200 45.20100
C  52.91300 28.02000 44.65300
C  52.94200 26.67900 44.46200
C  54.59400 29.71100 45.85500
C  51.57200 28.50100 44.40100
O  51.05900 29.59200 44.52800
C  50.85500 27.34000 43.54300
C  50.80800 27.88700 42.21600
O  51.77100 27.94500 41.47000
O  49.47200 27.93700 41.84300
C  49.15400 27.94800 40.43100
H  51.92300 20.45300 43.72100
H  58.09200 21.68100 45.03800
H  56.62000 27.82900 45.93000
H  49.38900 24.75700 42.88300
H  50.18300 21.91300 42.55400
H  49.00200 21.55100 44.51500
H  48.79800 23.34100 44.67400
H  50.09600 22.38100 45.53500
H  49.67500 24.85800 40.73800
H  50.01800 23.22200 40.70000
H  52.17200 25.25100 40.88700
H  51.61900 24.68200 39.38500
H  53.53600 18.21400 42.81600
H  52.68200 18.35300 44.20300
H  54.16100 17.70900 44.45500
H  58.66900 18.08300 45.23200
H  58.24900 19.67300 46.01800
H  58.66400 19.53400 44.24700
H  59.41100 24.01000 45.00400
H  58.15700 25.56400 47.13300
H  59.39000 23.81900 47.91300
H  60.42100 23.11100 46.73000
H  58.97700 22.25900 47.12200
H  58.90100 27.06400 44.82600
H  60.24500 26.08000 45.01200
H  61.11700 27.55400 46.50800
H  59.89600 27.09900 47.69800
H  59.66600 28.49100 46.73900
H  55.54000 30.06100 45.44100
H  54.78400 29.52400 46.91200
H  53.80500 30.46200 45.82000
H  49.92900 27.21500 44.10300
H  48.58200 28.86300 40.27900
H  48.58500 27.03800 40.24000
H  49.99900 27.79700 39.75900
Mg 0.62900 43.10100 24.95000
C  2.60300 42.77900 27.91200
C  -1.97800 41.99300 26.61900
C  -0.89900 42.91400 21.98100
C  3.67300 43.85200 23.25700
N  0.35300 42.65100 27.04100
C  1.23500 42.72000 28.11500
C  0.47200 42.60300 29.43400
C  -0.94800 42.14700 28.96600
C  -0.89200 42.25300 27.45900
C  -1.35600 40.73500 29.55200
C  0.57500 43.90400 30.33200
C  0.95500 43.54700 31.82600
H  0.58000 42.18000 32.40100
N  -1.27200 42.44300 24.38200
C  -2.21800 42.06800 25.21500
C  -3.40400 41.80700 24.42800
C  -3.12200 42.22400 23.09200
C  -1.70700 42.55600 23.09800
C  -4.61000 41.12100 24.97900
C  -4.00500 42.31400 21.86200
O  -3.64800 42.76800 20.79400
C  -5.46800 41.84000 22.00100
N  1.30200 43.31500 22.97900
C  0.44500 43.23100 21.95100
C  1.05600 43.79100 20.60600
C  2.47300 44.16000 21.08800
C  2.48600 43.76600 22.52200
C  0.96000 42.70800 19.48900
C  2.88900 45.66500 20.82600
C  4.37200 45.94100 20.47200
N  2.77400 43.23900 25.48500
C  3.85400 43.49700 24.64600
C  5.08300 43.43200 25.43200
C  4.63400 43.06800 26.74800
C  3.22000 42.98700 26.68800
C  6.47300 43.76000 25.05000
C  5.07200 42.79600 28.08600
O  6.24500 42.75200 28.53200
C  3.72600 42.76400 28.89000
C  3.87200 41.50700 29.68500
O  3.60900 40.36400 29.28300
O  4.23800 41.85800 30.95400
C  4.41700 40.68500 31.83600
H  -2.87100 41.69300 27.17200
H  -1.28000 43.00000 20.96100
H  4.57400 43.94000 22.64600
H  1.01200 41.80000 29.93500
H  -1.60800 42.90600 29.38600
H  -2.03100 40.96300 30.37700
H  -0.42600 40.30500 29.92300
H  -1.86300 40.10400 28.82200
H  -0.31300 44.53100 30.25600
H  1.44900 44.43500 29.95400
H  0.61500 44.29900 32.53800
H  2.03900 43.45700 31.89400
H  -5.55600 41.66000 25.01100
H  -4.47900 40.93600 26.04600
H  -4.72400 40.14800 24.50200
H  -5.43200 40.75000 22.02500
H  -6.02200 42.18700 21.12900
H  -5.93400 42.24600 22.89900
H  0.63100 44.75400 20.32300
H  3.22500 43.51400 20.63500
H  1.90000 42.18500 19.31200
H  0.78800 43.22200 18.54300
H  0.22800 41.93100 19.70600
H  2.72400 46.10600 21.80900
H  2.24800 46.08800 20.05100
H  4.83300 46.46900 21.30700
H  4.50300 46.53200 19.56500
H  4.88200 44.98600 20.34100
H  6.52200 44.27700 24.09200
H  7.12300 42.88600 25.07300
H  6.80700 44.43000 25.84300
H  3.64200 43.59600 29.58900
H  3.65200 39.90900 31.83700
H  4.42400 41.07800 32.85300
H  5.32600 40.09700 31.71000

