158

Mg 47.71500 34.93200 27.74400
C  46.01000 33.02400 30.19600
C  47.81200 37.62100 29.91200
C  48.70900 36.84100 25.11700
C  46.99600 32.34900 25.32600
N  47.08400 35.20800 29.80000
C  46.55600 34.25500 30.64700
C  46.66100 34.84400 32.11500
C  46.80700 36.33200 31.91500
C  47.28200 36.41100 30.45100
C  45.48300 37.12300 32.11100
C  47.96400 34.15200 32.69200
C  47.88600 34.03300 34.26100
H  46.91800 34.93400 35.10300
N  48.33600 36.91000 27.58200
C  48.28200 37.78600 28.57300
C  48.84200 39.02900 28.12500
C  49.08700 38.87000 26.72900
C  48.79000 37.47300 26.40200
C  49.17200 40.13600 29.03300
C  49.83500 39.84000 25.73400
O  50.17700 39.53000 24.59200
C  50.36600 41.15500 26.28500
N  47.79600 34.59600 25.46600
C  48.29400 35.57800 24.65300
C  48.24900 35.13500 23.17900
C  47.82200 33.66200 23.26300
C  47.47200 33.54100 24.75500
C  47.33000 36.14200 22.39800
C  48.85000 32.62300 22.73300
C  50.13400 32.43000 23.59800
N  46.79900 33.06100 27.73000
C  46.54000 32.12500 26.69400
C  45.98900 30.89400 27.28500
C  45.74000 31.26700 28.62700
C  46.16500 32.59100 28.81300
C  45.80900 29.61900 26.56900
C  45.07800 30.79900 29.88800
O  44.56000 29.71700 30.11800
C  45.10200 32.07500 30.87400
C  45.56400 31.65600 32.18700
O  46.44700 30.89500 32.39700
O  44.73000 32.24500 33.12100
C  44.68500 31.77500 34.52900
H  47.88500 38.48400 30.57800
H  49.16600 37.35500 24.26900
H  46.82100 31.61500 24.53700
H  45.80300 34.76400 32.78200
H  47.55000 36.84200 32.52700
H  44.97400 37.26400 31.15700
H  45.63400 38.08800 32.59500
H  44.72400 36.60100 32.69300
H  48.75800 34.82800 32.37500
H  48.19500 33.22000 32.17500
H  48.89200 34.16300 34.66000
H  47.57400 33.01800 34.50700
H  50.22700 40.37400 28.90300
H  49.00800 40.00400 30.10200
H  48.50100 40.93300 28.71300
H  49.65300 41.76800 26.83700
H  50.57000 41.72900 25.38100
H  51.26800 40.89600 26.83900
H  49.23900 35.20400 22.72800
H  46.92800 33.68500 22.63900
H  46.75200 36.72900 23.11200
H  46.54600 35.70700 21.77800
H  47.93100 36.85700 21.83700
H  49.28000 32.87300 21.76300
H  48.23600 31.73200 22.59700
H  50.39800 31.39600 23.81700
H  49.90900 33.03000 24.48000
H  51.00700 32.94400 23.19400
H  46.16400 28.80900 27.20600
H  46.33400 29.46500 25.62600
H  44.77500 29.36900 26.33100
H  44.07200 32.34400 31.10600
H  44.92700 30.71200 34.53800
H  43.65000 31.90200 34.84500
H  45.40100 32.22600 35.21500
Mg 30.64600 57.55700 40.88000
C  28.17200 55.30900 40.03700
C  32.97400 55.17300 39.74400
C  33.12100 60.00400 40.87600
C  28.32000 60.00100 41.40000
N  30.55400 55.53600 39.77300
C  29.40000 54.78600 39.69500
C  29.73400 53.35200 39.34200
C  31.28400 53.29200 39.62200
C  31.63900 54.74800 39.70100
C  31.65100 52.60700 40.98500
C  29.26900 52.95600 37.90200
C  29.55400 54.01300 36.81400
H  28.37500 54.50100 36.01000
N  32.85800 57.52800 40.59300
C  33.51700 56.47200 39.96500
C  34.89300 56.85100 39.89900
C  34.97800 58.28100 40.20000
C  33.59300 58.64100 40.56400
C  35.92900 55.93700 39.37000
C  36.22200 59.09400 40.10200
O  37.22800 58.57200 39.70600
C  36.32400 60.53900 40.47300
N  30.69500 59.76500 40.97600
C  31.84600 60.50100 41.10600
C  31.51900 61.92300 41.32300
C  30.05900 61.83000 41.88300
C  29.64000 60.40800 41.40900
C  32.50200 62.77200 42.10100
C  29.07400 63.00800 41.47800
C  28.29800 63.82300 42.65100
N  28.64800 57.76700 40.62100
C  27.78500 58.82100 40.94000
C  26.43000 58.35100 40.77200
C  26.51900 56.97300 40.43600
C  27.88600 56.66100 40.35200
C  25.23600 59.18900 41.05100
C  25.79100 55.79700 40.26600
O  24.57500 55.55900 40.43000
C  26.81400 54.64400 39.99600
C  26.59900 53.63900 41.07300
O  27.02700 53.72700 42.21200
O  25.74300 52.65200 40.65700
C  25.13300 51.99200 41.85900
H  33.67000 54.33500 39.66400
H  33.87500 60.78900 40.79700
H  27.55900 60.64300 41.84900
H  29.34600 52.69600 40.12200
H  31.81700 52.73500 38.85100
H  30.82100 52.26500 41.60400
H  32.24200 53.31500 41.56500
H  32.27900 51.72400 40.86600
H  28.18400 52.86000 37.87500
H  29.75300 52.01200 37.65100
H  30.24400 53.55600 36.10500
H  30.08800 54.88500 37.19100
H  36.18200 56.16400 38.33400
H  35.69900 54.88400 39.52600
H  36.80300 56.17900 39.97500
H  35.95500 60.65400 41.49200
H  35.81200 61.26800 39.84500
H  37.37700 60.79300 40.34800
H  31.41300 62.41500 40.35600
H  30.10500 61.73300 42.96800
H  33.40900 62.18100 42.23000
H  32.11800 63.01200 43.09200
H  32.63500 63.71100 41.56300
H  28.39000 62.56200 40.75700
H  29.47600 63.84400 40.90500
H  28.86800 64.70700 42.93600
H  28.23300 63.21200 43.55100
H  27.28700 64.08600 42.34100
H  24.33500 58.57500 41.01700
H  24.98200 59.93300 40.29600
H  25.38300 59.78000 41.95500
H  26.62200 54.20200 39.01800
H  25.83400 51.31600 42.34900
H  24.27400 51.50100 41.40200
H  24.92300 52.73400 42.63000

