158

Mg 1.98900 -1.30700 43.58600
C  5.43700 -1.40300 42.88200
C  1.78700 1.55100 41.76700
C  -1.30300 -1.85300 43.25700
C  2.31900 -4.71900 44.60600
N  3.41000 -0.11800 42.36500
C  4.77000 -0.28500 42.29700
C  5.42000 0.73600 41.26700
C  4.30500 1.84800 41.29700
C  3.10100 1.13000 41.91900
C  4.70200 3.13100 42.09600
C  5.75500 0.12700 39.81600
C  7.03800 0.67500 39.11800
H  6.93500 1.22000 37.71200
N  0.40500 -0.15400 42.82300
C  0.55900 1.01100 42.16000
C  -0.75000 1.64400 41.96900
C  -1.68700 0.54500 42.07500
C  -0.89300 -0.56100 42.66800
C  -0.95700 3.01100 41.37800
C  -3.13600 0.58600 41.70000
O  -3.61900 1.58400 41.18700
C  -3.96700 -0.68200 41.85300
N  0.68800 -3.14200 43.75600
C  -0.65700 -2.88600 43.83700
C  -1.33500 -4.09600 44.43600
C  -0.20000 -5.00900 44.98300
C  1.00500 -4.27200 44.46600
C  -2.45700 -3.82600 45.47500
C  -0.23400 -6.52700 44.41100
C  0.24000 -7.70700 45.31800
N  3.52100 -2.71300 43.93000
C  3.49200 -4.07700 44.19000
C  4.85900 -4.46000 44.52400
C  5.66200 -3.47300 43.96100
C  4.79800 -2.41800 43.64600
C  5.24900 -5.78400 45.11200
C  7.04900 -3.15700 43.55800
O  8.11700 -3.73000 43.74600
C  6.88400 -1.85100 42.70900
C  7.87200 -0.75100 43.27200
O  8.93000 -0.46800 42.78500
O  7.41400 -0.30000 44.40900
C  8.08200 0.80300 45.08800
H  1.77100 2.57600 41.39000
H  -2.37200 -1.98600 43.43000
H  2.34900 -5.70400 45.07700
H  6.41300 0.95600 41.66000
H  4.09800 2.11700 40.26100
H  4.03600 3.35700 42.92900
H  4.57500 3.97900 41.42200
H  5.71700 3.20700 42.48300
H  5.00200 0.42200 39.08500
H  6.03800 -0.92400 39.88000
H  7.80800 -0.09700 39.13800
H  7.51600 1.45500 39.71100
H  -0.17100 3.68500 41.71900
H  -1.87200 3.56000 41.60300
H  -0.80700 2.93100 40.30200
H  -4.94700 -0.36900 41.49300
H  -4.11100 -0.85600 42.91900
H  -3.50800 -1.55600 41.39000
H  -1.75200 -4.65300 43.59700
H  -0.18100 -5.09300 46.06900
H  -2.30800 -2.84700 45.92900
H  -2.48900 -4.56900 46.27200
H  -3.33900 -3.89300 44.83800
H  0.30700 -6.53900 43.46500
H  -1.29100 -6.69700 44.20600
H  -0.58900 -8.38500 45.11600
H  0.11600 -7.47400 46.37600
H  1.20300 -8.04200 44.93400
H  5.13600 -6.51300 44.31000
H  4.74200 -6.07100 46.03300
H  6.30300 -5.90300 45.36500
H  7.29700 -2.03700 41.71700
H  7.85300 1.78000 44.66300
H  9.11800 0.51800 45.27100
H  7.69200 0.90800 46.10100
Mg 17.93800 -1.25700 27.52000
C  17.13800 0.52100 30.46100
C  19.68600 -3.53000 29.57500
C  19.13300 -2.67900 24.74800
C  16.31700 1.14100 25.64700
N  18.42700 -1.33200 29.86000
C  17.95300 -0.55100 30.81300
C  18.35000 -1.10600 32.20200
C  19.09400 -2.46200 31.87100
C  18.99100 -2.50400 30.34300
C  20.54000 -2.56100 32.43000
C  17.19000 -1.49800 33.16000
C  17.41900 -1.14000 34.63800
H  18.70500 -0.44600 35.05600
N  19.24000 -2.84600 27.21700
C  19.85300 -3.65800 28.19100
C  20.72900 -4.61800 27.49200
C  20.63000 -4.32200 26.09400
C  19.57900 -3.29200 25.95000
C  21.60200 -5.55500 28.30400
C  21.46700 -4.91300 24.90700
O  21.33500 -4.52400 23.76400
C  22.49700 -5.88300 25.15400
N  17.74500 -0.88100 25.49200
C  18.32200 -1.55900 24.51300
C  18.09100 -0.97400 23.11700
C  16.91900 0.01400 23.39800
C  16.98500 0.09800 24.93100
C  19.38400 -0.30200 22.60200
C  15.49600 -0.35700 22.77200
C  14.78100 0.83500 22.07700
N  16.93600 0.48200 27.88700
C  16.25800 1.29800 27.00700
C  15.48700 2.30000 27.76100
C  15.76800 1.98600 29.08500
C  16.72500 0.93600 29.10400
C  14.49900 3.37400 27.26900
C  15.53500 2.42000 30.48400
O  14.81500 3.36700 30.83800
C  16.36100 1.49400 31.39200
C  17.25000 2.32500 32.21100
O  18.28200 2.74500 31.78100
O  16.61900 2.59500 33.40600
C  17.28600 3.49700 34.32900
H  20.42600 -4.03600 30.19800
H  19.47200 -3.12100 23.80900
H  15.75900 1.94200 25.15900
H  19.02900 -0.35800 32.61100
H  18.60100 -3.37500 32.20400
H  20.78800 -1.64700 32.97100
H  21.30100 -2.56600 31.65000
H  20.77100 -3.39800 33.09000
H  16.88100 -2.53300 33.01700
H  16.32100 -0.90400 32.87900
H  17.17400 -2.00700 35.25200
H  16.63400 -0.42600 34.88900
H  22.24200 -5.07400 29.04300
H  22.35900 -6.19700 27.85300
H  20.99600 -6.32400 28.78400
H  23.44300 -5.70100 25.66300
H  22.62000 -6.45800 24.23600
H  22.08100 -6.74700 25.67200
H  17.79800 -1.67000 22.33100
H  17.24400 1.02600 23.16000
H  19.71800 -0.76400 21.67200
H  20.21200 -0.43100 23.29900
H  19.34500 0.77600 22.44600
H  14.82900 -0.70500 23.56200
H  15.65200 -1.19700 22.09600
H  14.56700 0.37800 21.11100
H  15.40000 1.72300 21.95600
H  13.84900 1.11000 22.57100
H  13.71800 3.00600 26.60400
H  15.10400 4.09600 26.72000
H  14.08700 3.81200 28.17800
H  15.67700 0.96600 32.05700
H  16.70100 4.41500 34.26600
H  18.32100 3.66000 34.02900
H  17.34800 3.07200 35.33100

