158

Mg -1.50400 17.72300 26.93300
C  -1.88400 15.28300 29.47000
C  -2.09800 20.13000 29.31900
C  -1.53300 19.90200 24.45700
C  -1.62000 15.04900 24.57300
N  -1.97900 17.69400 29.07700
C  -1.94300 16.61500 29.93600
C  -2.24400 17.06900 31.40600
C  -2.52700 18.58900 31.24700
C  -2.19200 18.82100 29.77700
C  -3.98200 18.97100 31.71200
C  -1.18900 16.65100 32.43300
C  -1.23300 17.31100 33.84800
H  -0.68300 16.60700 35.06700
N  -1.62100 19.74700 26.87400
C  -1.81500 20.60100 27.98200
C  -1.73600 22.00400 27.46900
C  -1.43200 21.92900 26.07000
C  -1.53700 20.50000 25.74300
C  -1.98800 23.15600 28.38700
C  -1.11900 22.99400 25.16200
O  -0.74400 22.73900 24.03300
C  -1.28100 24.44500 25.54500
N  -1.60800 17.41500 24.84200
C  -1.61300 18.55800 24.01500
C  -1.52500 18.21500 22.55500
C  -1.37400 16.61800 22.58200
C  -1.54800 16.32700 24.04900
C  -2.80800 18.67600 21.75400
C  -0.04300 16.17600 21.93300
C  1.15000 15.57700 22.82500
N  -1.67000 15.57900 26.91500
C  -1.67100 14.63900 25.88200
C  -1.80500 13.26500 26.48700
C  -1.90800 13.51000 27.87100
C  -1.79700 14.88300 28.09400
C  -1.77100 11.96000 25.66700
C  -2.02600 12.83300 29.12100
O  -2.03400 11.59800 29.29900
C  -2.04300 13.89700 30.28100
C  -1.02000 13.46500 31.16000
O  0.16900 13.72300 31.10100
O  -1.56700 12.63100 32.06900
C  -0.56000 11.97800 32.98900
H  -2.22400 20.90900 30.07400
H  -1.58100 20.61100 23.62800
H  -1.57900 14.41900 23.68200
H  -3.16500 16.56000 31.69400
H  -1.78800 19.19900 31.76600
H  -4.37300 19.69500 30.99800
H  -3.92700 19.55300 32.63200
H  -4.67500 18.14900 31.89100
H  -0.21900 16.76400 31.94900
H  -1.40800 15.60800 32.66300
H  -2.24300 17.71000 33.94400
H  -0.56600 18.16800 33.75500
H  -1.06500 23.66200 28.66800
H  -2.46500 22.81800 29.30800
H  -2.65700 23.80400 27.82100
H  -2.27600 24.72700 25.89100
H  -0.90000 25.15600 24.81200
H  -0.60000 24.58500 26.38400
H  -0.64700 18.66500 22.09300
H  -2.21500 16.17400 22.04900
H  -3.62600 18.92500 22.42900
H  -3.14300 18.01200 20.95700
H  -2.45500 19.56300 21.22800
H  0.33700 16.93300 21.24700
H  -0.32900 15.37200 21.25500
H  0.78600 15.26000 23.80200
H  1.82600 16.39500 23.07700
H  1.73500 14.84700 22.26600
H  -1.92100 11.02800 26.21100
H  -0.90600 11.87200 25.00900
H  -2.67600 12.02000 25.06200
H  -3.04500 13.85300 30.70600
H  -0.20100 11.21500 32.29800
H  -1.05100 11.60900 33.89000
H  0.27600 12.61100 33.28500
Mg 44.98600 4.55300 48.28100
C  42.85600 7.21100 47.45900
C  42.49400 2.40300 47.86000
C  47.29000 2.14800 48.45500
C  47.70100 6.95900 48.24800
N  42.89600 4.80100 47.73900
C  42.20800 5.89000 47.42400
C  40.69300 5.58000 47.14500
C  40.51900 4.06000 47.38700
C  42.05800 3.72300 47.71400
C  39.54000 3.75600 48.49500
C  40.21000 6.08600 45.75700
C  38.99300 6.93700 45.68500
H  38.23300 6.80700 44.33400
N  44.93700 2.46600 48.34500
C  43.75600 1.85800 48.16400
C  44.01500 0.41200 48.12100
C  45.39400 0.24700 48.31000
C  45.96300 1.65100 48.38100
C  42.79800 -0.64100 48.03600
C  46.07500 -1.13800 48.41200
O  45.48100 -2.15700 48.33300
C  47.63900 -1.28300 48.60200
N  47.18700 4.52500 48.19500
C  47.83600 3.38500 48.48900
C  49.36900 3.59800 48.82300
C  49.59900 5.17200 48.55800
C  48.09100 5.61400 48.31600
C  49.82200 3.04600 50.18200
C  50.53300 5.52700 47.40300
C  51.96200 5.13300 47.57200
N  45.21700 6.59700 47.98900
C  46.35200 7.39500 48.05900
C  45.96800 8.79100 47.99800
C  44.60500 8.76400 47.74500
C  44.19400 7.41100 47.76100
C  46.83800 9.98900 47.93900
C  43.50900 9.58700 47.39100
O  43.37000 10.79300 47.45700
C  42.28500 8.63600 47.21400
C  41.19900 8.99400 48.14800
O  41.11800 8.58100 49.26800
O  40.21100 9.84300 47.56600
C  39.11000 10.20100 48.42100
H  41.68800 1.66700 47.84300
H  47.98200 1.37000 48.78200
H  48.52300 7.67900 48.24800
H  40.20900 6.17100 47.92200
H  40.26800 3.51100 46.47900
H  40.00800 3.31400 49.37400
H  38.76300 3.06800 48.16400
H  38.93300 4.55900 48.91200
H  40.09400 5.25700 45.05900
H  41.09300 6.65000 45.45600
H  39.16700 7.99400 45.88400
H  38.39400 6.62600 46.54100
H  43.08800 -1.52700 47.47200
H  41.92500 -0.33700 47.45700
H  42.49200 -0.84600 49.06200
H  48.00500 -2.31000 48.61500
H  47.85500 -0.84900 49.57800
H  48.21000 -0.78800 47.81700
H  49.94100 3.20200 47.98300
H  49.96400 5.67400 49.45400
H  49.00200 2.77000 50.84500
H  50.50800 3.74100 50.66600
H  50.32100 2.10500 49.95000
H  50.53100 6.61700 47.40700
H  50.14000 5.02000 46.52200
H  52.15200 4.66900 48.54000
H  52.51400 6.06000 47.41500
H  52.26400 4.48800 46.74600
H  47.59400 9.65400 47.22900
H  47.30800 10.20000 48.89900
H  46.25000 10.86900 47.67700
H  41.94700 8.63000 46.17800
H  39.22500 9.89900 49.46200
H  38.27600 9.65300 47.98200
H  38.81700 11.25100 48.39200

