158

Mg 26.01800 0.95600 28.55400
C  27.80100 0.35700 31.52000
C  23.16500 1.26700 30.40800
C  24.28900 0.81400 25.78300
C  28.91400 0.20500 26.67800
N  25.57900 0.77500 30.83400
C  26.45000 0.68300 31.83900
C  25.83200 0.88400 33.22600
C  24.34000 1.24300 32.81000
C  24.30700 1.07200 31.23100
C  23.27100 0.35500 33.46300
C  26.52700 1.97400 34.10000
C  27.09100 1.50300 35.51300
H  26.76900 2.38400 36.73100
N  24.01500 0.96200 28.14500
C  23.00500 1.21600 29.01200
C  21.72400 1.31500 28.31400
C  22.03000 1.15300 26.92100
C  23.50800 0.98600 26.91500
C  20.39300 1.45100 28.96500
C  21.16700 1.06700 25.68000
O  21.59100 0.93800 24.54300
C  19.62800 0.99400 25.98400
N  26.54100 0.59000 26.50200
C  25.62200 0.61800 25.55500
C  26.16500 0.57000 24.14500
C  27.73500 0.70500 24.41500
C  27.77500 0.41900 25.96300
C  25.62500 -0.58400 23.27900
C  28.25100 2.16200 24.03000
C  28.15000 3.42100 24.91000
N  27.98500 0.55200 28.94200
C  29.03300 0.22200 28.07100
C  30.16800 -0.07900 28.90600
C  29.81100 0.00600 30.20100
C  28.42300 0.35500 30.21400
C  31.61100 -0.51100 28.35800
C  30.23500 -0.15200 31.59000
O  31.28200 -0.53000 32.08300
C  28.94300 0.16800 32.42500
C  28.69700 -0.95700 33.30500
O  27.90900 -1.88900 33.05100
O  29.32700 -0.74400 34.43700
C  29.02000 -1.66300 35.52000
H  22.25900 1.53900 30.95300
H  23.81900 0.84200 24.79800
H  29.82700 -0.01500 26.12200
H  25.79800 -0.09900 33.69500
H  24.19700 2.31600 32.93900
H  23.53100 -0.70100 33.38800
H  22.31900 0.52300 32.96000
H  23.11000 0.62400 34.50700
H  25.78100 2.73000 34.34500
H  27.30100 2.47100 33.51500
H  28.17300 1.63300 35.46700
H  26.75300 0.48800 35.72400
H  20.47000 1.65200 30.03400
H  19.84300 0.52800 28.78000
H  19.73000 2.21700 28.56200
H  19.37300 0.33200 26.81100
H  19.23700 0.37800 25.17400
H  19.27200 2.00600 26.17500
H  25.80100 1.51200 23.73600
H  28.27400 -0.05300 23.84700
H  24.92100 -1.17200 23.87000
H  26.48700 -1.14000 22.91000
H  25.25900 -0.00700 22.43000
H  27.95900 2.53300 23.04700
H  29.32700 2.09600 23.87200
H  28.06900 3.21300 25.97700
H  27.28700 4.02200 24.62400
H  29.02100 4.07600 24.90900
H  32.07700 0.30400 27.80400
H  31.54700 -1.30600 27.61500
H  32.23800 -0.85300 29.18100
H  29.28700 1.04300 32.97800
H  27.94200 -1.60700 35.66800
H  29.60100 -1.41900 36.41000
H  29.09600 -2.72300 35.27400
Mg 8.07400 53.12100 40.76100
C  7.14500 49.71000 40.65700
C  11.34800 52.23800 39.92800
C  8.84000 56.45600 40.00000
C  4.70500 53.96000 40.63500
N  9.04800 51.18000 40.14600
C  8.54800 49.94500 40.34300
C  9.60600 48.84300 40.07800
C  10.85400 49.70500 40.33500
C  10.45900 51.19500 40.10800
C  11.64500 49.48900 41.65100
C  9.51300 48.31400 38.64500
C  9.27700 49.17000 37.36600
H  7.87800 49.38600 36.78700
N  9.86800 54.15100 40.29100
C  11.13000 53.58700 40.12000
C  12.04800 54.61700 39.95500
C  11.38500 55.85600 39.97400
C  9.89800 55.53000 40.11500
C  13.57000 54.34900 39.78500
C  12.00200 57.27100 39.83800
O  13.21400 57.34200 39.88300
C  11.22200 58.56400 39.66100
N  6.99000 54.94200 40.22000
C  7.46900 56.20600 40.17000
C  6.35800 57.25700 40.25200
C  5.05100 56.39400 40.43500
C  5.61100 54.96300 40.39200
C  6.47300 58.40700 41.29900
C  3.93500 56.60100 39.43500
C  3.58000 58.01800 39.11600
N  6.24700 52.13200 40.76500
C  4.92700 52.59500 40.80400
C  4.04900 51.52800 41.14600
C  4.87600 50.35100 41.16800
C  6.21500 50.77100 40.82900
C  2.56600 51.55700 41.38500
C  4.90800 48.93200 41.28600
O  3.96300 48.18700 41.60800
C  6.29900 48.42300 40.89200
C  6.20200 47.58600 39.71300
O  6.05900 47.89500 38.50900
O  6.17500 46.26300 40.10600
C  5.99800 45.19000 39.09300
H  12.40000 51.95500 39.85000
H  9.03300 57.53100 39.97000
H  3.66300 54.28200 40.66700
H  9.56300 47.97400 40.73400
H  11.58600 49.54500 39.54200
H  12.70900 49.69500 41.53700
H  11.58800 48.43800 41.93400
H  11.26900 50.09800 42.47300
H  8.59600 47.73800 38.77600
H  10.37100 47.69400 38.38800
H  9.82300 48.65100 36.57900
H  9.87400 50.07800 37.44800
H  13.96500 54.80800 38.87800
H  13.91200 53.32100 39.67000
H  14.19400 54.83900 40.53200
H  10.60800 58.34900 38.78600
H  11.95500 59.36900 39.62800
H  10.62000 58.79000 40.54100
H  6.41300 57.83000 39.32700
H  4.47300 56.42500 41.35900
H  6.18500 59.31500 40.76800
H  7.47400 58.38000 41.73000
H  5.69200 58.26300 42.04500
H  2.97100 56.21900 39.76900
H  4.17100 56.05200 38.52300
H  3.74200 58.74900 39.90900
H  2.53600 58.08800 38.81100
H  4.30100 58.27100 38.33800
H  2.19300 52.54400 41.11300
H  2.46200 51.44600 42.46500
H  2.09500 50.71700 40.87500
H  6.79800 47.87700 41.69300
H  6.96100 44.68300 39.04500
H  5.72500 45.48600 38.08000
H  5.23600 44.44200 39.31400

