158

Mg 41.97100 41.15000 26.63300
C  41.04000 43.46000 28.91300
C  42.92600 39.09100 29.07700
C  42.86700 38.81000 24.26400
C  41.74400 43.50700 24.10000
N  41.90400 41.23000 28.73800
C  41.48400 42.27400 29.47300
C  41.59700 42.02600 30.91900
C  42.39100 40.66500 30.97200
C  42.50400 40.32500 29.48100
C  43.71100 40.51000 31.69900
C  40.21100 42.13600 31.65800
C  40.24800 41.48700 33.09000
H  39.70900 42.36700 34.29300
N  42.56700 39.16600 26.65500
C  42.91900 38.51600 27.79700
C  43.39700 37.10300 27.50200
C  43.27900 36.99700 26.05900
C  42.87200 38.35800 25.61700
C  43.64500 36.03300 28.59500
C  43.49100 35.67500 25.23700
O  43.61100 35.71300 24.00100
C  43.52400 34.29700 25.83000
N  42.46800 41.17600 24.42300
C  42.66000 40.05000 23.68300
C  42.49200 40.34200 22.11100
C  42.02600 41.83800 22.14900
C  42.10100 42.22900 23.62200
C  43.76700 39.98700 21.32100
C  40.58000 41.95500 21.60200
C  39.55000 41.25900 22.46000
N  41.45200 43.12400 26.48600
C  41.39200 43.95500 25.38200
C  40.76400 45.19600 25.87400
C  40.66900 45.08500 27.25200
C  41.11000 43.75900 27.58100
C  40.53900 46.45100 25.11900
C  40.42800 45.78600 28.43900
O  40.07000 47.01800 28.46600
C  40.54500 44.81200 29.59800
C  41.59200 45.29600 30.62500
O  42.69200 45.76200 30.43800
O  40.93200 45.41700 31.87900
C  41.74400 45.85100 33.03600
H  43.42300 38.56300 29.89400
H  43.02200 38.07500 23.47100
H  41.47300 44.14800 23.25900
H  42.23600 42.83600 31.26900
H  41.79700 39.87800 31.43800
H  43.96700 39.47700 31.93500
H  43.55800 41.00100 32.66000
H  44.49000 40.98800 31.10500
H  39.42900 41.73400 31.01500
H  39.93600 43.17100 31.86500
H  41.28200 41.23700 33.32500
H  39.71700 40.53500 33.13300
H  43.62200 36.48100 29.58900
H  44.69300 35.74500 28.51100
H  43.13900 35.08300 28.42200
H  44.39500 34.15200 26.46900
H  43.62300 33.51800 25.07300
H  42.50300 34.27200 26.21200
H  41.65200 39.79000 21.68900
H  42.77600 42.52600 21.75900
H  44.47600 39.62300 22.06500
H  44.08600 40.90800 20.83300
H  43.57000 39.29100 20.50600
H  40.52700 41.44100 20.64200
H  40.33900 43.00100 21.41300
H  39.32200 41.93400 23.28600
H  39.86300 40.29800 22.86800
H  38.65800 40.97400 21.90300
H  41.41700 47.08400 24.99200
H  39.88700 46.96600 25.82500
H  40.08000 46.23800 24.15400
H  39.63100 44.72700 30.18600
H  42.79500 45.60400 32.88600
H  41.31400 45.39000 33.92500
H  41.70200 46.93800 33.10900
Mg 8.63300 47.59200 27.52100
C  7.06900 47.44900 30.60300
C  11.62000 48.12100 29.01500
C  10.08700 48.37000 24.44900
C  5.56200 47.83200 26.05600
N  9.21700 47.97400 29.61600
C  8.46900 47.67200 30.70700
C  9.30900 47.64900 32.02300
C  10.66600 48.10500 31.41200
C  10.54300 48.02600 29.90300
C  11.08700 49.52400 31.85300
C  9.43200 46.19700 32.70200
C  8.99500 45.96000 34.13100
H  10.01900 45.31500 35.07100
N  10.56900 48.01100 26.80800
C  11.68400 48.16800 27.61100
C  12.88900 48.42600 26.75700
C  12.45300 48.53200 25.45900
C  11.00200 48.25500 25.48800
C  14.24200 48.69400 27.35200
C  13.25000 48.96900 24.16500
O  12.76500 48.78900 23.04100
C  14.67000 49.45500 24.29000
N  7.94400 47.94600 25.50300
C  8.69300 48.26100 24.40600
C  7.85800 48.65600 23.15700
C  6.47600 48.29800 23.74900
C  6.63400 47.85100 25.17300
C  7.88100 50.18100 22.72000
C  5.82900 47.12500 22.90300
C  5.65000 47.45500 21.44300
N  6.64500 47.39400 28.10400
C  5.49000 47.56200 27.44000
C  4.25100 47.47000 28.24300
C  4.85500 47.41400 29.55700
C  6.27500 47.36500 29.42100
C  2.83700 47.45400 27.88800
C  4.59600 47.29200 30.98400
O  3.53900 47.18900 31.60600
C  6.02900 47.30100 31.77200
C  6.09700 46.06300 32.45900
O  6.40000 45.00900 31.95700
O  5.56700 46.09600 33.73400
C  5.15900 44.82000 34.31500
H  12.59500 48.10700 29.50700
H  10.48200 48.73500 23.49900
H  4.57100 47.95700 25.61500
H  8.89800 48.38900 32.71000
H  11.56900 47.57300 31.71200
H  10.79000 50.25300 31.09900
H  12.15600 49.60100 32.05100
H  10.59500 49.63100 32.82000
H  10.47300 45.88200 32.63600
H  8.90300 45.47200 32.08300
H  8.16500 45.25400 34.15600
H  8.77200 46.87700 34.67600
H  14.96400 47.97000 26.97600
H  14.37100 48.51000 28.41900
H  14.58600 49.70100 27.11600
H  14.61200 50.47600 24.66700
H  15.06200 49.54400 23.27700
H  15.35000 48.91000 24.94400
H  8.26400 47.96500 22.41800
H  5.83500 49.16600 23.59300
H  7.77300 50.41700 21.66100
H  8.88100 50.44500 23.06600
H  7.16600 50.83500 23.21700
H  4.85500 46.96100 23.36300
H  6.43000 46.22000 22.99500
H  5.94600 46.62200 20.80600
H  6.14700 48.39900 21.21700
H  4.58400 47.64500 21.32300
H  2.24400 47.27800 28.78600
H  2.60600 46.84500 27.01400
H  2.51700 48.48500 27.73900
H  6.09700 48.11900 32.49000
H  6.01400 44.15200 34.20600
H  4.32000 44.39100 33.76700
H  5.04000 44.95200 35.39000

