158

Mg 40.48300 9.72000 30.55900
C  42.07700 11.18800 33.20600
C  37.91000 8.76000 32.77900
C  38.87100 8.39500 27.96100
C  43.34100 10.03600 28.54600
N  39.91200 10.13700 32.72500
C  40.74000 10.70500 33.59900
C  40.18300 10.65000 35.11000
C  38.95300 9.72700 34.96800
C  38.87300 9.53400 33.39100
C  39.04400 8.42100 35.88600
C  39.87500 12.10100 35.69300
C  40.69900 12.57100 36.99100
H  39.87200 13.08400 38.15700
N  38.61100 8.64500 30.35600
C  37.72600 8.38200 31.42800
C  36.56600 7.69300 30.81700
C  36.83700 7.43900 29.44400
C  38.15000 8.14100 29.15000
C  35.42600 7.24400 31.75800
C  35.98900 6.75100 28.30900
O  36.15300 6.84700 27.12700
C  34.83600 5.93200 28.79900
N  41.06200 9.35600 28.54000
C  40.13200 8.91300 27.65500
C  40.73700 8.82200 26.21300
C  42.25300 9.01500 26.48800
C  42.23200 9.52300 27.87500
C  40.41300 7.56500 25.29600
C  42.96400 9.83000 25.38900
C  42.87400 11.33700 25.59600
N  42.32700 10.45800 30.78300
C  43.39000 10.50700 29.85100
C  44.37300 11.28300 30.49500
C  43.92500 11.58600 31.78700
C  42.66500 11.03500 31.94200
C  45.71300 11.67600 29.84300
C  44.30700 12.21000 33.10200
O  45.39300 12.74700 33.36200
C  43.11600 11.88700 34.08400
C  43.80100 11.09700 35.15800
O  44.35500 9.99500 35.09100
O  43.94400 11.89600 36.31700
C  44.32500 11.15900 37.51400
H  37.24300 8.31900 33.52300
H  38.27600 8.00500 27.13200
H  44.13400 10.20700 27.81500
H  40.84200 10.14000 35.81300
H  38.05300 10.18400 35.38000
H  39.75700 7.72300 35.44700
H  38.11500 7.85300 35.84200
H  39.24000 8.57300 36.94700
H  38.84400 12.16500 36.04100
H  39.97800 12.81800 34.87800
H  41.35700 13.37500 36.66000
H  41.27400 11.68400 37.25500
H  35.16200 8.05500 32.43600
H  35.72400 6.41700 32.40300
H  34.53000 7.03300 31.17400
H  35.31900 5.21900 29.46800
H  34.43500 5.46100 27.90200
H  34.07400 6.62200 29.16100
H  40.25200 9.59800 25.62000
H  42.76400 8.05900 26.60000
H  39.92300 7.70300 24.33300
H  39.93500 6.82400 25.93700
H  41.38800 7.23700 24.93400
H  42.54600 9.55700 24.41900
H  44.02000 9.58200 25.28600
H  42.05300 11.69800 26.21600
H  42.74300 11.77700 24.60700
H  43.84000 11.68300 25.96200
H  45.51600 12.25000 28.93800
H  46.38700 10.84600 29.63300
H  46.14900 12.39900 30.53300
H  42.73500 12.79500 34.55000
H  43.95600 11.81500 38.30300
H  45.39400 10.97100 37.61300
H  43.77400 10.22000 37.55600
Mg 46.49600 25.73100 29.24800
C  47.35000 27.80400 31.73000
C  45.70600 23.21500 31.71200
C  46.24100 23.18700 26.95100
C  48.13500 27.59200 26.87500
N  46.58400 25.55200 31.43700
C  46.77300 26.60600 32.27400
C  46.51900 26.31500 33.77900
C  46.36800 24.75100 33.73800
C  46.17300 24.44600 32.23200
C  47.49700 23.85700 34.38200
C  45.43000 27.21800 34.36200
C  45.69000 27.94200 35.69100
H  46.33500 27.22500 36.95900
N  45.72800 23.69600 29.24100
C  45.48000 22.87400 30.35700
C  44.81000 21.68300 29.90400
C  45.13300 21.62300 28.47700
C  45.66100 22.92100 28.16100
C  44.20000 20.65000 30.85400
C  45.00700 20.42700 27.56700
O  45.24500 20.36600 26.39300
C  44.37000 19.19700 28.11000
N  47.09400 25.41500 27.13700
C  46.89700 24.33600 26.42300
C  47.44900 24.35300 25.04400
C  47.97300 25.87500 24.99000
C  47.75100 26.31100 26.42300
C  48.45300 23.17800 24.81800
C  47.32900 26.84900 23.88400
C  48.32500 27.37900 22.84900
N  47.44900 27.44500 29.21100
C  47.98300 28.16900 28.18400
C  48.68700 29.33100 28.76000
C  48.35700 29.27700 30.12900
C  47.63600 28.09100 30.36300
C  49.36100 30.48600 28.14300
C  48.47300 29.93800 31.40000
O  48.95000 31.04300 31.57500
C  47.91400 28.98500 32.44100
C  49.06500 28.62000 33.26300
O  49.91000 27.80500 32.89700
O  49.00200 29.28600 34.45700
C  50.10200 29.14000 35.42500
H  45.35200 22.67000 32.59000
H  46.20500 22.46200 26.13600
H  48.76300 28.22700 26.24600
H  47.39900 26.72500 34.27400
H  45.48000 24.68300 34.36500
H  48.47100 24.27500 34.12600
H  47.41100 22.87600 33.91300
H  47.37400 23.77400 35.46200
H  44.43800 26.76900 34.41500
H  45.31700 28.11000 33.74700
H  44.67700 28.21800 35.98400
H  46.30500 28.81900 35.48900
H  43.23100 20.58400 30.36000
H  44.00400 21.08100 31.83600
H  44.84700 19.78000 30.96500
H  45.11800 18.83200 28.81400
H  44.29800 18.44700 27.32300
H  43.37400 19.30600 28.54100
H  46.64100 24.26700 24.31800
H  49.05800 25.92800 24.90100
H  48.04000 22.52800 24.04700
H  48.66900 22.64600 25.74400
H  49.39500 23.62100 24.49400
H  46.91900 27.74100 24.35600
H  46.50200 26.33100 23.39700
H  47.99700 27.16100 21.83200
H  49.37700 27.10500 22.92700
H  48.39200 28.46100 22.95700
H  48.80200 31.40500 28.32300
H  49.52700 30.29200 27.08400
H  50.24900 30.67000 28.74700
H  47.13700 29.54000 32.96700
H  51.00900 28.71000 35.00000
H  49.84900 28.71000 36.39400
H  50.43600 30.16100 35.61400

