158

Mg 45.31700 4.55000 47.24600
C  43.63100 7.56700 46.43600
C  42.45200 2.92400 46.10900
C  47.03900 1.71000 47.36900
C  48.22500 6.38600 47.65600
N  43.28900 5.19400 46.23600
C  42.80900 6.45100 46.14400
C  41.34100 6.52500 45.68400
C  40.98100 5.02200 45.68400
C  42.33400 4.33100 46.00400
C  39.85400 4.65000 46.69600
C  41.11800 7.05400 44.24600
C  40.08300 8.16200 44.10100
H  39.37900 8.03100 42.73600
N  44.77200 2.56000 46.95500
C  43.56500 2.08400 46.43400
C  43.61400 0.63000 46.32600
C  44.96600 0.28600 46.73900
C  45.66800 1.50400 47.01500
C  42.50700 -0.23800 45.90300
C  45.51300 -1.13800 46.76700
O  44.75600 -2.03400 46.28000
C  46.83500 -1.61900 47.30700
N  47.37400 4.12800 47.42200
C  47.81900 2.91700 47.42500
C  49.37700 2.88000 47.73000
C  49.76600 4.34600 47.63000
C  48.33500 5.01800 47.60700
C  49.75200 2.11500 48.97000
C  50.51300 4.76100 46.39000
C  51.80000 5.43800 46.73900
N  45.90900 6.63300 47.16500
C  47.08200 7.22400 47.42100
C  46.91500 8.67600 47.32400
C  45.54000 8.82100 46.95000
C  44.98900 7.56100 46.83700
C  47.95400 9.69500 47.43300
C  44.46600 9.79800 46.64600
O  44.50000 11.00300 46.57000
C  43.18600 8.97700 46.46400
C  42.12900 9.09800 47.46500
O  41.74000 8.36000 48.35700
O  41.50300 10.37200 47.37900
C  40.18500 10.48200 47.97800
H  41.53500 2.36200 45.92400
H  47.56400 0.75500 47.30800
H  49.13700 6.93900 47.88900
H  40.65000 6.96700 46.40200
H  40.58700 4.74300 44.70700
H  40.26800 4.00200 47.46800
H  39.04300 4.08900 46.23100
H  39.30300 5.51700 47.05900
H  40.90400 6.30300 43.48600
H  42.02800 7.55700 43.91900
H  40.60300 9.11700 44.16800
H  39.26300 8.00300 44.80200
H  42.61200 -0.36700 44.82600
H  41.53700 0.20200 46.13200
H  42.52300 -1.16500 46.47600
H  46.76700 -2.69400 47.47500
H  46.94500 -1.05700 48.23400
H  47.66700 -1.56100 46.60600
H  49.86900 2.30200 46.94800
H  50.23900 4.68200 48.55300
H  48.84600 1.99400 49.56200
H  50.51000 2.64700 49.54600
H  50.15100 1.11200 48.81400
H  49.89500 5.48000 45.85300
H  50.71100 3.84300 45.83600
H  52.53400 4.81300 47.24900
H  51.47800 6.35500 47.23300
H  52.33700 5.91000 45.91600
H  48.39900 9.81800 48.42000
H  47.49900 10.63400 47.11600
H  48.66100 9.40000 46.65700
H  42.66600 9.17700 45.52600
H  39.48100 11.12300 47.44900
H  40.40300 10.99600 48.91400
H  39.71100 9.52200 48.18400
Mg -12.75600 16.97500 41.58100
C  -9.92100 15.08900 40.86500
C  -11.44600 19.63600 39.71600
C  -15.86700 18.35200 41.47600
C  -14.34800 13.92500 42.77000
N  -10.88200 17.32800 40.39100
C  -9.90400 16.36400 40.24800
C  -8.68800 17.02000 39.54200
C  -9.05400 18.48200 39.41300
C  -10.52300 18.52800 39.89100
C  -8.12300 19.43600 40.13700
C  -8.38800 16.29000 38.25000
C  -6.90100 15.83600 38.16600
H  -6.18300 16.52600 37.07900
N  -13.45900 18.69200 40.84800
C  -12.72500 19.72400 40.16700
C  -13.70100 20.79600 39.85700
C  -14.90400 20.52400 40.50000
C  -14.76800 19.11800 40.93300
C  -13.30500 22.02100 39.11700
C  -16.06700 21.51000 40.66700
O  -16.12600 22.56300 40.01600
C  -17.14300 21.30900 41.66000
N  -14.84100 16.17900 41.93300
C  -15.90600 17.02600 41.98100
C  -17.20600 16.36900 42.45300
C  -16.67300 14.94200 42.95100
C  -15.22400 14.97600 42.55100
C  -18.04000 17.10300 43.53800
C  -17.36900 13.69200 42.43700
C  -18.23400 12.83400 43.38600
N  -12.25300 15.00400 41.98300
C  -12.98000 13.92700 42.42800
C  -12.04900 12.79400 42.47400
C  -10.84000 13.19500 41.81800
C  -11.03500 14.55200 41.51900
C  -12.35200 11.42900 43.13500
C  -9.54800 12.69000 41.47100
O  -8.95900 11.61600 41.57900
C  -8.92100 13.90600 40.80400
C  -7.65900 14.11500 41.57400
O  -7.52900 14.64100 42.65600
O  -6.65400 13.69000 40.81100
C  -5.34900 13.94700 41.50700
H  -10.96200 20.39600 39.09900
H  -16.86600 18.79000 41.52500
H  -14.82400 13.03200 43.18200
H  -7.96800 16.94700 40.35700
H  -9.11600 18.76900 38.36300
H  -7.07600 19.35600 39.84300
H  -8.30700 19.30100 41.20300
H  -8.41700 20.44200 39.83900
H  -8.56600 16.87800 37.35000
H  -9.09500 15.47100 38.12300
H  -6.93700 14.75900 38.00500
H  -6.37800 16.07900 39.09200
H  -14.10600 22.26000 38.41800
H  -12.50200 21.96500 38.38200
H  -13.10300 22.80200 39.85000
H  -17.62300 22.20100 42.06300
H  -16.81100 20.86200 42.59700
H  -17.87300 20.77200 41.05500
H  -17.82500 16.17200 41.57700
H  -16.75000 14.88800 44.03700
H  -17.96500 16.65700 44.53000
H  -19.12100 17.13000 43.40300
H  -17.56000 18.08100 43.58300
H  -16.68200 13.00500 41.94200
H  -18.01100 13.96300 41.59800
H  -19.27500 12.70200 43.09100
H  -18.29900 13.20800 44.40800
H  -17.71100 11.88400 43.48800
H  -11.37300 11.00200 43.35300
H  -12.96700 10.87200 42.42900
H  -12.90400 11.43600 44.07500
H  -8.61600 13.62200 39.79700
H  -5.12600 13.24000 42.30600
H  -5.36800 14.89400 42.04700
H  -4.55200 13.92300 40.76300

