158

Mg 35.45000 49.56100 26.47800
C  35.73600 47.21900 29.05000
C  34.23500 51.89300 28.82800
C  34.87700 51.59800 24.00100
C  36.33600 47.00900 24.15800
N  35.06900 49.52600 28.65700
C  35.31300 48.47700 29.50900
C  35.14800 48.93200 30.88700
C  34.26900 50.18000 30.74800
C  34.44800 50.55000 29.34700
C  32.78800 49.93300 31.08700
C  36.53400 49.13300 31.54300
C  36.74900 48.68500 33.00300
H  37.02800 49.83100 34.00200
N  34.88300 51.51700 26.51000
C  34.44300 52.33200 27.50900
C  34.29400 53.65800 26.95800
C  34.46700 53.62400 25.56300
C  34.78400 52.17600 25.29000
C  33.83000 54.74000 27.85900
C  34.34300 54.72600 24.54200
O  34.50000 54.56000 23.34700
C  34.03400 56.27700 24.91100
N  35.36000 49.20400 24.35000
C  35.20000 50.28900 23.55400
C  35.43300 49.95800 22.05200
C  36.14800 48.58800 22.16900
C  35.92900 48.26300 23.61400
C  34.03600 49.88300 21.35700
C  37.58500 48.45600 21.76600
C  37.92200 47.23900 20.81700
N  35.84600 47.46700 26.52400
C  36.26700 46.55200 25.52000
C  36.47300 45.24300 26.10800
C  36.32000 45.42300 27.53600
C  35.88300 46.82300 27.74600
C  36.74800 43.96600 25.39200
C  36.40000 44.83100 28.91400
O  36.58600 43.68500 29.30700
C  36.11000 45.97100 29.87500
C  35.03800 45.49800 30.84500
O  33.98800 44.94200 30.61700
O  35.40800 45.90500 32.10000
C  34.46500 45.64700 33.16300
H  33.97500 52.50100 29.69700
H  34.71300 52.24800 23.13900
H  36.58700 46.30800 23.35900
H  34.62000 48.11700 31.38200
H  34.72500 50.86400 31.46400
H  32.61700 48.96600 30.61300
H  32.15900 50.58800 30.48400
H  32.53300 49.98500 32.14500
H  36.87200 50.15200 31.73300
H  37.34000 48.76600 30.90800
H  37.48500 47.88100 32.99800
H  35.82900 48.18100 33.29800
H  34.51200 55.58700 27.78800
H  33.59900 54.43000 28.87800
H  32.85100 55.03600 27.48100
H  33.08100 56.43600 25.41500
H  34.08900 56.74900 23.93100
H  34.82100 56.66800 25.55600
H  36.07700 50.68600 21.55900
H  35.52300 47.95200 21.54200
H  33.24600 49.67800 22.07900
H  33.98600 49.19600 20.51300
H  33.82100 50.86100 20.92600
H  38.21100 48.34400 22.65200
H  37.92200 49.33900 21.22200
H  38.08400 47.63700 19.81500
H  37.17200 46.44800 20.81900
H  38.91500 46.83400 21.01300
H  37.72700 44.15500 24.95000
H  36.07300 43.75500 24.56300
H  36.62800 43.05800 25.98300
H  36.90300 46.34900 30.52000
H  34.39400 46.46200 33.88400
H  34.99600 44.89400 33.74500
H  33.45100 45.27400 33.02200
Mg -9.92800 39.35500 41.75300
C  -8.33400 36.47900 40.43100
C  -7.80400 41.21200 39.83700
C  -12.06200 41.88400 41.93300
C  -12.43200 37.20600 42.99800
N  -8.34100 38.90500 40.23800
C  -7.74900 37.67800 39.96700
C  -6.60500 37.79700 38.96600
C  -6.36000 39.31100 38.95700
C  -7.55100 39.88400 39.76200
C  -5.02000 39.72100 39.66700
C  -7.00600 37.19000 37.62600
C  -6.13000 36.14300 36.95400
H  -5.57800 36.45700 35.51700
N  -9.74200 41.33800 41.34000
C  -8.78400 41.95800 40.55000
C  -9.03200 43.39000 40.56500
C  -10.26300 43.60700 41.11400
C  -10.72500 42.21600 41.51200
C  -7.96500 44.36700 40.08400
C  -11.01400 44.99300 41.30300
O  -10.44900 46.10300 41.14300
C  -12.47600 45.01100 41.66700
N  -11.97900 39.48900 42.24700
C  -12.61900 40.70900 42.36200
C  -14.05900 40.66200 42.75000
C  -14.21500 39.07200 43.06100
C  -12.82700 38.56200 42.81400
C  -14.33300 41.52000 43.97300
C  -15.20500 38.42100 42.04000
C  -16.05300 37.27200 42.60900
N  -10.30600 37.24800 41.85700
C  -11.25100 36.55000 42.51300
C  -10.90200 35.15500 42.48500
C  -9.76000 35.10500 41.72200
C  -9.42100 36.42100 41.29100
C  -11.74100 33.99200 43.13300
C  -8.78400 34.21400 41.21400
O  -8.78100 33.02300 41.40400
C  -7.87500 34.99600 40.28100
C  -6.54700 34.64400 40.58300
O  -5.77300 34.01600 39.85000
O  -6.05400 35.15800 41.79800
C  -4.68400 34.73000 42.20900
H  -7.08700 41.80800 39.26800
H  -12.85300 42.63600 41.89100
H  -13.22000 36.53100 43.33900
H  -5.82900 37.16200 39.39300
H  -6.31200 39.72800 37.95100
H  -4.26100 39.91900 38.91000
H  -4.71800 39.01200 40.43800
H  -5.04000 40.67600 40.19100
H  -7.09400 37.99000 36.89200
H  -8.01200 36.77200 37.64700
H  -6.66200 35.19300 36.91900
H  -5.24700 35.97500 37.57000
H  -8.43100 45.01500 39.34100
H  -7.11000 43.75300 39.80200
H  -7.53500 44.92300 40.91700
H  -12.88700 46.01800 41.59800
H  -12.53500 44.61500 42.68000
H  -12.86700 44.37000 40.87600
H  -14.65700 41.01500 41.90900
H  -14.51900 38.88400 44.09100
H  -15.09600 42.25700 43.72300
H  -13.44300 42.00500 44.37400
H  -14.94700 41.01200 44.71600
H  -14.63700 38.09100 41.17000
H  -15.88700 39.16400 41.62700
H  -17.11500 37.51700 42.57000
H  -15.79600 37.12900 43.65900
H  -15.97900 36.38400 41.98200
H  -11.07300 33.19700 43.46500
H  -12.41500 33.58200 42.38000
H  -12.37400 34.33200 43.95300
H  -8.12700 34.67800 39.26900
H  -4.02200 34.64300 41.34800
H  -4.65200 33.93500 42.95500
H  -4.18200 35.53400 42.74700

