158

Mg 24.16200 -4.72100 45.70400
C  26.29600 -2.50100 44.17900
C  21.54900 -3.49400 43.77800
C  22.39500 -7.63400 46.22700
C  26.95600 -6.11100 47.27700
N  23.98900 -3.27800 44.16900
C  24.97700 -2.43000 43.73300
C  24.50100 -1.48000 42.63600
C  22.97600 -1.56700 42.81700
C  22.81300 -2.88000 43.61900
C  22.35300 -0.37400 43.53000
C  25.12700 -2.02900 41.17200
C  26.09200 -0.96900 40.46500
H  26.09200 -0.84900 38.91300
N  22.21000 -5.38200 45.27100
C  21.26500 -4.66700 44.58400
C  20.07700 -5.48900 44.45500
C  20.26100 -6.69900 45.18100
C  21.64700 -6.59700 45.63000
C  18.87300 -5.03700 43.68600
C  19.25500 -7.86700 45.29900
O  18.13400 -7.80300 44.82800
C  19.48700 -9.01200 46.28900
N  24.50500 -6.49000 46.80300
C  23.66300 -7.56400 46.81300
C  24.20900 -8.73600 47.71500
C  25.70800 -8.24500 47.97300
C  25.76500 -6.91200 47.27300
C  23.40900 -9.07500 49.03000
C  26.76200 -9.24400 47.41000
C  27.81900 -9.85500 48.40500
N  26.26600 -4.36100 45.80500
C  27.26200 -4.97100 46.51800
C  28.52200 -4.30300 46.38200
C  28.20600 -3.29600 45.37100
C  26.80700 -3.42200 45.07900
C  29.77200 -4.75700 47.00000
C  28.73600 -2.29200 44.55100
O  29.85000 -1.86300 44.46500
C  27.53000 -1.63000 43.82900
C  27.39100 -0.15200 44.09500
O  26.85600 0.35100 45.08700
O  27.92700 0.56000 43.09200
C  27.71300 2.04900 43.15000
H  20.75000 -3.15500 43.11600
H  21.91700 -8.60600 46.36300
H  27.71900 -6.53600 47.93200
H  24.91100 -0.52200 42.95700
H  22.47000 -1.67600 41.85700
H  23.13700 0.36100 43.71100
H  21.80800 -0.72800 44.40600
H  21.72000 0.03200 42.74000
H  24.38800 -2.39700 40.46000
H  25.75000 -2.90000 41.37600
H  27.12900 -1.06500 40.78900
H  25.68500 0.01300 40.70700
H  18.01500 -5.13000 44.35200
H  18.79700 -5.62200 42.76900
H  18.91100 -4.00500 43.33500
H  18.58000 -9.56400 46.53400
H  19.96100 -8.69500 47.21800
H  20.14000 -9.68100 45.72900
H  24.18700 -9.62900 47.09100
H  25.85500 -8.11600 49.04500
H  22.96900 -8.14000 49.37500
H  24.19600 -9.45600 49.68100
H  22.65500 -9.83600 48.82800
H  27.38000 -8.78300 46.63900
H  26.38400 -10.16500 46.96700
H  27.50700 -9.66000 49.43100
H  28.69400 -9.21200 48.30500
H  27.96900 -10.91000 48.17500
H  29.66500 -4.50100 48.05400
H  30.65300 -4.22900 46.63500
H  29.98600 -5.81000 46.81700
H  27.62900 -1.58300 42.74400
H  27.25500 2.48200 44.03900
H  27.04300 2.24800 42.31500
H  28.66100 2.47000 42.81300
Mg 53.09000 25.02100 43.28100
C  50.77600 27.52600 42.71300
C  50.88700 22.68100 41.99800
C  55.64300 22.74600 42.81300
C  55.54200 27.43600 44.09500
N  51.09800 25.10300 42.45900
C  50.24700 26.20500 42.43700
C  48.87600 25.89800 41.93000
C  48.85900 24.25000 41.91000
C  50.33500 23.97800 42.21200
C  47.97100 23.65700 43.11900
C  48.45800 26.38000 40.48100
C  49.54700 26.29300 39.36400
H  49.33700 25.55200 38.08400
N  53.23200 22.95800 42.59000
C  52.19900 22.13500 42.27500
C  52.64300 20.82800 41.95200
C  54.01200 20.81700 42.05300
C  54.35100 22.21000 42.58800
C  51.72500 19.66900 41.52600
C  54.94800 19.65400 41.88200
O  54.54200 18.58700 41.49200
C  56.46400 19.73200 42.14800
N  55.23700 25.15600 43.49600
C  56.06600 24.03200 43.23500
C  57.64000 24.41200 43.55200
C  57.43500 25.86900 44.10800
C  55.96200 26.21800 43.83300
C  58.37300 23.43900 44.53100
C  58.54100 26.78200 43.50400
C  59.39700 27.55500 44.60000
N  53.16600 27.07100 43.45600
C  54.20000 27.92100 43.83200
C  53.58700 29.19800 44.14300
C  52.33900 29.10300 43.56200
C  52.08000 27.79100 43.25400
C  54.29300 30.43900 44.65900
C  51.05400 29.78400 43.37100
O  50.73200 30.93800 43.56800
C  50.04500 28.76700 42.76300
C  49.57500 29.38500 41.44800
O  50.31000 29.55100 40.41300
O  48.20400 29.66400 41.51800
C  47.56300 30.16000 40.33300
H  50.10100 21.99700 41.67200
H  56.52900 22.11400 42.71800
H  56.27700 28.11800 44.52800
H  48.20700 26.21100 42.73100
H  48.47000 23.79800 40.99800
H  47.62700 24.48600 43.73700
H  48.55600 22.93000 43.68300
H  47.12400 23.15300 42.65500
H  48.05900 27.39400 40.44400
H  47.59300 25.78100 40.19600
H  50.40500 25.78800 39.80800
H  49.87200 27.25400 38.96600
H  52.00500 19.27400 40.54900
H  50.71500 20.01000 41.29800
H  51.70900 18.79400 42.17600
H  56.95500 18.79900 41.87400
H  56.61600 20.12700 43.15200
H  56.79600 20.49600 41.44400
H  58.18700 24.33900 42.61200
H  57.58600 25.95700 45.18400
H  57.78000 22.54300 44.71800
H  58.50600 23.97300 45.47200
H  59.33600 23.18400 44.09000
H  58.07800 27.54000 42.87100
H  59.20400 26.24600 42.82500
H  59.08600 28.59900 44.55000
H  60.46900 27.41600 44.46000
H  59.17400 27.37700 45.65200
H  55.08600 30.69800 43.95800
H  54.74000 30.18100 45.62000
H  53.55100 31.23100 44.75300
H  49.15000 28.65200 43.37400
H  47.52900 29.41200 39.54000
H  48.16100 31.01900 40.02800
H  46.56500 30.52100 40.58300

