158

Mg -2.17200 16.97900 26.95200
C  -2.72400 15.15000 29.85500
C  -3.03700 19.79700 28.58300
C  -2.39300 18.59300 23.98800
C  -2.09700 13.93400 25.14200
N  -2.70100 17.33200 28.98300
C  -2.73500 16.51500 30.09200
C  -3.14200 17.32600 31.35300
C  -3.73400 18.61600 30.70600
C  -3.02700 18.64900 29.35900
C  -5.29100 18.59800 30.51100
C  -1.92300 17.38000 32.29200
C  -2.24700 17.17600 33.72300
H  -1.11900 16.77000 34.55900
N  -2.42900 18.95600 26.42700
C  -2.71700 19.97700 27.27500
C  -2.49100 21.22100 26.58300
C  -2.29300 20.85800 25.20200
C  -2.45300 19.40200 25.14600
C  -2.60700 22.55600 27.22700
C  -2.12700 21.73600 23.91900
O  -1.95600 21.25500 22.79700
C  -2.02300 23.23300 24.00700
N  -2.58000 16.29000 24.86100
C  -2.48200 17.22200 23.79200
C  -2.41100 16.57800 22.44700
C  -2.09800 15.11800 22.91000
C  -2.20000 15.11800 24.43300
C  -3.71000 16.74000 21.58700
C  -0.67500 14.61400 22.47000
C  0.50900 15.54800 22.82800
N  -2.25800 14.94800 27.37500
C  -2.16300 13.82100 26.54400
C  -2.25500 12.68900 27.38800
C  -2.44400 13.17700 28.67500
C  -2.44900 14.53100 28.60300
C  -2.11400 11.26600 26.95000
C  -2.70100 12.78200 29.98000
O  -2.81800 11.63600 30.45100
C  -2.89700 14.02900 30.89400
C  -1.76000 13.88300 31.95300
O  -0.54300 14.00600 31.72700
O  -2.34900 13.58900 33.17800
C  -1.46500 13.15200 34.30500
H  -3.42500 20.61700 29.19100
H  -2.30900 18.94200 22.95600
H  -1.87100 12.97600 24.66900
H  -3.88000 16.77500 31.93500
H  -3.40400 19.48400 31.27600
H  -5.81600 17.73100 30.91300
H  -5.54300 18.53800 29.45300
H  -5.71700 19.45700 31.02900
H  -1.55900 18.40500 32.23700
H  -1.19600 16.65200 31.93100
H  -2.95800 16.35000 33.74700
H  -2.76300 18.06300 34.09000
H  -2.53500 22.48300 28.31200
H  -3.46700 23.06800 26.79400
H  -1.74500 23.16300 26.95000
H  -2.35600 23.58400 23.03000
H  -0.98600 23.54300 24.13800
H  -2.68700 23.64600 24.76700
H  -1.57800 16.92500 21.83400
H  -2.85900 14.45200 22.50200
H  -4.54500 16.97100 22.24900
H  -4.01900 15.87700 20.99700
H  -3.69300 17.53600 20.84200
H  -0.75400 14.40000 21.40400
H  -0.59800 13.63700 22.94700
H  1.24700 15.06400 23.46800
H  0.07900 16.42200 23.31800
H  1.05200 15.89400 21.94900
H  -3.02600 10.76600 27.27600
H  -1.20700 10.86800 27.40500
H  -2.07500 11.10900 25.87200
H  -3.86000 13.93400 31.39500
H  -0.97000 12.24300 33.96400
H  -1.93600 12.93200 35.26300
H  -0.82600 14.03500 34.31800
Mg -5.09800 24.63300 26.68400
C  -3.70200 26.36700 29.52200
C  -6.11300 22.14300 28.93500
C  -6.48000 23.09600 24.13300
C  -3.72900 27.06700 24.58100
N  -4.87100 24.33000 29.01500
C  -4.47600 25.23800 29.94600
C  -4.87000 24.81900 31.35300
C  -5.34300 23.26900 31.18300
C  -5.42800 23.22100 29.63000
C  -4.42000 22.22500 31.86000
C  -5.97200 25.74300 31.97300
C  -5.56400 26.39400 33.32000
H  -6.48200 25.91600 34.58700
N  -6.12400 22.92100 26.55900
C  -6.45400 21.95500 27.56900
C  -7.23800 20.80800 27.05300
C  -7.37200 21.15200 25.66800
C  -6.65700 22.41400 25.41400
C  -7.70400 19.61500 27.89000
C  -8.01000 20.37100 24.58300
O  -8.30600 20.80000 23.47300
C  -8.47200 18.93600 24.90400
N  -5.23600 25.12700 24.71500
C  -5.84300 24.30800 23.82600
C  -5.57400 24.69000 22.39700
C  -4.73400 25.98700 22.49800
C  -4.58300 26.13300 24.02900
C  -4.97900 23.58700 21.54700
C  -5.55400 27.25800 21.86300
C  -4.76800 28.10300 20.72000
N  -3.71900 26.23300 26.92800
C  -3.33300 27.18000 25.94900
C  -2.55400 28.22500 26.62300
C  -2.81300 27.99000 27.99900
C  -3.40400 26.73200 28.12600
C  -1.71900 29.35800 26.03400
C  -2.39200 28.46300 29.34800
O  -1.66000 29.39300 29.78700
C  -3.08100 27.46800 30.36000
C  -2.03500 26.94900 31.30200
O  -0.94600 26.57900 30.96500
O  -2.47500 27.07900 32.59000
C  -1.38400 26.91100 33.58300
H  -6.28600 21.33800 29.65200
H  -6.91400 22.63300 23.24400
H  -3.32400 27.85900 23.94800
H  -3.94900 24.82500 31.93600
H  -6.36100 23.10200 31.53600
H  -3.94100 21.58900 31.11500
H  -4.98800 21.61200 32.56100
H  -3.64700 22.62700 32.51500
H  -6.89500 25.19600 32.16700
H  -6.22100 26.57200 31.31000
H  -5.77000 27.46400 33.35800
H  -4.50500 26.32600 33.56700
H  -7.71300 19.74200 28.97300
H  -7.20000 18.67100 27.68300
H  -8.74200 19.45800 27.59500
H  -7.62000 18.31700 25.18500
H  -9.03200 18.48700 24.08300
H  -9.15600 18.98900 25.75100
H  -6.53500 24.86100 21.91000
H  -3.75100 25.85800 22.04600
H  -5.68000 23.16900 20.82400
H  -4.66700 22.69800 22.09500
H  -4.09700 23.98900 21.04800
H  -5.86900 27.99500 22.60100
H  -6.48500 26.95600 21.38400
H  -4.00100 27.42900 20.33800
H  -4.32800 29.01700 21.12100
H  -5.40200 28.28200 19.85200
H  -1.71900 30.24300 26.67000
H  -2.23000 29.70200 25.13400
H  -0.77900 28.87000 25.77600
H  -3.74400 28.08300 30.96800
H  -0.90300 25.95500 33.37700
H  -1.91800 26.79500 34.52600
H  -0.58100 27.64700 33.62200

