158

Mg 47.36800 34.82700 27.48400
C  45.92700 32.89400 30.05200
C  47.79400 37.29300 29.71700
C  48.47300 36.68400 24.86600
C  46.29500 32.28900 25.24100
N  46.73000 35.14900 29.61700
C  46.26100 34.14000 30.50400
C  46.38600 34.63900 31.92000
C  46.59100 36.16400 31.73900
C  47.07000 36.23900 30.24900
C  45.33900 36.96700 32.01400
C  47.67400 33.99100 32.60000
C  47.62400 33.98900 34.08100
H  46.75100 34.97400 34.83000
N  48.15000 36.67400 27.32600
C  48.27700 37.55500 28.36900
C  48.98300 38.72100 27.93000
C  49.17900 38.62600 26.53300
C  48.64500 37.26400 26.18300
C  49.42600 39.80300 28.79300
C  49.74900 39.57600 25.56300
O  49.66300 39.35400 24.34200
C  50.32400 40.91300 26.06300
N  47.34500 34.52100 25.31900
C  47.93600 35.41500 24.50900
C  47.87600 34.90900 23.09000
C  47.42400 33.41100 23.20200
C  46.97900 33.36400 24.66800
C  47.05400 35.80800 22.13800
C  48.59100 32.40800 22.84600
C  49.67300 32.27400 23.95400
N  46.53900 32.95700 27.56400
C  46.14800 32.05900 26.59900
C  45.59200 30.85100 27.26200
C  45.54600 31.16400 28.62300
C  46.07400 32.48700 28.76300
C  45.00600 29.58400 26.61800
C  45.05500 30.66400 29.81900
O  44.51500 29.64800 30.20600
C  45.00400 31.86900 30.70500
C  45.23200 31.49900 32.09600
O  46.24200 31.04900 32.62200
O  44.03200 31.78000 32.77800
C  44.00100 31.21900 34.10100
H  48.13500 38.04900 30.42700
H  48.91100 37.26300 24.05100
H  46.01700 31.41800 24.64300
H  45.45600 34.31800 32.38800
H  47.36000 36.62100 32.36100
H  45.63800 37.77200 32.68500
H  44.51700 36.38900 32.43400
H  45.02700 37.41100 31.06900
H  48.53400 34.57000 32.26400
H  47.76400 32.96000 32.26000
H  48.59100 34.22700 34.52600
H  47.33700 33.00700 34.45600
H  49.34300 39.59500 29.86000
H  48.76300 40.61000 28.48000
H  50.49300 39.91800 28.60400
H  49.47200 41.32000 26.60800
H  50.45300 41.55500 25.19200
H  51.29400 40.90300 26.55900
H  48.86700 34.75300 22.66300
H  46.56200 33.07900 22.62300
H  47.61400 35.99600 21.22100
H  46.78700 36.77200 22.57200
H  46.10900 35.32800 21.88300
H  49.06000 32.79300 21.94100
H  48.27700 31.39100 22.61500
H  49.44600 31.53000 24.71800
H  49.87400 33.23100 24.43700
H  50.63700 32.13800 23.46300
H  45.13500 28.71800 27.26700
H  45.50600 29.30400 25.69100
H  43.98300 29.83600 26.33700
H  44.03300 32.31800 30.49700
H  43.01900 31.00900 34.52600
H  44.32200 32.06400 34.71100
H  44.74400 30.43300 34.24200
Mg 9.35000 47.55500 27.51200
C  7.20700 47.26800 30.25600
C  12.00800 47.95000 29.72000
C  11.30500 48.33900 25.01200
C  6.54700 47.57900 25.50000
N  9.50600 47.78800 29.74700
C  8.49500 47.49200 30.66100
C  9.00300 47.60300 32.17600
C  10.56900 47.86900 31.86500
C  10.76000 47.78100 30.33800
C  11.21500 49.15800 32.50400
C  8.62300 46.48500 33.21900
C  9.40400 46.41900 34.51000
H  8.94900 45.62000 35.67700
N  11.42500 47.89000 27.30100
C  12.31900 48.04600 28.30900
C  13.60000 48.29800 27.72800
C  13.43100 48.28100 26.31100
C  11.99000 48.18500 26.13200
C  14.80000 48.32400 28.50500
C  14.42600 48.27600 25.17800
O  14.10600 48.10400 24.04100
C  15.78900 48.45300 25.50000
N  8.91200 48.03200 25.50200
C  9.93900 48.29000 24.70300
C  9.42400 48.34900 23.24500
C  7.83700 48.04100 23.38500
C  7.74200 47.80600 24.88700
C  9.79200 49.75100 22.55100
C  7.45100 46.79400 22.58000
C  6.02800 46.77700 21.93700
N  7.31700 47.36200 27.69800
C  6.25600 47.48100 26.81500
C  5.00300 47.30800 27.46900
C  5.31600 47.16300 28.81700
C  6.70400 47.30500 28.92700
C  3.71800 47.34300 26.81300
C  4.76600 47.07300 30.15600
O  3.61000 47.02700 30.52100
C  6.00200 46.93400 31.14000
C  6.05500 45.54200 31.78300
O  6.74000 44.61900 31.43600
O  5.22000 45.52800 32.87300
C  5.20700 44.22900 33.62900
H  12.78100 48.14700 30.46500
H  11.92300 48.60000 24.15000
H  5.66500 47.56200 24.85700
H  8.58200 48.50800 32.61400
H  11.03500 46.94000 32.19500
H  12.27500 48.93700 32.62800
H  10.81300 49.36100 33.49700
H  11.06300 50.09900 31.97600
H  8.70100 45.50900 32.74000
H  7.59500 46.66900 33.53000
H  9.60900 47.45200 34.79100
H  10.34100 45.93700 34.22800
H  15.59000 47.61600 28.25700
H  14.78100 48.30600 29.59500
H  15.31600 49.25400 28.26600
H  16.37100 48.23900 24.60400
H  16.07100 47.71500 26.25200
H  15.86500 49.49700 25.80500
H  9.86500 47.55200 22.64600
H  7.12200 48.86300 23.36000
H  10.23000 50.39500 23.31400
H  8.91200 50.18200 22.07300
H  10.52300 49.49700 21.78400
H  7.47000 45.92900 23.24300
H  8.17900 46.52300 21.81500
H  5.29100 46.20400 22.49900
H  6.04100 46.43500 20.90200
H  5.73700 47.81500 21.77600
H  3.32400 48.35900 26.86500
H  3.10900 46.74200 27.48800
H  3.89000 46.90100 25.83200
H  5.82400 47.76000 31.82900
H  6.19900 44.02500 34.03200
H  4.82800 43.35100 33.10600
H  4.64500 44.45400 34.53500

