158

Mg 24.30300 -5.47800 45.69800
C  26.52900 -3.25000 44.19100
C  21.88300 -4.52500 43.45200
C  22.46100 -8.13700 46.58400
C  27.10200 -6.74100 47.58400
N  24.18700 -3.98200 44.04400
C  25.30900 -3.29600 43.54000
C  24.87200 -2.46900 42.30700
C  23.32200 -2.78300 42.16600
C  23.07900 -3.85300 43.29200
C  22.36100 -1.63300 42.52000
C  25.68100 -2.82600 40.98000
C  26.27900 -1.57800 40.24500
H  25.79900 -1.19000 38.89500
N  22.35300 -6.06300 45.26600
C  21.52700 -5.60900 44.26900
C  20.25300 -6.40000 44.35400
C  20.40200 -7.29800 45.32100
C  21.74400 -7.16500 45.78200
C  19.10500 -6.20800 43.42100
C  19.32800 -8.29400 45.75600
O  18.22500 -8.29300 45.22300
C  19.49400 -9.39600 46.88500
N  24.76000 -7.20000 46.88700
C  23.83100 -8.23100 47.00500
C  24.46900 -9.48000 47.60600
C  25.78800 -8.90300 48.25300
C  25.96600 -7.58900 47.49700
C  23.64300 -10.16800 48.80500
C  27.04600 -9.86800 48.11200
C  27.65100 -10.40600 49.40700
N  26.36700 -5.06600 46.00000
C  27.33700 -5.51000 46.87000
C  28.58000 -4.86300 46.57200
C  28.26300 -3.98000 45.54400
C  26.91500 -4.11500 45.24600
C  29.86100 -5.22900 47.12200
C  28.84400 -3.00300 44.68900
O  30.06100 -2.69700 44.60100
C  27.68700 -2.44200 43.83900
C  27.69400 -0.94600 44.12000
O  27.20000 -0.42400 45.10400
O  28.38600 -0.25700 43.14200
C  28.80900 1.12900 43.29600
H  21.15400 -4.29900 42.67100
H  21.86700 -9.04400 46.71300
H  28.02500 -7.06000 48.07200
H  25.06000 -1.42300 42.55000
H  23.10600 -3.15200 41.16300
H  22.69400 -0.69500 42.07400
H  22.41500 -1.38400 43.57900
H  21.40000 -1.92300 42.09600
H  25.08900 -3.37800 40.25000
H  26.48700 -3.45400 41.36000
H  27.35900 -1.70400 40.16900
H  26.02500 -0.78600 40.95100
H  18.99500 -7.11900 42.83400
H  19.43500 -5.38400 42.78800
H  18.26500 -5.87000 44.02700
H  18.47500 -9.48000 47.26200
H  20.07700 -8.92800 47.67900
H  19.84900 -10.37300 46.55800
H  24.81200 -10.09200 46.77200
H  25.61600 -8.70600 49.31100
H  23.15800 -11.10700 48.53700
H  22.96200 -9.37900 49.12500
H  24.33700 -10.31400 49.63200
H  27.80900 -9.41500 47.48000
H  26.75200 -10.71900 47.49800
H  27.45300 -9.79000 50.28400
H  28.70200 -10.67500 49.30600
H  27.20800 -11.32300 49.79500
H  29.85700 -4.87300 48.15200
H  30.66800 -4.62400 46.70900
H  30.14100 -6.26700 46.93900
H  28.04900 -2.59000 42.82100
H  27.95900 1.74200 42.99300
H  29.62400 1.43100 42.63900
H  29.17800 1.61100 44.20000
Mg 54.71700 23.58900 45.30400
C  52.22500 25.77500 44.20900
C  52.90700 21.00100 44.03300
C  57.58000 21.71200 45.34800
C  56.73300 26.50500 46.11000
N  52.71400 23.46200 44.30100
C  51.88400 24.37400 43.93000
C  50.60600 23.90800 43.23700
C  50.74300 22.37400 43.56800
C  52.19300 22.22600 44.05900
C  49.69800 21.92300 44.70500
C  50.44100 24.22300 41.71900
C  49.11000 24.82600 41.26000
H  48.51200 24.17800 40.05100
N  55.14500 21.54000 44.92100
C  54.25600 20.64900 44.40300
C  54.96800 19.39000 44.21300
C  56.31800 19.54200 44.62100
C  56.40400 20.97900 44.99300
C  54.32300 18.24100 43.60500
C  57.29100 18.45700 44.50900
O  56.93800 17.27300 44.25600
C  58.72100 18.76100 44.80000
N  56.82000 23.96700 45.76900
C  57.78600 23.08400 45.67400
C  59.13400 23.66500 46.08600
C  58.86100 25.15400 46.47900
C  57.36200 25.22900 46.12200
C  59.89500 22.91900 47.26000
C  59.84000 26.09900 45.86900
C  60.56900 27.02000 46.92200
N  54.55200 25.72400 45.30800
C  55.39000 26.72700 45.80000
C  54.65000 27.98600 45.80800
C  53.40400 27.69000 45.15100
C  53.44800 26.28600 44.79500
C  55.10800 29.35300 46.27200
C  52.07100 28.22800 44.79100
O  51.57000 29.29800 45.05300
C  51.30300 27.04200 44.04300
C  51.10500 27.52700 42.71500
O  52.00400 27.58100 41.92100
O  49.85900 27.99800 42.49300
C  49.76700 28.56000 41.11700
H  52.37300 20.15500 43.59500
H  58.51300 21.14900 45.41600
H  57.32300 27.41100 46.26200
H  49.75800 24.38400 43.73100
H  50.69300 21.80200 42.64100
H  50.18800 21.36200 45.50200
H  48.97900 21.33200 44.13700
H  49.24400 22.81800 45.13100
H  50.76400 23.40500 41.07500
H  51.09300 25.06800 41.49800
H  49.20300 25.88500 41.01800
H  48.45000 24.63900 42.10700
H  54.91800 17.84000 42.78500
H  53.36900 18.56700 43.18900
H  54.01100 17.52900 44.36900
H  58.97600 19.46800 44.01100
H  59.27200 17.82400 44.71800
H  59.04300 18.98900 45.81600
H  59.72300 23.50500 45.18300
H  59.05600 25.26100 47.54600
H  60.86600 22.55800 46.92200
H  59.34200 21.99100 47.40900
H  60.04000 23.49800 48.17200
H  59.35800 26.81900 45.20800
H  60.67700 25.64400 45.34000
H  61.63100 26.79500 46.82300
H  60.05600 26.96000 47.88100
H  60.56800 28.08700 46.70100
H  54.81000 29.45000 47.31600
H  54.66700 30.12400 45.63800
H  56.17600 29.57200 46.27600
H  50.33600 26.96800 44.54100
H  48.82700 29.06600 40.89500
H  49.86400 27.72100 40.42800
H  50.54500 29.30900 40.96900

