158

Mg 24.82900 1.24100 29.39300
C  27.04900 1.01300 32.08600
C  22.20600 1.53300 31.70800
C  22.66300 1.25000 26.87000
C  27.52500 0.48700 27.18900
N  24.69500 1.33600 31.64700
C  25.71200 1.22500 32.53800
C  25.23400 1.57000 33.96300
C  23.65900 1.54500 33.88800
C  23.48900 1.54900 32.35900
C  23.02400 0.27500 34.48300
C  25.95200 2.79600 34.73700
C  26.45100 2.43700 36.17500
H  26.38200 3.35400 37.33900
N  22.78000 1.49600 29.36200
C  21.81100 1.56400 30.36500
C  20.51500 1.68000 29.78500
C  20.63900 1.55900 28.40000
C  22.07100 1.46800 28.16000
C  19.32700 1.71000 30.70300
C  19.57200 1.55600 27.29000
O  19.87100 1.65000 26.10000
C  18.11200 1.50100 27.78400
N  25.01000 0.71400 27.38300
C  23.98700 0.99100 26.52900
C  24.46400 1.07700 25.06000
C  25.98300 0.77000 25.17700
C  26.20500 0.67800 26.66100
C  23.78100 0.08700 24.14100
C  26.84400 1.86500 24.46700
C  26.84800 3.21800 25.11100
N  26.77600 0.82300 29.54500
C  27.76000 0.43300 28.59600
C  29.12800 0.27700 29.21100
C  28.82700 0.47600 30.61800
C  27.41000 0.77100 30.75400
C  30.42700 -0.11100 28.49700
C  29.44100 0.50200 32.01100
O  30.64700 0.33200 32.26700
C  28.23200 0.72900 33.00700
C  28.07300 -0.44500 33.79200
O  27.16600 -1.20000 33.74400
O  28.90300 -0.29900 34.89200
C  28.50400 -0.92900 36.12000
H  21.37000 1.61600 32.40600
H  22.09300 1.41200 25.95300
H  28.35800 0.50400 26.48300
H  25.41900 0.63100 34.48500
H  23.22800 2.42000 34.37500
H  23.49100 -0.65500 34.15700
H  21.95600 0.16400 34.29500
H  23.04800 0.33000 35.57100
H  25.26600 3.64100 34.79200
H  26.80200 3.20400 34.19200
H  27.51900 2.32900 35.98400
H  26.11600 1.48000 36.57400
H  18.89000 0.72200 30.84400
H  18.67200 2.40400 30.17600
H  19.45900 2.15000 31.69100
H  18.14800 0.83300 28.64500
H  17.38200 1.07600 27.09500
H  17.89600 2.54000 28.03400
H  24.35000 2.09000 24.67400
H  26.34300 -0.16600 24.74900
H  22.80000 -0.19700 24.52300
H  24.36200 -0.83300 24.07400
H  23.57900 0.51500 23.15900
H  26.48200 2.09600 23.46500
H  27.86500 1.48500 24.44400
H  26.41300 3.93800 24.41700
H  27.83900 3.52500 25.44400
H  26.20900 3.26300 25.99300
H  31.37800 0.33000 28.79700
H  30.28700 0.00200 27.42200
H  30.45100 -1.18300 28.69200
H  28.52800 1.58600 33.61200
H  28.41700 -1.98200 35.85300
H  27.55200 -0.53000 36.46900
H  29.31700 -0.70300 36.80900
Mg 35.40200 49.47200 26.26900
C  35.80600 47.49100 29.00000
C  34.20600 52.06100 28.15000
C  34.99100 51.28000 23.33900
C  36.36700 46.76800 24.20400
N  34.83300 49.67600 28.36200
C  35.22700 48.79200 29.28600
C  35.12900 49.38000 30.71800
C  34.34500 50.68900 30.46200
C  34.39400 50.82000 28.93000
C  32.86000 50.78500 31.08800
C  36.50700 49.55200 31.43900
C  36.57800 48.82100 32.83400
H  35.56200 49.06100 33.99000
N  34.83000 51.37000 25.85500
C  34.44800 52.33100 26.76400
C  34.29900 53.59400 26.02000
C  34.42500 53.39700 24.64000
C  34.78700 51.93300 24.61300
C  34.05200 54.86700 26.77500
C  34.33700 54.28700 23.45000
O  34.28000 53.88300 22.28900
C  34.06900 55.73100 23.72200
N  35.76700 49.11000 24.08700
C  35.45600 50.00400 23.10400
C  35.56500 49.33600 21.71300
C  36.19200 47.97600 22.05800
C  36.17800 47.91700 23.54800
C  34.26700 49.26000 20.88400
C  37.69100 47.88900 21.46200
C  38.82900 48.30900 22.48500
N  35.96600 47.48700 26.53000
C  36.38800 46.56700 25.56400
C  36.66200 45.33500 26.34600
C  36.49500 45.67300 27.69000
C  36.07900 46.99200 27.71500
C  37.19900 44.06100 25.73700
C  36.55600 45.11500 28.97800
O  36.92100 44.04300 29.41000
C  36.10000 46.29700 29.92900
C  34.88300 45.77800 30.65700
O  33.81300 45.55500 30.24200
O  35.25100 45.50200 31.94200
C  34.14400 45.24400 32.84300
H  33.82300 52.85400 28.79700
H  35.05200 51.80800 22.38600
H  36.31300 45.88100 23.56900
H  34.49200 48.69500 31.27700
H  34.81800 51.52600 30.97500
H  32.19400 51.18300 30.32300
H  32.94000 51.49300 31.91300
H  32.47600 49.86500 31.52600
H  36.88700 50.57100 31.50700
H  37.22700 48.94800 30.88800
H  37.58400 49.00700 33.20900
H  36.58900 47.73200 32.79100
H  33.10200 55.29900 26.46200
H  34.94400 55.48700 26.68900
H  33.82600 54.68900 27.82700
H  33.06700 55.94400 24.09500
H  34.19800 56.22400 22.75900
H  34.83400 56.00800 24.44800
H  36.34700 49.90900 21.21600
H  35.62300 47.13100 21.67000
H  34.10600 48.18800 20.76900
H  34.53400 49.88400 20.03100
H  33.46700 49.71100 21.47200
H  37.68300 48.51900 20.57300
H  37.89300 46.83800 21.25800
H  39.68200 47.69500 22.19600
H  38.66600 48.26000 23.56200
H  39.09100 49.35600 22.33100
H  38.28800 44.03000 25.78300
H  36.90800 43.85900 24.70600
H  36.74200 43.29800 26.36700
H  36.89500 46.38200 30.67100
H  34.38600 45.71600 33.79500
H  33.96700 44.17100 32.91500
H  33.16900 45.63000 32.54400

