158

Mg 35.82800 1.68600 29.08700
C  33.78000 2.46400 31.81600
C  38.56700 1.71200 31.19800
C  37.90800 1.26800 26.32900
C  33.13300 2.20600 26.88100
N  36.07900 1.95100 31.31900
C  35.11300 2.22200 32.23700
C  35.70300 2.30500 33.65700
C  37.24100 2.03700 33.43700
C  37.32500 1.87800 31.88100
C  38.22400 3.07500 33.94700
C  35.02500 1.22600 34.52000
C  34.23200 1.75800 35.72300
H  34.86600 3.04600 36.43100
N  37.84100 1.28400 28.79300
C  38.83400 1.41600 29.80700
C  40.10100 1.03600 29.25600
C  39.96100 0.81400 27.83600
C  38.50300 1.09700 27.58300
C  41.31100 0.97200 30.07900
C  40.90400 0.35700 26.83000
O  40.55700 0.03300 25.70100
C  42.40200 0.32000 27.14800
N  35.54700 1.74900 26.94800
C  36.58000 1.61500 26.05600
C  36.05200 1.98500 24.68900
C  34.45400 1.97300 24.73100
C  34.33200 2.06200 26.27500
C  36.61900 3.44900 24.32100
C  33.78900 0.87200 23.99700
C  32.35600 1.09500 23.44300
N  33.85300 2.14800 29.26100
C  32.86200 2.39500 28.30000
C  31.66900 2.79600 28.91200
C  31.98300 2.87500 30.26700
C  33.35600 2.42700 30.40800
C  30.38800 3.12400 28.29900
C  31.41900 3.15700 31.54700
O  30.21800 3.43700 31.77700
C  32.57100 2.93700 32.64200
C  32.64100 4.21500 33.37700
O  33.37200 5.11400 33.00700
O  31.77800 4.25800 34.40900
C  31.75300 5.45100 35.20200
H  39.42000 1.70800 31.88000
H  38.59600 1.27800 25.48100
H  32.28900 2.33500 26.20100
H  35.49800 3.32300 33.98900
H  37.49600 1.11800 33.96500
H  38.75600 3.53000 33.11100
H  38.84400 2.77900 34.79200
H  37.56500 3.88200 34.27000
H  35.79900 0.67500 35.05400
H  34.32800 0.58600 33.97800
H  34.16200 0.95300 36.45500
H  33.21400 1.94400 35.38100
H  41.67000 -0.02800 30.32300
H  41.23000 1.34500 31.10000
H  42.08000 1.56500 29.58400
H  42.77400 1.27500 27.52000
H  42.88300 0.10400 26.19500
H  42.52200 -0.50700 27.84800
H  36.31700 1.33200 23.85800
H  34.00300 2.91000 24.40500
H  35.81500 4.16800 24.48100
H  36.82800 3.46000 23.25200
H  37.47900 3.70000 24.94200
H  33.65900 0.01300 24.65600
H  34.38700 0.54200 23.14700
H  31.74300 0.49200 24.11400
H  32.27900 0.70300 22.42900
H  31.91200 2.09000 23.44300
H  30.08300 2.73800 27.32600
H  30.21900 4.20100 28.28700
H  29.60000 2.67100 28.90100
H  32.19400 2.30000 33.44200
H  31.41100 5.08700 36.17000
H  31.03500 6.14400 34.76200
H  32.72500 5.91600 35.36800
Mg -11.80600 39.10500 42.70100
C  -10.00700 36.46000 41.50600
C  -9.28900 41.23600 41.53600
C  -14.00400 41.72400 43.08600
C  -14.48300 36.97200 43.57800
N  -9.92000 38.94900 41.51000
C  -9.39500 37.64400 41.19200
C  -8.08700 37.86000 40.43100
C  -7.78700 39.39800 40.48700
C  -9.01200 39.90300 41.31000
C  -6.36700 39.78000 41.09200
C  -8.02800 37.23200 38.92600
C  -6.80900 36.27000 38.69600
H  -5.86700 36.79200 37.64100
N  -11.67800 41.14600 42.37500
C  -10.55500 41.84700 41.87600
C  -10.82100 43.27000 41.86400
C  -12.16700 43.44000 42.31600
C  -12.70900 42.11700 42.63100
C  -9.82600 44.41400 41.43000
C  -12.82800 44.82900 42.41700
O  -12.29600 45.82800 42.01200
C  -14.21500 44.96800 43.02900
N  -13.98900 39.36200 43.19100
C  -14.65700 40.50300 43.42200
C  -16.04300 40.33100 44.01900
C  -16.18600 38.71900 43.85500
C  -14.78100 38.30900 43.54700
C  -16.16100 40.93800 45.47000
C  -17.17800 38.20900 42.73900
C  -18.23600 37.11500 43.26000
N  -12.15700 37.09600 42.78100
C  -13.22700 36.39100 43.11100
C  -12.86700 34.98400 42.94600
C  -11.59900 35.00800 42.31300
C  -11.29500 36.32000 42.10400
C  -13.66400 33.73800 43.36800
C  -10.55900 34.13100 41.75700
O  -10.51400 32.90700 41.70300
C  -9.48900 35.01900 41.26400
C  -8.33700 34.66000 42.14700
O  -8.37500 34.43200 43.37400
O  -7.24300 34.54400 41.36900
C  -5.98400 34.23900 42.01000
H  -8.51100 41.94500 41.24400
H  -14.62400 42.60000 43.29000
H  -15.18200 36.20600 43.92000
H  -7.39700 37.36200 41.11200
H  -7.65500 39.80200 39.48300
H  -6.00700 38.98700 41.74700
H  -6.60400 40.61100 41.75600
H  -5.62900 40.08000 40.34800
H  -8.02600 38.00700 38.16000
H  -8.90100 36.64700 38.63600
H  -7.21900 35.26800 38.57500
H  -6.18300 36.24700 39.58800
H  -10.24800 44.97100 40.59300
H  -8.83000 43.98300 41.32800
H  -9.75900 45.22800 42.15200
H  -14.85200 44.45600 42.30700
H  -14.50400 46.01700 43.08700
H  -14.25600 44.60600 44.05600
H  -16.74200 40.84900 43.36300
H  -16.39000 38.22900 44.80700
H  -15.23700 41.41900 45.79200
H  -16.36000 40.17300 46.22100
H  -16.96400 41.67500 45.49300
H  -16.63300 37.80200 41.88800
H  -17.84800 39.01000 42.42800
H  -19.16500 37.39300 42.76200
H  -18.37000 37.14500 44.34100
H  -17.92200 36.18200 42.79200
H  -14.13400 33.89200 44.33900
H  -12.96500 32.90200 43.34900
H  -14.43200 33.55700 42.61700
H  -9.28800 34.84900 40.20600
H  -5.95600 33.15100 41.95700
H  -5.89500 34.73500 42.97700
H  -5.35100 34.73600 41.27500

