158

Mg 46.80300 16.06700 27.95200
C  44.97400 15.62700 30.88500
C  49.27300 17.48000 29.76900
C  48.21000 17.12000 25.02700
C  43.99200 14.83300 26.19200
N  46.87800 16.82000 30.06500
C  46.17700 16.31000 31.11600
C  46.71500 16.69900 32.47000
C  47.93000 17.56000 31.95600
C  48.13900 17.16100 30.50700
C  47.70400 19.09200 31.89800
C  47.16300 15.43100 33.23600
C  46.94300 15.38200 34.78000
H  46.79500 16.59800 35.59600
N  48.55300 17.00000 27.53600
C  49.41900 17.51200 28.38200
C  50.53700 18.11700 27.72100
C  50.25900 18.04100 26.35300
C  48.95700 17.39900 26.21500
C  51.62900 18.87200 28.41900
C  51.04700 18.59400 25.14800
O  50.56400 18.62500 24.01100
C  52.45900 18.98300 25.40300
N  46.24400 15.89700 25.95000
C  47.01900 16.45800 24.90000
C  46.27400 16.27900 23.52600
C  45.17300 15.30800 23.93500
C  45.13200 15.32800 25.46400
C  45.81200 17.53400 22.75200
C  45.18500 13.77200 23.44300
C  43.73700 13.28300 23.12200
N  44.86600 15.33200 28.38700
C  43.86500 14.82800 27.57500
C  42.74300 14.34300 28.37400
C  43.15100 14.69400 29.71400
C  44.46300 15.27700 29.63800
C  41.40600 13.87200 27.89800
C  42.73200 14.67900 31.09600
O  41.64600 14.30700 31.53400
C  43.88600 15.31300 31.91400
C  43.35600 16.52700 32.60700
O  43.30800 17.63400 32.16200
O  42.85900 16.03400 33.84600
C  42.67500 17.10900 34.85300
H  49.97900 18.00400 30.41800
H  48.63000 17.39000 24.05600
H  43.17800 14.46000 25.56600
H  46.18100 17.45800 33.04100
H  48.84000 17.41500 32.53900
H  46.76600 19.29100 32.41500
H  47.52700 19.49900 30.90300
H  48.50400 19.69200 32.33000
H  48.22800 15.36300 33.01600
H  46.75800 14.53300 32.76900
H  47.71000 14.72700 35.19400
H  46.06900 14.73800 34.88200
H  52.54000 18.46400 27.98100
H  51.68100 18.61000 29.47600
H  51.66500 19.95800 28.32900
H  52.57700 19.88300 26.00700
H  52.88700 19.16900 24.41800
H  52.94000 18.09900 25.82300
H  46.99400 15.82000 22.84900
H  44.26700 15.78200 23.55600
H  46.11400 18.43000 23.29500
H  44.76500 17.51500 22.45100
H  46.42300 17.47700 21.85100
H  45.65300 13.04800 24.11000
H  45.79300 13.53900 22.56800
H  43.42400 12.54900 23.86400
H  43.61000 12.85200 22.12900
H  43.02700 14.10300 23.23600
H  41.05300 13.11200 28.59600
H  41.51300 13.39400 26.92500
H  40.74100 14.71700 27.72000
H  44.16400 14.63100 32.71700
H  43.23200 17.98700 34.52700
H  42.96100 16.90800 35.88500
H  41.61100 17.32800 34.76000
Mg 41.72300 41.14500 27.30500
C  41.50600 43.80900 29.67900
C  42.60400 39.16100 29.84100
C  42.35400 38.86100 25.05900
C  41.61900 43.59500 24.79600
N  42.03100 41.51600 29.49200
C  41.79300 42.59700 30.29200
C  41.68400 42.22900 31.74200
C  42.24800 40.75600 31.71700
C  42.24800 40.43500 30.26100
C  43.59400 40.66700 32.40000
C  40.22400 42.37400 32.27800
C  40.13400 42.77400 33.72800
H  39.56500 41.69700 34.69000
N  42.25200 39.26100 27.48000
C  42.66400 38.56600 28.59300
C  43.03200 37.18100 28.26100
C  42.88500 37.07200 26.82200
C  42.44400 38.47200 26.40800
C  43.43700 36.06100 29.30100
C  43.13900 35.97900 25.94200
O  42.75100 35.95100 24.79400
C  43.69900 34.61800 26.41100
N  42.02400 41.22800 25.24300
C  42.15000 40.08300 24.51100
C  42.09200 40.34600 22.99300
C  41.70800 41.93000 22.96200
C  41.85200 42.28900 24.38700
C  43.52400 40.14700 22.31100
C  40.30000 42.25300 22.42100
C  39.17600 41.52500 23.08900
N  41.55700 43.27400 27.16400
C  41.45500 44.06900 26.05700
C  41.15700 45.42100 26.52400
C  41.12400 45.38600 27.89500
C  41.45000 44.05900 28.24200
C  40.96500 46.61000 25.70100
C  40.81100 46.11300 29.09100
O  40.33200 47.24200 29.14000
C  41.03400 45.19700 30.33300
C  41.90000 45.77700 31.38700
O  43.09800 45.99700 31.24000
O  41.16900 45.82200 32.60500
C  42.06900 46.13300 33.71600
H  43.04600 38.45400 30.54600
H  42.43800 38.13400 24.24800
H  41.48200 44.37700 24.04600
H  42.37300 42.78300 32.37900
H  41.57000 40.05300 32.20100
H  44.22300 39.87800 31.98900
H  43.27100 40.44100 33.41600
H  44.17800 41.58300 32.49000
H  39.70700 41.43500 32.08200
H  39.70700 43.08100 31.63000
H  39.46500 43.63400 33.74700
H  41.03800 43.13300 34.22100
H  44.36300 35.52000 29.10400
H  42.63100 35.33200 29.38800
H  43.65600 36.47500 30.28500
H  42.93000 34.18500 27.05100
H  44.55800 34.81000 27.05400
H  44.06900 33.95200 25.63100
H  41.36300 39.82100 22.37500
H  42.40600 42.57000 22.42300
H  43.85800 41.13900 22.00500
H  43.50300 39.42000 21.49900
H  44.15800 39.69100 23.07200
H  40.17300 42.03200 21.36100
H  40.11000 43.32700 22.40500
H  38.37200 42.21000 23.35900
H  39.39200 40.96900 24.00100
H  38.71200 40.83900 22.38000
H  40.98000 46.53300 24.61400
H  41.80800 47.26700 25.91800
H  40.06500 47.13700 26.01500
H  40.02400 45.05700 30.71800
H  43.07600 46.47000 33.47100
H  41.96500 45.29500 34.40700
H  41.62900 47.01600 34.17900

