158

Mg 9.06300 3.84600 27.64200
C  10.14300 2.10500 30.51800
C  6.68500 5.47100 29.61400
C  7.85400 5.23100 24.80400
C  10.98000 1.55400 25.76400
N  8.42700 3.65800 29.77900
C  9.15800 3.06400 30.85400
C  8.67400 3.49200 32.20800
C  7.58300 4.56100 31.87800
C  7.55900 4.56100 30.32700
C  6.12900 4.19000 32.44100
C  9.69700 4.04100 33.16000
C  9.31600 5.09500 34.16600
H  10.03000 5.06000 35.57300
N  7.51100 5.24400 27.26100
C  6.62000 5.76700 28.21000
C  5.79200 6.75200 27.53900
C  6.17200 6.67600 26.12100
C  7.26900 5.75800 25.99800
C  4.73700 7.51600 28.26900
C  5.64600 7.46700 24.94200
O  5.95100 7.23300 23.77100
C  4.76600 8.53400 25.30300
N  9.38600 3.39500 25.61200
C  8.75400 4.16500 24.63600
C  9.13600 3.75500 23.17100
C  10.16400 2.56800 23.49200
C  10.17900 2.47200 25.02700
C  8.00200 3.46500 22.15200
C  11.50800 2.76500 22.88200
C  11.75300 1.87400 21.69400
N  10.35200 2.22100 28.01000
C  11.13800 1.40300 27.14000
C  11.95500 0.47300 27.83200
C  11.60300 0.69500 29.21600
C  10.64000 1.78500 29.23800
C  12.92500 -0.54100 27.13600
C  11.90600 0.35200 30.62500
O  12.76300 -0.37300 31.05900
C  10.88300 1.26300 31.47400
C  9.99700 0.50400 32.33200
O  8.98200 -0.10800 31.98400
O  10.40800 0.58900 33.63400
C  9.60600 -0.05800 34.67300
H  6.18000 6.20500 30.24600
H  7.58600 5.70100 23.85500
H  11.56100 0.92700 25.08400
H  8.27500 2.57800 32.64700
H  7.80800 5.58900 32.16500
H  6.14600 3.50600 33.29000
H  5.50200 3.88900 31.60200
H  5.75600 5.12300 32.86300
H  10.59300 4.25200 32.57600
H  9.90600 3.22800 33.85400
H  8.25400 5.05900 34.40800
H  9.67300 5.97500 33.63100
H  3.76100 7.57000 27.78600
H  5.16300 8.50700 28.42600
H  4.49700 7.07500 29.23600
H  4.65100 9.10100 24.37900
H  5.28300 9.05500 26.10900
H  3.78000 8.31700 25.71300
H  9.61100 4.65800 22.78700
H  9.77200 1.59200 23.20300
H  7.61200 4.36800 21.68300
H  7.13400 2.87400 22.44300
H  8.52900 2.99000 21.32400
H  12.26400 2.79500 23.66600
H  11.51400 3.80200 22.54700
H  11.06400 1.02900 21.66100
H  12.77400 1.57100 21.46300
H  11.46300 2.48700 20.84000
H  13.02100 -0.39500 26.06000
H  12.65400 -1.57300 27.35900
H  13.84300 -0.50900 27.72200
H  11.51300 1.96400 32.02100
H  10.08400 -0.98800 34.98400
H  8.62400 -0.33400 34.28800
H  9.41200 0.63900 35.48800
Mg 48.55600 34.89200 26.49400
C  46.42200 33.60600 29.00300
C  49.02500 37.65100 28.42000
C  50.15600 36.24800 23.88800
C  47.64500 32.13000 24.51700
N  47.71000 35.54600 28.48000
C  47.08400 34.73400 29.39500
C  47.14100 35.36400 30.75800
C  47.85800 36.73300 30.54700
C  48.26200 36.58000 29.06700
C  46.98000 37.98900 30.84100
C  47.97100 34.37200 31.71300
C  47.64600 34.49800 33.19500
H  46.72800 35.58700 33.57800
N  49.50500 36.76500 26.18100
C  49.58500 37.76300 27.13700
C  50.37300 38.82000 26.53700
C  50.49800 38.56500 25.15600
C  50.04600 37.18000 24.96400
C  50.83500 40.03700 27.30800
C  51.07200 39.47100 23.96300
O  51.08700 39.05300 22.82600
C  51.43200 40.88300 24.22300
N  48.79900 34.29700 24.52200
C  49.61600 34.99200 23.63000
C  50.07200 34.21000 22.42400
C  49.22900 32.85200 22.61100
C  48.51700 33.08600 23.99100
C  49.88900 34.97600 21.12900
C  50.17600 31.54200 22.58200
C  50.87500 31.19300 21.24000
N  47.30500 33.21200 26.67500
C  47.02800 32.17000 25.76300
C  46.00900 31.25700 26.29700
C  45.78500 31.78600 27.55800
C  46.53700 32.98900 27.73400
C  45.49200 30.02800 25.57400
C  44.92400 31.62700 28.75300
O  44.08900 30.76200 29.04200
C  45.25100 32.85000 29.73100
C  45.54400 32.30000 31.09700
O  46.38400 31.39600 31.35500
O  44.51000 32.76300 31.98600
C  44.57800 32.38200 33.43200
H  49.31000 38.48200 29.06800
H  50.73800 36.60500 23.03600
H  47.52200 31.20000 23.95800
H  46.11800 35.51900 31.09900
H  48.78500 36.88000 31.10100
H  47.70100 38.74400 31.15400
H  46.28600 37.80200 31.66100
H  46.48900 38.18900 29.88900
H  49.04000 34.57000 31.78700
H  47.88500 33.33800 31.38000
H  48.54900 34.73100 33.76000
H  47.21900 33.59100 33.62300
H  50.54700 40.09500 28.35800
H  50.50700 40.95500 26.82100
H  51.91500 40.16300 27.23000
H  52.02700 40.92100 25.13600
H  50.49300 41.42200 24.35200
H  51.85900 41.35200 23.33700
H  51.11000 34.00000 22.68200
H  48.44300 32.77000 21.86100
H  49.03600 34.57200 20.58200
H  50.87500 34.85200 20.68300
H  49.51400 35.99600 21.21400
H  49.52700 30.73000 22.90800
H  50.93700 31.63600 23.35700
H  50.68100 31.97100 20.50100
H  50.47700 30.26600 20.82700
H  51.95400 31.24000 21.38500
H  44.42000 30.02900 25.77400
H  45.94200 29.17600 26.08300
H  45.66300 29.94000 24.50100
H  44.37300 33.49400 29.67600
H  44.95700 33.24200 33.98500
H  45.13100 31.47100 33.65900
H  43.51700 32.24200 33.63700

