158

Mg 36.37900 49.39000 24.92200
C  36.31200 47.50700 27.86900
C  35.01500 51.98100 26.51800
C  36.14000 50.92200 21.88400
C  37.56600 46.48600 23.24200
N  35.64400 49.64500 26.92100
C  35.89700 48.84200 28.03000
C  35.64100 49.59900 29.31600
C  35.01900 50.96900 28.78700
C  35.22600 50.89700 27.32100
C  33.52400 51.17000 29.20600
C  36.88400 49.77200 30.13200
C  36.76600 49.66600 31.60800
H  35.39400 49.79100 32.40500
N  35.69400 51.27700 24.31300
C  35.18500 52.19700 25.13700
C  34.93900 53.38300 24.41500
C  35.37600 53.12000 23.05700
C  35.77700 51.73500 23.04000
C  34.13900 54.57600 24.87500
C  35.50300 54.02500 21.85300
O  36.01000 53.72400 20.75800
C  35.16800 55.48200 22.09400
N  36.62700 48.76200 22.90000
C  36.44600 49.57200 21.85300
C  36.64800 48.85400 20.51600
C  37.40400 47.57500 20.95900
C  37.17400 47.56100 22.42600
C  35.26800 48.54500 19.83200
C  38.92400 47.67900 20.62000
C  39.60600 46.51400 19.83600
N  36.90400 47.39900 25.47300
C  37.35600 46.34300 24.66000
C  37.69300 45.26400 25.50400
C  37.35500 45.67500 26.77800
C  36.77800 46.91500 26.69700
C  38.47000 44.03200 25.02000
C  37.30100 45.25600 28.14100
O  37.56200 44.17500 28.64800
C  36.68500 46.50300 28.93900
C  35.50400 46.06100 29.66600
O  34.53300 45.56600 29.18500
O  35.72100 46.17500 31.08600
C  34.83300 45.43400 32.00900
H  34.67800 52.86100 27.07000
H  36.02000 51.40000 20.91000
H  38.02800 45.58500 22.83200
H  34.94100 49.03000 29.92700
H  35.53400 51.82600 29.22000
H  33.13100 50.29100 29.71600
H  32.85500 51.37700 28.37100
H  33.42600 52.06100 29.82600
H  37.33100 50.71900 29.83000
H  37.61000 49.02600 29.80700
H  37.51300 50.28900 32.09900
H  37.05400 48.62300 31.74500
H  33.48900 54.94200 24.08100
H  34.87400 55.36400 25.04100
H  33.57000 54.48300 25.80000
H  35.59300 56.02500 22.93800
H  34.10500 55.69300 21.97900
H  35.50300 55.88500 21.13800
H  37.19500 49.52500 19.85300
H  37.04100 46.61200 20.59900
H  35.02000 49.25700 19.04500
H  34.49600 48.57700 20.60100
H  35.22400 47.57100 19.34500
H  39.46200 47.77800 21.56300
H  39.14900 48.58200 20.05200
H  38.88600 45.70900 19.68500
H  40.31100 46.04500 20.52200
H  40.14700 46.81900 18.94000
H  39.06000 44.20500 24.12000
H  37.66200 43.36200 24.72500
H  39.09700 43.57000 25.78300
H  37.41000 46.83000 29.68400
H  34.56300 44.47200 31.57500
H  33.93200 46.01600 32.20200
H  35.38200 45.34800 32.94700
Mg -11.45100 16.16500 41.47400
C  -8.86400 13.91400 41.11100
C  -9.68800 18.64600 39.95100
C  -14.40600 17.91600 40.86800
C  -13.57000 13.29800 42.18700
N  -9.61500 16.19100 40.53700
C  -8.64000 15.19800 40.61700
C  -7.27100 15.71800 40.26000
C  -7.55200 17.27900 40.08900
C  -9.06400 17.37100 40.16100
C  -6.76300 18.05100 41.17000
C  -6.61000 15.10600 38.96000
C  -5.13000 15.08100 38.65300
H  -4.77400 15.42600 37.20000
N  -11.97100 18.07300 40.69700
C  -11.09900 18.91800 40.09300
C  -11.74900 20.19100 39.85100
C  -13.10000 20.03600 40.25400
C  -13.21500 18.62400 40.64300
C  -10.95500 21.35400 39.40200
C  -14.13900 21.08100 40.21200
O  -13.91900 22.15000 39.71500
C  -15.46800 20.90300 40.95600
N  -13.72900 15.56100 41.32300
C  -14.73200 16.60000 41.16800
C  -16.13100 15.94200 41.15800
C  -15.72200 14.54600 41.70200
C  -14.25400 14.42200 41.81800
C  -17.00000 16.80300 42.05700
C  -16.47700 13.38400 40.93100
C  -17.05100 12.24800 41.77800
N  -11.25100 14.04600 41.82400
C  -12.14200 13.02800 42.12900
C  -11.39000 11.86300 42.45700
C  -10.07500 12.15700 42.08000
C  -10.08200 13.47900 41.71700
C  -12.02800 10.56200 42.97000
C  -8.75700 11.59900 41.99600
O  -8.36700 10.49500 42.23300
C  -7.85600 12.81200 41.49600
C  -6.88900 13.29500 42.48400
O  -7.11500 13.74600 43.59600
O  -5.60700 13.18200 42.00300
C  -4.53600 13.61300 42.89500
H  -8.93100 19.37600 39.65700
H  -15.30600 18.44700 40.55100
H  -14.15700 12.46000 42.56900
H  -6.57500 15.58500 41.08700
H  -7.22300 17.68500 39.13200
H  -6.14300 17.39200 41.77800
H  -7.42700 18.58500 41.84900
H  -6.13800 18.78200 40.65600
H  -7.22500 15.49700 38.14900
H  -6.94000 14.06900 39.02500
H  -4.84900 14.04000 38.81000
H  -4.70700 15.95400 39.14900
H  -10.25300 21.59400 40.20100
H  -11.53600 22.25000 39.18500
H  -10.48300 20.98300 38.49300
H  -16.34700 20.62700 40.37200
H  -15.68600 21.89400 41.35500
H  -15.31700 20.33700 41.87500
H  -16.45800 15.82400 40.12500
H  -16.06100 14.49600 42.73700
H  -16.42900 17.53000 42.63500
H  -17.72400 16.22600 42.63200
H  -17.70200 17.41500 41.49200
H  -15.80300 12.90200 40.22200
H  -17.34900 13.79000 40.42000
H  -16.84800 11.30800 41.26600
H  -18.11900 12.31400 41.98400
H  -16.54300 12.24300 42.74300
H  -12.77300 10.88300 43.69800
H  -11.38000 9.81400 43.42500
H  -12.57400 10.07200 42.16300
H  -7.26200 12.54100 40.62300
H  -3.69300 13.71200 42.21100
H  -4.28600 12.81300 43.59100
H  -4.73500 14.60800 43.29500

