158

Mg 49.31500 35.30000 27.43600
C  47.34800 33.85900 29.87400
C  49.70600 38.08100 29.25700
C  51.26800 36.55200 24.89300
C  48.54300 32.55200 25.32800
N  48.67000 35.85800 29.37400
C  47.97400 35.11400 30.30800
C  47.71200 35.89700 31.62400
C  48.03700 37.37900 31.22100
C  48.89400 37.14500 29.93000
C  46.81100 38.37900 31.31200
C  48.64200 35.36500 32.73400
C  48.11000 34.72900 34.00800
H  48.77200 35.22200 35.29300
N  50.18300 37.14000 27.05800
C  50.31700 38.12800 27.94900
C  51.01100 39.33400 27.38600
C  51.53400 38.88300 26.12300
C  51.04500 37.42700 25.92600
C  51.12100 40.70100 28.10400
C  52.35400 39.67700 25.09400
O  52.70700 39.23400 24.01500
C  52.71900 41.07500 25.40400
N  49.86800 34.61800 25.46100
C  50.71100 35.31900 24.61400
C  51.08900 34.56000 23.33600
C  50.13900 33.30700 23.40600
C  49.37200 33.51800 24.80000
C  51.00600 35.27000 21.99300
C  50.73500 31.87400 23.14700
C  51.95200 31.76200 22.34000
N  48.20500 33.52700 27.51600
C  47.92800 32.52800 26.59900
C  47.01200 31.53900 27.20300
C  46.80300 31.99800 28.52700
C  47.56100 33.22000 28.62400
C  46.44300 30.32100 26.60700
C  46.04300 31.80100 29.79800
O  45.23500 30.92600 30.14100
C  46.55300 32.94700 30.68800
C  47.11200 32.24200 31.82900
O  48.30100 31.98200 31.94800
O  46.14200 31.85900 32.70600
C  46.59900 30.99500 33.87700
H  49.73200 39.05700 29.74500
H  51.92800 36.90700 24.09800
H  48.39100 31.70300 24.65800
H  46.69100 35.84400 32.00300
H  48.82500 37.78500 31.85500
H  45.87500 37.83700 31.17700
H  46.99200 39.11300 30.52700
H  46.82600 38.93600 32.24800
H  49.37800 36.11500 33.02100
H  49.22800 34.59800 32.22800
H  48.36600 33.67000 33.96700
H  47.02300 34.74800 33.91900
H  52.09800 40.69700 28.58800
H  50.36800 40.62600 28.88800
H  50.92500 41.62100 27.55300
H  53.28100 41.07400 26.33700
H  51.85100 41.68500 25.65700
H  53.36400 41.52500 24.64900
H  52.14400 34.36200 23.52400
H  49.33300 33.46100 22.68900
H  50.60500 36.28000 22.07700
H  50.46500 34.80600 21.16800
H  52.02600 35.44700 21.65300
H  50.00900 31.25100 22.62500
H  50.79200 31.35400 24.10300
H  52.73200 31.83600 23.09800
H  51.88200 32.51100 21.55100
H  52.02000 30.77400 21.88500
H  47.27300 29.75000 26.19000
H  45.88200 30.69500 25.75100
H  45.80800 29.83700 27.34900
H  45.72300 33.47600 31.15600
H  45.69900 30.93300 34.48900
H  47.41900 31.51600 34.37200
H  46.95900 30.01100 33.57800
Mg 6.48800 54.23700 41.94000
C  5.75300 50.89700 41.31500
C  9.14800 54.04400 39.93200
C  6.55800 57.67300 41.90200
C  3.05600 54.59600 43.27700
N  7.10400 52.81400 40.39600
C  6.83200 51.45300 40.53600
C  7.74000 50.58600 39.66600
C  9.00600 51.46100 39.81500
C  8.41000 52.83900 39.93100
C  9.93600 51.00400 40.95900
C  7.33500 50.49900 38.20000
C  8.10500 49.33200 37.43500
H  7.35500 48.44700 36.44700
N  7.71800 55.66800 41.10400
C  8.78300 55.37900 40.26900
C  9.56800 56.54400 40.05800
C  8.88200 57.59500 40.63900
C  7.63800 57.06900 41.21900
C  10.97200 56.51600 39.56000
C  9.38100 59.10000 40.79500
O  10.42700 59.42000 40.31500
C  8.61400 60.07300 41.60600
N  4.94600 55.91000 42.36600
C  5.37300 57.18500 42.49600
C  4.33300 58.10200 43.16900
C  3.17400 57.11900 43.33500
C  3.69700 55.77600 42.94400
C  4.84400 58.77000 44.45200
C  1.94900 57.46300 42.50800
C  1.26300 58.87300 42.73900
N  4.76900 53.03100 42.34800
C  3.54300 53.30800 42.99900
C  2.93000 52.01200 43.28700
C  3.73800 51.03100 42.72800
C  4.89200 51.65400 42.12800
C  1.58800 51.80900 43.97300
C  3.91200 49.61100 42.48300
O  3.26900 48.64300 42.84800
C  5.24000 49.49800 41.41400
C  4.67300 48.99800 40.16300
O  3.91300 49.64400 39.40900
O  5.08000 47.71800 39.96500
C  4.55800 46.98900 38.83000
H  10.13000 53.85900 39.49100
H  6.44400 58.74700 42.06300
H  2.11800 54.73900 43.81600
H  7.74400 49.64700 40.21900
H  9.59300 51.43200 38.89700
H  9.65800 50.00700 41.30000
H  9.92000 51.69400 41.80300
H  10.98100 50.98400 40.65200
H  7.59100 51.45300 37.73900
H  6.24700 50.54600 38.16700
H  8.57000 48.65500 38.15200
H  8.89800 49.83400 36.88100
H  11.11800 55.71100 38.83900
H  11.67200 56.24800 40.35100
H  11.33400 57.45800 39.14600
H  9.05800 61.05300 41.43600
H  8.70100 59.73000 42.63700
H  7.56700 60.25400 41.36300
H  4.06300 58.90100 42.47800
H  2.90300 57.05000 44.38900
H  4.62700 58.20100 45.35600
H  4.37300 59.72700 44.67200
H  5.92500 58.87500 44.54400
H  1.21900 56.68400 42.72800
H  2.22800 57.39300 41.45700
H  1.38200 59.48000 41.84200
H  1.67000 59.38600 43.61100
H  0.22500 58.68200 43.01300
H  0.95400 52.64700 43.68300
H  1.82500 51.73400 45.03400
H  1.07100 50.90100 43.66200
H  5.99600 48.78200 41.73900
H  4.95600 47.25600 37.85100
H  3.47000 46.94900 38.78800
H  4.76800 45.92700 38.95900

