158

Mg 44.16000 3.67600 47.18600
C  42.13100 6.54200 46.72200
C  41.33600 1.77400 47.05300
C  46.16200 0.90500 47.27900
C  46.92200 5.73700 46.81600
N  41.93700 4.12500 46.68300
C  41.38900 5.35100 46.77500
C  39.80000 5.24600 46.83900
C  39.61900 3.68700 46.84100
C  41.04300 3.12500 46.86600
C  38.63100 3.17500 47.94200
C  39.18000 6.01900 45.68700
C  39.88900 5.88300 44.32900
H  38.91000 5.46500 43.23500
N  43.76000 1.61400 47.05000
C  42.54100 1.05000 47.12300
C  42.82100 -0.38600 47.29100
C  44.16100 -0.70100 47.10000
C  44.76800 0.63100 47.09100
C  41.66100 -1.34800 47.37800
C  44.81100 -2.04800 47.02200
O  44.15000 -3.11800 47.18800
C  46.34900 -2.22600 46.76100
N  46.23700 3.35200 46.94800
C  46.80500 2.18900 47.29500
C  48.30300 2.29000 47.62700
C  48.57900 3.81400 47.32800
C  47.17900 4.37100 46.97100
C  48.61900 1.82300 49.06200
C  49.58900 4.12100 46.20900
C  51.02300 4.53700 46.79600
N  44.47300 5.67600 46.78500
C  45.65700 6.39300 46.66300
C  45.42400 7.83300 46.58300
C  44.02200 7.93900 46.63200
C  43.50700 6.62500 46.68000
C  46.46800 8.88900 46.39000
C  42.92600 8.87700 46.52200
O  42.99600 10.12600 46.30800
C  41.63000 8.01700 46.69900
C  40.96400 8.43100 47.91700
O  41.34300 8.19100 49.05100
O  39.85100 9.14100 47.60000
C  39.25700 9.89000 48.72100
H  40.40300 1.20700 47.05300
H  46.84600 0.09000 47.52500
H  47.73800 6.46000 46.87100
H  39.66400 5.68400 47.82800
H  39.30900 3.38000 45.84200
H  38.70200 2.11200 48.16900
H  37.62400 3.40200 47.59100
H  38.76300 3.77000 48.84600
H  39.02700 7.04000 46.03800
H  38.18800 5.58200 45.57000
H  40.61300 5.07900 44.19500
H  40.26900 6.87400 44.08300
H  41.59500 -1.73500 48.39500
H  41.70300 -2.15400 46.64500
H  40.76000 -0.78300 47.14200
H  46.77200 -2.16200 47.76400
H  46.65200 -1.34700 46.19100
H  46.55700 -3.15600 46.23200
H  48.85000 1.61900 46.96500
H  48.91000 4.21000 48.28900
H  48.07000 0.88600 49.15800
H  48.16500 2.56900 49.71300
H  49.61400 1.54300 49.40900
H  49.23900 4.84000 45.46800
H  49.84400 3.23300 45.63200
H  51.85600 4.10800 46.23900
H  51.15300 4.20700 47.82700
H  50.97800 5.62500 46.84300
H  45.93700 9.72500 45.93500
H  47.27400 8.60200 45.71600
H  47.01000 9.22800 47.27300
H  40.93100 8.19000 45.88000
H  38.69000 10.78300 48.45700
H  40.01600 10.39500 49.31800
H  38.64000 9.31600 49.41300
Mg 47.09000 16.31800 28.48500
C  45.22700 15.47500 31.26200
C  48.74500 18.61600 30.27700
C  48.86300 17.19500 25.69000
C  45.05700 14.31900 26.53700
N  46.91700 16.96600 30.52700
C  46.22900 16.39000 31.52800
C  46.68900 16.90300 32.92400
C  47.63200 18.08000 32.55300
C  47.81300 17.82100 31.04100
C  47.13100 19.51900 32.92500
C  47.37800 15.83100 33.77600
C  47.12600 15.80100 35.31900
H  48.38200 15.81900 36.26400
N  48.67400 17.59700 28.07200
C  49.28200 18.39900 28.99400
C  50.44500 19.02800 28.41100
C  50.49700 18.66100 27.09700
C  49.34100 17.73600 26.87600
C  51.53100 19.64700 29.35000
C  51.47300 19.09300 25.93600
O  51.43200 18.69600 24.77300
C  52.63900 19.88400 26.36400
N  47.06300 15.69400 26.41600
C  47.90500 16.15400 25.45700
C  47.41600 15.71300 24.03400
C  46.42100 14.58900 24.44200
C  46.14500 14.84800 25.86300
C  46.67400 16.80000 23.26300
C  47.01800 13.19100 24.40700
C  47.03700 12.39600 23.07000
N  45.38700 15.24000 28.74400
C  44.68000 14.44900 27.88400
C  43.57500 13.73700 28.49600
C  43.79700 14.09600 29.86800
C  44.87700 14.99900 29.92900
C  42.46300 12.88100 27.93900
C  43.33500 13.95000 31.30500
O  42.40200 13.27800 31.72500
C  44.28200 14.74900 32.27700
C  43.46600 15.82900 32.97600
O  42.79100 16.69900 32.46400
O  43.41600 15.57300 34.36500
C  42.50300 16.27600 35.19300
H  49.39200 19.29000 30.84200
H  49.44800 17.51600 24.82600
H  44.31500 13.80900 25.92000
H  45.79300 17.28800 33.41300
H  48.63800 17.90400 32.93400
H  46.27700 19.80300 32.31000
H  47.96600 20.21000 32.81500
H  46.74100 19.47900 33.94200
H  48.46100 15.94800 33.74500
H  47.12300 14.83000 33.42700
H  46.46000 14.99400 35.62400
H  46.58400 16.74300 35.40100
H  51.35800 20.72300 29.36000
H  52.55400 19.42600 29.04600
H  51.41400 19.34400 30.39100
H  52.28800 20.78100 26.87400
H  53.23700 20.18700 25.50500
H  53.25400 19.26700 27.02000
H  48.25500 15.38500 23.42000
H  45.47200 14.55300 23.90900
H  45.65800 16.59300 22.92900
H  47.34400 16.91500 22.41100
H  46.59400 17.78200 23.72800
H  46.38800 12.57000 25.04300
H  47.99700 13.25100 24.88300
H  46.61700 11.43500 23.36900
H  48.09300 12.30100 22.81700
H  46.56400 12.86200 22.20600
H  41.86200 13.47300 27.25000
H  41.73600 12.64900 28.71700
H  42.86400 12.00000 27.43600
H  44.65300 14.03700 33.01500
H  41.67400 16.65400 34.59500
H  43.05300 17.13300 35.58200
H  42.19900 15.59600 35.98800

