158

Mg -2.38000 17.15800 26.24700
C  -2.75400 15.12900 29.15900
C  -2.72500 19.88300 28.15100
C  -2.70500 19.16300 23.39500
C  -2.51600 14.28000 24.24600
N  -2.65700 17.41300 28.37900
C  -2.70400 16.52200 29.42000
C  -2.89400 17.18600 30.80800
C  -2.85800 18.68600 30.35600
C  -2.69100 18.67700 28.87100
C  -4.05600 19.46600 31.02200
C  -1.87700 16.77700 31.89600
C  -1.74800 17.85900 32.97100
H  -1.26200 17.27000 34.31100
N  -2.55900 19.29500 25.90100
C  -2.71700 20.21700 26.84100
C  -2.79900 21.55700 26.27000
C  -2.75800 21.37200 24.88800
C  -2.64700 19.89500 24.67400
C  -2.83300 22.77200 27.09200
C  -2.80500 22.39500 23.74600
O  -2.67800 21.96300 22.55300
C  -2.90100 23.88300 23.96600
N  -2.67700 16.75200 24.14400
C  -2.65300 17.77400 23.17400
C  -2.59200 17.12800 21.70100
C  -2.43700 15.61000 22.05000
C  -2.54000 15.51000 23.58800
C  -3.71800 17.48200 20.73500
C  -1.11200 14.92500 21.45100
C  -1.26000 14.01800 20.22100
N  -2.48100 15.06500 26.57200
C  -2.58600 14.03700 25.67000
C  -2.68200 12.81000 26.43300
C  -2.85600 13.18300 27.76500
C  -2.65800 14.58400 27.82900
C  -2.73400 11.38300 25.83500
C  -3.03700 12.74200 29.17700
O  -3.02800 11.62100 29.64000
C  -2.99300 13.99600 30.08400
C  -1.89800 13.75700 31.03600
O  -0.75700 14.12000 30.83100
O  -2.32000 13.16100 32.17300
C  -1.37500 13.01000 33.26000
H  -2.79600 20.75600 28.80200
H  -2.95600 19.72700 22.49400
H  -2.48200 13.37600 23.63500
H  -3.94900 16.99400 31.00700
H  -1.94800 19.17400 30.70600
H  -4.56800 20.18600 30.38300
H  -3.68200 20.04400 31.86700
H  -4.82600 18.84100 31.47400
H  -0.94900 16.49500 31.39800
H  -2.30200 15.92700 32.42900
H  -2.65100 18.45800 33.08900
H  -0.95400 18.46000 32.52700
H  -2.14900 22.58700 27.92100
H  -3.82400 22.85800 27.53900
H  -2.49400 23.63600 26.52100
H  -3.66700 23.98900 24.73400
H  -3.05600 24.42400 23.03300
H  -1.99900 24.33700 24.37700
H  -1.68600 17.46000 21.19300
H  -3.37400 15.09500 21.83800
H  -4.10200 16.61100 20.20500
H  -3.47300 18.24100 19.99200
H  -4.55900 17.90400 21.28600
H  -0.94100 14.15800 22.20700
H  -0.34100 15.66700 21.24400
H  -1.10000 14.64800 19.34600
H  -2.25600 13.57600 20.19800
H  -0.43700 13.30400 20.20900
H  -1.77300 10.91600 26.04900
H  -2.91900 11.36200 24.76100
H  -3.63100 11.01000 26.32900
H  -3.91800 14.13400 30.64400
H  -1.55300 12.00500 33.64400
H  -1.53100 13.71300 34.07900
H  -0.35800 13.01800 32.87000
Mg 1.87500 -2.18100 44.36300
C  5.26900 -0.96800 44.04100
C  0.98100 0.42400 42.46400
C  -1.03100 -3.65100 44.20300
C  3.25800 -5.15700 45.81200
N  3.01900 -0.55900 43.14100
C  4.38600 -0.28400 43.22700
C  4.65400 0.99200 42.48700
C  3.22500 1.63200 42.41400
C  2.35000 0.45000 42.80300
C  3.08300 2.94300 43.35100
C  5.45200 0.75600 41.17700
C  6.86000 1.37800 41.26800
H  7.93100 1.22300 40.20100
N  0.17600 -1.68400 43.42400
C  -0.07100 -0.50200 42.71400
C  -1.48900 -0.26100 42.48000
C  -2.08400 -1.50100 43.02600
C  -0.96500 -2.33600 43.57500
C  -2.06000 0.91200 41.75200
C  -3.55500 -1.79000 42.87500
O  -4.29600 -0.95600 42.36900
C  -4.16900 -3.05800 43.44800
N  1.21100 -4.13200 44.97700
C  -0.04500 -4.46700 44.69300
C  -0.41700 -5.89200 45.24000
C  0.99500 -6.36300 45.78600
C  1.90600 -5.19300 45.44700
C  -1.46300 -5.99300 46.37500
C  1.50700 -7.75800 45.30800
C  2.10600 -8.68500 46.42400
N  3.79500 -2.92000 44.92300
C  4.18400 -4.09600 45.55700
C  5.60300 -4.03300 45.91600
C  5.97200 -2.75200 45.43100
C  4.89100 -2.19800 44.72200
C  6.37100 -5.03900 46.65000
C  7.18000 -1.87200 45.26000
O  8.31700 -2.00200 45.62100
C  6.71300 -0.68600 44.33400
C  6.96600 0.49800 45.18100
O  6.31800 0.71500 46.18500
O  8.02200 1.31200 44.72600
C  8.13600 2.60200 45.49100
H  0.63500 1.36400 42.03000
H  -2.02900 -4.08200 44.31300
H  3.56400 -6.07500 46.31700
H  5.22800 1.58000 43.20400
H  3.11800 2.05500 41.41500
H  2.24400 3.04500 44.04000
H  3.00600 3.68500 42.55700
H  3.99900 3.16900 43.89800
H  4.96600 1.27400 40.35000
H  5.57500 -0.30500 40.95700
H  7.26900 1.21500 42.26500
H  6.58700 2.43300 41.25700
H  -3.00600 1.20900 42.20600
H  -2.19500 0.76400 40.68000
H  -1.49600 1.83400 41.89100
H  -4.04900 -3.98200 42.88300
H  -5.22700 -2.81600 43.35400
H  -3.87600 -3.04700 44.49800
H  -0.69100 -6.43800 44.33800
H  0.91000 -6.30700 46.87100
H  -1.51500 -4.98400 46.78300
H  -1.14900 -6.66500 47.17400
H  -2.40300 -6.27300 45.89800
H  2.33200 -7.52100 44.63700
H  0.82900 -8.36800 44.71100
H  1.72200 -9.68500 46.22200
H  1.84300 -8.31100 47.41300
H  3.18700 -8.58600 46.32400
H  6.08700 -5.05700 47.70200
H  7.43800 -4.86100 46.51600
H  6.23000 -5.99500 46.14500
H  7.39300 -0.73000 43.48300
H  7.27200 3.21500 45.23600
H  8.93100 3.21000 45.05900
H  8.17200 2.43500 46.56700

