158

Mg 35.59800 1.89600 30.20800
C  33.21100 2.66400 32.66200
C  38.02400 1.66100 32.65400
C  37.91400 1.42200 27.82800
C  33.22700 2.39400 27.74900
N  35.64700 2.25000 32.41700
C  34.51500 2.45800 33.22200
C  34.93000 2.45900 34.69700
C  36.46800 2.38400 34.68000
C  36.75100 2.08700 33.16100
C  37.14600 3.79600 35.00000
C  34.26700 1.21700 35.44300
C  33.79300 1.49200 36.88300
H  34.50000 2.51800 37.77600
N  37.73200 1.52600 30.24100
C  38.47500 1.41000 31.34300
C  39.80900 1.03000 30.93200
C  39.86700 1.13200 29.51400
C  38.44600 1.36400 29.14100
C  40.85200 0.88000 31.97600
C  41.06400 1.00900 28.61300
O  40.94700 1.21900 27.40500
C  42.39300 0.70000 29.14700
N  35.50700 1.67800 28.17500
C  36.63500 1.52900 27.36500
C  36.33500 1.52500 25.91900
C  34.73600 1.65900 25.88300
C  34.48100 1.98200 27.28700
C  36.95200 2.64500 25.07900
C  33.99300 0.53000 25.12100
C  33.47400 -0.68900 25.97900
N  33.64800 2.32700 30.15600
C  32.80100 2.59800 29.01900
C  31.52200 2.89300 29.51500
C  31.61600 2.96500 30.89300
C  32.89100 2.59400 31.25600
C  30.33600 3.15900 28.59800
C  30.89200 3.33300 32.11100
O  29.75900 3.77600 32.34100
C  31.86200 2.94900 33.30600
C  32.00400 4.19300 34.20100
O  32.30500 5.31500 33.80000
O  31.69100 3.88500 35.52800
C  31.61000 5.09900 36.38000
H  38.72800 1.54000 33.48000
H  38.54700 0.99100 27.05000
H  32.55000 2.54100 26.90400
H  34.63200 3.41700 35.12200
H  36.83400 1.62300 35.36900
H  38.16800 3.61100 35.32900
H  36.57500 4.35600 35.74000
H  37.21100 4.49000 34.16200
H  34.89100 0.32800 35.34500
H  33.38800 0.90100 34.88100
H  33.74600 0.51600 37.36600
H  32.78200 1.87400 36.74500
H  41.74500 0.31700 31.70600
H  40.36800 0.22000 32.69500
H  41.13000 1.79300 32.50400
H  42.75900 1.52300 29.76100
H  43.08700 0.59300 28.31400
H  42.49200 -0.25700 29.66000
H  36.68200 0.56000 25.54900
H  34.37200 2.56100 25.39200
H  37.30300 3.44700 25.72900
H  36.19400 3.12800 24.46300
H  37.69800 2.17200 24.44100
H  34.73100 -0.02900 24.54700
H  33.14500 0.82300 24.50200
H  33.87200 -1.62900 25.59700
H  32.39800 -0.79100 25.83500
H  33.69700 -0.66600 27.04600
H  30.37700 2.50500 27.72800
H  30.59100 4.09900 28.10900
H  29.34700 3.06200 29.04400
H  31.48100 2.06200 33.81200
H  30.56000 5.38700 36.42500
H  32.21500 5.99200 36.22400
H  31.74200 4.67100 37.37400
Mg -2.03000 35.48200 26.73600
C  -3.72400 33.72600 29.31700
C  -0.84900 37.66100 29.16900
C  -0.48000 37.03100 24.38200
C  -3.62400 33.22500 24.48100
N  -2.24200 35.66700 28.97100
C  -2.90500 34.79500 29.81100
C  -2.82800 35.19800 31.27200
C  -2.03100 36.53700 31.11100
C  -1.71300 36.67600 29.69300
C  -2.69000 37.75500 31.74000
C  -1.99600 34.18000 32.12700
C  -1.85500 34.54000 33.53800
H  -2.66500 33.64000 34.44900
N  -0.84700 37.17800 26.76400
C  -0.46500 37.96600 27.86300
C  0.40300 39.04100 27.37600
C  0.54100 38.86800 25.97000
C  -0.37400 37.64900 25.61000
C  1.07700 40.03000 28.26700
C  1.33500 39.57400 24.84900
O  1.47100 39.11300 23.74100
C  2.20800 40.78600 25.30800
N  -2.06700 35.19900 24.78300
C  -1.16100 35.85800 24.07600
C  -0.97000 35.15800 22.64200
C  -2.00300 33.95200 22.63200
C  -2.58700 34.09400 24.02500
C  -1.09400 36.21300 21.50500
C  -1.31500 32.54100 22.36100
C  -2.14000 31.59300 21.40200
N  -3.48800 33.90400 26.82300
C  -4.03200 33.11600 25.83800
C  -4.98900 32.20200 26.41600
C  -4.85100 32.42300 27.80700
C  -3.97000 33.41200 28.00300
C  -5.77900 31.17500 25.67900
C  -5.23000 31.91400 29.13600
O  -5.78900 30.87000 29.43800
C  -4.63300 32.87500 30.15500
C  -5.71200 33.67100 30.75400
O  -6.55700 34.17500 30.04900
O  -5.77300 33.54600 32.13000
C  -6.91600 34.20400 32.81200
H  -0.58000 38.38800 29.93700
H  0.05600 37.51600 23.56300
H  -3.94300 32.46200 23.76800
H  -3.82000 35.36000 31.69500
H  -1.05300 36.37900 31.56700
H  -3.72500 37.52200 31.98900
H  -2.64600 38.64700 31.11600
H  -2.31500 38.06800 32.71400
H  -0.98200 34.32200 31.75300
H  -2.47300 33.20100 32.10900
H  -2.08000 35.57800 33.78200
H  -0.80500 34.48300 33.82400
H  0.55200 40.98000 28.16800
H  2.09400 40.17500 27.90200
H  1.15200 39.82500 29.33400
H  2.42500 41.41100 24.44200
H  3.07200 40.40100 25.84900
H  1.63300 41.38600 26.01300
H  0.08300 34.88100 22.70300
H  -2.63600 34.21100 21.78400
H  -1.63500 37.09400 21.85200
H  -1.69400 35.84400 20.67400
H  -0.12200 36.51900 21.11700
H  -1.03500 32.08800 23.31200
H  -0.36000 32.73500 21.87300
H  -1.54700 31.10000 20.63100
H  -2.98100 32.12400 20.95600
H  -2.53100 30.79900 22.03700
H  -5.67300 31.32900 24.60500
H  -6.73900 31.19700 26.19400
H  -5.40400 30.18400 25.93800
H  -4.17500 32.23700 30.91100
H  -7.77800 34.15400 32.14700
H  -6.61100 35.22800 33.02800
H  -7.11000 33.63500 33.72200

