158

Mg 30.44700 57.46600 40.53800
C  27.67500 55.67100 39.58700
C  32.44600 55.01900 39.30300
C  33.07300 59.73500 40.35600
C  28.27300 60.32000 41.14700
N  30.01000 55.61500 39.34700
C  28.87400 55.00700 39.22200
C  29.05600 53.63700 38.54600
C  30.57000 53.32100 38.93700
C  31.05200 54.74100 39.22700
C  30.79400 52.33500 40.13600
C  28.71300 53.76000 37.01900
C  27.52500 52.96700 36.46600
H  26.57600 53.59600 35.46600
N  32.48900 57.38500 40.05700
C  33.09300 56.22700 39.67400
C  34.50300 56.44600 39.72900
C  34.74100 57.78800 40.07000
C  33.42700 58.41100 40.18700
C  35.54200 55.38500 39.28000
C  36.12700 58.44400 40.09100
O  37.14300 57.90400 39.66200
C  36.31300 59.77600 40.74400
N  30.59800 59.79300 40.64500
C  31.83900 60.39700 40.66300
C  31.68000 61.86500 41.10000
C  30.12200 61.99600 41.37000
C  29.63100 60.60300 41.05600
C  32.53800 62.31900 42.28200
C  29.43600 62.98500 40.52000
C  28.34300 63.81000 41.10100
N  28.34000 57.86300 40.61800
C  27.62800 59.10400 40.88100
C  26.22600 58.76600 40.82400
C  26.14200 57.42900 40.30300
C  27.49000 56.92400 40.18100
C  25.12100 59.70000 40.97300
C  25.32800 56.28300 39.81200
O  24.16300 56.23800 39.65100
C  26.25200 55.12900 39.44500
C  25.80500 54.02800 40.28900
O  25.85100 53.91300 41.47200
O  25.33200 53.07500 39.54500
C  24.82400 51.83900 40.05100
H  33.09300 54.17300 39.06400
H  33.88500 60.45900 40.45500
H  27.60500 61.12300 41.46300
H  28.39300 52.91800 39.02600
H  30.99200 52.86000 38.04400
H  31.51900 52.71300 40.85700
H  31.37500 51.48600 39.77500
H  29.90100 52.18000 40.74300
H  29.65900 53.49600 36.54700
H  28.43200 54.77600 36.74000
H  26.90300 52.56700 37.26600
H  27.95400 52.08700 35.98700
H  35.95800 55.62300 38.30000
H  35.07600 54.40000 39.27900
H  36.33000 55.28900 40.02600
H  35.53300 59.79800 41.50500
H  36.18500 60.51800 39.95600
H  37.32600 59.87300 41.13400
H  31.90400 62.60000 40.32600
H  29.90200 62.21100 42.41500
H  32.08500 62.54800 43.24600
H  32.98400 63.27100 41.99400
H  33.34300 61.60900 42.47300
H  28.99800 62.53500 39.62900
H  30.13900 63.69800 40.09000
H  28.03800 63.40500 42.06600
H  27.50500 63.84500 40.40500
H  28.61500 64.83000 41.37400
H  24.37000 59.13800 41.52900
H  24.89800 60.05000 39.96500
H  25.53200 60.52400 41.55500
H  26.01900 54.86800 38.41300
H  23.75600 51.63500 39.97700
H  25.02700 51.66900 41.10900
H  25.28200 50.99100 39.54300
Mg -1.87900 34.18500 27.31400
C  -3.58300 32.14900 29.75200
C  -0.62600 36.03100 30.08600
C  -0.61800 36.45600 25.24000
C  -3.55100 32.58300 24.81600
N  -2.12200 34.08300 29.62800
C  -2.88400 33.24900 30.36800
C  -2.86400 33.51100 31.83200
C  -2.03200 34.86600 31.84800
C  -1.52400 35.04700 30.48300
C  -2.95100 36.10800 32.32900
C  -2.16900 32.33300 32.55700
C  -2.95700 31.70700 33.79400
H  -2.23500 31.77400 35.15400
N  -0.67300 35.89300 27.64800
C  -0.17200 36.39500 28.83900
C  0.77800 37.46100 28.49900
C  0.72700 37.69800 27.09500
C  -0.23700 36.70500 26.60000
C  1.61700 38.18000 29.45400
C  1.32700 38.72700 26.25200
O  1.12200 38.91300 25.06400
C  2.35400 39.61700 26.87700
N  -2.06500 34.46500 25.31900
C  -1.51900 35.55300 24.71300
C  -1.93500 35.57900 23.22900
C  -2.53800 34.19200 23.07600
C  -2.77200 33.74400 24.48200
C  -2.97600 36.76400 22.91200
C  -1.70400 33.20000 22.15400
C  -0.94300 32.08400 22.88800
N  -3.23000 32.67600 27.22000
C  -3.75700 32.10000 26.07800
C  -4.71400 31.10300 26.50900
C  -4.59500 31.07800 27.88500
C  -3.68800 32.03400 28.26500
C  -5.59100 30.25400 25.60300
C  -5.09600 30.38500 29.05800
O  -5.88000 29.44200 29.13900
C  -4.48100 31.03900 30.30400
C  -5.67500 31.53000 31.08900
O  -6.54100 32.28400 30.74200
O  -5.62900 30.90300 32.30900
C  -6.79700 30.82000 33.20500
H  -0.17500 36.70900 30.81400
H  -0.27000 37.21000 24.53000
H  -4.07900 32.25200 23.91900
H  -3.88500 33.76600 32.11600
H  -1.23700 34.78700 32.59000
H  -2.45400 36.50300 33.21500
H  -3.97600 35.76400 32.46900
H  -2.92800 36.88600 31.56600
H  -1.17800 32.70400 32.81700
H  -2.03400 31.58100 31.77900
H  -3.28500 30.69000 33.57800
H  -3.90600 32.22600 33.92900
H  1.53900 37.71300 30.43600
H  1.18100 39.17900 29.44200
H  2.61100 38.04000 29.02800
H  1.95100 40.19800 27.70700
H  2.73500 40.33800 26.15400
H  3.20100 39.06700 27.28500
H  -1.08100 35.77000 22.57900
H  -3.54200 34.31900 22.67300
H  -3.90400 36.47800 22.41800
H  -2.48100 37.60800 22.43000
H  -3.33700 37.06000 23.89700
H  -0.96900 33.69600 21.52000
H  -2.36000 32.76800 21.39800
H  -0.43600 32.53000 23.74400
H  -0.17200 31.70400 22.21900
H  -1.65200 31.30500 23.17000
H  -6.49500 30.00900 26.16100
H  -5.11300 29.33800 25.25500
H  -5.90800 30.89600 24.78200
H  -3.85500 30.32100 30.83400
H  -6.92500 29.79000 33.53900
H  -7.72300 31.04900 32.67800
H  -6.61300 31.42200 34.09500

