158

Mg 16.96100 -2.81800 28.77100
C  16.06400 -0.79100 31.44600
C  18.48300 -4.96600 31.10400
C  18.01700 -4.70500 26.20100
C  15.75200 -0.38600 26.63300
N  17.19700 -2.92600 30.96700
C  16.72800 -1.99900 31.82200
C  16.97100 -2.38300 33.32000
C  18.02500 -3.51800 33.16500
C  17.92500 -3.88500 31.68500
C  19.50100 -3.23500 33.63200
C  15.64900 -2.61500 34.18900
C  15.63700 -2.10600 35.65900
H  16.98600 -2.11200 36.47900
N  18.01000 -4.59200 28.68100
C  18.48300 -5.30600 29.74900
C  19.23400 -6.49100 29.22800
C  18.98900 -6.52900 27.79400
C  18.26300 -5.29700 27.47300
C  19.84000 -7.54600 30.07900
C  19.43100 -7.51300 26.76100
O  19.07100 -7.49100 25.62600
C  20.22900 -8.74200 27.12100
N  17.01100 -2.45300 26.66900
C  17.50600 -3.43400 25.86900
C  17.44400 -2.90700 24.40700
C  16.71100 -1.50100 24.47300
C  16.33700 -1.48300 25.98500
C  18.80300 -2.71800 23.69400
C  15.59500 -1.43600 23.43200
C  14.15300 -1.88200 23.82600
N  15.99700 -0.96600 28.96600
C  15.50900 -0.14400 28.00200
C  14.86000 0.97900 28.60700
C  15.04400 0.76200 29.97100
C  15.77600 -0.43200 30.12900
C  14.15400 2.07100 28.04200
C  14.77500 1.28500 31.35300
O  14.17000 2.22500 31.73100
C  15.39100 0.30500 32.34800
C  16.41300 1.03400 33.07300
O  17.41600 1.57400 32.69600
O  15.91000 1.25900 34.34900
C  16.79600 1.97000 35.33100
H  19.07100 -5.56000 31.80700
H  18.43200 -5.26300 25.36000
H  15.16700 0.29100 26.00700
H  17.54600 -1.58800 33.79600
H  17.71200 -4.34300 33.80500
H  19.81200 -3.96500 34.38100
H  19.60300 -2.24800 34.08200
H  20.14700 -3.29500 32.75600
H  15.56700 -3.69300 34.33000
H  14.78200 -2.31300 33.60200
H  14.93800 -2.72200 36.22500
H  15.29200 -1.07600 35.56300
H  19.50300 -8.54000 29.78700
H  19.54100 -7.27600 31.09100
H  20.92600 -7.53800 29.98400
H  21.07200 -8.54300 27.78200
H  20.60400 -9.19600 26.20300
H  19.58100 -9.50000 27.56200
H  16.99700 -3.62400 23.71900
H  17.34400 -0.62600 24.32700
H  19.54700 -2.74700 24.48900
H  18.81000 -1.75400 23.18600
H  19.10900 -3.47800 22.97500
H  15.78300 -2.13700 22.61900
H  15.54100 -0.42200 23.03500
H  13.56400 -1.15100 24.38000
H  14.23100 -2.70100 24.54100
H  13.73600 -2.39700 22.96100
H  13.88100 2.79000 28.81500
H  13.25000 1.79400 27.50100
H  14.75300 2.55300 27.27000
H  14.57300 -0.02900 32.98700
H  17.86200 1.85600 35.13500
H  16.56300 1.80700 36.38400
H  16.67700 3.03900 35.15500
Mg 16.40800 52.25500 25.31800
C  18.04100 51.21500 28.19700
C  13.59000 52.94200 27.08600
C  15.00200 53.15700 22.36000
C  19.02300 50.73700 23.43800
N  15.99300 52.16900 27.43600
C  16.83400 51.86300 28.45000
C  16.22300 52.14000 29.86700
C  14.78900 52.61700 29.46500
C  14.74200 52.51600 27.86200
C  13.59900 51.81900 30.20300
C  17.07900 53.20800 30.69900
C  17.73000 52.80200 32.05100
H  16.88300 52.01800 33.02400
N  14.57300 52.95600 24.80900
C  13.51000 53.20500 25.66600
C  12.36800 53.72900 24.92400
C  12.76700 53.87700 23.53100
C  14.20700 53.35900 23.49100
C  11.01500 54.01900 25.62900
C  12.03000 54.36700 22.28800
O  12.52300 54.62200 21.16000
C  10.65200 54.77900 22.40900
N  16.98000 52.07400 23.26500
C  16.23800 52.57600 22.20700
C  16.86300 52.20800 20.81500
C  18.28300 51.73100 21.26700
C  18.08700 51.42700 22.75400
C  16.02800 51.11300 20.10200
C  19.37700 52.79800 20.95200
C  20.06700 52.57900 19.62600
N  18.19100 51.14800 25.67100
C  19.11500 50.57300 24.83700
C  20.08000 49.86200 25.58100
C  19.65900 50.10200 26.94000
C  18.54600 50.92100 26.93000
C  21.37600 49.16200 25.21500
C  20.05400 49.73400 28.28200
O  20.96800 49.05000 28.71600
C  18.90300 50.45100 29.25800
C  18.20500 49.31600 29.88300
O  17.17600 48.83400 29.51000
O  18.83200 48.96500 31.05900
C  18.12100 48.00300 31.88500
H  12.73000 53.21000 27.70300
H  14.58500 53.46100 21.39800
H  19.91700 50.53600 22.84200
H  16.07700 51.19600 30.39100
H  14.59800 53.65500 29.73600
H  14.01900 51.15400 30.95800
H  13.03600 51.26500 29.45100
H  12.91700 52.52400 30.67600
H  16.52600 54.14700 30.71700
H  17.87900 53.52500 30.03000
H  18.17600 53.59900 32.64500
H  18.65600 52.26800 31.84000
H  10.34400 53.16400 25.54100
H  10.55000 54.91300 25.21300
H  11.09000 54.20800 26.70000
H  10.16000 55.10200 21.49200
H  10.59800 55.68100 23.01900
H  10.23300 54.00500 23.05300
H  17.06300 53.00400 20.09900
H  18.68900 50.84200 20.78500
H  15.70200 51.41900 19.10900
H  15.22900 50.71900 20.73000
H  16.68300 50.25200 19.97100
H  20.03700 52.94600 21.80600
H  18.91400 53.77600 20.82100
H  21.13500 52.41500 19.77000
H  19.99800 53.44000 18.96200
H  19.51200 51.80000 19.10300
H  21.74600 49.53600 24.26100
H  21.37100 48.07200 25.20400
H  22.15800 49.44600 25.92000
H  19.45100 51.00900 30.01700
H  17.89900 48.48100 32.83900
H  18.84700 47.22500 32.12200
H  17.16600 47.58400 31.56900

