158

Mg 48.21400 46.24700 42.69900
C  44.98300 46.86000 41.51400
C  48.08800 43.13900 41.17100
C  51.53800 46.06100 42.96400
C  48.31000 49.83600 43.31800
N  46.77000 45.16800 41.31500
C  45.47400 45.61300 41.16900
C  44.63000 44.54100 40.49900
C  45.49500 43.29000 40.68500
C  46.87600 43.94200 41.02700
C  44.95700 42.21800 41.65100
C  44.32900 45.00200 39.00200
C  43.01100 44.40700 38.56200
H  43.11600 43.49700 37.21400
N  49.62100 44.81600 42.15700
C  49.35100 43.56400 41.60400
C  50.56700 42.75700 41.67800
C  51.55800 43.56100 42.10800
C  50.95100 44.92500 42.42800
C  50.56800 41.32300 41.23000
C  53.04300 43.06700 42.24300
O  53.48300 42.00600 41.82700
C  53.97500 43.91100 42.99700
N  49.70600 47.75000 42.92600
C  51.00900 47.36600 43.16700
C  51.89400 48.62100 43.51700
C  50.87400 49.78100 43.50200
C  49.56900 49.11900 43.22100
C  52.72200 48.52600 44.83800
C  51.30900 51.00500 42.56700
C  51.63000 52.31000 43.21500
N  46.89500 47.90900 42.77200
C  47.03900 49.25300 43.10900
C  45.83300 49.91700 43.09000
C  44.95000 48.98100 42.55400
C  45.63700 47.79400 42.25100
C  45.59500 51.35600 43.69800
C  43.62400 48.79400 42.08800
O  42.60600 49.46100 42.12600
C  43.54100 47.38900 41.40600
C  42.54800 46.61500 42.14500
O  42.71700 45.91900 43.15300
O  41.43700 46.71400 41.41200
C  40.35600 45.78700 41.85500
H  47.94800 42.06400 41.04200
H  52.57700 46.02200 43.29600
H  48.31000 50.90600 43.53300
H  43.70700 44.43500 41.06700
H  45.57200 42.80100 39.71400
H  44.76000 41.37500 40.98800
H  44.05800 42.61200 42.12400
H  45.75600 41.96800 42.34800
H  45.14800 44.70800 38.34500
H  44.25000 46.08600 39.09300
H  42.31100 45.23800 38.48100
H  42.62400 43.70600 39.30200
H  50.73100 41.31900 40.15200
H  49.68500 40.76800 41.54700
H  51.39000 40.74800 41.65700
H  54.22100 44.81900 42.44800
H  54.93000 43.39400 43.09500
H  53.53300 43.99300 43.99000
H  52.65800 48.74200 42.74900
H  50.75600 50.16600 44.51400
H  52.55500 47.47700 45.08100
H  52.29400 49.04900 45.69400
H  53.76900 48.78700 44.68400
H  50.54300 51.28300 41.84300
H  52.25200 50.77700 42.07100
H  51.46600 52.28400 44.29200
H  50.98800 53.08200 42.79000
H  52.66600 52.52900 42.95800
H  44.89900 51.74400 42.95500
H  46.46800 52.00600 43.76100
H  45.02500 51.23800 44.61900
H  43.15500 47.53300 40.39700
H  39.53700 45.72200 41.13800
H  39.92400 46.05500 42.81900
H  40.80300 44.79300 41.85200
Mg 5.44500 54.39100 39.99500
C  5.99500 50.85200 40.01800
C  8.83100 54.70600 39.29000
C  4.92400 57.58700 39.27800
C  2.17800 53.87100 40.61900
N  7.17000 52.91100 39.68400
C  7.13600 51.55500 39.68600
C  8.49200 50.96600 39.48300
C  9.42000 52.23600 39.73200
C  8.44800 53.36500 39.51700
C  10.25700 52.22800 41.06900
C  8.74100 50.27400 38.06200
C  8.70800 51.17000 36.80300
H  7.63900 50.98100 35.73200
N  6.67000 55.89500 39.28200
C  8.03800 55.86800 39.15300
C  8.55000 57.16100 38.79600
C  7.41600 58.02100 38.73400
C  6.28200 57.18100 39.05100
C  9.97700 57.59100 38.60100
C  7.43500 59.50300 38.33000
O  8.51300 59.97600 37.97400
C  6.24100 60.38200 38.17000
N  3.70700 55.49800 39.57900
C  3.78100 56.83400 39.52100
C  2.42000 57.52100 39.86500
C  1.52700 56.22300 40.15600
C  2.55200 55.12200 40.14600
C  2.43000 58.54500 41.04300
C  0.47900 55.96600 39.05200
C  -0.95700 56.36900 39.29100
N  4.26800 52.75900 40.25000
C  2.93000 52.67100 40.57900
C  2.54800 51.29400 40.95000
C  3.69800 50.55500 40.71500
C  4.71900 51.45300 40.24800
C  1.24300 50.80400 41.60400
C  4.27500 49.19000 40.83800
O  3.80800 48.12600 41.21300
C  5.74000 49.33500 40.23500
C  5.72100 48.51100 38.98900
O  5.15100 48.79500 37.92700
O  6.37100 47.27900 39.22300
C  6.66400 46.46900 38.01100
H  9.90500 54.78000 39.10500
H  4.63600 58.64000 39.26600
H  1.16800 53.72000 41.00700
H  8.74200 50.14200 40.15000
H  10.20000 52.41400 38.99100
H  11.32400 52.43100 40.97600
H  10.21800 51.23900 41.52700
H  9.71000 52.94300 41.68300
H  7.98000 49.52600 37.83800
H  9.70600 49.77100 38.12100
H  9.72200 51.07000 36.41500
H  8.61600 52.21100 37.11000
H  10.72300 56.81100 38.75400
H  10.20700 58.30300 39.39300
H  10.04100 58.09000 37.63400
H  6.49400 61.26000 37.57400
H  5.97600 60.64300 39.19400
H  5.45100 59.86900 37.62200
H  1.98200 58.05200 39.02000
H  0.95900 56.21400 41.08600
H  2.93500 59.48500 40.82000
H  2.84300 58.02700 41.90800
H  1.39900 58.79300 41.29400
H  0.54200 54.93100 38.71700
H  0.79000 56.43700 38.11900
H  -1.51800 55.64700 38.69700
H  -1.11800 57.34800 38.84000
H  -1.20400 56.30600 40.35100
H  0.83900 51.67900 42.11300
H  1.37000 50.04000 42.37100
H  0.49100 50.49300 40.87900
H  6.42300 48.85400 40.93600
H  5.87700 46.33100 37.27000
H  7.10900 45.50300 38.25200
H  7.44800 47.02400 37.49500

