158

Mg 55.06900 23.74700 44.78600
C  52.35700 25.74600 43.74100
C  53.28700 21.03800 43.55100
C  57.91100 21.99600 45.03400
C  56.75800 26.60500 45.86200
N  53.18000 23.48000 43.51900
C  52.23100 24.47500 43.36000
C  50.92400 23.89500 42.76400
C  51.13800 22.36600 43.02900
C  52.62600 22.27000 43.38300
C  50.27300 21.91100 44.28100
C  50.82900 24.14500 41.23300
C  49.30700 24.40600 40.87500
H  48.88500 24.21600 39.38400
N  55.50300 21.75000 44.32500
C  54.68300 20.76200 43.88200
C  55.39900 19.53000 43.81800
C  56.78700 19.73500 44.23100
C  56.83400 21.21100 44.57300
C  54.65400 18.33700 43.40400
C  57.82400 18.69600 44.36800
O  57.61500 17.50700 44.12400
C  59.28000 18.99800 44.84500
N  57.23000 24.31700 45.04700
C  58.07100 23.35300 45.27100
C  59.42900 23.93600 45.77600
C  59.14000 25.49800 45.99600
C  57.65200 25.53200 45.58100
C  59.87100 23.20900 47.06400
C  59.91700 26.40700 45.03400
C  60.85300 27.44100 45.72400
N  54.73500 25.78400 44.86000
C  55.41000 26.80900 45.43000
C  54.50500 27.86000 45.70800
C  53.33200 27.60900 44.87700
C  53.54400 26.28600 44.48600
C  54.69400 29.12800 46.47100
C  52.10500 28.15800 44.27500
O  51.67400 29.33300 44.38000
C  51.47900 27.00400 43.54200
C  51.12300 27.42600 42.15400
O  51.94800 27.52300 41.24100
O  49.80500 27.69500 42.01100
C  49.42200 28.16300 40.74300
H  52.81000 20.10800 43.23300
H  58.81500 21.49600 45.38800
H  57.30000 27.46800 46.25400
H  49.98200 24.22900 43.20000
H  50.90800 21.60200 42.28700
H  50.02600 22.73900 44.94500
H  50.62300 21.08700 44.90300
H  49.30200 21.67100 43.84600
H  51.16500 23.33100 40.59100
H  51.62000 24.87000 41.03900
H  48.96000 25.42000 41.07300
H  48.65200 23.66800 41.33900
H  54.64200 18.34800 42.31400
H  53.63900 18.36200 43.80100
H  55.18700 17.47600 43.80700
H  59.62300 19.95000 44.43900
H  59.91100 18.20300 44.44700
H  59.29900 18.88200 45.92900
H  60.11700 23.76400 44.94800
H  59.28000 25.79700 47.03500
H  59.08600 22.56400 47.45800
H  59.86200 23.99000 47.82500
H  60.83600 22.70900 46.98300
H  59.21100 26.97900 44.43200
H  60.37900 25.79100 44.26300
H  60.39600 28.39400 45.99300
H  61.72100 27.66200 45.10300
H  61.16900 27.01500 46.67600
H  54.86300 28.89000 47.52100
H  53.77900 29.69500 46.30200
H  55.46600 29.71200 45.97100
H  50.53800 26.94700 44.09000
H  49.42100 29.25200 40.79400
H  48.43700 27.78600 40.46700
H  50.12300 27.88200 39.95700
Mg -5.10100 25.73000 26.98900
C  -4.00300 27.52800 29.64700
C  -6.80300 23.58100 28.94900
C  -5.90300 23.86400 24.18100
C  -3.24000 27.91800 24.87500
N  -5.28300 25.54200 29.04600
C  -4.73500 26.37900 29.99700
C  -5.21300 25.99400 31.36800
C  -5.82700 24.62100 31.15100
C  -6.07200 24.58200 29.60700
C  -4.99400 23.42100 31.64700
C  -6.29500 27.00200 31.87200
C  -6.59100 27.05000 33.33300
H  -6.10000 25.99000 34.33900
N  -6.12400 23.90800 26.61000
C  -6.91900 23.31800 27.53400
C  -7.74500 22.18600 26.92900
C  -7.39800 22.26000 25.54100
C  -6.45800 23.36000 25.38100
C  -8.77300 21.28000 27.66700
C  -7.83800 21.35800 24.47000
O  -7.44500 21.54700 23.31300
C  -8.78200 20.12900 24.76000
N  -4.43000 25.75900 24.89900
C  -4.96900 24.89900 23.92700
C  -4.45000 25.23600 22.53000
C  -3.78900 26.67300 22.73900
C  -3.77600 26.78100 24.27800
C  -3.42100 24.11300 22.05800
C  -4.59200 27.83000 22.02800
C  -3.71900 28.72700 21.13700
N  -3.87900 27.38600 27.24600
C  -3.22700 28.22100 26.26800
C  -2.60100 29.30600 26.94500
C  -2.87100 29.06900 28.29100
C  -3.67000 27.94000 28.39600
C  -1.78000 30.34200 26.29600
C  -2.71700 29.58700 29.60000
O  -2.08500 30.54600 30.03300
C  -3.43200 28.60800 30.58000
C  -2.47500 28.17600 31.65200
O  -1.41900 27.59300 31.44600
O  -3.03700 28.44300 32.85700
C  -2.12800 27.95700 33.90300
H  -7.40600 22.95600 29.61100
H  -6.11300 23.41200 23.20900
H  -2.56400 28.56000 24.30600
H  -4.38200 25.99000 32.07300
H  -6.74900 24.70400 31.72700
H  -3.99800 23.75600 31.93600
H  -4.92600 22.58200 30.95400
H  -5.53800 23.01600 32.50100
H  -7.21600 26.87400 31.30300
H  -5.94800 28.01000 31.64600
H  -7.67000 26.91800 33.24800
H  -6.34900 28.06200 33.65600
H  -9.69300 21.26400 27.08300
H  -8.93000 21.81200 28.60500
H  -8.47200 20.26000 27.90700
H  -8.53700 19.55200 25.65200
H  -8.68100 19.43300 23.92700
H  -9.79700 20.51900 24.68200
H  -5.25600 25.23000 21.79500
H  -2.76400 26.71000 22.37000
H  -3.73900 23.62800 21.13400
H  -3.23000 23.39900 22.85900
H  -2.40800 24.50800 21.98200
H  -5.12000 28.39200 22.79800
H  -5.38500 27.45900 21.37900
H  -2.68800 28.68200 21.48800
H  -4.13900 29.70900 20.91800
H  -3.70600 28.19700 20.18500
H  -2.23100 30.92600 25.49400
H  -0.90100 29.94700 25.78600
H  -1.52900 31.12200 27.01500
H  -4.23100 29.23300 30.97700
H  -2.28600 26.88100 33.97400
H  -2.38300 28.34700 34.88900
H  -1.08400 28.19900 33.70000

