158

Mg 48.14600 15.45300 27.55600
C  45.80200 15.57000 30.26400
C  50.22800 17.49200 29.42400
C  50.25100 15.34400 25.01700
C  45.54800 13.96800 25.70700
N  47.99600 16.39900 29.60500
C  47.02300 16.30500 30.54500
C  47.37900 16.94300 31.91300
C  48.72000 17.79600 31.57000
C  49.04500 17.22200 30.12500
C  48.57800 19.26300 31.51500
C  47.70800 15.90700 33.05200
C  47.96700 16.57600 34.46900
H  48.95400 16.06100 35.47800
N  50.00800 16.18900 27.29000
C  50.73800 16.98800 28.19300
C  52.04000 17.27600 27.56900
C  52.16000 16.47700 26.37800
C  50.78800 15.98200 26.14100
C  53.05400 18.17100 28.30500
C  53.35400 16.21500 25.47000
O  53.44700 15.44800 24.48600
C  54.64700 16.96200 25.82700
N  47.87700 14.67800 25.69800
C  48.94100 14.87700 24.79900
C  48.56700 14.29000 23.36400
C  47.10500 13.62000 23.68100
C  46.75800 14.18000 25.07900
C  48.56900 15.35700 22.17700
C  47.11900 12.05100 23.67900
C  47.58700 11.27100 22.41300
N  46.07300 14.94700 27.79400
C  45.16400 14.29600 26.95400
C  43.92300 13.98600 27.68600
C  44.17200 14.38000 28.98500
C  45.50200 14.92500 28.99400
C  42.72000 13.31900 27.04400
C  43.55200 14.60000 30.26800
O  42.33600 14.32200 30.55600
C  44.59200 15.31500 31.18400
C  43.94700 16.47900 31.76100
O  43.21300 17.26200 31.17600
O  44.24500 16.50800 33.10000
C  43.70400 17.61300 33.92500
H  50.82400 18.28700 29.87500
H  51.04200 15.25000 24.27100
H  44.83200 13.41900 25.09300
H  46.61700 17.67200 32.19000
H  49.55000 17.51100 32.21700
H  48.30300 19.61400 30.52000
H  49.55600 19.70300 31.70700
H  47.78200 19.54300 32.20500
H  48.65400 15.45500 32.75300
H  46.83400 15.26500 33.15600
H  47.02200 16.67300 35.00400
H  48.29700 17.57200 34.17400
H  53.61400 17.40500 28.84200
H  52.59200 18.88900 28.98200
H  53.61700 18.86100 27.67700
H  54.55600 18.04600 25.76300
H  55.45900 16.67900 25.15700
H  54.97500 16.60800 26.80400
H  49.34400 13.57000 23.10900
H  46.31000 14.00000 23.03900
H  49.49800 15.19700 21.62900
H  48.45600 16.36200 22.58400
H  47.78800 15.15100 21.44400
H  46.09100 11.82400 23.95900
H  47.81800 11.73800 24.45500
H  47.53300 11.91900 21.53800
H  46.96700 10.41600 22.14700
H  48.62200 10.95300 22.53000
H  43.15300 12.40800 26.63200
H  42.29400 13.91100 26.23400
H  41.85100 13.04700 27.64400
H  44.89100 14.69000 32.02600
H  43.49900 18.52800 33.36900
H  44.33400 17.76700 34.80100
H  42.81000 17.11800 34.30400
Mg 46.63100 44.88300 44.83500
C  43.18500 44.77800 44.03300
C  46.93000 41.48200 44.24100
C  49.96900 45.23900 44.89200
C  46.24100 48.36200 45.16800
N  45.29200 43.40500 44.12800
C  43.88200 43.55700 43.83200
C  43.27400 42.25200 43.22800
C  44.40900 41.20000 43.60500
C  45.66000 42.06700 44.09200
C  44.09600 39.99900 44.64100
C  43.25800 42.44300 41.75200
C  41.89100 42.15300 41.09100
H  41.76000 41.29500 39.85800
N  48.23400 43.48700 44.77900
C  48.12800 42.15900 44.56700
C  49.44300 41.59800 44.35600
C  50.41100 42.63800 44.49300
C  49.53600 43.88900 44.80500
C  49.73500 40.12100 44.08400
C  51.89000 42.49000 44.43200
O  52.33500 41.36700 44.26400
C  52.83600 43.64900 44.57800
N  47.92000 46.54800 44.77300
C  49.28200 46.44700 44.83400
C  49.95300 47.82500 44.92500
C  48.76800 48.72400 45.34300
C  47.55800 47.86200 45.09700
C  51.22800 47.98300 45.87100
C  48.74500 50.14800 44.62900
C  48.74500 51.40500 45.47900
N  45.08400 46.30800 44.72400
C  45.00500 47.69900 44.92400
C  43.63200 48.18800 44.75600
C  42.90500 47.07800 44.36700
C  43.80400 45.96900 44.38300
C  43.14400 49.68600 44.73400
C  41.55900 46.58200 43.98300
O  40.41000 47.11500 43.97200
C  41.70600 44.99300 43.81300
C  40.84700 44.29300 44.76900
O  39.85100 43.63800 44.48300
O  41.29700 44.40000 46.08600
C  40.47600 43.63400 47.03900
H  46.97200 40.42500 43.96900
H  51.04100 45.44000 44.93000
H  46.26400 49.42200 45.43100
H  42.36100 42.13900 43.81300
H  44.66900 40.63200 42.71200
H  44.50000 39.06200 44.25700
H  43.04700 39.98400 44.93700
H  44.72300 40.17300 45.51600
H  44.04100 41.86400 41.26300
H  43.54000 43.46600 41.50200
H  41.44300 43.11300 40.83400
H  41.19400 41.52500 41.64600
H  48.80200 39.56600 43.98700
H  50.31600 39.66700 44.88700
H  50.26300 39.97100 43.14300
H  52.60300 43.99900 45.58400
H  52.61000 44.37000 43.79200
H  53.86600 43.29500 44.61500
H  50.24400 48.11500 43.91600
H  48.79200 48.81200 46.42900
H  52.18000 47.95300 45.34000
H  51.25200 47.26400 46.69000
H  51.29800 48.96800 46.33200
H  47.87900 50.27300 43.97800
H  49.64700 50.09200 44.02000
H  49.53200 52.12300 45.24800
H  48.83800 51.10400 46.52300
H  47.77700 51.90100 45.41200
H  42.45300 49.91600 43.92400
H  44.11600 50.17700 44.67200
H  42.59700 49.85600 45.66200
H  41.31800 44.78100 42.81600
H  40.97400 42.67200 47.16200
H  39.46700 43.29200 46.80900
H  40.40500 44.19200 47.97200

