158

Mg 53.50800 25.78200 45.87300
C  50.75500 27.65600 44.76100
C  52.16800 23.08800 44.16200
C  56.51200 24.15800 46.13100
C  54.96200 28.68600 46.92500
N  51.87100 25.52600 44.27700
C  50.83100 26.39000 44.16300
C  49.70400 25.75000 43.23000
C  49.96200 24.27700 43.58300
C  51.43900 24.27400 44.03500
C  49.01700 23.67900 44.66700
C  49.87100 26.05000 41.72400
C  48.66500 25.92500 40.75600
H  48.83800 25.27900 39.33000
N  54.20700 23.82600 45.35700
C  53.47400 22.87600 44.72100
C  54.21200 21.65800 44.70100
C  55.42600 21.95400 45.29900
C  55.41800 23.36600 45.67200
C  53.60300 20.36900 44.09600
C  56.58400 21.00400 45.37400
O  56.44900 19.91200 44.84200
C  57.90200 21.25800 46.03500
N  55.48000 26.31300 46.22800
C  56.49900 25.52500 46.33700
C  57.78800 26.20200 46.89100
C  57.31400 27.67700 46.96200
C  55.78300 27.60100 46.64300
C  58.52800 25.64000 48.18700
C  58.14300 28.65100 46.08400
C  58.38400 30.03400 46.64800
N  52.93700 27.80700 45.92100
C  53.55500 28.83800 46.55100
C  52.73900 29.95300 46.58300
C  51.57600 29.56400 45.91700
C  51.78200 28.22500 45.47500
C  53.02000 31.32500 47.20800
C  50.25200 29.99800 45.45800
O  49.62700 31.04500 45.62100
C  49.73900 28.78500 44.63400
C  49.66500 29.32900 43.27400
O  50.43300 30.04500 42.71600
O  48.40500 29.03400 42.77300
C  48.06200 29.62200 41.50700
H  51.57800 22.23800 43.81400
H  57.50000 23.69100 46.12500
H  55.42300 29.55000 47.40800
H  48.75200 26.05600 43.66500
H  49.80300 23.73700 42.65000
H  49.57400 22.95400 45.26100
H  48.18800 23.12000 44.23200
H  48.56000 24.42200 45.32100
H  50.66800 25.38900 41.38300
H  50.33800 27.01400 41.52300
H  48.27100 26.91300 40.51800
H  47.86000 25.35300 41.21800
H  53.94000 20.08100 43.10000
H  52.52900 20.41500 43.91500
H  53.68100 19.60000 44.86500
H  58.44300 20.34300 46.27600
H  57.73900 21.86700 46.92400
H  58.52100 21.80600 45.32500
H  58.41000 26.02200 46.01400
H  57.41900 28.02700 47.98900
H  58.30500 24.58500 48.34700
H  58.30000 26.20300 49.09200
H  59.60100 25.80700 48.08700
H  57.55600 28.71800 45.16800
H  59.05800 28.18200 45.72300
H  59.43300 30.32600 46.68600
H  58.01800 30.08800 47.67400
H  57.72400 30.68400 46.07400
H  52.11000 31.56400 47.75800
H  53.35400 32.08500 46.50200
H  53.78900 31.19600 47.97000
H  48.75700 28.49400 45.00800
H  47.08200 29.30400 41.15300
H  48.78400 29.61000 40.69000
H  47.74600 30.62900 41.77900
Mg 26.55600 50.42200 25.80200
C  24.61000 51.37400 28.70400
C  28.93100 49.44600 28.01900
C  28.64600 50.04600 23.07900
C  24.20700 51.89200 23.68900
N  26.68100 50.38900 28.12300
C  25.75100 50.72300 29.06300
C  26.18800 50.31200 30.46300
C  27.65000 49.88300 30.23700
C  27.77200 49.92900 28.71000
C  28.72500 50.84900 30.80700
C  25.32000 49.16100 30.95000
C  24.99800 49.17100 32.47100
H  26.09300 49.43700 33.53800
N  28.50500 49.95200 25.62100
C  29.32100 49.51100 26.66900
C  30.60300 49.04500 26.07600
C  30.58100 49.30400 24.67700
C  29.15900 49.75100 24.38300
C  31.68700 48.47500 27.02200
C  31.69000 49.04000 23.66800
O  31.50500 49.37000 22.50300
C  32.96500 48.36800 24.06200
N  26.52500 51.01200 23.68800
C  27.42300 50.57700 22.76700
C  26.83600 50.54100 21.32600
C  25.38100 50.96300 21.51900
C  25.32100 51.34200 23.05600
C  27.69700 51.43700 20.41100
C  24.22100 49.92900 21.05700
C  23.49800 50.35000 19.78300
N  24.77000 51.35100 26.01000
C  23.96300 51.97700 25.10500
C  22.77500 52.35400 25.87000
C  23.04800 52.28600 27.22300
C  24.26300 51.58200 27.28700
C  21.66000 53.09500 25.17500
C  22.50500 52.50400 28.54200
O  21.49300 53.09000 28.86800
C  23.57500 52.05600 29.51600
C  24.12400 53.22600 30.25800
O  24.64300 54.26100 29.80400
O  24.10000 53.02400 31.64100
C  24.92400 53.91500 32.45900
H  29.71000 48.94200 28.59500
H  29.13000 49.67800 22.17200
H  23.39400 52.14900 23.00600
H  26.13000 51.16800 31.13600
H  27.88100 48.85300 30.50800
H  29.59200 50.30000 31.17600
H  28.29100 51.60800 31.45800
H  29.19300 51.53200 30.09900
H  25.67300 48.18900 30.60400
H  24.35200 49.09400 30.45400
H  24.60600 48.18800 32.73400
H  24.22800 49.93800 32.55200
H  32.68000 48.83800 26.75500
H  31.64800 47.38700 27.08100
H  31.66000 48.85900 28.04100
H  32.65500 47.42100 24.50500
H  33.54900 48.95500 24.77000
H  33.55800 48.18600 23.16600
H  26.86000 49.48400 21.06000
H  25.17900 51.93300 21.06500
H  27.76100 50.94500 19.44100
H  28.71600 51.47000 20.79600
H  27.34700 52.44700 20.19900
H  23.58700 49.76600 21.92800
H  24.64500 48.95900 20.79500
H  23.62400 49.66800 18.94300
H  23.78600 51.37900 19.56400
H  22.46200 50.43900 20.10900
H  21.62500 52.65600 24.17800
H  21.89300 54.16000 25.19200
H  20.75500 52.96800 25.76800
H  23.10500 51.42100 30.26700
H  25.95300 53.83200 32.10900
H  24.82800 53.53200 33.47500
H  24.57000 54.94600 32.43500

