158

Mg 16.54400 51.34800 26.23800
C  18.51200 49.74900 28.79400
C  14.30000 52.01700 28.74000
C  14.74300 52.61600 23.91600
C  18.82500 49.91000 23.95100
N  16.45400 50.90400 28.47700
C  17.41400 50.33300 29.30100
C  17.10400 50.66800 30.79400
C  15.61000 51.19400 30.73200
C  15.37800 51.33400 29.18100
C  14.48300 50.35400 31.40300
C  18.04700 51.72900 31.42800
C  18.74400 51.37800 32.73600
H  18.12100 52.01200 33.92000
N  14.68600 52.21500 26.29000
C  13.98100 52.51600 27.43900
C  12.91500 53.43600 26.95200
C  12.96900 53.55000 25.52100
C  14.11700 52.70800 25.18000
C  11.94700 54.07600 27.83100
C  12.16100 54.34000 24.51100
O  12.41700 54.46600 23.32900
C  10.91700 55.05500 25.07000
N  16.76900 51.26500 24.27000
C  15.88800 51.92900 23.51800
C  16.25100 51.81700 22.02900
C  17.54900 50.96900 22.01700
C  17.78800 50.70400 23.46600
C  15.15400 51.19400 21.19400
C  18.71500 51.65600 21.19200
C  19.61500 52.70200 21.95200
N  18.22200 49.99800 26.26500
C  19.06600 49.54800 25.28400
C  20.16900 48.74700 25.86800
C  19.96400 48.84100 27.22400
C  18.81800 49.60800 27.46700
C  21.27800 48.00500 25.09900
C  20.44900 48.42600 28.49600
O  21.45000 47.77700 28.81500
C  19.57200 49.05700 29.56800
C  19.23300 48.05900 30.63100
O  18.45800 47.08500 30.49300
O  19.92000 48.42600 31.73800
C  19.54200 47.70100 32.97200
H  13.50900 52.20500 29.46900
H  14.26900 53.09400 23.05600
H  19.51200 49.51800 23.19700
H  17.21000 49.73200 31.34400
H  15.49300 52.20200 31.13000
H  13.86900 50.86500 32.14500
H  14.98000 49.62500 32.04300
H  13.84000 49.92800 30.63200
H  17.58700 52.71400 31.50200
H  18.85500 51.85300 30.70700
H  19.76200 51.71300 32.53800
H  18.73700 50.33000 33.03500
H  12.05300 55.16100 27.82500
H  12.04900 53.76300 28.87000
H  11.01500 53.65400 27.45500
H  10.32300 55.57300 24.31600
H  11.47600 55.77000 25.67400
H  10.33400 54.37800 25.69400
H  16.59900 52.78400 21.66600
H  17.45600 49.96500 21.60300
H  14.47200 50.84100 21.96800
H  15.37100 50.27800 20.64500
H  14.72200 51.90300 20.48700
H  18.36300 52.15500 20.29000
H  19.32800 50.78300 20.96600
H  20.61600 52.36100 22.21800
H  19.16900 53.14100 22.84400
H  19.74000 53.59700 21.34300
H  20.69000 47.19900 24.66000
H  21.99600 47.64100 25.83500
H  21.67100 48.67100 24.33100
H  20.18800 49.79500 30.08200
H  19.33200 46.66700 32.69800
H  18.72900 48.24800 33.44800
H  20.45100 47.52200 33.54700
Mg 0.53400 42.45700 26.23900
C  1.83300 42.41800 29.51700
C  -2.28400 41.12700 27.37800
C  -0.21500 41.64800 23.11200
C  3.97800 43.09800 25.15500
N  -0.06300 41.77800 28.17100
C  0.48100 42.02600 29.40300
C  -0.45400 41.87200 30.58500
C  -1.72900 41.21800 29.89800
C  -1.38600 41.36300 28.37400
C  -1.97400 39.66400 30.15300
C  -0.80800 43.29800 31.21600
C  -0.50000 43.49400 32.75000
H  -0.71000 42.37500 33.74700
N  -1.14400 41.71900 25.34100
C  -2.26400 41.20600 26.00900
C  -3.28300 40.94100 25.00700
C  -2.61000 41.01200 23.70500
C  -1.27300 41.49500 23.97800
C  -4.69300 40.50300 25.46300
C  -3.22700 40.55800 22.34000
O  -2.59300 40.71300 21.33000
C  -4.71100 40.24300 22.30600
N  1.79700 42.27600 24.44700
C  1.13700 42.05700 23.27000
C  2.05700 42.37200 22.08800
C  3.22900 43.21100 22.71800
C  2.98300 42.87000 24.22300
C  2.32800 41.11200 21.17700
C  3.27200 44.81200 22.45700
C  4.11600 45.16700 21.21400
N  2.50700 42.76300 27.13200
C  3.76000 43.11100 26.56100
C  4.74400 43.17400 27.62500
C  4.07100 42.94200 28.84500
C  2.69700 42.68400 28.44400
C  6.19900 43.43300 27.54700
C  4.16900 42.88000 30.26800
O  5.13000 43.03600 31.03000
C  2.68500 42.68900 30.71900
C  2.83900 41.56600 31.64300
O  3.00200 40.39100 31.30300
O  3.01000 42.00700 32.95400
C  3.25000 40.94800 33.97400
H  -3.21000 40.80500 27.85800
H  -0.42300 41.33800 22.08600
H  4.95900 43.43400 24.81200
H  0.07300 41.28200 31.33500
H  -2.66900 41.74100 30.07600
H  -1.61900 39.35700 31.13700
H  -1.52600 39.04400 29.37700
H  -3.03800 39.44700 30.04800
H  -1.87600 43.44800 31.05200
H  -0.31800 44.09000 30.65000
H  -1.02300 44.37600 33.12000
H  0.57700 43.63700 32.82900
H  -4.88600 40.85900 26.47500
H  -4.66500 39.41300 25.47100
H  -5.54300 40.98700 24.98200
H  -4.93600 39.39900 22.95800
H  -4.97600 39.88000 21.31300
H  -5.32500 41.08000 22.63800
H  1.58000 43.13500 21.47400
H  4.15200 42.72100 22.40900
H  1.99700 40.27000 21.78500
H  3.37700 41.05700 20.88500
H  1.78800 41.21800 20.23600
H  3.55100 45.41400 23.32200
H  2.27200 45.09000 22.12200
H  3.53500 45.73300 20.48600
H  4.56400 44.26500 20.79700
H  4.88300 45.83900 21.59900
H  6.38100 44.48900 27.74500
H  6.65500 43.12300 26.60600
H  6.77400 42.87400 28.28600
H  2.33600 43.56400 31.26700
H  2.92700 39.96700 33.62500
H  2.66300 41.07300 34.88400
H  4.29600 40.79100 34.23700

