158

Mg 1.00800 8.50100 26.40700
C  1.82900 10.37300 29.24400
C  1.40300 5.60400 28.11300
C  0.78000 6.76400 23.35400
C  1.17000 11.50400 24.50500
N  1.53500 8.10300 28.51600
C  1.83800 8.96900 29.52200
C  1.95900 8.27100 30.83400
C  2.06400 6.74500 30.39300
C  1.61200 6.79400 28.91900
C  3.41600 6.02000 30.76700
C  0.80600 8.48100 31.83900
C  1.22200 8.95100 33.22200
H  2.28300 8.15400 34.10200
N  0.98800 6.48000 25.82900
C  1.09500 5.40300 26.71200
C  0.84700 4.13900 26.09300
C  0.67800 4.47300 24.69400
C  0.78500 5.96100 24.52700
C  0.95900 2.72800 26.84100
C  0.40200 3.50500 23.56100
O  0.31700 3.96000 22.38600
C  0.13200 2.00900 23.80000
N  0.99900 9.04200 24.25000
C  0.98700 8.15600 23.25200
C  1.00900 8.86400 21.88400
C  0.73400 10.28500 22.22400
C  0.99300 10.26600 23.72800
C  2.29800 8.57800 20.97900
C  -0.60500 10.83500 21.71000
C  -1.72700 10.85200 22.74000
N  1.32800 10.54900 26.76500
C  1.32900 11.65100 25.91200
C  1.58900 12.83800 26.70200
C  1.74100 12.35900 28.02200
C  1.58600 10.98600 28.02300
C  1.66300 14.26200 26.17000
C  2.02800 12.81100 29.32600
O  2.27200 13.95600 29.75600
C  1.91300 11.53100 30.22300
C  3.17200 11.57400 30.99600
O  4.15700 10.88000 30.82100
O  2.89700 12.26300 32.15300
C  3.69400 11.89900 33.32700
H  1.39600 4.74000 28.78100
H  0.72600 6.39600 22.32800
H  1.21900 12.45600 23.97200
H  2.92100 8.63800 31.19300
H  1.30700 6.18200 30.93800
H  3.83000 5.39700 29.97400
H  3.19600 5.33500 31.58600
H  4.08300 6.80800 31.11600
H  0.22500 7.56900 31.97500
H  0.19200 9.34000 31.57000
H  0.36700 9.17600 33.86000
H  1.72100 9.90700 33.06400
H  0.10100 2.06200 26.74900
H  1.21800 2.92800 27.88000
H  1.72800 2.07700 26.42500
H  -0.50800 1.72800 24.63600
H  1.10900 1.53700 23.90700
H  -0.16400 1.67600 22.80600
H  0.18100 8.49700 21.27800
H  1.42800 10.98300 21.75600
H  2.85800 9.49600 20.80100
H  2.05100 8.15800 20.00400
H  2.96300 7.84900 21.44100
H  -0.90400 10.17300 20.89700
H  -0.51400 11.86100 21.35300
H  -2.48900 10.12700 22.45600
H  -2.14900 11.85600 22.78400
H  -1.50700 10.58300 23.77300
H  1.32600 14.34200 25.13700
H  2.67500 14.64700 26.28900
H  1.07200 14.88200 26.84400
H  1.07200 11.73600 30.88500
H  4.47400 11.20900 33.00700
H  3.03900 11.55600 34.12800
H  4.16900 12.84300 33.59400
Mg -1.91700 34.97800 26.82900
C  -3.67400 33.15000 29.22900
C  -0.65200 36.95700 29.30100
C  -0.58500 36.70300 24.39900
C  -3.69900 33.03800 24.33800
N  -2.02500 34.96700 29.01400
C  -2.77300 34.11300 29.76900
C  -2.50800 34.37200 31.32400
C  -1.66500 35.67800 31.29000
C  -1.40200 35.85100 29.74100
C  -2.38500 36.93500 31.91800
C  -1.91500 33.08600 32.10300
C  -2.81200 32.54600 33.34800
H  -2.10400 32.63000 34.75400
N  -0.71800 36.51100 26.84900
C  -0.33700 37.25800 27.94600
C  0.57900 38.31200 27.53100
C  0.71600 38.16900 26.17200
C  -0.23100 37.11900 25.70400
C  1.30900 39.35100 28.44000
C  1.52000 38.98900 25.17400
O  1.47000 38.68800 23.97500
C  2.43500 40.08700 25.48600
N  -2.27500 34.92200 24.68200
C  -1.52400 35.73500 23.95800
C  -1.69500 35.55700 22.47600
C  -2.79800 34.40800 22.39200
C  -2.99700 34.14200 23.84700
C  -1.97800 36.84200 21.58000
C  -2.50300 33.11700 21.59000
C  -1.16800 32.46500 21.92000
N  -3.39700 33.41100 26.73300
C  -4.02200 32.78600 25.68100
C  -4.80900 31.66200 26.21200
C  -4.65800 31.78500 27.60300
C  -3.86100 32.87000 27.87800
C  -5.54800 30.55600 25.41800
C  -5.12000 31.25900 28.88300
O  -5.92600 30.34700 29.10800
C  -4.49300 32.17300 30.00700
C  -5.55800 32.87100 30.81400
O  -6.02200 33.99900 30.63000
O  -6.00400 32.05600 31.82300
C  -7.02300 32.66400 32.72800
H  -0.29900 37.55000 30.14700
H  -0.31800 37.40500 23.60700
H  -4.18400 32.35200 23.64000
H  -3.46100 34.48300 31.84100
H  -0.66200 35.65100 31.71600
H  -1.71600 37.26400 32.71300
H  -3.24900 36.61400 32.49900
H  -2.62900 37.68000 31.16000
H  -1.00400 33.39200 32.61600
H  -1.78600 32.25600 31.40800
H  -2.99000 31.47900 33.21200
H  -3.77200 33.06200 33.32100
H  0.83200 40.32100 28.30400
H  2.33700 39.53600 28.13100
H  1.21200 39.15000 29.50700
H  2.73800 40.53900 24.54200
H  3.34700 39.67500 25.91900
H  1.94300 40.84200 26.09800
H  -0.77600 35.08700 22.12400
H  -3.70400 34.83800 21.96600
H  -2.31300 37.70000 22.16300
H  -2.73600 36.58600 20.84100
H  -1.11600 37.11100 20.96800
H  -2.47300 33.35600 20.52700
H  -3.30600 32.38000 21.60600
H  -1.33900 31.44500 22.26600
H  -0.53100 33.03100 22.59900
H  -0.56900 32.34200 21.01800
H  -5.75000 29.87900 26.24800
H  -4.96800 30.16200 24.58300
H  -6.45800 30.89900 24.92600
H  -3.86200 31.55000 30.64100
H  -6.51300 33.17000 33.54800
H  -7.64300 31.86500 33.13600
H  -7.65200 33.28000 32.08600

