158

Mg 8.13300 1.79900 27.80300
C  9.81700 0.46000 30.61000
C  6.47100 3.94100 29.91500
C  6.17500 2.57500 25.15900
C  9.56600 -0.80800 25.87100
N  8.07600 1.99600 30.03000
C  8.92300 1.44900 30.94700
C  8.60000 1.93100 32.33300
C  7.33100 2.82000 32.08500
C  7.32600 2.99700 30.56300
C  5.98200 2.38800 32.71400
C  9.89200 2.58600 32.96100
C  10.19200 2.42700 34.44200
H  9.07600 2.29900 35.50100
N  6.67500 3.14700 27.52300
C  6.23600 4.02700 28.49100
C  5.36700 5.02600 27.83200
C  5.15700 4.63000 26.53400
C  6.03600 3.46300 26.28900
C  4.72700 6.15300 28.62900
C  4.17900 5.18300 25.51300
O  4.08000 4.86900 24.34000
C  3.32700 6.32200 25.87900
N  7.90500 1.01600 25.80000
C  6.94600 1.46000 24.92400
C  6.85900 0.57300 23.66600
C  8.04700 -0.41400 23.90000
C  8.61200 -0.05900 25.25500
C  5.35000 0.01400 23.43300
C  9.10400 -0.45900 22.71600
C  9.47900 -1.85900 22.27200
N  9.50400 0.29300 28.01900
C  10.00000 -0.67600 27.19700
C  10.86200 -1.55200 27.91200
C  10.83000 -1.10500 29.25400
C  10.01500 0.00300 29.25900
C  11.59100 -2.82900 27.42000
C  11.34300 -1.39900 30.58400
O  12.21500 -2.18000 30.89600
C  10.64000 -0.38700 31.50700
C  9.76800 -1.18700 32.52700
O  8.67000 -1.61700 32.34000
O  10.35200 -1.17400 33.76400
C  9.70500 -1.90000 34.84800
H  5.85800 4.56600 30.56700
H  5.47300 2.77700 24.34700
H  9.96200 -1.64200 25.28700
H  8.51900 1.05500 32.97700
H  7.51600 3.80800 32.50500
H  5.75200 3.08700 33.51900
H  6.11900 1.49400 33.32200
H  5.24300 2.14800 31.94900
H  9.79700 3.64100 32.70300
H  10.77400 2.28800 32.39300
H  10.59000 3.40900 34.69700
H  10.94300 1.68800 34.72200
H  4.71200 7.11000 28.10700
H  5.16700 6.42200 29.58900
H  3.66200 5.93800 28.71400
H  2.88800 5.99600 26.82200
H  2.60300 6.45500 25.07500
H  3.79300 7.29000 26.06900
H  7.17900 1.18700 22.82400
H  7.60500 -1.39300 24.08600
H  4.73600 0.08300 24.33100
H  5.41100 -1.05200 23.21800
H  4.92200 0.59100 22.61300
H  10.00400 0.13300 22.88600
H  8.65800 0.04000 21.85500
H  9.11700 -1.78400 21.24700
H  8.84300 -2.62400 22.71800
H  10.56600 -1.86700 22.34900
H  12.67600 -2.79700 27.52700
H  11.29100 -3.06300 26.39900
H  11.18200 -3.57400 28.10300
H  11.46500 -0.00500 32.10700
H  9.34900 -2.84000 34.42600
H  8.88800 -1.33600 35.29900
H  10.41300 -2.13700 35.64200
Mg 1.61600 42.56000 25.86500
C  4.07100 42.41800 28.43700
C  -0.72900 41.74800 28.17000
C  -0.64400 42.72400 23.30400
C  4.20300 42.91500 23.52400
N  1.72600 41.90900 27.97100
C  2.76500 42.16900 28.87700
C  2.37600 41.90700 30.29900
C  0.88400 41.48500 30.15900
C  0.57900 41.68400 28.64700
C  0.43700 40.11400 30.76300
C  2.72700 43.11700 31.28500
C  1.70500 43.47300 32.36400
H  1.30800 42.30700 33.38100
N  -0.42100 42.32100 25.76100
C  -1.24400 41.96100 26.78100
C  -2.65800 42.03600 26.38400
C  -2.65200 42.35600 24.95100
C  -1.18300 42.43400 24.61100
C  -3.80300 41.83600 27.34900
C  -3.81200 42.50000 23.97900
O  -3.59400 42.80000 22.80800
C  -5.30200 42.55600 24.53500
N  1.75400 42.63400 23.67600
C  0.72000 42.76700 22.87300
C  1.15600 42.97800 21.41000
C  2.67300 43.27000 21.56200
C  2.91100 42.84000 22.99600
C  0.72300 41.86100 20.43700
C  3.06900 44.75700 21.14300
C  2.90600 45.81900 22.26600
N  3.71700 42.56400 25.92100
C  4.62600 42.72400 24.91600
C  5.99200 42.79200 25.44000
C  5.82000 42.71700 26.83600
C  4.41000 42.53200 27.09600
C  7.25900 43.06800 24.67200
C  6.49400 42.74500 28.07200
O  7.68400 42.99500 28.13000
C  5.41000 42.48300 29.11700
C  5.74200 41.32200 30.03300
O  5.64800 40.10900 29.70400
O  6.08100 41.83500 31.28700
C  6.34600 40.82200 32.26100
H  -1.55000 41.57100 28.86800
H  -1.31600 42.86900 22.45500
H  4.97400 43.13400 22.78200
H  2.94300 41.03800 30.63300
H  0.36900 42.26000 30.72800
H  -0.19400 39.56100 30.06800
H  -0.09700 40.41200 31.66600
H  1.29000 39.45700 30.93000
H  3.06000 44.04700 30.82300
H  3.64900 42.86600 31.80900
H  0.76300 43.81200 31.93300
H  2.22500 44.20700 32.98000
H  -4.58300 41.18200 26.95900
H  -4.14200 42.83400 27.62900
H  -3.49000 41.62000 28.37100
H  -5.54200 41.56800 24.92600
H  -5.96100 42.82900 23.71100
H  -5.38800 43.29300 25.33400
H  0.68600 43.88800 21.03600
H  3.15200 42.52400 20.92800
H  -0.23300 41.41500 20.70800
H  1.39500 41.00400 20.39300
H  0.74400 42.36700 19.47200
H  2.43400 45.08000 20.31800
H  4.07300 44.73100 20.71900
H  3.84300 46.37500 22.29500
H  2.66900 45.54200 23.29300
H  2.18400 46.53200 21.86900
H  6.98300 43.69400 23.82300
H  7.75400 42.14900 24.35800
H  8.01700 43.55500 25.28500
H  5.50300 43.37400 29.73900
H  5.59400 40.03400 32.22300
H  6.10000 41.29600 33.21100
H  7.39900 40.56300 32.37800

