158

Mg -1.96800 17.85600 27.30000
C  -2.46100 15.31400 29.70100
C  -2.87400 20.13100 29.69900
C  -2.37600 20.15300 24.91100
C  -2.05700 15.34400 24.94000
N  -2.46700 17.70900 29.51600
C  -2.53600 16.59900 30.30500
C  -2.72000 16.94400 31.80000
C  -3.06900 18.50200 31.69200
C  -2.72800 18.81400 30.24000
C  -4.50500 18.95800 32.18200
C  -1.52300 16.70100 32.71700
C  -1.80300 16.03900 34.07100
H  -0.85900 16.36100 35.29700
N  -2.27200 19.90600 27.34800
C  -2.62300 20.63100 28.43900
C  -2.71300 22.03600 28.09200
C  -2.43400 22.16700 26.68400
C  -2.33700 20.71400 26.19200
C  -3.01500 23.17600 29.03100
C  -2.15400 23.42800 25.84900
O  -1.84100 23.34700 24.67500
C  -2.01300 24.70200 26.54400
N  -2.04400 17.79200 25.23200
C  -2.32200 18.88000 24.45100
C  -2.40200 18.44200 22.95300
C  -2.27100 16.88600 23.02400
C  -2.01200 16.65100 24.49200
C  -3.68300 18.91700 22.17900
C  -1.13600 16.37500 22.11400
C  0.25600 16.34800 22.70100
N  -2.13700 15.74700 27.19200
C  -2.12000 14.88000 26.20800
C  -2.27300 13.52700 26.57200
C  -2.33100 13.59600 27.99000
C  -2.34300 14.98900 28.29400
C  -2.40700 12.26100 25.78100
C  -2.51800 12.89100 29.23900
O  -2.44600 11.61400 29.35600
C  -2.61600 13.95300 30.38900
C  -1.60800 13.48400 31.43100
O  -0.38800 13.66100 31.37800
O  -2.29800 12.75400 32.33600
C  -1.52900 12.23600 33.50000
H  -3.15400 20.87500 30.44900
H  -2.55700 20.90500 24.14000
H  -2.05000 14.57000 24.17000
H  -3.57700 16.41500 32.21700
H  -2.34600 19.19100 32.12900
H  -5.14900 19.05500 31.30800
H  -4.35000 19.87500 32.75000
H  -4.80800 18.19300 32.89700
H  -1.02200 17.66300 32.82800
H  -0.79900 16.11900 32.14600
H  -1.87600 14.95700 33.96800
H  -2.79700 16.36600 34.37700
H  -2.15400 23.82300 29.19500
H  -3.51500 22.96200 29.97600
H  -3.73400 23.74800 28.44500
H  -1.78900 25.50200 25.83800
H  -1.18700 24.54700 27.23800
H  -2.99200 25.00000 26.91700
H  -1.65800 18.93900 22.33100
H  -3.16900 16.33900 22.73800
H  -3.53400 19.67400 21.40900
H  -4.41800 19.44300 22.78700
H  -4.18800 18.04200 21.77000
H  -1.30300 16.98800 21.22800
H  -1.34100 15.35000 21.80600
H  0.46200 15.27800 22.71000
H  0.43300 16.58600 23.75000
H  0.99700 16.89400 22.11700
H  -2.33000 11.35700 26.38500
H  -1.57000 12.31000 25.08600
H  -3.31900 12.22200 25.18500
H  -3.61000 13.71700 30.77000
H  -1.51100 11.14600 33.52200
H  -1.91300 12.65900 34.42800
H  -0.50100 12.59400 33.56700
Mg 48.26200 16.60400 28.33200
C  46.10100 16.57300 31.19900
C  50.44300 18.62400 30.14300
C  50.11300 16.78100 25.52400
C  45.68700 15.09900 26.59000
N  48.24900 17.52900 30.42100
C  47.36400 17.21700 31.45400
C  47.89200 17.67300 32.81200
C  49.13200 18.58100 32.37600
C  49.31100 18.17400 30.88900
C  48.97700 20.15200 32.56400
C  48.46900 16.46700 33.62000
C  48.03000 16.36400 35.10800
H  47.57000 17.65200 35.80000
N  50.10800 17.58100 27.87500
C  50.86400 18.35700 28.78400
C  52.05700 18.73400 28.07700
C  51.99400 18.16500 26.75100
C  50.67900 17.53300 26.61400
C  53.09000 19.44100 28.76900
C  53.08100 18.14000 25.63700
O  52.87400 17.63400 24.53400
C  54.44700 18.61000 25.99600
N  47.91700 16.10700 26.34700
C  48.92000 16.10400 25.46400
C  48.52100 15.44400 24.14000
C  47.06000 15.03100 24.37300
C  46.85500 15.40800 25.87000
C  48.49700 16.55300 23.04400
C  46.68700 13.51700 23.92900
C  45.47000 13.43900 22.95500
N  46.36600 15.90000 28.77200
C  45.39300 15.29100 27.98900
C  44.20200 15.00700 28.68700
C  44.44300 15.44000 29.98800
C  45.73100 15.98900 29.99900
C  43.01400 14.30500 28.05200
C  43.95600 15.51300 31.32900
O  42.93300 15.05700 31.74900
C  45.04200 16.36100 32.23200
C  44.46400 17.61500 32.85700
O  44.43800 18.70000 32.28500
O  43.99400 17.27100 34.02800
C  42.71600 17.80700 34.50400
H  51.19000 19.13400 30.75400
H  50.77100 16.66400 24.66000
H  44.99600 14.48800 26.00600
H  47.11500 18.20600 33.36000
H  50.11600 18.41700 32.81500
H  49.68900 20.68200 33.19500
H  47.99400 20.37200 32.98000
H  48.99300 20.61700 31.57800
H  49.55600 16.51000 33.55700
H  48.01800 15.55100 33.23900
H  48.91100 16.10300 35.69400
H  47.28200 15.57100 35.08800
H  53.97400 18.82000 28.91300
H  52.85100 19.92500 29.71700
H  53.42600 20.14900 28.01200
H  54.45600 19.69900 26.04000
H  55.01200 18.45600 25.07700
H  54.92700 18.17800 26.87500
H  49.17000 14.58000 23.99200
H  46.32700 15.63600 23.83900
H  48.89300 17.54300 23.27000
H  47.53600 16.66200 22.54200
H  49.12400 16.08600 22.28500
H  46.43200 12.91200 24.79900
H  47.56700 13.05000 23.48700
H  45.80000 13.52500 21.92000
H  44.72100 14.19300 23.20000
H  45.02100 12.44700 22.99200
H  43.55100 13.40200 27.76200
H  42.74200 14.75000 27.09500
H  42.15400 14.17400 28.70800
H  45.38600 15.72200 33.04600
H  42.94200 18.49800 35.31500
H  42.03400 17.03400 34.85900
H  42.16100 18.29100 33.70100

