158

Mg 24.12000 -5.71400 45.23500
C  26.46700 -3.63900 43.97100
C  21.83700 -4.35500 43.24400
C  22.26900 -8.57500 45.58700
C  26.67900 -7.35200 47.07200
N  24.14900 -4.12800 43.89400
C  25.17800 -3.34100 43.53800
C  24.78600 -2.30500 42.45300
C  23.21600 -2.27700 42.66200
C  23.00300 -3.67700 43.27000
C  22.64200 -1.16100 43.53300
C  25.29500 -2.79300 41.01500
C  26.13400 -1.87600 40.11400
H  25.77600 -1.93000 38.62800
N  22.26200 -6.39400 44.53000
C  21.39800 -5.62300 43.77200
C  20.22000 -6.35100 43.49000
C  20.34000 -7.59500 44.17300
C  21.64700 -7.61000 44.80600
C  19.04300 -5.76300 42.80400
C  19.31200 -8.70500 44.18000
O  18.29400 -8.58700 43.48400
C  19.47600 -9.94600 44.94600
N  24.52800 -7.80100 46.10900
C  23.50100 -8.65600 46.22500
C  23.85200 -9.77000 47.27900
C  25.22100 -9.29300 47.92300
C  25.48300 -8.02900 47.02700
C  22.69200 -10.01700 48.31000
C  26.33300 -10.31700 47.86100
C  26.99100 -10.62200 49.22800
N  26.18800 -5.60400 45.51200
C  27.13500 -6.29200 46.30100
C  28.47600 -5.78100 46.08300
C  28.27300 -4.76700 45.16200
C  26.89500 -4.65900 44.88200
C  29.70600 -6.20000 46.93100
C  28.87500 -3.66300 44.38800
O  30.08400 -3.30300 44.40300
C  27.76000 -2.95200 43.54000
C  27.91400 -1.49100 43.86000
O  28.54800 -0.66100 43.25000
O  27.22700 -1.24500 45.04900
C  27.39100 0.14700 45.50100
H  21.05100 -3.91300 42.62800
H  21.66200 -9.48200 45.62300
H  27.48400 -7.68400 47.73100
H  25.19200 -1.33500 42.73900
H  22.75000 -2.18500 41.68000
H  23.43100 -0.48000 43.84900
H  22.09200 -1.57300 44.37900
H  21.97800 -0.61800 42.86000
H  24.45300 -3.23700 40.48500
H  25.88700 -3.69700 41.15500
H  27.16700 -2.19200 40.25800
H  25.92300 -0.85600 40.43500
H  18.65200 -6.46700 42.06900
H  19.24400 -4.79200 42.35200
H  18.25900 -5.62900 43.54900
H  20.31900 -10.55600 44.62100
H  18.63000 -10.60800 44.76600
H  19.37600 -9.62000 45.98100
H  24.04400 -10.68700 46.72300
H  25.09000 -8.91600 48.93700
H  22.20400 -10.97400 48.12500
H  21.94700 -9.22300 48.37100
H  23.16400 -10.24500 49.26500
H  27.01600 -9.96800 47.08700
H  25.97400 -11.24000 47.40700
H  26.20800 -10.95000 49.91200
H  27.47300 -9.69900 49.55000
H  27.61400 -11.51500 49.17000
H  30.21500 -7.04800 46.47300
H  29.34600 -6.51300 47.91100
H  30.39200 -5.38300 47.15100
H  27.97100 -3.02000 42.47300
H  26.70300 0.37000 46.31700
H  27.35800 0.97600 44.79400
H  28.38600 0.20500 45.94300
Mg 25.89000 0.97400 29.14000
C  27.66400 0.64000 32.06000
C  22.93600 1.31400 30.88200
C  24.24200 1.43400 26.19100
C  28.79800 0.20000 27.37900
N  25.36400 0.79400 31.19900
C  26.32600 0.85400 32.24400
C  25.62000 1.05700 33.62000
C  24.10400 0.88200 33.18100
C  24.09500 1.00300 31.65200
C  23.22800 -0.27600 33.70200
C  25.97900 2.46700 34.17900
C  26.95100 2.40700 35.36200
H  26.49700 3.30200 36.51700
N  23.89900 1.24200 28.61700
C  22.88500 1.41200 29.46500
C  21.70800 1.65600 28.72200
C  22.01100 1.93100 27.39300
C  23.45500 1.52200 27.34600
C  20.43000 1.66700 29.44500
C  21.17200 2.39600 26.22500
O  21.58600 2.62500 25.10300
C  19.74300 2.68300 26.50100
N  26.46000 0.70800 27.08600
C  25.59400 1.16100 26.08200
C  26.33300 1.27500 24.74300
C  27.80600 1.05600 25.16700
C  27.71400 0.59900 26.65900
C  25.78100 0.38300 23.64400
C  28.68100 2.39100 24.92500
C  29.20200 2.50300 23.49400
N  27.82500 0.36900 29.56300
C  28.84600 0.01600 28.76400
C  30.02500 -0.31600 29.53300
C  29.60900 -0.05600 30.88200
C  28.24200 0.34800 30.81400
C  31.33400 -0.72200 29.04600
C  30.03600 0.05000 32.23900
O  31.16700 -0.18000 32.69400
C  28.76300 0.45100 33.12900
C  28.45800 -0.63000 34.07300
O  27.78600 -1.66500 33.85400
O  28.93800 -0.26700 35.24000
C  28.60000 -1.13100 36.41300
H  22.07300 1.64400 31.46400
H  23.81400 1.81200 25.26000
H  29.74700 0.19800 26.83800
H  25.94500 0.24100 34.26400
H  23.58800 1.81900 33.39000
H  23.92300 -0.93500 34.22200
H  22.82800 -0.73600 32.79900
H  22.37100 -0.10500 34.35300
H  25.09800 3.02200 34.50100
H  26.35300 3.10000 33.37500
H  27.89400 2.80100 34.98400
H  27.16600 1.40100 35.72200
H  20.12600 2.68100 29.70400
H  20.48200 0.95400 30.26800
H  19.64700 1.24500 28.81500
H  19.18600 1.80100 26.81700
H  19.23900 3.04700 25.60600
H  19.70400 3.51300 27.20700
H  26.27200 2.30600 24.39400
H  28.31500 0.23000 24.67200
H  24.73500 0.14500 23.83800
H  26.25900 -0.55900 23.37300
H  26.01900 0.99200 22.77200
H  29.57200 2.28600 25.54400
H  28.09500 3.25600 25.23600
H  30.27800 2.33400 23.44400
H  28.93400 3.47800 23.08900
H  28.83700 1.71900 22.83100
H  32.10000 -0.02100 29.37700
H  31.41200 -0.60900 27.96500
H  31.54600 -1.76800 29.26700
H  29.13500 1.33200 33.65100
H  28.70700 -2.18000 36.13700
H  27.65700 -0.93900 36.92400
H  29.32900 -0.87900 37.18300

