158

Mg 27.19700 50.81600 25.86200
C  25.31300 51.94500 28.63000
C  29.42000 49.33800 28.19700
C  29.20400 49.98500 23.33900
C  25.20700 52.77000 23.86600
N  27.39100 50.70400 28.18400
C  26.42400 51.20400 29.09100
C  26.77300 50.72300 30.53300
C  28.11500 49.96300 30.32400
C  28.29400 49.95000 28.81700
C  29.30800 50.70600 30.97300
C  25.65200 50.00800 31.33500
C  25.23300 50.51800 32.79400
H  26.29000 50.77100 33.87100
N  29.04600 49.74500 25.78000
C  29.85300 49.30900 26.86400
C  30.99700 48.63900 26.27100
C  30.95600 48.88900 24.85900
C  29.70000 49.54700 24.62100
C  32.06100 47.80200 27.05900
C  32.00500 48.63300 23.77300
O  31.91400 48.84700 22.56800
C  33.29700 47.99700 24.25400
N  27.17800 51.31900 23.89300
C  28.07800 50.78400 22.99900
C  27.69000 51.09100 21.49400
C  26.32100 51.82900 21.61500
C  26.21800 52.01100 23.22600
C  28.73200 51.63400 20.52200
C  25.18800 51.05500 20.93500
C  24.20400 52.08100 20.33900
N  25.51900 52.10000 26.15400
C  24.84200 52.83600 25.21100
C  23.70100 53.54600 25.73900
C  23.85200 53.19300 27.11600
C  25.02700 52.37000 27.28300
C  22.69800 54.38100 25.05300
C  23.20200 53.28000 28.43300
O  22.02000 53.62100 28.70300
C  24.16000 52.52600 29.50900
C  24.62100 53.49600 30.55300
O  25.63600 54.17300 30.58500
O  23.67100 53.48100 31.58300
C  23.97000 54.25800 32.83600
H  30.00200 48.84700 28.98100
H  29.75500 49.63600 22.46300
H  24.50700 53.28100 23.20300
H  26.93100 51.71200 30.96400
H  28.06600 48.93800 30.69000
H  29.83900 51.33400 30.25900
H  30.00200 49.99200 31.41700
H  28.93800 51.33200 31.78500
H  26.00500 49.01200 31.60000
H  24.69600 49.80900 30.85100
H  24.57700 49.74400 33.19200
H  24.72400 51.47900 32.71900
H  32.63100 47.02800 26.54500
H  31.78100 47.32800 28.00000
H  32.89800 48.45700 27.30100
H  33.89300 48.07400 23.34400
H  33.18200 46.95900 24.56400
H  33.69900 48.71200 24.97200
H  27.45300 50.06800 21.20200
H  26.55400 52.82800 21.24700
H  29.68000 51.37100 20.99200
H  28.69100 52.72000 20.43300
H  28.79800 51.02600 19.62000
H  24.73000 50.56400 21.79300
H  25.62500 50.42700 20.15800
H  23.37400 51.46900 19.98600
H  24.55400 52.58700 19.44000
H  23.81400 52.85200 21.00300
H  21.74200 53.87800 24.90600
H  22.97900 54.66000 24.03800
H  22.55900 55.32300 25.58300
H  23.74500 51.67300 30.04600
H  25.04200 54.31700 33.02600
H  23.42000 53.95000 33.72500
H  23.61600 55.27500 32.67100
Mg -1.49600 33.91800 27.27000
C  -3.43300 32.47200 29.88100
C  0.05300 35.91400 29.63000
C  -0.51100 35.93100 24.78300
C  -3.66100 32.27100 24.98500
N  -1.85900 34.33500 29.48100
C  -2.51100 33.45800 30.40100
C  -2.20400 33.85900 31.83700
C  -1.14300 35.03500 31.73100
C  -0.95700 35.06700 30.24800
C  -1.65500 36.37500 32.38900
C  -1.68800 32.72200 32.76100
C  -0.90200 33.01400 34.05700
H  -1.28300 32.25600 35.30700
N  -0.22600 35.54400 27.19100
C  0.39900 36.13400 28.27900
C  1.27700 37.13000 27.79800
C  1.05600 37.26700 26.38900
C  0.06200 36.23100 26.04600
C  2.04500 37.97800 28.70900
C  1.64600 38.21800 25.36600
O  1.41900 38.19000 24.16200
C  2.72700 39.22600 25.86000
N  -2.03200 34.11500 25.24000
C  -1.38300 34.98400 24.37100
C  -1.84800 34.81300 22.91200
C  -2.58000 33.40800 22.98200
C  -2.81300 33.30000 24.50500
C  -2.73700 35.93100 22.38800
C  -1.80600 32.14600 22.52200
C  -0.30000 32.18900 22.76300
N  -3.17300 32.61800 27.32800
C  -3.82600 31.94900 26.32700
C  -4.70200 30.98600 27.00400
C  -4.52900 31.12000 28.36600
C  -3.67000 32.19600 28.53500
C  -5.56300 30.06100 26.27400
C  -4.98100 30.58600 29.62200
O  -5.77400 29.67600 29.89300
C  -4.20800 31.38700 30.66100
C  -5.21200 31.98900 31.62500
O  -6.09000 32.75700 31.34800
O  -5.04500 31.40000 32.85800
C  -6.03100 31.65200 33.90800
H  0.64500 36.41400 30.40000
H  -0.24700 36.51900 23.90100
H  -4.14100 31.65600 24.22000
H  -3.06600 34.26700 32.36400
H  -0.15500 34.73500 32.08100
H  -1.84200 36.94900 31.48200
H  -0.90400 36.92500 32.95600
H  -2.57700 36.22800 32.95200
H  -0.89700 32.18600 32.23700
H  -2.44800 32.03900 33.14000
H  -1.20100 34.03500 34.29400
H  0.18300 32.91400 34.02000
H  2.20900 37.65400 29.73700
H  1.66100 38.99400 28.79800
H  3.00100 38.09600 28.19900
H  3.02500 39.94900 25.10100
H  3.54300 38.51300 25.97800
H  2.46400 39.70000 26.80500
H  -1.09100 34.74500 22.13100
H  -3.51000 33.40800 22.41300
H  -3.69700 35.60900 21.98500
H  -2.23000 36.59900 21.69200
H  -2.90400 36.69200 23.15000
H  -1.98100 32.30300 21.45800
H  -2.31300 31.22500 22.81000
H  0.14900 32.50500 21.82200
H  0.14800 31.20300 22.88800
H  0.08800 32.77700 23.59500
H  -5.99100 30.68800 25.49200
H  -6.22500 29.53300 26.96000
H  -4.96600 29.31100 25.75500
H  -3.56600 30.78400 31.30200
H  -5.56100 32.24500 34.69200
H  -6.55900 30.80200 34.33900
H  -6.90000 32.16600 33.49600

