158

Mg 25.78600 0.86900 29.07600
C  27.60300 0.30500 32.06900
C  22.86200 1.12100 31.09000
C  24.09100 0.70100 26.37600
C  28.75600 0.02100 27.28000
N  25.29100 0.61600 31.37700
C  26.22900 0.48900 32.35900
C  25.55000 0.63400 33.74300
C  24.02600 0.73900 33.40900
C  24.02700 0.87100 31.90100
C  23.04700 -0.27500 34.03100
C  26.24600 1.69900 34.63300
C  25.39200 2.31800 35.77700
H  26.20600 2.73000 36.99000
N  23.78400 1.00600 28.71100
C  22.76400 1.09400 29.65500
C  21.52800 1.16200 28.88600
C  21.85200 0.99900 27.44500
C  23.30900 0.89000 27.46000
C  20.24200 1.09000 29.65400
C  20.95200 0.99300 26.19700
O  21.30500 0.93800 24.99900
C  19.45100 1.00700 26.39100
N  26.43100 0.53800 27.11500
C  25.44600 0.64800 26.18700
C  25.95600 0.50800 24.77600
C  27.50600 0.38800 25.02000
C  27.57800 0.28200 26.51600
C  25.32000 -0.63200 23.88400
C  28.37600 1.62500 24.54900
C  29.80200 1.27700 24.10900
N  27.82700 0.37600 29.52600
C  28.89400 0.06100 28.69100
C  30.12100 -0.18600 29.47700
C  29.59800 -0.14300 30.81900
C  28.21800 0.16000 30.77100
C  31.49200 -0.36800 28.95800
C  29.98800 -0.23900 32.22100
O  31.09100 -0.55100 32.68200
C  28.73000 0.07200 33.08000
C  28.40800 -0.96500 34.08300
O  27.86100 -2.05900 33.93800
O  28.98900 -0.65000 35.32100
C  28.86800 -1.63200 36.40600
H  21.99800 1.48600 31.64900
H  23.58000 0.63400 25.41300
H  29.62800 -0.06300 26.62900
H  25.75700 -0.29300 34.27700
H  23.75000 1.73300 33.76000
H  22.27100 -0.53900 33.31300
H  22.58000 0.19200 34.89800
H  23.53900 -1.18600 34.37300
H  26.55100 2.49700 33.95500
H  27.12300 1.31500 35.15400
H  24.68200 1.57600 36.14400
H  24.86700 3.16100 35.32700
H  19.62700 1.94300 29.36700
H  20.45100 0.91300 30.70900
H  19.85200 0.15300 29.25600
H  19.27400 0.75500 27.43700
H  19.07100 0.16800 25.80800
H  19.01300 1.98100 26.17500
H  25.75100 1.48500 24.33800
H  27.77200 -0.59600 24.63500
H  24.65100 -1.31700 24.40500
H  25.99600 -1.28200 23.32900
H  24.75600 -0.08400 23.12900
H  28.49600 2.34500 25.35900
H  27.78400 2.23400 23.86700
H  30.60700 1.66300 24.73500
H  29.93300 1.79000 23.15600
H  29.81900 0.19700 23.95900
H  31.61800 0.01000 27.94300
H  31.77800 -1.41800 29.02500
H  32.11500 0.14900 29.68800
H  28.81100 1.09900 33.43600
H  29.43700 -2.55500 36.29600
H  27.85100 -2.01600 36.48000
H  29.14300 -1.20800 37.37200
Mg -0.08400 43.27700 25.07300
C  2.34900 42.30000 27.60100
C  -2.51400 42.39300 27.36600
C  -2.26200 43.76700 22.77900
C  2.63500 43.73700 22.87700
N  -0.09600 42.48200 27.29400
C  1.01700 42.23100 28.07500
C  0.60600 41.95700 29.49200
C  -0.96000 41.66000 29.33400
C  -1.23100 42.23200 27.92400
C  -1.31200 40.16900 29.56200
C  1.08700 43.04700 30.56900
C  0.24700 43.34700 31.76900
H  -0.30200 42.18500 32.67900
N  -2.15900 43.18500 25.04600
C  -2.97500 42.75200 26.04700
C  -4.37300 42.97100 25.57300
C  -4.31300 43.39300 24.21500
C  -2.85800 43.44800 23.93000
C  -5.59000 42.67700 26.42700
C  -5.41300 43.76300 23.25000
O  -5.19700 44.15100 22.08600
C  -6.78300 43.74700 23.75500
N  0.21200 43.70200 23.07700
C  -0.90400 43.94700 22.37200
C  -0.51000 44.40300 21.00000
C  1.07300 44.38200 20.99700
C  1.36000 43.90300 22.38400
C  -1.23100 43.64600 19.78400
C  1.73800 45.78200 20.81700
C  1.66400 46.28400 19.37400
N  2.07300 43.03700 25.10200
C  3.00600 43.35700 24.16800
C  4.35900 43.08700 24.65000
C  4.15400 42.70800 26.01600
C  2.75900 42.79700 26.28700
C  5.63100 43.19800 23.90200
C  4.83500 42.33200 27.29400
O  5.99500 42.13300 27.58300
C  3.66700 42.16100 28.34800
C  3.97800 40.90900 29.02900
O  3.71300 39.80700 28.66400
O  4.51400 41.25400 30.20600
C  4.70500 40.10700 31.09800
H  -3.21100 41.94800 28.07800
H  -2.92700 44.16800 22.01100
H  3.53800 43.92700 22.29300
H  1.13300 41.05700 29.80800
H  -1.59900 42.21600 30.02000
H  -1.71600 39.87200 28.59400
H  -2.01600 40.10000 30.39100
H  -0.46500 39.51600 29.77400
H  1.37100 43.93500 30.00500
H  2.09100 42.77600 30.89600
H  -0.53500 44.02800 31.43200
H  0.84000 43.96100 32.44700
H  -6.10300 43.63500 26.50300
H  -5.24900 42.40500 27.42600
H  -6.28500 41.96900 25.97500
H  -7.06600 44.55800 24.42700
H  -7.00400 42.73300 24.08600
H  -7.49500 43.77900 22.93000
H  -0.82300 45.44600 20.94400
H  1.48000 43.67500 20.27400
H  -1.37600 44.28200 18.91000
H  -2.06600 43.11300 20.23800
H  -0.48500 42.87800 19.57600
H  2.77000 45.76900 21.16700
H  1.34000 46.61100 21.40200
H  0.81200 45.83000 18.86800
H  2.62100 46.05000 18.90700
H  1.43300 47.35000 19.37100
H  5.80800 44.22500 23.58200
H  5.41400 42.57400 23.03500
H  6.54300 42.73700 24.28100
H  3.75600 42.98600 29.05400
H  5.04400 39.23200 30.54300
H  3.84400 39.88400 31.72800
H  5.58500 40.17400 31.73700

