158

Mg 25.74100 0.10400 29.48500
C  27.62100 -0.28400 32.46200
C  22.98800 0.26600 31.40400
C  23.94000 0.12000 26.63100
C  28.71800 -0.68100 27.61500
N  25.30900 -0.16800 31.73400
C  26.27600 -0.12600 32.76100
C  25.63300 0.02500 34.09900
C  24.07300 0.19900 33.75800
C  24.11900 0.05100 32.20400
C  23.03300 -0.68800 34.55900
C  26.26400 1.26200 34.85400
C  25.63200 1.80600 36.14000
H  26.62700 1.91200 37.33600
N  23.73800 0.20700 29.10400
C  22.70900 0.19500 29.99200
C  21.37500 0.26400 29.38400
C  21.63000 0.24100 27.95900
C  23.17400 0.29200 27.84200
C  20.09600 0.20000 30.17100
C  20.65000 0.25400 26.80900
O  20.91200 0.28900 25.60400
C  19.21400 0.40400 27.16200
N  26.24100 -0.10000 27.42700
C  25.35400 0.04300 26.46800
C  26.03000 -0.15200 25.08100
C  27.54400 -0.26600 25.41800
C  27.49600 -0.40900 26.93000
C  25.50300 -1.37300 24.40600
C  28.26200 1.14100 25.00600
C  29.75300 1.08300 24.85400
N  27.81300 -0.31900 29.88500
C  28.87600 -0.65500 29.04900
C  30.02300 -0.95700 29.82100
C  29.63600 -0.75500 31.19800
C  28.27800 -0.39100 31.16000
C  31.33400 -1.34900 29.21500
C  30.10100 -0.62200 32.56300
O  31.17400 -0.68100 33.16000
C  28.82600 -0.24400 33.42300
C  28.82900 -1.31000 34.45800
O  28.69000 -2.50000 34.29300
O  28.96800 -0.72000 35.68100
C  28.80200 -1.67100 36.80600
H  22.10300 0.50600 31.99700
H  23.37300 0.14500 25.69800
H  29.54300 -0.91800 26.94100
H  25.60900 -0.87400 34.71500
H  23.93500 1.24400 34.03400
H  23.41100 -1.29700 35.38100
H  22.52000 -1.33300 33.84600
H  22.32800 0.00500 35.01800
H  26.39300 1.98900 34.05300
H  27.28600 0.94700 35.06500
H  24.76900 1.21200 36.44100
H  25.19100 2.74500 35.80800
H  19.37000 1.00900 30.08900
H  20.33200 0.15500 31.23400
H  19.56700 -0.74700 30.07300
H  18.60400 0.57400 26.27400
H  19.00800 1.19900 27.87800
H  18.94100 -0.59200 27.50900
H  25.75600 0.72100 24.48900
H  28.11100 -1.14200 25.10300
H  24.82000 -1.91400 25.06000
H  26.30600 -2.08100 24.20000
H  25.00200 -1.15500 23.46200
H  27.96000 2.03100 25.55900
H  27.77000 1.37300 24.06200
H  30.09900 0.10500 24.52000
H  30.23600 1.24900 25.81600
H  30.19000 1.84500 24.20800
H  31.42600 -2.37300 28.85400
H  32.12400 -1.15700 29.94200
H  31.44100 -0.69500 28.35000
H  29.08100 0.75300 33.78500
H  27.80500 -1.41900 37.16800
H  29.46300 -1.25300 37.56500
H  29.01300 -2.71900 36.59100
Mg 46.22600 44.23300 43.51400
C  42.97200 43.42600 43.54000
C  47.13200 40.99700 42.64100
C  49.35300 45.38000 42.50500
C  45.43500 47.62800 44.16200
N  45.13300 42.48000 43.02200
C  43.82600 42.30600 43.17100
C  43.39500 40.91900 42.80200
C  44.71600 40.11800 42.86400
C  45.78800 41.27200 42.85800
C  44.91000 39.07300 44.07600
C  42.39000 40.82400 41.54800
C  42.76100 41.83700 40.39700
H  42.30800 41.61900 38.95200
N  47.97500 43.31200 42.78800
C  48.13700 42.02100 42.55400
C  49.48900 41.75300 42.03200
C  50.19300 42.96900 42.12800
C  49.17200 44.01100 42.44500
C  49.96900 40.35200 41.56400
C  51.69100 43.20200 41.96900
O  52.49800 42.31600 41.77600
C  52.38300 44.54500 41.97400
N  47.19500 46.30200 43.15600
C  48.49200 46.45200 42.79200
C  48.93600 47.97400 42.77900
C  47.74800 48.70700 43.50100
C  46.76200 47.48100 43.70500
C  50.29100 48.20900 43.47100
C  47.16800 50.02700 42.77500
C  47.13200 51.35600 43.54500
N  44.54900 45.34600 43.94700
C  44.34000 46.66200 44.17500
C  42.89200 46.89600 44.43300
C  42.34500 45.61600 44.19300
C  43.37600 44.72100 43.88000
C  42.29000 48.27000 44.67600
C  41.16000 44.88300 44.14800
O  40.01300 45.28500 44.32400
C  41.44500 43.35900 43.74400
C  41.02800 42.57700 44.93000
O  40.23600 41.59600 44.87400
O  41.74500 42.95000 46.07800
C  41.20300 42.46700 47.34300
H  47.36400 39.93900 42.50200
H  50.27700 45.54800 41.94600
H  45.18700 48.67400 44.35300
H  42.76300 40.61000 43.63600
H  44.86300 39.52200 41.96400
H  45.73500 39.29500 44.75200
H  45.04500 38.07400 43.66300
H  43.93000 38.98700 44.54500
H  41.32600 40.73000 41.76500
H  42.45900 39.86100 41.04200
H  43.83800 41.98100 40.48500
H  42.18600 42.74100 40.59600
H  49.95800 39.67900 42.42100
H  50.98300 40.51600 41.19700
H  49.35500 40.04300 40.71900
H  52.01700 45.14500 42.80700
H  52.08200 45.11400 41.09500
H  53.47200 44.49800 42.01000
H  48.82300 48.18400 41.71600
H  48.16200 48.97100 44.47500
H  50.57800 47.34100 44.06300
H  50.37700 49.18200 43.95500
H  51.14300 48.20900 42.79100
H  46.14200 49.85500 42.44900
H  47.80600 50.24200 41.91800
H  47.50900 52.16100 42.91400
H  47.75400 51.26300 44.43600
H  46.11200 51.66800 43.77000
H  42.16300 48.74300 43.70200
H  42.84800 49.00600 45.25500
H  41.30700 48.10900 45.11800
H  40.93700 43.02000 42.84100
H  41.85900 42.83300 48.13300
H  41.09300 41.38200 47.33600
H  40.20900 42.85800 47.56100

