158

Mg 47.98800 15.99600 28.78600
C  46.00700 15.05500 31.65800
C  49.95700 17.84800 30.87200
C  49.77600 16.97700 26.09400
C  45.55300 14.71400 26.72800
N  47.78300 16.56800 31.00900
C  46.99500 15.94300 32.01200
C  47.52500 16.30100 33.42200
C  48.61100 17.37900 33.09100
C  48.80100 17.38600 31.53700
C  48.34300 18.75400 33.80200
C  48.08400 15.10500 34.11900
C  48.10700 15.14300 35.60100
H  47.83400 16.49800 36.29100
N  49.76100 17.07000 28.57400
C  50.47200 17.71500 29.53500
C  51.76300 18.14500 29.01300
C  51.70400 17.89900 27.59800
C  50.35900 17.35200 27.37200
C  52.74100 18.92700 29.88600
C  52.67300 18.21300 26.60500
O  52.43400 17.90400 25.43500
C  53.96500 18.89200 27.02900
N  47.68400 15.98000 26.65600
C  48.57100 16.43100 25.76500
C  47.98000 16.37300 24.30100
C  46.62700 15.59700 24.50900
C  46.62000 15.39000 26.04900
C  47.95300 17.76800 23.59600
C  46.45700 14.25400 23.70300
C  47.11800 13.08900 24.43900
N  46.06200 15.10300 29.04000
C  45.29500 14.53800 28.12300
C  44.21200 13.82300 28.80400
C  44.46300 13.98900 30.17200
C  45.62600 14.79100 30.32300
C  43.07400 13.13500 28.15200
C  43.95500 13.64000 31.52300
O  42.97400 12.99200 31.78700
C  44.93200 14.39700 32.57000
C  44.14400 15.34500 33.32600
O  43.45900 16.22600 32.81100
O  44.25200 15.16700 34.68600
C  43.41000 16.02500 35.54900
H  50.65300 18.28000 31.59400
H  50.41300 17.03400 25.20900
H  45.00600 14.06300 26.04300
H  46.63600 16.69500 33.91400
H  49.58900 17.11400 33.49200
H  47.69100 18.53100 34.64700
H  47.74100 19.45000 33.21700
H  49.27300 19.19900 34.15600
H  49.11700 14.99800 33.78700
H  47.63000 14.22500 33.66400
H  48.99900 14.66900 36.01100
H  47.28000 14.46400 35.80600
H  53.13900 19.71100 29.24200
H  53.53000 18.27700 30.26500
H  52.19500 19.34500 30.73200
H  54.36700 18.60200 28.00000
H  53.61300 19.92100 27.09100
H  54.65000 18.77400 26.18900
H  48.58900 15.75900 23.63600
H  45.79100 16.25400 24.26900
H  48.44100 18.51400 24.22300
H  46.92200 18.08000 23.42800
H  48.37800 17.57000 22.61200
H  46.90800 14.27300 22.71100
H  45.37900 14.09300 23.70200
H  47.49400 12.38400 23.69900
H  46.39100 12.70000 25.15200
H  47.95100 13.51500 25.00000
H  42.16300 13.56400 28.57100
H  43.09600 12.06500 28.36000
H  43.02300 13.26500 27.07100
H  45.32300 13.61200 33.21700
H  43.16000 16.95600 35.04200
H  44.01600 16.33500 36.40100
H  42.53600 15.49800 35.93300
Mg 42.19500 41.53800 27.37400
C  41.40700 43.95100 29.84300
C  42.86100 39.23900 29.91200
C  42.94100 39.31200 25.06100
C  41.80300 44.09300 25.00500
N  42.26100 41.66700 29.57400
C  41.70900 42.66200 30.35400
C  41.74300 42.26900 31.78900
C  42.43800 40.93300 31.82700
C  42.50100 40.56200 30.35100
C  43.85000 40.85400 32.48300
C  40.27900 42.24800 32.33800
C  40.03100 43.04400 33.61400
H  39.48500 42.37000 34.95600
N  42.76100 39.54300 27.48700
C  42.98700 38.79100 28.58900
C  43.31800 37.44400 28.15900
C  43.29900 37.38000 26.74700
C  42.95800 38.74700 26.37800
C  43.59400 36.31500 29.13000
C  43.51100 36.24900 25.87300
O  43.58700 36.43100 24.70600
C  43.82100 34.87200 26.35800
N  42.32400 41.72200 25.43900
C  42.68100 40.62600 24.62600
C  42.66500 40.96000 23.12900
C  42.08800 42.41600 23.05700
C  42.14200 42.81800 24.60000
C  43.96500 40.67200 22.30600
C  40.67700 42.61300 22.55100
C  39.54800 41.90300 23.36400
N  41.66400 43.64500 27.38900
C  41.55000 44.49200 26.31900
C  41.05600 45.77000 26.80000
C  40.92400 45.60700 28.23800
C  41.37400 44.31300 28.45600
C  40.77300 46.95800 25.88700
C  40.53300 46.24000 29.48600
O  40.15700 47.35900 29.82600
C  40.87600 45.15900 30.61900
C  41.98200 45.66500 31.54500
O  43.18400 45.43900 31.43300
O  41.40200 46.31100 32.56100
C  42.29400 46.77800 33.69400
H  43.16700 38.55300 30.70400
H  43.19200 38.66100 24.22100
H  41.48600 44.80600 24.24000
H  42.30000 42.96300 32.41800
H  41.77400 40.19700 32.28100
H  43.70200 39.90000 32.98900
H  43.89700 41.73400 33.12400
H  44.63300 40.69200 31.74100
H  40.07900 41.22700 32.66500
H  39.54100 42.46400 31.56600
H  39.22700 43.75100 33.40900
H  40.82700 43.76300 33.81300
H  44.65000 36.16900 29.35600
H  43.13400 35.34200 28.95400
H  43.07200 36.58900 30.04700
H  43.81300 34.16900 25.52400
H  42.91300 34.61900 26.90600
H  44.71300 34.93000 26.98200
H  41.97000 40.30700 22.59900
H  42.81200 43.04300 22.53600
H  44.37200 41.59400 21.89200
H  43.68800 40.01700 21.47900
H  44.70600 40.21000 22.95800
H  40.64600 42.11300 21.58300
H  40.43300 43.67300 22.62400
H  39.82100 41.78300 24.41200
H  39.23800 40.95700 22.91900
H  38.65000 42.51100 23.25800
H  40.41700 46.57100 24.93200
H  41.75400 47.40400 25.72800
H  39.97200 47.60800 26.23700
H  40.00600 44.98700 31.25300
H  42.62200 45.95300 34.32600
H  41.77600 47.46500 34.36300
H  43.10100 47.36300 33.25300

