158

Mg 16.80000 -1.21700 28.48100
C  15.53800 0.90800 31.06300
C  18.66100 -2.86700 30.81200
C  18.25900 -2.93800 26.00100
C  15.19300 0.87600 26.21100
N  17.08800 -0.89000 30.73500
C  16.37700 -0.05300 31.58200
C  16.81800 -0.37600 33.03900
C  17.88100 -1.61000 32.90400
C  17.99800 -1.74800 31.39700
C  19.16200 -1.35300 33.71400
C  15.62300 -0.75300 33.96600
C  15.41800 0.06900 35.19900
H  16.60700 0.44000 36.03600
N  18.34500 -2.64400 28.46700
C  18.76500 -3.31300 29.51400
C  19.58000 -4.43800 29.08700
C  19.42500 -4.49700 27.69400
C  18.65200 -3.28800 27.32900
C  20.48000 -5.26900 29.92100
C  20.03900 -5.58200 26.67900
O  20.00200 -5.49800 25.41700
C  20.77500 -6.74600 27.23700
N  16.88000 -0.99500 26.44300
C  17.51600 -1.82600 25.58100
C  17.30500 -1.44300 24.09900
C  16.39100 -0.19100 24.16900
C  16.16800 -0.03700 25.73400
C  18.60300 -1.25900 23.34300
C  15.16200 -0.43300 23.22400
C  13.96800 -1.00500 23.78400
N  15.55700 0.51700 28.59900
C  14.95300 1.25500 27.57500
C  14.08600 2.31700 28.17300
C  14.28800 2.23900 29.57300
C  15.25100 1.15600 29.72200
C  13.22400 3.28900 27.35500
C  13.95200 2.80300 30.80600
O  13.30100 3.80800 31.11700
C  14.76200 1.98100 31.93300
C  15.70900 2.98800 32.55300
O  16.82400 3.25600 32.11200
O  15.19300 3.25700 33.80400
C  16.00800 4.24600 34.47700
H  19.06900 -3.43300 31.65200
H  18.60000 -3.59900 25.20200
H  14.70900 1.53100 25.48300
H  17.21800 0.56100 33.42900
H  17.44000 -2.53300 33.28100
H  19.43500 -0.33200 33.98300
H  20.07200 -1.69400 33.22000
H  19.22000 -1.80500 34.70400
H  15.64000 -1.82600 34.15800
H  14.63300 -0.60100 33.53700
H  14.77200 -0.60600 35.76100
H  14.92000 0.99100 34.90000
H  20.74500 -4.77600 30.85600
H  21.46100 -5.29900 29.44600
H  20.25500 -6.31200 30.14300
H  20.22900 -7.23000 28.04700
H  21.73800 -6.35600 27.56400
H  21.01000 -7.48900 26.47500
H  16.75300 -2.27400 23.65900
H  16.92900 0.69800 23.83900
H  18.64300 -0.31800 22.79400
H  18.60000 -1.89000 22.45400
H  19.47800 -1.45500 23.96200
H  15.41700 -1.04600 22.35900
H  14.90500 0.57100 22.88700
H  14.19700 -1.12100 24.84300
H  13.68100 -1.99000 23.41400
H  13.04900 -0.44000 23.62500
H  13.71100 3.60500 26.43200
H  13.10200 4.19600 27.94700
H  12.28100 2.75300 27.24000
H  14.00600 1.54500 32.58600
H  16.26300 5.11600 33.87300
H  16.99600 3.82400 34.66100
H  15.55100 4.54200 35.42200
Mg 29.64400 58.73100 40.03400
C  26.85600 56.83500 38.80300
C  31.70100 56.13900 38.98700
C  32.29600 60.75700 40.12600
C  27.49100 61.46400 40.54000
N  29.30900 56.84000 38.65400
C  28.06100 56.18100 38.54300
C  28.25500 54.62800 38.27200
C  29.77500 54.44600 38.67100
C  30.29800 55.86700 38.85800
C  29.94500 53.39900 39.86800
C  27.81200 54.18000 36.88000
C  28.50000 54.91200 35.74500
H  27.56700 55.75900 34.76800
N  31.76600 58.46100 39.71100
C  32.38800 57.33000 39.27400
C  33.84300 57.54800 39.22400
C  34.02700 58.92800 39.56400
C  32.64200 59.46700 39.79700
C  34.76300 56.36500 38.87800
C  35.41300 59.57000 39.77500
O  36.40300 58.89000 39.62800
C  35.66600 61.04600 40.14400
N  29.83500 60.75200 40.40700
C  31.09400 61.38300 40.43300
C  30.95000 62.85600 40.88100
C  29.40000 63.11600 40.98300
C  28.87700 61.70200 40.61900
C  31.73400 63.37400 42.12000
C  28.74100 64.18100 40.05200
C  27.53500 64.97400 40.69100
N  27.48200 59.06500 39.98800
C  26.82500 60.19400 40.18500
C  25.40100 59.92100 40.03400
C  25.37500 58.63700 39.42400
C  26.64600 58.13300 39.39700
C  24.26400 60.84200 40.41500
C  24.46500 57.59500 38.87800
O  23.26500 57.68100 38.61200
C  25.42200 56.36400 38.52100
C  24.92300 55.16000 39.31600
O  25.51800 54.65500 40.25900
O  23.72700 54.73300 38.81400
C  23.04800 53.59200 39.48400
H  32.37700 55.30800 38.77500
H  33.13500 61.45500 40.17300
H  26.76200 62.20700 40.86900
H  27.62900 54.10000 38.99100
H  30.27400 54.11700 37.76000
H  30.56700 52.54900 39.58500
H  28.97400 52.94200 40.05800
H  30.36700 53.79900 40.78900
H  26.74100 54.32600 36.74300
H  27.97300 53.11900 36.68800
H  29.05400 54.19200 35.14300
H  29.26500 55.54300 36.19700
H  34.67600 55.97400 37.86500
H  34.64600 55.53700 39.57700
H  35.83200 56.58100 38.86700
H  35.46600 61.57000 39.20900
H  36.71600 61.11800 40.42500
H  35.10900 61.39400 41.01400
H  31.14300 63.43600 39.97900
H  29.08500 63.27100 42.01500
H  32.44700 62.59700 42.39600
H  31.03200 63.56800 42.93100
H  32.23000 64.31700 41.89000
H  28.32100 63.59500 39.23400
H  29.60100 64.81300 39.83400
H  26.56600 64.79600 40.22200
H  27.86000 66.01400 40.66900
H  27.23900 64.66700 41.69400
H  24.51300 61.46500 41.27400
H  23.48600 60.09500 40.56700
H  24.03900 61.54400 39.61200
H  25.13900 56.11200 37.49900
H  22.98100 53.75100 40.56000
H  23.40900 52.62100 39.14600
H  22.07700 53.56500 38.98900

