158

Mg 6.82000 54.46500 40.58700
C  6.54200 50.89400 40.46200
C  10.12700 54.09400 39.49200
C  6.97800 57.87900 39.68300
C  3.39600 54.62800 40.81800
N  8.07700 52.70900 40.07800
C  7.83500 51.32900 40.11800
C  9.03300 50.49800 39.73500
C  10.19200 51.55700 39.83100
C  9.42100 52.90600 39.71800
C  11.14200 51.41000 41.09300
C  8.91100 49.87000 38.33700
C  8.61700 50.77500 37.23400
H  7.29400 50.65600 36.54400
N  8.38900 55.81800 39.75800
C  9.66400 55.45100 39.47700
C  10.38300 56.65900 39.03700
C  9.52900 57.76400 39.42000
C  8.21900 57.17500 39.63800
C  11.83700 56.74300 38.57700
C  9.92800 59.20800 39.55400
O  11.09000 59.53800 39.32400
C  8.88800 60.22400 39.76500
N  5.42700 56.03800 40.25900
C  5.70800 57.36500 40.12800
C  4.44800 58.24400 40.26500
C  3.28200 57.13300 40.46900
C  4.08300 55.84000 40.48400
C  4.53700 59.32700 41.37500
C  2.09400 57.10100 39.36000
C  0.64500 57.53100 39.77100
N  5.25200 53.12700 40.85300
C  3.90700 53.35600 40.96300
C  3.23500 52.09500 41.22300
C  4.21500 51.20300 41.03800
C  5.41900 51.80300 40.81100
C  1.79100 51.82000 41.36300
C  4.40300 49.75700 41.13000
O  3.67400 48.81800 41.44400
C  5.96200 49.56400 40.69000
C  5.86400 48.72500 39.46000
O  5.54000 49.08500 38.34900
O  6.16000 47.45100 39.77400
C  5.74500 46.45700 38.81100
H  11.15700 53.94400 39.16300
H  6.83700 58.86500 39.23600
H  2.35200 54.76000 41.11000
H  9.17800 49.70700 40.47000
H  10.80100 51.43600 38.93500
H  10.62500 50.79700 41.83200
H  11.37400 52.40700 41.46700
H  12.11200 50.98700 40.83400
H  8.15400 49.09200 38.23700
H  9.86300 49.40200 38.08700
H  9.34400 50.72000 36.42400
H  8.68000 51.82200 37.53100
H  11.97900 57.20300 37.59900
H  12.27200 55.74500 38.52100
H  12.52000 57.30200 39.21700
H  8.26500 60.50500 38.91600
H  9.26500 61.22700 39.96300
H  8.31700 60.05600 40.67800
H  4.24200 58.75800 39.32600
H  2.79300 57.25900 41.43400
H  5.17400 59.01700 42.20300
H  3.51800 59.35900 41.75900
H  4.97200 60.25600 41.00600
H  2.03400 56.03900 39.12200
H  2.35400 57.64400 38.45100
H  -0.12700 56.79600 39.54400
H  0.35700 58.38100 39.15200
H  0.63700 57.78500 40.83000
H  1.79700 50.89000 41.93200
H  1.21700 51.78700 40.43700
H  1.35400 52.62200 41.95800
H  6.47300 48.96000 41.44000
H  4.98500 46.82100 38.12000
H  5.35400 45.53400 39.24000
H  6.69800 46.16600 38.37000
Mg -10.57900 40.21100 42.18200
C  -9.02400 37.33300 40.99200
C  -8.13000 41.97800 40.42800
C  -12.29000 43.02200 42.64900
C  -13.31600 38.30700 43.12200
N  -8.74600 39.61900 40.84200
C  -8.33400 38.42800 40.51500
C  -7.05000 38.44200 39.66300
C  -6.70300 40.06000 39.57500
C  -7.98500 40.56300 40.29900
C  -5.40600 40.47600 40.23600
C  -7.30500 37.90600 38.19400
C  -6.61600 36.52900 37.84200
H  -5.62900 36.49200 36.75000
N  -10.13400 42.28600 41.83800
C  -9.09700 42.76300 41.05700
C  -9.03100 44.19400 41.36200
C  -10.34500 44.56600 41.81800
C  -10.99200 43.28100 42.11700
C  -7.92900 45.11900 40.95100
C  -10.90100 45.97700 42.12100
O  -10.24200 46.94100 41.88200
C  -12.27500 46.22200 42.86100
N  -12.53500 40.59800 42.79800
C  -13.02200 41.84400 42.94600
C  -14.54400 41.95000 43.29600
C  -14.86200 40.39700 43.47700
C  -13.51600 39.65700 43.06400
C  -14.83300 42.83600 44.59000
C  -16.17100 39.98900 42.63100
C  -17.10800 39.00200 43.32500
N  -11.05600 38.18600 42.22900
C  -12.18300 37.55900 42.64400
C  -11.89800 36.15700 42.68400
C  -10.68400 36.01600 41.99900
C  -10.25300 37.34100 41.77000
C  -12.83100 35.04900 43.16100
C  -9.69100 35.03600 41.56700
O  -9.62700 33.83900 41.63100
C  -8.62200 35.87200 40.82700
C  -7.39300 35.61600 41.54600
O  -6.97400 36.17300 42.55100
O  -6.68500 34.61500 40.86300
C  -5.77300 33.77700 41.67200
H  -7.33000 42.59900 40.01900
H  -12.86000 43.88800 42.99200
H  -14.14400 37.67800 43.45600
H  -6.30900 37.87300 40.22300
H  -6.62900 40.48400 38.57400
H  -4.98400 39.74600 40.92700
H  -5.48200 41.40100 40.80700
H  -4.64400 40.77900 39.51700
H  -7.01600 38.61000 37.41400
H  -8.38800 37.81800 38.11500
H  -7.45300 35.86700 37.62100
H  -6.06500 36.17200 38.71200
H  -6.88000 44.83100 40.89000
H  -7.95400 45.96100 41.64200
H  -8.22700 45.53500 39.98800
H  -13.04900 46.12100 42.10000
H  -12.21600 47.25300 43.21000
H  -12.47800 45.65600 43.77100
H  -14.92900 42.48800 42.42900
H  -15.01500 40.08500 44.51100
H  -15.25100 42.29300 45.43800
H  -15.43400 43.72600 44.40700
H  -13.93900 43.26600 45.04100
H  -15.76600 39.61600 41.69000
H  -16.73100 40.91000 42.47300
H  -16.53700 38.57900 44.15100
H  -17.32400 38.28100 42.53600
H  -17.97100 39.54000 43.71900
H  -12.31700 34.62500 44.02400
H  -13.00300 34.35200 42.34100
H  -13.73600 35.54800 43.50900
H  -8.52800 35.71600 39.75200
H  -6.29700 33.47100 42.57800
H  -4.95300 34.42900 41.97500
H  -5.42000 32.92200 41.09500

