158

Mg 27.51100 50.46900 26.05300
C  25.64900 51.23700 28.83000
C  29.86100 48.98500 28.23900
C  29.32500 49.60500 23.41000
C  25.15600 51.90100 23.97100
N  27.78300 50.25700 28.29100
C  26.82700 50.61900 29.21400
C  27.11900 50.21600 30.62900
C  28.53400 49.70300 30.45600
C  28.75300 49.53100 28.87000
C  29.70900 50.43300 31.06500
C  26.15200 49.31600 31.39700
C  25.67600 49.81200 32.77300
H  25.39900 48.86600 33.89300
N  29.40700 49.55000 25.87200
C  30.19500 49.01900 26.86500
C  31.38500 48.34200 26.25000
C  31.21900 48.44400 24.82000
C  29.93700 49.20200 24.61500
C  32.48700 47.64400 27.04900
C  32.06000 47.76600 23.67500
O  31.69900 47.72300 22.48600
C  33.27900 47.06400 24.05300
N  27.32400 50.83900 23.95400
C  28.21400 50.40900 23.09700
C  27.81200 50.79200 21.68200
C  26.34100 51.36200 21.79000
C  26.26100 51.35000 23.33600
C  28.75000 51.63100 20.78500
C  25.22800 50.38500 21.19300
C  23.89400 51.05900 20.64800
N  25.81100 51.49800 26.26700
C  24.93700 52.02900 25.37400
C  23.83400 52.62300 26.08000
C  24.01400 52.27600 27.39800
C  25.23000 51.62100 27.47200
C  22.65900 53.20200 25.48900
C  23.43400 52.31400 28.75700
O  22.31300 52.73900 29.11600
C  24.45400 51.65400 29.73200
C  24.85900 52.71600 30.71100
O  25.66600 53.60600 30.47400
O  24.13200 52.48400 31.84600
C  24.30900 53.40600 33.00000
H  30.47100 48.41800 28.94600
H  29.86100 49.25900 22.52300
H  24.47900 52.35300 23.24300
H  27.21500 51.21700 31.04900
H  28.56200 48.73900 30.96300
H  29.62300 51.52000 31.05000
H  30.60600 50.15200 30.51200
H  29.80000 50.27000 32.13900
H  26.57600 48.34300 31.64300
H  25.31000 49.13900 30.72800
H  24.66200 50.13600 32.53600
H  26.29600 50.63600 33.12800
H  32.39100 46.56400 26.93100
H  32.27500 47.80500 28.10600
H  33.48900 48.00600 26.81900
H  33.86400 47.80200 24.60200
H  33.77000 46.73900 23.13500
H  32.97300 46.23000 24.68500
H  27.70100 49.80600 21.23100
H  26.35100 52.39300 21.43700
H  28.60300 51.12400 19.83100
H  29.80900 51.74300 21.01800
H  28.27100 52.58700 20.57200
H  25.02700 49.57500 21.89300
H  25.62200 49.89800 20.30100
H  23.79800 50.66600 19.63600
H  23.81100 52.14500 20.60700
H  22.99800 50.68700 21.14600
H  22.69600 54.14200 26.04000
H  21.73700 52.65800 25.69400
H  22.90600 53.32100 24.43400
H  23.98700 50.78500 30.19500
H  24.66100 54.34900 32.58100
H  25.03500 53.00000 33.70600
H  23.34000 53.51500 33.48600
Mg 8.79300 48.43200 25.85000
C  7.00700 48.17700 28.87600
C  11.54300 49.31400 27.69100
C  10.44200 49.01400 22.90700
C  5.90200 47.93200 24.10400
N  9.21900 48.78400 28.01600
C  8.37700 48.45200 29.10500
C  9.07000 48.73900 30.44800
C  10.44200 49.30900 29.99900
C  10.44400 49.12900 28.46600
C  10.97800 50.67300 30.48500
C  9.11600 47.54100 31.42200
C  9.85800 47.88500 32.69800
H  8.96500 47.65100 33.97600
N  10.75000 48.99100 25.38900
C  11.75800 49.27300 26.28500
C  12.97800 49.47700 25.59200
C  12.73400 49.39700 24.17800
C  11.26600 49.10400 24.10700
C  14.28900 49.82600 26.31200
C  13.63100 49.39500 22.97600
O  13.27900 49.06700 21.87100
C  15.16300 49.46900 23.28100
N  8.24300 48.64700 23.87700
C  9.14500 48.80800 22.84800
C  8.38400 48.77000 21.46200
C  7.03900 48.12300 21.84700
C  7.00800 48.26700 23.39000
C  8.27200 50.18300 20.72400
C  6.86200 46.68400 21.43400
C  7.70900 45.64500 22.20500
N  6.82800 48.19300 26.32900
C  5.75300 47.84000 25.52000
C  4.52000 47.58300 26.23200
C  4.98800 47.65000 27.58100
C  6.38300 48.07200 27.59000
C  3.16800 47.41300 25.78300
C  4.61200 47.53200 28.91500
O  3.54900 47.13600 29.38800
C  5.86800 47.77000 29.78800
C  6.08400 46.41100 30.41500
O  6.69300 45.41400 29.97400
O  5.34200 46.40400 31.50600
C  5.51100 45.22100 32.36200
H  12.43100 49.45400 28.31100
H  10.93600 49.07300 21.93500
H  5.00700 47.62000 23.56100
H  8.32300 49.37600 30.92100
H  11.18600 48.62700 30.41100
H  11.77000 50.54500 31.22200
H  10.30800 51.26700 31.10700
H  11.28800 51.30900 29.65500
H  9.57000 46.74900 30.82500
H  8.07000 47.36900 31.67600
H  10.34100 48.85900 32.77900
H  10.57200 47.06400 32.76800
H  14.07600 50.12500 27.33900
H  14.96500 50.50400 25.79100
H  14.83300 48.88200 26.28800
H  15.49400 50.42100 23.69700
H  15.75500 49.20700 22.40400
H  15.56800 48.70600 23.94600
H  8.87700 48.05100 20.80900
H  6.18900 48.58900 21.34800
H  7.20800 50.37900 20.59000
H  8.78200 50.01300 19.77600
H  8.84700 50.82600 21.39000
H  7.10800 46.67100 20.37200
H  5.79000 46.50200 21.50600
H  8.51500 46.16000 22.72600
H  8.04700 44.98600 21.40500
H  6.92300 45.19000 22.80800
H  2.97400 46.41600 26.18000
H  3.01700 47.45800 24.70500
H  2.48700 48.15400 26.20200
H  5.57400 48.58700 30.44700
H  5.38300 44.31500 31.77100
H  4.77500 45.29100 33.16200
H  6.47200 45.19100 32.87600

