158

Mg 48.48800 14.72700 28.01000
C  46.08000 14.75900 30.62300
C  50.30500 16.79900 30.02800
C  50.97100 14.36500 25.87000
C  46.28000 12.87100 25.98700
N  48.23700 15.61600 30.13600
C  47.23400 15.44700 30.96700
C  47.52700 16.05400 32.36200
C  48.81700 16.78000 32.11100
C  49.08600 16.47000 30.59800
C  48.77800 18.28600 32.27900
C  47.69700 14.89700 33.42500
C  47.42100 15.21700 34.93100
H  48.66200 15.14600 35.83200
N  50.32000 15.62300 27.91200
C  50.86800 16.42600 28.79400
C  52.17100 16.84500 28.36000
C  52.50900 15.98000 27.26600
C  51.26000 15.27700 26.96600
C  52.88300 18.07400 28.85000
C  53.76300 15.87600 26.39400
O  53.83700 15.07400 25.46700
C  55.02100 16.68200 26.68600
N  48.54400 13.86800 26.10000
C  49.78100 13.71700 25.46000
C  49.63800 12.71900 24.34500
C  48.11100 12.43300 24.21300
C  47.60000 13.15600 25.51200
C  50.31900 13.11500 23.08700
C  47.69100 10.94100 24.03600
C  46.81400 10.70100 22.80200
N  46.58600 14.00300 28.17500
C  45.81400 13.35300 27.26700
C  44.48300 13.15400 27.92000
C  44.54600 13.70300 29.16700
C  45.87800 14.13800 29.35800
C  43.33000 12.40500 27.31900
C  43.84800 13.93100 30.33400
O  42.65100 13.79200 30.51600
C  44.79800 14.51400 31.38400
C  44.22000 15.71400 31.98400
O  44.03100 16.78200 31.45000
O  43.88300 15.41900 33.29700
C  42.83400 16.30500 33.95700
H  50.98700 17.31000 30.71000
H  51.76000 14.17400 25.13900
H  45.57800 12.30500 25.37200
H  46.64900 16.61500 32.68300
H  49.69700 16.37000 32.60800
H  47.85700 18.56300 32.79100
H  48.85800 18.77300 31.30700
H  49.56200 18.74200 32.88300
H  48.76400 14.69600 33.32700
H  47.29200 13.96600 33.02800
H  46.72200 14.44600 35.25600
H  47.05800 16.24500 34.93900
H  53.65300 17.61000 29.46600
H  52.25700 18.67500 29.50900
H  53.32900 18.67700 28.05900
H  55.07400 17.65100 27.18400
H  55.45900 16.68500 25.68800
H  55.58500 15.96500 27.28200
H  50.07800 11.84700 24.82900
H  47.71400 13.12900 23.47400
H  51.30000 12.64700 23.00900
H  50.48500 14.19200 23.06300
H  49.66200 12.74400 22.30100
H  47.27800 10.62300 24.99400
H  48.62900 10.44300 23.79100
H  47.31400 10.10300 22.04000
H  46.63600 11.65600 22.30900
H  45.85400 10.22300 22.99600
H  43.66700 11.69300 26.56600
H  42.58800 13.06500 26.87100
H  42.82600 11.83000 28.09600
H  44.93200 13.76000 32.15900
H  43.26200 17.27200 34.22100
H  42.51000 15.69300 34.79900
H  41.92900 16.37400 33.35400
Mg 47.91000 44.90100 43.26300
C  44.56300 44.29700 42.49500
C  48.62100 41.57800 43.01000
C  51.09400 45.67200 43.61400
C  47.09000 48.36400 43.20700
N  46.80500 43.16600 42.55000
C  45.37500 43.13300 42.48700
C  44.91800 41.70500 42.21300
C  46.19800 40.84300 42.42700
C  47.31500 41.92300 42.75500
C  46.26200 39.89300 43.61700
C  44.26200 41.59300 40.81400
C  44.68800 42.33200 39.53900
H  43.91200 41.94200 38.20900
N  49.67000 43.70700 43.29100
C  49.74900 42.39500 43.24300
C  51.09000 42.02400 43.44800
C  51.87300 43.21100 43.55400
C  50.87500 44.28100 43.52500
C  51.45100 40.52100 43.46500
C  53.30800 43.30500 43.85600
O  53.98700 42.27100 43.85600
C  54.05200 44.52900 44.14600
N  48.94700 46.78200 43.27300
C  50.24300 46.78300 43.51900
C  50.74700 48.23300 43.68900
C  49.38700 49.07000 43.73500
C  48.40200 48.00000 43.36400
C  51.63200 48.42000 45.03100
C  49.46000 50.35200 42.88400
C  49.48600 51.65300 43.75200
N  46.13100 46.16800 42.95800
C  45.96300 47.52200 42.98300
C  44.58100 47.87000 42.79700
C  43.97300 46.60500 42.63100
C  44.97100 45.63600 42.70800
C  43.95500 49.23100 42.88200
C  42.63700 45.95600 42.45800
O  41.54800 46.46400 42.35000
C  42.99400 44.44300 42.29600
C  42.23200 43.81100 43.39400
O  41.32400 42.98300 43.27200
O  42.71800 44.18200 44.62200
C  41.99000 43.75200 45.85800
H  48.68300 40.49000 43.07900
H  52.12600 45.93900 43.85100
H  46.79900 49.41100 43.31600
H  44.17900 41.46700 42.97800
H  46.53500 40.30000 41.54500
H  46.90100 40.28900 44.40700
H  46.78500 38.96800 43.37600
H  45.26000 39.65200 43.97300
H  43.18200 41.61100 40.96000
H  44.45300 40.56500 40.50500
H  45.67500 41.90100 39.37000
H  44.54500 43.41300 39.51300
H  52.50400 40.28000 43.31700
H  50.90500 40.00900 42.67300
H  51.12000 40.02500 44.37700
H  54.17800 45.16200 43.26800
H  55.11400 44.38100 44.34000
H  53.61500 45.09300 44.97000
H  51.30300 48.34300 42.75900
H  49.17400 49.27000 44.78500
H  51.68900 49.43900 45.41300
H  52.63400 48.08000 44.76900
H  51.20000 47.65300 45.67300
H  48.63700 50.43300 42.17400
H  50.33200 50.38700 42.23100
H  50.25800 52.39500 43.54800
H  49.69500 51.44700 44.80200
H  48.47600 52.05500 43.66400
H  44.19100 49.88900 42.04500
H  44.29400 49.87000 43.69700
H  42.87200 49.20500 43.00500
H  42.68600 44.07400 41.31800
H  41.76800 42.68500 45.86700
H  41.02000 44.22500 46.01200
H  42.65500 43.94000 46.70100

