158

Mg 8.10600 3.16800 28.74800
C  9.74600 2.02100 31.59200
C  6.03000 5.08800 30.88100
C  6.71000 4.51100 26.13600
C  9.72600 0.80900 26.80900
N  7.97500 3.53200 30.91500
C  8.78000 2.99700 31.89700
C  8.44900 3.70900 33.28800
C  6.95000 4.26100 33.13200
C  6.98900 4.33300 31.55400
C  5.71600 3.49100 33.62700
C  9.48300 4.86300 33.56600
C  10.43400 4.63900 34.71300
H  10.17800 3.73100 35.89900
N  6.49200 4.62800 28.51300
C  5.80900 5.28900 29.47900
C  4.89600 6.23300 28.84700
C  5.21100 6.18500 27.41000
C  6.17700 5.12300 27.26200
C  3.88100 7.07300 29.66100
C  4.61500 7.04500 26.29600
O  4.84000 6.78800 25.13800
C  3.76000 8.21800 26.66000
N  7.94200 2.45700 26.77600
C  7.41700 3.34200 25.87800
C  7.69400 2.91300 24.45100
C  8.95100 1.89000 24.67600
C  8.86500 1.64500 26.13500
C  6.49300 2.34400 23.71100
C  10.32900 2.35500 24.09600
C  11.12100 3.40900 24.83800
N  9.48900 1.73900 29.12700
C  9.94300 0.77000 28.21100
C  10.85200 -0.07700 28.99000
C  10.83300 0.39800 30.29700
C  9.94500 1.48600 30.31100
C  11.72400 -1.14100 28.38300
C  11.46200 0.34300 31.60200
O  12.38800 -0.32900 32.08100
C  10.62600 1.24200 32.53700
C  9.84800 0.38900 33.53700
O  8.77400 -0.12200 33.43500
O  10.54200 0.27700 34.73100
C  9.85400 -0.23200 35.83100
H  5.31300 5.66700 31.46700
H  6.46800 5.13900 25.27600
H  10.33700 0.17300 26.16500
H  8.43800 2.99500 34.11100
H  6.82700 5.27500 33.51300
H  5.48300 2.68300 32.93500
H  4.86600 4.16700 33.72100
H  5.98300 3.09900 34.60800
H  8.97100 5.77300 33.88000
H  10.06600 5.01400 32.65700
H  10.58200 5.62000 35.16300
H  11.41000 4.28000 34.38600
H  3.71400 6.52000 30.58500
H  2.90600 7.09200 29.17500
H  4.27100 8.04700 29.95600
H  2.93800 7.94900 27.32500
H  3.47800 8.61200 25.68400
H  4.38200 8.98800 27.11700
H  8.04900 3.71600 23.80500
H  8.65100 0.97400 24.16800
H  5.67000 2.18100 24.40700
H  6.65700 1.36800 23.25500
H  6.21800 3.11400 22.99100
H  10.28000 2.75000 23.08200
H  10.98100 1.48500 24.16700
H  10.65500 3.78800 25.74800
H  11.25800 4.34900 24.30300
H  12.14500 3.06100 24.97000
H  12.63800 -1.39200 28.92200
H  11.99400 -0.99600 27.33700
H  11.23100 -2.11100 28.32500
H  11.36600 1.74800 33.15700
H  9.83500 -1.32000 35.77400
H  8.81000 0.06500 35.93300
H  10.41700 0.07300 36.71200
Mg -12.28400 38.14600 41.49400
C  -9.89200 35.86500 41.03100
C  -10.32600 40.49500 39.84900
C  -14.99100 40.17900 41.09000
C  -14.52200 35.59700 42.57700
N  -10.35500 38.06100 40.48400
C  -9.60700 37.00100 40.33000
C  -8.36000 37.32400 39.54300
C  -8.47600 38.85500 39.26300
C  -9.82600 39.18300 39.85200
C  -7.36400 39.72300 39.87900
C  -8.09600 36.34200 38.42400
C  -6.75100 35.71800 38.39900
H  -5.86700 36.33400 37.19600
N  -12.53500 40.11800 40.75600
C  -11.59500 40.94900 40.29800
C  -12.11700 42.26100 40.19300
C  -13.46900 42.21400 40.43200
C  -13.71400 40.79000 40.85100
C  -11.33200 43.47700 39.66100
C  -14.47600 43.42100 40.35400
O  -14.16000 44.47400 39.74600
C  -15.83800 43.34100 40.97800
N  -14.55900 37.88300 41.64800
C  -15.40200 38.91500 41.54500
C  -16.90300 38.45000 41.57400
C  -16.74600 36.99600 42.06100
C  -15.17700 36.80000 42.16000
C  -18.00400 39.31600 42.28200
C  -17.31200 35.86900 41.11000
C  -18.04000 34.71600 41.86800
N  -12.31300 36.10800 41.73100
C  -13.16800 35.24500 42.39800
C  -12.48900 34.03800 42.74000
C  -11.17300 34.18300 42.21400
C  -11.14300 35.48800 41.54900
C  -13.04000 32.84200 43.44500
C  -9.95000 33.56100 41.96500
O  -9.54000 32.45800 42.38300
C  -9.05100 34.62800 41.18800
C  -7.75200 34.81500 41.85400
O  -6.82400 34.03200 41.85300
O  -7.72000 36.08100 42.45900
C  -6.42400 36.48300 43.06900
H  -9.70900 41.17600 39.26000
H  -15.85300 40.82200 40.89900
H  -15.19400 34.88000 43.05400
H  -7.55600 37.27600 40.27700
H  -8.45900 39.12300 38.20700
H  -7.62600 40.28300 40.77600
H  -6.87100 40.34300 39.13100
H  -6.53900 39.05000 40.11300
H  -8.44400 36.78900 37.49300
H  -8.87900 35.59000 38.52000
H  -6.81100 34.65300 38.17200
H  -6.17300 35.87500 39.31000
H  -11.37500 44.28400 40.39300
H  -11.61900 43.80700 38.66300
H  -10.27700 43.26800 39.48500
H  -15.91800 42.93500 41.98600
H  -16.48400 42.84600 40.25200
H  -16.16200 44.38100 41.00100
H  -17.13800 38.35400 40.51400
H  -17.23200 36.99400 43.03600
H  -17.49200 40.01600 42.94100
H  -18.61600 38.70100 42.94200
H  -18.60200 39.84500 41.53900
H  -16.48400 35.37200 40.60500
H  -18.02100 36.20900 40.35500
H  -19.04800 34.71700 41.45500
H  -18.13600 34.84400 42.94600
H  -17.60600 33.74900 41.61400
H  -13.80000 32.45600 42.76600
H  -13.57200 33.12000 44.35500
H  -12.27500 32.09000 43.63800
H  -8.76700 34.00500 40.33900
H  -6.42300 37.55300 42.86000
H  -5.52200 36.08300 42.60700
H  -6.37700 36.36100 44.15100

