158

Mg 42.29600 41.45200 26.08800
C  41.65600 43.52400 28.81600
C  44.03400 39.35000 28.37200
C  43.07500 39.45600 23.58400
C  41.33800 43.90800 23.99800
N  42.91500 41.51700 28.35100
C  42.34200 42.36900 29.27200
C  42.71800 41.96400 30.77300
C  43.47200 40.60400 30.59200
C  43.49800 40.48900 28.99700
C  44.95900 40.66700 31.12300
C  41.46600 41.90700 31.76500
C  41.77600 42.42800 33.21100
H  40.82500 42.02500 34.43000
N  43.41000 39.64300 25.98100
C  44.03100 38.90900 27.02000
C  44.41800 37.57600 26.43100
C  44.02400 37.58900 25.08000
C  43.44000 38.94000 24.82100
C  45.02300 36.50500 27.29000
C  44.08300 36.47700 23.96900
O  43.79100 36.57000 22.84400
C  44.56900 35.14900 24.52200
N  42.24100 41.67400 24.06700
C  42.62500 40.72500 23.15600
C  42.19400 41.08600 21.73800
C  41.70400 42.50800 21.89200
C  41.81900 42.76900 23.37300
C  43.38500 40.97100 20.64700
C  40.35800 42.89300 21.19100
C  40.52400 44.18200 20.32700
N  41.68900 43.33700 26.30900
C  41.23500 44.21400 25.33900
C  40.68800 45.36700 25.97300
C  40.93200 45.18400 27.37900
C  41.40500 43.89300 27.50200
C  40.22500 46.60000 25.16200
C  40.73900 45.72500 28.60500
O  40.19900 46.78300 28.94400
C  41.18800 44.66800 29.67500
C  42.24700 45.24300 30.49800
O  43.44500 45.18500 30.35400
O  41.67000 45.78000 31.67300
C  42.65100 46.43000 32.62100
H  44.37200 38.72200 29.19900
H  43.23400 38.82400 22.70700
H  40.98900 44.67500 23.30300
H  43.45600 42.67200 31.14900
H  42.94200 39.74900 31.01200
H  44.83200 40.87300 32.18600
H  45.52500 41.43100 30.58900
H  45.31300 39.64300 31.01100
H  41.19500 40.86300 31.91700
H  40.61700 42.43400 31.32900
H  41.78900 43.48800 32.95600
H  42.81700 42.16300 33.39300
H  45.01700 36.86000 28.32100
H  46.06800 36.37300 27.01000
H  44.50900 35.54700 27.22200
H  44.59900 34.40900 23.72200
H  43.78000 34.94600 25.24600
H  45.57900 35.34600 24.88300
H  41.45900 40.29300 21.60700
H  42.51600 43.13600 21.52500
H  44.32600 40.50600 20.94300
H  43.61300 41.93900 20.19900
H  42.90900 40.34500 19.89200
H  39.55400 42.97200 21.92300
H  40.04500 42.08900 20.52500
H  39.76600 44.94400 20.50400
H  40.79700 43.97500 19.29200
H  41.41500 44.74700 20.60200
H  40.81700 46.70600 24.25300
H  40.28300 47.46100 25.82800
H  39.16900 46.48600 24.91500
H  40.33800 44.47300 30.32800
H  43.10600 47.21600 32.01800
H  43.45400 45.80800 33.01600
H  42.23800 46.92300 33.50100
Mg 35.38200 48.60100 25.57000
C  36.08500 46.93500 28.52100
C  34.00500 51.19000 27.35000
C  34.57100 50.28400 22.61700
C  36.58400 45.92300 23.67400
N  34.98400 48.97300 27.70900
C  35.43700 48.15600 28.75100
C  35.16000 48.87900 30.12900
C  34.27700 50.19000 29.77000
C  34.41100 50.13100 28.20900
C  32.75600 50.17100 30.14500
C  36.44900 49.19000 30.92400
C  36.54200 49.18400 32.43500
H  35.22500 49.15900 33.27600
N  34.43500 50.45400 25.07200
C  33.99800 51.41900 25.97900
C  33.58600 52.65400 25.27300
C  33.73600 52.34400 23.86600
C  34.27900 50.95300 23.82600
C  33.01700 53.81300 26.07000
C  33.38600 53.26800 22.69900
O  33.59000 52.99000 21.53100
C  32.86900 54.66000 22.87100
N  35.45200 48.06600 23.50000
C  35.11400 48.97400 22.47900
C  35.37900 48.33800 21.07200
C  36.20100 47.06000 21.37700
C  36.05600 47.00000 22.95200
C  34.06700 48.12400 20.28800
C  37.68700 47.27800 20.96800
C  38.59400 48.09900 21.88800
N  36.17200 46.75400 25.95200
C  36.62900 45.75600 25.11400
C  37.24800 44.68400 25.99400
C  36.94800 45.07700 27.32200
C  36.33400 46.34500 27.26100
C  37.91400 43.48300 25.37000
C  37.16400 44.67200 28.65700
O  37.73600 43.74800 29.10100
C  36.56300 45.93100 29.53700
C  35.51000 45.30700 30.38500
O  34.37700 44.99400 30.03800
O  36.03200 45.15500 31.68000
C  35.12000 44.78900 32.80400
H  33.53600 51.91300 28.02000
H  34.44700 50.84100 21.68600
H  36.98000 45.05000 23.15200
H  34.53600 48.21200 30.72400
H  34.78600 51.11300 30.04700
H  32.17900 50.14800 29.22100
H  32.52600 51.00200 30.81200
H  32.66700 49.26600 30.74700
H  36.76200 50.16300 30.54500
H  37.24200 48.59000 30.47600
H  37.10200 50.02900 32.83600
H  37.12300 48.27200 32.57900
H  32.74600 54.71000 25.51300
H  33.78200 54.01300 26.82100
H  32.09400 53.55000 26.58700
H  31.79600 54.53800 23.02000
H  32.83200 55.02900 21.84600
H  33.44000 55.28500 23.55900
H  35.93500 49.03700 20.44700
H  35.75900 46.18500 20.90000
H  33.79200 47.07100 20.24500
H  34.24500 48.45800 19.26600
H  33.28800 48.62200 20.86600
H  37.79100 47.74200 19.98700
H  37.93900 46.22700 20.82200
H  38.15800 49.09200 21.99600
H  39.50500 48.21500 21.30100
H  38.97300 47.63100 22.79700
H  38.48800 42.98100 26.14800
H  38.45100 43.77200 24.46700
H  37.00100 42.93800 25.13300
H  37.33300 46.43800 30.11800
H  35.22900 45.51600 33.60900
H  35.57000 43.84400 33.10800
H  34.08700 44.61300 32.50200

