158

Mg 43.43700 3.82200 46.88500
C  41.39000 6.73700 46.61300
C  40.69000 1.92600 46.88900
C  45.30300 1.14800 46.10000
C  46.27400 5.83000 46.42500
N  41.35800 4.36100 46.89100
C  40.71300 5.56500 46.76400
C  39.22100 5.47500 46.95700
C  39.00100 3.96300 47.25400
C  40.44900 3.35300 47.02700
C  38.24600 3.54000 48.56500
C  38.34700 5.97200 45.72800
C  38.57600 5.38800 44.31200
H  39.33800 6.28200 43.40200
N  43.04900 1.78500 46.64000
C  41.82900 1.19300 46.62500
C  41.94100 -0.22500 46.34200
C  43.32900 -0.48000 46.10900
C  43.95900 0.83200 46.23900
C  40.71900 -1.20400 46.42700
C  43.93900 -1.80400 45.76000
O  43.23200 -2.78200 45.71300
C  45.35900 -1.97500 45.29100
N  45.60400 3.55300 46.56900
C  46.06500 2.28000 46.32700
C  47.58900 2.30100 46.40000
C  47.91500 3.87400 46.20900
C  46.54400 4.48100 46.39100
C  48.23900 1.55800 47.65700
C  48.67500 4.25900 44.88200
C  50.22300 4.32100 44.95400
N  43.84000 5.87600 46.64000
C  45.03100 6.54100 46.53700
C  44.72500 7.96400 46.54000
C  43.32200 8.04200 46.53500
C  42.85300 6.74800 46.55200
C  45.75500 9.09500 46.66100
C  42.22900 8.96800 46.42800
O  42.26800 10.13900 46.26200
C  40.91900 8.18600 46.51500
C  40.26400 8.58300 47.78300
O  40.45600 8.10900 48.89800
O  39.26900 9.51500 47.45300
C  38.44500 9.86800 48.62500
H  39.74400 1.38700 46.80700
H  45.89300 0.24500 45.93100
H  47.18800 6.38600 46.20600
H  39.00900 5.97600 47.90200
H  38.42700 3.40600 46.51300
H  37.72300 4.38500 49.01300
H  38.87600 3.23000 49.39800
H  37.55000 2.71200 48.42500
H  38.34900 7.04800 45.55300
H  37.27400 5.95000 45.91700
H  37.55200 5.17500 44.00400
H  39.13500 4.45300 44.30900
H  40.45800 -1.48500 45.40600
H  39.85000 -0.69400 46.84200
H  40.88200 -2.05900 47.08300
H  46.04000 -1.81800 46.12700
H  45.57400 -1.41500 44.38100
H  45.50500 -3.01500 44.99600
H  47.85100 1.70400 45.52600
H  48.55600 4.27900 46.99200
H  48.79100 0.69400 47.28700
H  47.59100 1.09200 48.39900
H  48.85300 2.25200 48.23100
H  48.36200 5.24800 44.54700
H  48.38800 3.60300 44.06000
H  50.52700 3.75100 45.83200
H  50.47200 5.38100 44.91000
H  50.63300 3.78900 44.09500
H  46.26600 9.08900 45.69800
H  46.47400 8.84700 47.44200
H  45.17000 9.98000 46.91000
H  40.18800 8.28500 45.71300
H  37.71600 9.06800 48.75300
H  37.95300 10.78600 48.30600
H  38.98200 10.15300 49.53000
Mg 6.34500 54.12900 41.67300
C  5.88000 50.64900 41.41500
C  9.51000 53.60700 40.41000
C  6.63100 57.48700 41.23400
C  2.98700 54.52800 42.59500
N  7.57600 52.29900 41.02300
C  7.20900 50.94500 41.04600
C  8.26800 50.10300 40.33800
C  9.52100 51.02300 40.51500
C  8.82900 52.38700 40.63400
C  10.41700 50.74900 41.75700
C  8.03300 49.65700 38.89900
C  7.39400 50.76300 38.01300
H  6.25400 50.41000 37.04900
N  7.92400 55.41100 40.94900
C  9.13800 54.97700 40.44700
C  9.87300 56.08300 40.02100
C  9.07600 57.32900 40.30500
C  7.81100 56.76700 40.84800
C  11.32300 56.04000 39.45800
C  9.41300 58.77800 40.04300
O  10.57100 58.96400 39.61100
C  8.59700 59.93800 40.26300
N  4.91100 55.76600 41.76400
C  5.36900 57.05000 41.60200
C  4.24000 58.11500 42.01800
C  3.13500 57.07900 42.52300
C  3.72500 55.69600 42.29000
C  4.68000 59.26700 43.02000
C  1.78000 57.18600 41.83800
C  0.56000 57.11600 42.68600
N  4.76000 52.92700 41.96000
C  3.47200 53.24700 42.39700
C  2.73500 52.03200 42.60100
C  3.66600 51.03800 42.27200
C  4.87200 51.57400 41.85700
C  1.27100 51.96800 43.06000
C  3.79400 49.63500 42.22000
O  3.07100 48.74800 42.55500
C  5.20000 49.36000 41.50700
C  4.79100 48.69600 40.24600
O  4.08300 49.11400 39.34800
O  5.44500 47.40000 40.20800
C  5.09300 46.70900 38.96300
H  10.49600 53.43300 39.97500
H  6.68700 58.57600 41.17200
H  1.95700 54.76500 42.87200
H  8.40800 49.21200 40.95000
H  10.20200 51.02700 39.66400
H  9.96200 50.06000 42.46900
H  10.49400 51.74300 42.19700
H  11.43100 50.42100 41.52700
H  7.51500 48.71900 38.70100
H  9.03700 49.53500 38.49200
H  8.07800 51.37800 37.42900
H  6.84200 51.41800 38.68800
H  11.37900 56.24100 38.38800
H  11.80200 55.09100 39.69900
H  11.82000 56.88300 39.93700
H  7.73400 59.90100 39.59800
H  9.25400 60.80600 40.21000
H  8.27100 60.00300 41.30100
H  3.94100 58.60000 41.08900
H  3.12300 57.23600 43.60100
H  4.89700 60.23700 42.57200
H  5.59900 59.00200 43.54300
H  3.94800 59.35800 43.82200
H  1.68400 56.42500 41.06400
H  1.75100 58.11100 41.26100
H  0.69900 56.65200 43.66200
H  -0.23400 56.53700 42.21400
H  0.15400 58.11100 42.87300
H  0.87200 52.98200 43.04600
H  1.22100 51.44800 44.01600
H  0.79400 51.44200 42.23300
H  5.64800 48.67000 42.22200
H  5.35400 45.67200 39.17700
H  5.72800 46.97700 38.11800
H  4.03900 46.84200 38.72000

