158

Mg -1.89900 18.06700 26.92700
C  -2.45400 15.88900 29.71200
C  -2.13900 20.79300 29.21100
C  -1.48400 20.05300 24.38200
C  -1.96500 15.22000 24.83700
N  -2.14300 18.32300 29.16300
C  -2.36100 17.28200 30.11400
C  -2.57700 17.80700 31.49800
C  -2.71600 19.28900 31.25700
C  -2.21600 19.51000 29.80500
C  -4.08100 19.98400 31.66000
C  -1.40000 17.46700 32.59800
C  -1.86200 16.78100 33.83200
H  -0.80700 16.46100 34.92900
N  -1.73300 20.12000 26.77900
C  -1.87600 21.06400 27.82000
C  -1.83400 22.41100 27.19500
C  -1.62700 22.27500 25.73900
C  -1.64300 20.76300 25.57700
C  -1.84900 23.69900 27.92300
C  -1.45700 23.29900 24.61600
O  -1.19000 23.03900 23.46000
C  -1.35800 24.69500 24.98200
N  -1.94500 17.72800 24.94100
C  -1.63300 18.73500 24.07800
C  -1.56600 18.16700 22.62300
C  -1.88300 16.66400 22.70200
C  -1.98700 16.45300 24.27000
C  -2.60700 18.89200 21.57900
C  -0.71000 15.83200 22.05100
C  0.57400 15.65600 22.83700
N  -2.22200 16.00500 27.12300
C  -2.17000 14.95700 26.20300
C  -2.29000 13.68300 26.92500
C  -2.32900 14.01100 28.29700
C  -2.34900 15.39500 28.36200
C  -2.31800 12.37100 26.26800
C  -2.48600 13.44600 29.64700
O  -2.57300 12.32700 30.04900
C  -2.55100 14.65800 30.61500
C  -1.36400 14.37600 31.47800
O  -0.21600 14.62100 31.19300
O  -1.74100 13.73600 32.58700
C  -0.73800 13.22800 33.46000
H  -2.27400 21.60400 29.93000
H  -1.26800 20.70200 23.53200
H  -2.06200 14.41700 24.10400
H  -3.44800 17.31000 31.92500
H  -2.05800 19.81800 31.94700
H  -4.44000 20.54600 30.79700
H  -3.97400 20.64000 32.52400
H  -4.78600 19.22200 31.99200
H  -0.73600 18.25900 32.94600
H  -0.76500 16.78700 32.03100
H  -2.28900 15.80900 33.58700
H  -2.69500 17.39700 34.17400
H  -1.95600 23.55600 28.99800
H  -2.71100 24.33200 27.71400
H  -0.90900 24.22200 27.74300
H  -2.05300 25.01700 25.75800
H  -1.57700 25.37000 24.15500
H  -0.36500 24.86500 25.39700
H  -0.53900 18.32100 22.29400
H  -2.74200 16.42700 22.07500
H  -3.11000 19.72000 22.07900
H  -3.34400 18.18300 21.20300
H  -2.06100 19.13800 20.66800
H  -0.40400 16.33100 21.13100
H  -0.97300 14.83000 21.71200
H  1.16600 16.54500 22.61900
H  1.05200 14.71300 22.57000
H  0.35900 15.48800 23.89300
H  -2.13100 11.50600 26.90500
H  -1.58900 12.37900 25.45800
H  -3.30400 12.31900 25.80600
H  -3.42300 14.56400 31.26200
H  0.11300 13.86500 33.70100
H  -0.45500 12.25400 33.06100
H  -1.29200 13.00300 34.37200
Mg 47.90900 34.00800 25.91200
C  46.00900 32.91300 28.60200
C  48.45900 36.87400 27.47400
C  49.58800 34.84600 23.15200
C  46.87800 31.04300 24.18700
N  47.33300 34.85700 27.84300
C  46.66300 34.17300 28.82900
C  46.85600 34.99700 30.21100
C  47.07300 36.44300 29.63100
C  47.57700 36.07200 28.20000
C  45.91800 37.48300 29.62500
C  48.01500 34.41700 30.92900
C  48.00800 34.41800 32.50000
H  47.29600 35.56400 33.22100
N  48.88400 35.69200 25.36700
C  49.04500 36.76800 26.15100
C  49.87000 37.75100 25.46400
C  49.97700 37.31000 24.12800
C  49.48000 35.88900 24.17500
C  50.40200 39.01500 26.19200
C  50.62300 37.94400 22.87200
O  50.55000 37.41500 21.76900
C  51.41900 39.25800 23.00800
N  48.00900 33.11600 23.85300
C  48.87700 33.71400 22.93700
C  48.95000 32.84200 21.66100
C  48.46900 31.42500 22.15400
C  47.72800 31.86000 23.45500
C  48.29000 33.30800 20.29500
C  49.41400 30.33300 22.51900
C  50.47900 30.02900 21.42400
N  46.69900 32.33100 26.29100
C  46.35200 31.23900 25.50700
C  45.47500 30.42900 26.23300
C  45.26500 31.02700 27.47900
C  46.02000 32.20500 27.45100
C  44.89500 29.05500 25.76700
C  44.48400 30.98500 28.71300
O  43.80300 30.08900 29.09300
C  44.92300 32.31600 29.47400
C  45.25700 32.04100 30.89600
O  45.89400 31.14800 31.33800
O  44.50100 32.92200 31.69900
C  44.35100 32.41700 33.07500
H  48.74400 37.82000 27.94000
H  50.31900 35.18900 22.41500
H  46.57200 30.16300 23.61600
H  45.92500 35.07000 30.77400
H  47.94000 36.97500 30.02300
H  45.39200 37.68400 28.69200
H  46.29000 38.46200 29.92800
H  45.30900 37.07700 30.43400
H  48.90800 34.95300 30.60700
H  48.07700 33.36500 30.64900
H  49.06600 34.32100 32.74500
H  47.48700 33.52200 32.83900
H  51.48100 39.03500 26.04400
H  50.18800 39.13100 27.25500
H  49.98400 39.91300 25.73600
H  52.06400 39.15000 23.88000
H  50.73800 40.10500 23.08900
H  51.92100 39.34500 22.04500
H  50.00300 32.59800 21.51800
H  47.62000 30.93900 21.67300
H  47.27900 32.94900 20.10600
H  48.98500 32.84900 19.59200
H  48.24800 34.38300 20.11900
H  48.73000 29.49900 22.67800
H  49.84300 30.58000 23.49000
H  51.43300 30.27500 21.89100
H  50.32100 30.70300 20.58200
H  50.53400 28.96700 21.18500
H  45.02200 28.32600 26.56800
H  45.54700 28.73100 24.95600
H  43.85200 29.15900 25.46700
H  43.98000 32.85500 29.37400
H  44.25500 31.33500 33.16600
H  43.43100 32.84700 33.47200
H  45.16100 32.79600 33.69800

