158

Mg 8.01600 1.77400 27.90600
C  9.76600 0.73700 30.75100
C  6.23000 3.78500 30.11300
C  6.31700 2.76400 25.32400
C  9.88000 -0.51000 26.04900
N  8.00600 2.12600 30.21300
C  8.88700 1.70600 31.19800
C  8.57300 2.29100 32.54100
C  7.27500 3.03000 32.25200
C  7.12100 2.98300 30.73900
C  5.96400 2.65000 33.12900
C  9.80400 3.24900 32.98600
C  10.67700 2.77900 34.20800
H  10.95300 3.68000 35.38600
N  6.38900 3.05200 27.69700
C  5.89200 3.86800 28.68800
C  4.90700 4.72300 28.19600
C  4.97400 4.58000 26.73500
C  5.96100 3.44800 26.53400
C  3.94500 5.62400 28.99200
C  4.14500 5.18100 25.64200
O  4.03400 4.79400 24.47800
C  3.36800 6.41500 26.03000
N  7.98800 1.15300 25.98700
C  7.28400 1.83000 25.06900
C  7.43500 1.19500 23.71000
C  8.68900 0.18500 23.82300
C  8.89000 0.30400 25.36100
C  6.21200 0.34200 23.14900
C  9.92600 0.78600 23.14100
C  10.17100 0.16500 21.70400
N  9.61800 0.40100 28.25600
C  10.18100 -0.51500 27.43500
C  11.15700 -1.33400 28.14700
C  11.05900 -0.87600 29.40700
C  10.06900 0.18900 29.43700
C  12.10400 -2.30900 27.57300
C  11.53600 -1.06400 30.71900
O  12.38500 -1.86500 31.11100
C  10.85800 0.02300 31.60000
C  10.31400 -0.68800 32.78800
O  9.28100 -1.31200 32.79600
O  11.28200 -0.62600 33.80500
C  10.91100 -1.21000 35.09600
H  5.70000 4.43800 30.81000
H  5.84400 3.04000 24.37900
H  10.32100 -1.26600 25.39600
H  8.36500 1.60300 33.36100
H  7.43500 4.10000 32.38200
H  6.14000 1.69300 33.62000
H  5.05400 2.75700 32.53800
H  5.84400 3.43300 33.87700
H  9.66900 4.32800 33.05900
H  10.53600 3.09200 32.19400
H  11.63600 2.36200 33.90100
H  10.16900 1.90300 34.61100
H  4.31100 6.63200 28.79600
H  3.90600 5.37400 30.05200
H  2.96200 5.45500 28.55200
H  2.36300 6.12100 26.33400
H  3.19100 7.15700 25.25100
H  3.89700 6.92100 26.83900
H  7.66100 1.98900 22.99900
H  8.51500 -0.83800 23.48900
H  5.37900 0.19000 23.83600
H  6.54100 -0.57900 22.66700
H  5.74300 1.03000 22.44500
H  10.87500 0.64300 23.65900
H  9.77200 1.86500 23.14600
H  9.62700 -0.75100 21.47500
H  11.24100 -0.00800 21.58500
H  9.91700 0.96000 21.00200
H  12.25400 -2.21500 26.49800
H  11.68900 -3.30600 27.72200
H  13.08900 -2.24900 28.03400
H  11.52200 0.77600 32.02300
H  10.50800 -0.41700 35.72600
H  11.77300 -1.60700 35.63200
H  10.12100 -1.93200 34.88600
Mg 6.27300 53.05200 40.46500
C  5.68600 49.54300 40.45900
C  9.37100 52.37600 39.27800
C  6.49800 56.31500 39.62600
C  2.87900 53.43000 41.27400
N  7.35700 51.18700 39.91400
C  6.94100 49.89100 39.99700
C  8.03000 48.88200 39.50600
C  9.30800 49.79200 39.56600
C  8.68500 51.22400 39.65000
C  10.42400 49.50400 40.64700
C  7.80900 48.31000 38.05000
C  7.00000 49.04900 36.98400
H  7.81500 49.54700 35.71900
N  7.74000 54.15300 39.58100
C  8.98100 53.72500 39.30000
C  9.82900 54.92700 38.86100
C  9.00800 56.04300 38.88600
C  7.67200 55.50100 39.36000
C  11.25900 54.85700 38.40800
C  9.39400 57.35800 38.30000
O  10.59500 57.62400 37.96500
C  8.41600 58.47600 38.20100
N  4.88800 54.60800 40.31000
C  5.26900 55.86900 40.02300
C  4.19500 56.90500 40.44000
C  3.00300 56.00300 40.91500
C  3.59600 54.56600 40.84300
C  4.75600 57.91500 41.53700
C  1.69100 56.22400 40.16800
C  0.43100 56.77800 40.93700
N  4.59800 51.81700 40.91800
C  3.30100 52.06600 41.26100
C  2.58700 50.88600 41.54800
C  3.48700 49.86600 41.18800
C  4.66300 50.48300 40.75000
C  1.19100 50.66100 42.11000
C  3.70200 48.41700 41.17900
O  2.93500 47.51100 41.37300
C  5.15800 48.18800 40.62600
C  5.01100 47.26300 39.41600
O  4.51300 47.61800 38.35600
O  5.19200 45.93700 39.80700
C  4.93500 44.94100 38.76100
H  10.33200 51.99800 38.92200
H  6.51800 57.38700 39.41700
H  1.82200 53.46100 41.54200
H  8.06500 48.07200 40.23400
H  9.84000 49.73000 38.61700
H  11.43900 49.85000 40.45200
H  10.53800 48.42100 40.68700
H  10.19000 49.85500 41.65200
H  7.25400 47.37600 38.13300
H  8.76800 47.95800 37.66800
H  6.57600 49.92200 37.48100
H  6.22700 48.35900 36.64500
H  11.36800 55.24600 37.39600
H  11.58300 53.82000 38.31800
H  11.89200 55.25700 39.20100
H  8.11900 58.69200 39.22700
H  7.66600 58.19300 37.46300
H  8.80300 59.47000 37.97800
H  3.81400 57.44400 39.57200
H  2.65600 56.15500 41.93700
H  5.63300 57.45100 41.98800
H  4.05000 58.06700 42.35300
H  5.00500 58.84900 41.03400
H  1.29900 55.26500 39.83100
H  1.86800 56.76700 39.24000
H  0.68400 56.86800 41.99400
H  -0.49300 56.20300 40.98800
H  0.23300 57.78100 40.56100
H  0.59700 51.54200 42.35200
H  1.20400 49.99500 42.97200
H  0.61800 50.08500 41.38300
H  5.72200 47.59400 41.34500
H  5.88700 44.94800 38.23000
H  4.18700 45.14800 37.99700
H  4.62100 44.00500 39.22200

