158

Mg 35.45400 1.61000 28.85300
C  33.39400 2.78900 31.35700
C  38.09300 1.28500 31.06100
C  37.59300 0.70900 26.23600
C  32.86000 2.01300 26.56400
N  35.71300 2.01500 30.90900
C  34.69100 2.45300 31.76400
C  35.20200 2.45700 33.18200
C  36.70500 2.17700 33.06000
C  36.89700 1.81200 31.56300
C  37.52900 3.42500 33.32200
C  34.48000 1.41400 34.05500
C  34.20600 1.86400 35.49200
H  34.81200 3.14800 36.02400
N  37.47400 0.85500 28.70100
C  38.38600 0.85500 29.69700
C  39.61500 0.43000 29.14700
C  39.55700 0.30100 27.75700
C  38.14000 0.60200 27.48000
C  40.78700 0.13400 29.96100
C  40.71500 -0.06300 26.73400
O  40.46900 -0.11600 25.51800
C  42.12300 -0.12600 27.12300
N  35.28000 1.35400 26.71500
C  36.29200 1.11700 25.86700
C  35.83400 1.30200 24.43900
C  34.22700 1.29100 24.60100
C  34.05400 1.57300 26.06900
C  36.34200 2.68100 23.82100
C  33.41100 0.01800 24.08200
C  32.85000 -0.98200 25.06600
N  33.51300 2.26000 28.91100
C  32.55200 2.37600 27.88300
C  31.26400 2.86800 28.42800
C  31.55300 3.05300 29.83400
C  32.92400 2.64400 30.02800
C  30.00000 3.05200 27.70400
C  30.99300 3.41700 31.10100
O  29.83200 3.75700 31.33400
C  32.22200 3.25400 32.19700
C  32.32700 4.65600 32.73800
O  32.94800 5.58600 32.19000
O  31.48700 4.76800 33.81200
C  31.50800 6.02900 34.56100
H  39.00800 1.27200 31.65700
H  38.31500 0.56300 25.43000
H  31.98200 2.09100 25.91800
H  35.10300 3.50800 33.45500
H  37.08200 1.51400 33.83900
H  37.05400 4.36100 33.02500
H  38.45700 3.46600 32.75200
H  37.70500 3.60900 34.38200
H  34.98500 0.44800 34.07200
H  33.50000 1.16500 33.64900
H  34.55200 1.05600 36.13600
H  33.15000 1.83100 35.76000
H  40.53200 -0.22700 30.95700
H  41.40500 1.03200 29.94800
H  41.36600 -0.62400 29.43400
H  42.43800 -1.05400 27.60100
H  42.23200 0.75600 27.75300
H  42.68700 0.10200 26.21900
H  36.12200 0.48500 23.77800
H  33.79600 2.15700 24.09800
H  36.89900 2.36400 22.93900
H  37.05900 3.09500 24.53000
H  35.64100 3.48700 23.60300
H  34.06700 -0.52100 23.39900
H  32.70900 0.41500 23.34900
H  32.79700 -0.48100 26.03300
H  33.32700 -1.93600 25.29000
H  31.83500 -1.25200 24.77600
H  29.14500 2.42700 27.96100
H  30.09300 2.95900 26.62200
H  29.65000 4.05200 27.95900
H  31.80200 2.61700 32.97500
H  32.35800 6.68300 34.36400
H  31.50100 5.99600 35.65000
H  30.66300 6.62900 34.22400
Mg -5.52900 24.73900 26.77600
C  -3.73800 26.17500 29.33200
C  -6.88800 22.60200 29.21600
C  -7.36200 23.25000 24.37800
C  -3.77500 26.52700 24.44400
N  -5.25200 24.41600 28.88000
C  -4.67900 25.27400 29.76100
C  -5.00100 24.99600 31.19000
C  -5.70600 23.63600 31.14000
C  -5.97600 23.52800 29.64700
C  -5.07600 22.42400 31.87000
C  -5.82300 26.20900 31.77000
C  -5.52800 26.74600 33.23100
H  -4.78100 25.87300 34.25300
N  -6.86800 23.15200 26.75600
C  -7.35100 22.41500 27.88400
C  -8.31600 21.38300 27.44900
C  -8.43300 21.45000 26.03800
C  -7.50300 22.66100 25.64300
C  -8.98600 20.39300 28.39700
C  -9.21200 20.56600 25.02400
O  -8.98900 20.66500 23.81900
C  -10.11600 19.53700 25.57900
N  -5.59000 24.90000 24.74700
C  -6.48300 24.24800 23.99300
C  -6.21100 24.52300 22.48100
C  -4.95700 25.48600 22.43700
C  -4.72400 25.65600 23.92800
C  -6.08700 23.26500 21.60200
C  -5.10500 26.76700 21.62800
C  -3.97400 27.07000 20.55200
N  -4.02300 26.10500 26.77300
C  -3.40100 26.74700 25.80900
C  -2.45700 27.72900 26.37100
C  -2.59600 27.59500 27.75900
C  -3.50200 26.48500 27.97600
C  -1.57900 28.83500 25.59000
C  -2.15900 28.05200 29.05800
O  -1.41500 28.95400 29.38100
C  -2.86700 27.14400 30.11000
C  -1.79500 26.43100 30.79700
O  -0.95100 25.73000 30.21800
O  -1.79600 26.76600 32.16200
C  -0.71600 26.08200 32.93300
H  -7.31900 22.10800 30.08900
H  -7.98200 22.84000 23.57800
H  -3.20300 27.06200 23.68300
H  -4.09700 24.96500 31.79800
H  -6.68000 23.82000 31.59300
H  -5.76900 21.90800 32.53500
H  -4.29700 22.81300 32.52600
H  -4.59300 21.82900 31.09500
H  -6.90900 26.14700 31.70900
H  -5.56900 27.08200 31.16700
H  -6.47300 27.12000 33.62400
H  -4.94000 27.64600 33.05000
H  -10.02400 20.69000 28.54700
H  -8.51900 20.26800 29.37500
H  -9.03100 19.37900 28.00000
H  -9.68200 18.65000 26.04200
H  -10.95100 19.30100 24.91900
H  -10.78500 19.90600 26.35600
H  -7.10800 25.07600 22.20300
H  -4.15700 24.84900 22.06000
H  -7.07500 23.17300 21.15000
H  -5.86700 22.39900 22.22700
H  -5.36700 23.44600 20.80400
H  -5.13000 27.60500 22.32400
H  -6.10100 26.64500 21.20300
H  -4.37400 27.09800 19.53800
H  -3.04000 26.51500 20.63700
H  -3.74200 28.13000 20.66000
H  -1.86000 29.86100 25.83000
H  -1.70400 28.63300 24.52600
H  -0.51500 28.67400 25.76400
H  -3.39700 27.69100 30.89000
H  -0.44200 25.13200 32.47300
H  -1.11000 25.86300 33.92600
H  0.12900 26.74500 33.11800

