158

Mg 35.60800 49.40600 24.01000
C  35.46000 47.62900 27.16000
C  34.31800 52.21700 25.76100
C  35.33600 50.79700 21.19200
C  36.57400 46.35800 22.50500
N  34.88300 49.85900 26.21400
C  35.16200 49.00600 27.27500
C  34.81900 49.81700 28.57300
C  34.40400 51.21500 28.12600
C  34.53100 51.13800 26.61800
C  33.09400 51.78600 28.57700
C  36.12600 49.84800 29.51900
C  35.82000 49.69700 30.99300
H  34.49200 50.15400 31.50400
N  35.09600 51.33200 23.52400
C  34.49800 52.31800 24.35600
C  34.21500 53.44000 23.50500
C  34.61700 53.18900 22.13100
C  35.07000 51.76600 22.21500
C  33.85400 54.74700 24.10300
C  34.61500 53.96400 20.94500
O  35.13000 53.54900 19.94000
C  34.04200 55.28200 20.99900
N  35.50300 48.54000 22.02400
C  35.62700 49.48500 21.08100
C  36.02000 48.86600 19.73000
C  36.71900 47.55200 20.27200
C  36.24400 47.45400 21.70900
C  34.81700 48.58000 18.64800
C  38.29900 47.61400 20.21500
C  39.02100 46.27200 19.85500
N  35.77700 47.32100 24.63100
C  36.26900 46.27100 23.86900
C  36.29300 45.10300 24.74400
C  35.93000 45.59200 26.01900
C  35.66600 46.95200 25.90900
C  36.74700 43.72400 24.32500
C  35.95900 45.23300 27.45800
O  36.19600 44.16400 28.01900
C  35.45200 46.55300 28.25600
C  34.14200 46.27600 28.76500
O  33.22000 45.82600 28.13700
O  34.21900 46.42600 30.12500
C  33.07300 46.08000 30.93600
H  33.94000 53.07900 26.31400
H  35.29200 51.18500 20.17200
H  36.94300 45.42400 22.07700
H  33.95800 49.35700 29.05600
H  35.04300 51.92800 28.64700
H  33.37700 52.74800 29.00400
H  32.46700 51.16800 29.22000
H  32.34900 52.01600 27.81600
H  36.74100 50.73400 29.36600
H  36.77800 49.02400 29.23000
H  36.54600 50.30000 31.53800
H  35.83800 48.64000 31.25700
H  34.56600 55.51000 23.78800
H  33.73000 54.75300 25.18600
H  32.82400 54.84000 23.75900
H  33.05000 55.08700 21.40700
H  34.09600 55.74700 20.01500
H  34.74100 55.96200 21.48700
H  36.70400 49.59200 19.29000
H  36.29500 46.78200 19.62800
H  33.82600 48.65600 19.09400
H  34.86100 47.58200 18.21200
H  34.93400 49.18400 17.74800
H  38.61000 47.98800 21.19100
H  38.65900 48.33500 19.48000
H  38.42700 45.35900 19.85900
H  39.80300 46.00600 20.56700
H  39.58000 46.44400 18.93600
H  37.76200 43.88200 23.95800
H  36.26300 43.13300 23.54900
H  36.78800 43.10200 25.21900
H  36.12000 46.63100 29.11400
H  32.58300 46.98000 31.30800
H  33.31700 45.32100 31.67900
H  32.30600 45.54900 30.37300
Mg 16.19400 51.64400 24.99000
C  18.06000 50.67300 27.81100
C  13.75500 52.78400 27.13500
C  14.49900 52.46000 22.39300
C  18.77600 50.25400 22.88500
N  15.97100 51.66500 27.24500
C  16.87500 51.34700 28.18000
C  16.46300 51.62400 29.63300
C  14.95400 52.14300 29.36900
C  14.81200 52.13900 27.78400
C  13.72500 51.38000 30.12600
C  17.30400 52.52100 30.51300
C  17.25000 52.39700 32.05500
H  16.23100 51.41300 32.61200
N  14.38400 52.53300 24.80700
C  13.57000 53.00100 25.80200
C  12.46300 53.67900 25.20900
C  12.69900 53.72000 23.82100
C  13.91200 52.87700 23.64200
C  11.14600 54.00900 25.91700
C  11.83200 54.24900 22.75000
O  12.10700 54.00200 21.58400
C  10.45400 55.01500 23.03600
N  16.62600 51.34700 22.97300
C  15.61200 51.75800 22.11400
C  16.02000 51.52600 20.63300
C  17.50300 51.12900 20.67000
C  17.65700 50.89100 22.24200
C  15.11800 50.56900 19.84000
C  18.57100 52.09500 20.23500
C  19.22300 51.67800 18.91100
N  18.04900 50.57200 25.23800
C  19.00300 50.09500 24.28300
C  19.96900 49.36600 25.05900
C  19.74600 49.63700 26.42400
C  18.53000 50.33800 26.49600
C  21.06900 48.62500 24.40500
C  20.28900 49.52000 27.75800
O  21.31800 49.04500 28.18700
C  19.22900 50.15800 28.73100
C  18.70500 49.08200 29.65900
O  17.78900 48.28500 29.40600
O  19.40500 49.19600 30.85200
C  19.05000 48.12300 31.76500
H  12.98500 53.19500 27.79100
H  14.16900 52.89400 21.44600
H  19.54700 49.87000 22.21300
H  16.40900 50.60100 30.00600
H  14.93100 53.21200 29.57700
H  13.39300 51.97700 30.97600
H  13.96400 50.44000 30.62300
H  12.93700 51.20700 29.39400
H  16.92200 53.50800 30.24900
H  18.34900 52.42000 30.21700
H  16.97700 53.40400 32.37000
H  18.26500 52.20900 32.40500
H  11.07000 55.09700 25.92700
H  11.18800 53.49100 26.87500
H  10.26700 53.61100 25.41000
H  9.64900 54.31800 23.27000
H  10.27700 55.60900 22.13900
H  10.72900 55.68800 23.84800
H  15.91100 52.47700 20.11300
H  17.77500 50.21700 20.13700
H  14.67000 51.17100 19.04900
H  14.36200 50.23600 20.55100
H  15.54300 49.72000 19.30500
H  19.31800 52.06500 21.02800
H  18.33000 53.15600 20.29700
H  19.36700 52.48600 18.19400
H  18.50500 51.06700 18.36400
H  20.17600 51.20100 19.13800
H  20.62600 48.26600 23.47600
H  21.37200 47.79600 25.04600
H  21.86400 49.28100 24.05100
H  19.66800 50.99700 29.27200
H  18.78000 47.18900 31.27300
H  18.27400 48.46000 32.45200
H  19.93400 47.73700 32.27400

