158

Mg 49.01500 46.52200 42.61800
C  45.74400 47.37100 41.77400
C  48.46300 43.55200 40.86000
C  52.26700 46.00600 42.62800
C  49.52300 49.87400 43.50900
N  47.30200 45.62700 41.37400
C  46.00900 46.05900 41.27000
C  44.98700 45.03000 40.80800
C  45.88600 43.75700 40.85300
C  47.28300 44.27500 41.05900
C  45.42400 42.71300 41.90800
C  44.24200 45.36000 39.49900
C  44.90600 46.30800 38.46500
H  45.80700 45.71400 37.42100
N  50.13600 44.85800 42.03800
C  49.76900 43.76600 41.30200
C  50.93000 42.91000 41.25700
C  52.00300 43.62900 41.87500
C  51.48600 44.96900 42.19300
C  50.94300 41.55700 40.66500
C  53.42700 42.98300 41.94000
O  53.54500 41.76300 41.78000
C  54.61300 43.77400 42.34700
N  50.73100 47.87100 42.70900
C  51.94000 47.34400 42.91800
C  52.96700 48.42100 43.34900
C  52.02600 49.62700 43.70100
C  50.68000 49.09700 43.23400
C  53.87900 47.95000 44.49600
C  52.34200 51.09400 43.08600
C  52.37600 52.20900 44.11600
N  47.90600 48.29300 42.66300
C  48.21300 49.52300 43.24000
C  46.99200 50.36200 43.29900
C  45.97900 49.54400 42.67600
C  46.57100 48.29500 42.41100
C  46.77400 51.82000 43.73200
C  44.60600 49.43300 42.28500
O  43.66700 50.23500 42.30500
C  44.37700 48.05600 41.78900
C  43.38300 47.40000 42.62300
O  43.55300 47.36200 43.81800
O  42.39300 46.82400 41.90800
C  41.49000 46.03100 42.76200
H  48.33900 42.58700 40.36300
H  53.34700 45.88000 42.72700
H  49.68200 50.89700 43.85700
H  44.28700 44.87700 41.62900
H  45.87800 43.25800 39.88400
H  46.20400 42.54300 42.65000
H  45.09900 41.78900 41.43100
H  44.51900 42.95500 42.46600
H  43.22800 45.66300 39.76000
H  44.07000 44.38200 39.05000
H  45.64200 46.93800 38.96400
H  44.16700 46.92800 37.95700
H  50.01500 41.54500 40.09300
H  50.87400 40.81700 41.46200
H  51.81900 41.30500 40.06800
H  54.33700 44.23700 43.29500
H  54.79500 44.39500 41.47000
H  55.40200 43.07400 42.62000
H  53.51700 48.77400 42.47700
H  52.02700 49.67100 44.79000
H  53.73500 46.87600 44.61400
H  53.58700 48.51900 45.37900
H  54.92800 48.11700 44.25000
H  51.58200 51.37100 42.35500
H  53.34000 50.99100 42.66200
H  51.99800 51.90600 45.09200
H  51.72900 53.03200 43.81200
H  53.35500 52.68000 44.20400
H  47.59500 52.13700 44.37400
H  45.82800 51.98100 44.24900
H  46.70100 52.44400 42.84100
H  43.93600 48.26200 40.81400
H  41.83300 45.00300 42.64400
H  40.50000 46.14600 42.32100
H  41.46900 45.97100 43.85000
Mg 28.82700 57.28500 41.37600
C  26.27300 55.06600 40.25300
C  31.04800 55.00100 39.82100
C  31.00600 59.59800 41.58800
C  26.30100 59.45000 42.42600
N  28.64000 55.28800 40.08100
C  27.48700 54.53800 39.86700
C  27.89600 53.18800 39.32700
C  29.42600 53.07100 39.47900
C  29.70300 54.51800 39.80100
C  30.02400 52.08600 40.59500
C  27.34100 52.90300 37.89200
C  27.20100 54.19400 37.12800
H  27.35100 54.13700 35.60700
N  30.78500 57.23300 40.92700
C  31.53000 56.23300 40.31000
C  32.90100 56.63500 40.21700
C  32.94400 57.90900 40.82700
C  31.56900 58.33800 41.13900
C  33.96800 55.79800 39.53100
C  34.23500 58.66200 41.06300
O  35.29800 58.16100 40.74100
C  34.27200 59.98500 41.56700
N  28.69500 59.21900 41.98500
C  29.72700 60.01900 42.01400
C  29.49800 61.42300 42.76100
C  27.94300 61.44900 42.75400
C  27.62700 59.99000 42.30200
C  30.11500 61.57400 44.17000
C  27.18800 62.58700 41.93600
C  26.81200 63.88000 42.71600
N  26.70800 57.30500 41.41500
C  25.85200 58.24700 41.92100
C  24.48400 57.73400 41.69400
C  24.59500 56.51900 41.11100
C  25.99800 56.31700 40.89300
C  23.21900 58.37600 42.08600
C  23.87700 55.38600 40.65900
O  22.67200 55.10800 40.68200
C  24.93000 54.39300 40.20100
C  24.82800 53.12000 40.94200
O  25.12700 52.94900 42.11400
O  24.23600 52.13200 40.20300
C  23.74900 50.94300 40.93200
H  31.76200 54.23700 39.50600
H  31.77900 60.36600 41.52800
H  25.62000 60.20700 42.82000
H  27.44900 52.50500 40.04900
H  29.81900 52.71200 38.52800
H  29.22100 51.54400 41.09500
H  30.47900 52.64100 41.41600
H  30.72200 51.37800 40.14800
H  26.30900 52.55300 37.92000
H  28.01700 52.21700 37.38200
H  27.92500 54.96300 37.39800
H  26.18100 54.56300 37.23400
H  34.41800 56.40700 38.74700
H  33.47700 55.03200 38.93100
H  34.67000 55.35400 40.23600
H  33.91000 60.60700 40.74800
H  35.32400 60.23400 41.70400
H  33.71700 60.02900 42.50400
H  29.97200 62.12700 42.07600
H  27.54100 61.58800 43.75700
H  30.40700 62.58500 44.45400
H  30.98400 60.91700 44.18800
H  29.42100 61.25400 44.94700
H  26.29400 62.28100 41.39200
H  27.84300 62.89000 41.11900
H  26.97400 63.81800 43.79200
H  25.76100 63.95800 42.43900
H  27.45200 64.68300 42.34900
H  23.29600 59.43600 41.84400
H  23.00800 58.28700 43.15200
H  22.37100 58.01400 41.50400
H  24.71300 54.14800 39.16100
H  23.65800 51.09600 42.00700
H  24.41400 50.12600 40.65400
H  22.74700 50.74800 40.54800

