158

Mg 45.15200 3.61500 47.40400
C  43.14500 6.43700 46.67100
C  42.25700 1.67600 46.83000
C  47.10500 0.90500 47.39300
C  47.88900 5.75200 47.36300
N  43.05600 3.99600 46.72600
C  42.51700 5.21200 46.56900
C  40.99200 5.13000 46.47200
C  40.65600 3.65700 46.79400
C  42.04600 3.06100 46.76700
C  40.04800 3.40900 48.17400
C  40.45800 5.52500 45.11700
C  39.50800 6.72300 44.98400
H  39.83700 7.71000 43.88300
N  44.77300 1.61900 47.03300
C  43.55000 1.06200 46.84900
C  43.70500 -0.33700 46.78400
C  45.08000 -0.60400 47.05700
C  45.76100 0.67000 47.18900
C  42.58800 -1.29000 46.65000
C  45.69300 -2.00800 47.31300
O  44.91300 -2.97200 47.39400
C  47.13100 -2.24800 47.56000
N  47.21300 3.35600 47.04400
C  47.80600 2.15200 47.43400
C  49.30700 2.35000 47.69400
C  49.48600 3.89700 47.48100
C  48.10100 4.37500 47.26300
C  49.73900 1.74300 49.08400
C  50.42200 4.30000 46.30300
C  51.65100 5.09800 46.79400
N  45.48300 5.67500 47.22000
C  46.64900 6.40800 47.24100
C  46.34000 7.83000 47.21400
C  44.97400 7.90800 47.00600
C  44.49300 6.55200 46.91900
C  47.30500 8.95600 47.09900
C  43.87400 8.85400 46.81600
O  43.77800 10.12300 46.81700
C  42.59900 7.84600 46.70800
C  41.70000 8.14600 47.86400
O  41.65100 7.59000 48.93400
O  40.72500 9.01300 47.40700
C  39.65400 9.29900 48.37700
H  41.36800 1.06300 46.66500
H  47.84800 0.12700 47.57900
H  48.79200 6.28300 47.67200
H  40.50700 5.78300 47.19700
H  39.94800 3.09000 46.19100
H  40.77000 2.89000 48.80500
H  39.27700 2.67700 47.93400
H  39.54700 4.25200 48.65000
H  40.20600 4.60900 44.58200
H  41.31700 5.70500 44.47100
H  39.51800 7.31100 45.90200
H  38.48800 6.34800 44.90700
H  41.59400 -0.93900 46.37400
H  42.62100 -1.85400 47.58200
H  42.78700 -2.09200 45.93900
H  47.26700 -3.32000 47.69800
H  47.44200 -1.65400 48.41900
H  47.76400 -1.81300 46.78700
H  49.80100 1.86900 46.85000
H  49.75800 4.27300 48.46800
H  49.97600 0.69200 48.91600
H  48.84900 1.89100 49.69600
H  50.57100 2.31000 49.50100
H  49.81900 4.88900 45.61200
H  50.64900 3.38200 45.76000
H  52.57800 4.52800 46.72600
H  51.55700 5.54800 47.78200
H  51.60900 5.89900 46.05600
H  46.88900 9.82700 47.60500
H  47.58900 9.10800 46.05800
H  48.20000 8.67300 47.65200
H  42.09000 8.07000 45.77100
H  39.74000 10.31600 48.76000
H  39.55200 8.59700 49.20500
H  38.71100 9.38700 47.83700
Mg 41.38000 8.85400 29.82400
C  43.56900 9.98900 32.36800
C  39.43700 7.51000 32.47200
C  39.60100 7.26800 27.57400
C  43.81900 9.64600 27.54600
N  41.49400 8.68300 32.18700
C  42.46700 9.30000 32.90500
C  42.05700 9.25000 34.43400
C  40.97800 8.20400 34.46300
C  40.60300 8.08500 32.93800
C  41.28500 6.90000 35.24400
C  41.63800 10.65800 34.96900
C  42.34300 10.94200 36.34100
H  41.63000 11.80800 37.39000
N  39.70300 7.62400 29.97600
C  38.99600 7.28900 31.15900
C  37.74600 6.69500 30.70000
C  37.74200 6.56800 29.27000
C  39.05400 7.15000 28.86400
C  36.53800 6.23100 31.65300
C  36.79400 6.02100 28.30600
O  36.88300 6.09100 27.09900
C  35.60000 5.43400 28.90300
N  41.74100 8.34500 27.89200
C  40.85200 7.69800 27.14500
C  41.21600 7.80000 25.67600
C  42.50900 8.56400 25.61500
C  42.70800 8.92000 27.14100
C  41.19800 6.52900 24.88600
C  42.36000 9.83100 24.64200
C  41.67900 11.13100 25.12900
N  43.29500 9.72500 29.84100
C  44.16900 9.98300 28.85600
C  45.29600 10.72000 29.31700
C  45.13200 10.74600 30.73900
C  43.90300 10.07300 30.99300
C  46.47400 11.06400 28.53500
C  45.81600 11.19900 31.99200
O  46.80800 11.86600 32.16500
C  44.73300 10.76400 33.05900
C  45.40800 9.99700 34.14600
O  45.56100 8.79900 34.16600
O  45.71700 10.83100 35.18900
C  46.27200 10.19000 36.38200
H  38.82300 7.15800 33.30400
H  38.97200 6.92700 26.74800
H  44.64500 9.86800 26.86700
H  42.91300 8.95000 35.03900
H  40.07300 8.57000 34.94800
H  41.03100 6.07800 34.57500
H  40.67300 6.89000 36.14600
H  42.35500 6.89600 35.45200
H  40.57600 10.86900 35.09700
H  41.99800 11.37000 34.22600
H  43.28000 11.40700 36.03400
H  42.63300 9.96200 36.72000
H  36.54700 5.15300 31.48600
H  35.56000 6.64500 31.40900
H  36.90300 6.54800 32.62900
H  35.82100 4.56000 29.51600
H  35.00200 5.12400 28.04600
H  34.89500 6.14200 29.33700
H  40.46400 8.46100 25.24600
H  43.38300 7.97000 25.34900
H  40.42800 6.36500 24.13200
H  41.14300 5.69900 25.59000
H  42.06900 6.30500 24.27000
H  41.89600 9.45000 23.73200
H  43.37700 10.15200 24.41300
H  40.90300 11.17800 24.36500
H  42.37200 11.95000 24.93300
H  41.22600 11.16200 26.11900
H  46.26700 11.93000 27.90700
H  46.67400 10.28800 27.79600
H  47.38100 11.12900 29.13600
H  44.24700 11.59100 33.57600
H  46.77700 9.24300 36.19200
H  45.37700 10.00800 36.97800
H  46.91800 10.89100 36.91000

