158

Mg -0.58300 7.59400 26.34600
C  0.11400 9.55200 29.09300
C  -0.77300 4.88800 28.57200
C  -1.04400 5.47000 23.70000
C  -0.37800 10.32900 24.21900
N  -0.27000 7.25200 28.54300
C  -0.15500 8.30300 29.42700
C  -0.33700 7.76500 30.91000
C  -0.57300 6.26900 30.73800
C  -0.56900 6.12300 29.21000
C  0.45800 5.35800 31.52200
C  -1.46400 8.45800 31.71800
C  -1.29100 8.76500 33.19100
H  -0.05700 8.19500 33.90200
N  -0.66300 5.45300 26.11400
C  -0.81200 4.57900 27.19300
C  -1.12300 3.22000 26.69800
C  -1.23000 3.34800 25.23500
C  -0.92900 4.82500 24.94700
C  -1.22600 1.99400 27.56700
C  -1.53300 2.29600 24.13600
O  -1.62200 2.61100 22.96600
C  -1.67600 0.85400 24.51000
N  -0.80400 7.85100 24.27800
C  -0.98800 6.81700 23.34100
C  -1.13700 7.42900 21.93200
C  -0.99700 8.96800 22.12500
C  -0.71200 9.08400 23.61000
C  -0.09400 6.85000 20.91200
C  -2.24900 9.83000 21.79800
C  -3.35400 10.01100 22.81100
N  -0.07700 9.53500 26.53400
C  -0.09600 10.55600 25.63000
C  0.26200 11.79100 26.30300
C  0.38700 11.43400 27.66100
C  0.15600 10.04900 27.76500
C  0.56500 13.11300 25.61300
C  0.72600 11.97400 29.02600
O  1.14900 13.07400 29.33600
C  0.45400 10.73200 29.95200
C  1.61000 10.62000 30.86900
O  2.72900 10.28900 30.55400
O  1.23800 11.37400 31.91700
C  2.32000 11.83100 32.79400
H  -0.93100 4.06100 29.26800
H  -1.23700 4.78900 22.86800
H  -0.39100 11.22900 23.60000
H  0.63100 7.94000 31.37900
H  -1.56500 6.11400 31.16100
H  -0.12700 4.59500 32.03500
H  1.10700 5.97800 32.14000
H  0.99400 4.87200 30.70700
H  -2.42100 7.93900 31.65100
H  -1.72900 9.37800 31.19600
H  -2.21400 8.38800 33.63200
H  -1.20800 9.83000 33.41100
H  -0.41100 1.29900 27.36600
H  -2.11700 1.43100 27.28800
H  -1.29400 2.20400 28.63400
H  -1.92200 0.28600 23.61300
H  -2.50300 0.76200 25.21500
H  -0.71200 0.56400 24.92700
H  -2.12000 7.20300 21.51900
H  -0.19300 9.50200 21.62000
H  -0.50700 6.17200 20.16500
H  0.60400 6.18500 21.42100
H  0.55400 7.58200 20.43000
H  -2.65100 9.38500 20.88800
H  -1.84700 10.76300 21.40300
H  -3.02200 10.16400 23.83800
H  -4.07500 9.20100 22.70000
H  -3.85800 10.94700 22.56700
H  0.97300 13.76500 26.38500
H  -0.43900 13.46300 25.37300
H  1.09400 12.92800 24.67800
H  -0.41900 10.97900 30.55600
H  3.14900 12.29900 32.26400
H  2.72100 10.97300 33.33400
H  1.89500 12.48500 33.55600
Mg 24.84600 1.79200 30.20900
C  27.14100 1.43100 32.81000
C  22.43400 2.38500 32.38100
C  22.65800 1.67500 27.62000
C  27.34700 0.65300 28.01000
N  24.80500 1.90500 32.35200
C  25.86700 1.91500 33.25300
C  25.46900 2.38600 34.59100
C  23.90300 2.43000 34.52700
C  23.65300 2.19900 32.98000
C  23.25100 1.41900 35.48400
C  26.05900 3.71600 35.03200
C  27.30700 3.69200 35.92700
H  27.16100 4.28800 37.34000
N  22.81100 2.04300 30.07300
C  22.01700 2.32000 31.09800
C  20.64500 2.48200 30.64600
C  20.64700 2.09700 29.28200
C  22.11600 1.98900 28.87900
C  19.48500 2.82600 31.50300
C  19.45400 1.96800 28.31400
O  19.55800 1.70100 27.09600
C  18.06400 2.07700 28.78000
N  25.02300 1.26700 28.10000
C  23.93300 1.32500 27.26500
C  24.28600 0.85700 25.83900
C  25.76600 0.41600 26.01500
C  26.06500 0.77700 27.47800
C  23.33500 -0.18600 25.17500
C  26.68700 1.15900 25.02900
C  27.29300 2.48700 25.43900
N  26.90100 1.22300 30.30600
C  27.81200 0.70700 29.33600
C  29.13300 0.40000 29.91500
C  28.91700 0.73000 31.30500
C  27.52100 1.11300 31.51700
C  30.36400 -0.19800 29.27700
C  29.54500 0.87700 32.61900
O  30.72800 0.70900 32.94500
C  28.49900 1.11900 33.60700
C  28.46000 0.12800 34.73600
O  27.62800 -0.75400 34.83500
O  29.42300 0.39200 35.68300
C  29.27600 -0.34200 36.96800
H  21.66600 2.66600 33.10500
H  22.00000 1.82400 26.76200
H  28.17300 0.37100 27.35400
H  25.81800 1.55500 35.20500
H  23.54900 3.41100 34.84700
H  22.39300 0.96900 34.98400
H  22.88400 1.87300 36.40400
H  23.95900 0.64900 35.79000
H  25.31500 4.28100 35.59200
H  26.24700 4.29000 34.12500
H  28.12200 4.25200 35.46800
H  27.80500 2.72400 35.98900
H  19.71000 3.04100 32.54700
H  18.81300 1.97300 31.59800
H  19.01000 3.70400 31.06600
H  17.89700 1.23800 29.45600
H  17.37500 1.98300 27.94000
H  17.97000 3.04400 29.27400
H  24.26600 1.67300 25.11700
H  25.98500 -0.64200 25.87500
H  23.81700 -1.16200 25.22900
H  22.97300 -0.05800 24.15500
H  22.40600 -0.36000 25.71900
H  26.15000 1.18400 24.08100
H  27.53900 0.49500 24.88600
H  28.37500 2.39700 25.53500
H  26.83700 2.89000 26.34300
H  27.12900 3.25500 24.68200
H  31.05800 0.53000 28.85500
H  30.12700 -0.86300 28.44700
H  30.89100 -0.68100 30.09900
H  28.84400 2.07000 34.01300
H  30.16100 -0.17400 37.58200
H  28.93300 -1.37700 36.96500
H  28.50900 0.17100 37.54800

