158

Mg 0.56800 8.05000 27.07600
C  1.10200 10.26600 29.61300
C  0.90500 5.46100 29.35900
C  0.56300 5.79400 24.38300
C  0.74300 10.69100 24.87900
N  1.00700 7.89100 29.16700
C  1.03400 8.97200 30.06500
C  0.95800 8.52800 31.53100
C  1.26200 7.04700 31.35800
C  1.06500 6.74800 29.86600
C  2.56700 6.55700 32.00800
C  -0.46800 8.87600 32.04700
C  -0.71600 8.98700 33.57200
H  0.42500 8.62900 34.54800
N  0.54900 5.91800 26.93600
C  0.67000 5.04800 28.00500
C  0.45900 3.71800 27.55300
C  0.20200 3.76400 26.13200
C  0.50100 5.21600 25.72700
C  0.51200 2.52100 28.52200
C  -0.14800 2.63800 25.18300
O  -0.19400 2.82100 24.00100
C  -0.51200 1.24500 25.75200
N  0.60400 8.24300 24.98300
C  0.61700 7.17500 24.06900
C  0.68900 7.74100 22.65600
C  0.17300 9.15900 22.88000
C  0.57900 9.40500 24.33900
C  2.12100 7.55600 22.04600
C  -1.41300 9.41800 22.63900
C  -1.69400 10.35600 21.39000
N  0.83700 10.09600 27.14300
C  0.93800 11.03900 26.17200
C  1.12900 12.36000 26.70200
C  1.17400 12.15600 28.05100
C  1.01000 10.71100 28.32900
C  1.34300 13.64900 25.97700
C  1.42300 12.77600 29.32500
O  1.63500 13.92800 29.65600
C  1.23800 11.60200 30.36900
C  2.36600 11.69300 31.34200
O  3.47700 11.27000 31.12400
O  1.94300 12.12500 32.51800
C  2.85700 12.01400 33.61700
H  0.69400 4.63900 30.04700
H  0.38300 5.15700 23.51500
H  0.64300 11.49900 24.15100
H  1.69100 9.03100 32.16100
H  0.52200 6.44800 31.88800
H  3.16000 7.43300 32.27300
H  3.09900 6.04500 31.20500
H  2.47300 5.81400 32.79900
H  -1.08400 8.10700 31.58000
H  -0.87000 9.76200 31.55600
H  -1.58500 8.38900 33.84900
H  -0.96800 10.04000 33.70000
H  0.87500 2.78000 29.51700
H  1.21900 1.74100 28.24100
H  -0.46900 2.17700 28.85000
H  -1.30200 1.19100 26.50000
H  0.34800 0.81300 26.26500
H  -0.91900 0.69600 24.90200
H  0.02700 7.28200 21.92100
H  0.80400 9.76900 22.23400
H  2.49400 6.55900 22.28300
H  2.78300 8.34300 22.40500
H  2.08900 7.66300 20.96200
H  -1.93400 9.80300 23.51600
H  -1.84000 8.42800 22.48000
H  -2.38100 9.75400 20.79600
H  -0.84600 10.55700 20.73600
H  -2.12400 11.28000 21.77900
H  1.70900 13.50700 24.96000
H  2.01500 14.17300 26.65700
H  0.39000 14.17800 25.97400
H  0.34200 11.64400 30.98900
H  3.39300 12.95700 33.72700
H  3.59100 11.21600 33.50100
H  2.28000 11.89000 34.53300
Mg 54.79800 23.31800 44.44200
C  52.50900 25.71800 42.99200
C  52.74100 20.78800 43.33000
C  57.29100 21.13300 44.74300
C  56.97200 26.01200 45.06900
N  52.81700 23.36900 43.26300
C  52.11800 24.39600 42.75800
C  50.77900 23.87300 42.11500
C  50.85600 22.33700 42.37900
C  52.24000 22.10500 43.05400
C  49.67000 21.81100 43.14700
C  50.59500 24.20500 40.58900
C  49.16500 24.57000 40.16700
H  48.72000 24.17600 38.77800
N  54.88800 21.23700 44.26500
C  53.93600 20.36100 43.83700
C  54.34600 18.99800 43.90800
C  55.72600 19.06300 44.16700
C  56.05000 20.51700 44.43900
C  53.36900 17.86100 43.80300
C  56.60700 17.82700 44.34800
O  56.18100 16.72600 44.09800
C  57.93900 17.91700 44.82600
N  56.86300 23.53900 44.82200
C  57.66100 22.47900 44.86600
C  59.16400 22.90100 45.01500
C  59.02500 24.38600 45.62200
C  57.58100 24.74800 45.10700
C  60.13600 22.00900 45.85700
C  60.15100 25.38200 45.21200
C  61.24900 25.65600 46.28700
N  54.73000 25.41200 44.23900
C  55.68200 26.32300 44.56300
C  55.06200 27.69400 44.36600
C  53.86900 27.46400 43.71700
C  53.73700 26.07400 43.60400
C  55.76200 29.08800 44.83400
C  52.70100 28.10800 43.18300
O  52.39400 29.25900 43.18300
C  51.82000 27.03000 42.59300
C  51.81500 27.40100 41.10500
O  52.71100 27.09700 40.39200
O  50.61400 27.96300 40.74900
C  50.41200 28.16700 39.33800
H  52.10600 19.98300 42.95700
H  58.08700 20.38800 44.79800
H  57.57500 26.86500 45.38700
H  50.04600 24.34700 42.76700
H  50.81500 21.88300 41.38900
H  49.12600 21.22000 42.41100
H  49.01300 22.59200 43.53100
H  50.10900 21.18100 43.92000
H  50.75400 23.27700 40.04000
H  51.22400 24.99400 40.17500
H  49.00100 25.64200 40.27700
H  48.56900 24.05300 40.92000
H  53.49000 17.19000 42.95300
H  52.33900 18.20600 43.89400
H  53.62300 17.25600 44.67400
H  58.53600 18.43000 44.07100
H  58.45200 16.98900 45.07700
H  57.81300 18.56700 45.69200
H  59.49100 22.99600 43.97900
H  59.01600 24.33600 46.71100
H  60.67200 21.40400 45.12600
H  59.62300 21.30600 46.51400
H  60.81600 22.54400 46.51900
H  59.71000 26.37500 45.12600
H  60.59800 24.93000 44.32600
H  62.23100 25.76800 45.82700
H  61.39400 24.87800 47.03600
H  61.05600 26.60300 46.79200
H  55.40600 29.88800 44.18400
H  56.81900 29.15400 44.57600
H  55.53100 29.24100 45.88800
H  50.87200 27.06300 43.12900
H  50.73900 29.17200 39.07000
H  49.35600 28.00700 39.12100
H  50.83900 27.32300 38.79600

