158

Mg -2.44800 17.24600 27.43700
C  -2.65700 15.14800 30.14700
C  -3.14000 19.94900 29.47400
C  -2.13000 19.28300 24.80000
C  -2.32800 14.56800 25.25000
N  -2.91200 17.47600 29.54300
C  -2.85200 16.48900 30.47800
C  -3.21900 17.02400 31.87900
C  -3.30300 18.54400 31.62800
C  -3.17700 18.69500 30.11600
C  -4.51200 19.14800 32.33000
C  -2.25200 16.47500 33.03800
C  -2.02600 17.41700 34.18400
H  -1.39300 16.77000 35.41900
N  -2.62300 19.27800 27.12900
C  -2.90200 20.24700 28.07300
C  -2.83300 21.60300 27.47200
C  -2.28800 21.35900 26.20000
C  -2.29400 19.91100 26.01900
C  -2.95000 22.84900 28.23900
C  -1.66000 22.38800 25.25600
O  -1.05000 21.93300 24.33700
C  -1.63600 23.89000 25.64100
N  -2.40700 16.93100 25.33500
C  -2.18300 17.95800 24.45100
C  -2.08500 17.51300 22.99400
C  -1.88000 15.98100 23.16700
C  -2.14300 15.80400 24.68800
C  -3.28200 17.84600 21.96600
C  -0.46300 15.46900 22.59400
C  0.82200 16.12700 23.15000
N  -2.36900 15.28400 27.63200
C  -2.36700 14.31300 26.61200
C  -2.51600 13.08700 27.28000
C  -2.59500 13.32600 28.65300
C  -2.52400 14.67500 28.84400
C  -2.63600 11.81700 26.50500
C  -2.60400 12.56900 29.85700
O  -2.49000 11.32300 30.12700
C  -2.66900 13.79700 30.96200
C  -1.39600 13.71000 31.74900
O  -0.34700 14.32200 31.54800
O  -1.57900 12.97500 32.91600
C  -0.62900 13.12600 33.92800
H  -3.24100 20.83900 30.09800
H  -1.90400 19.76700 23.84800
H  -2.36200 13.60500 24.73500
H  -4.18200 16.62800 32.19900
H  -2.45200 19.02400 32.11100
H  -4.23500 19.97000 32.99000
H  -5.21700 18.50000 32.85000
H  -5.06700 19.54300 31.47900
H  -1.26900 16.40000 32.57200
H  -2.52300 15.55600 33.55700
H  -3.03700 17.74500 34.42800
H  -1.36100 18.20700 33.83700
H  -2.07700 23.47900 28.41200
H  -3.40900 22.60000 29.19600
H  -3.66000 23.40300 27.62500
H  -0.99400 24.07600 26.50200
H  -2.70900 24.03200 25.77500
H  -1.17900 24.39600 24.79100
H  -1.19500 17.94100 22.53400
H  -2.67200 15.36100 22.74700
H  -4.22900 18.20600 22.36900
H  -3.53200 16.88700 21.51000
H  -2.89600 18.55500 21.23400
H  -0.48600 15.82200 21.56300
H  -0.33100 14.39000 22.52100
H  1.53400 15.37300 23.48400
H  0.52600 16.71400 24.01900
H  1.41700 16.74300 22.47600
H  -1.95000 11.71900 25.66300
H  -3.54600 11.70200 25.91800
H  -2.54300 10.95100 27.16000
H  -3.59100 13.65300 31.52500
H  -0.07000 12.19200 33.99000
H  -1.06600 13.42200 34.88100
H  0.07900 13.94600 33.80600
Mg -1.67100 34.43100 27.27700
C  -3.05300 32.53800 29.87500
C  0.15500 36.14100 29.59900
C  -0.33700 36.11500 24.70000
C  -3.47900 32.58800 25.05200
N  -1.65000 34.48200 29.41300
C  -2.24600 33.61900 30.29800
C  -1.93100 34.02900 31.73900
C  -0.97200 35.24000 31.59200
C  -0.86200 35.37100 30.09900
C  -1.61300 36.51300 32.10100
C  -1.29100 32.87700 32.53600
C  -0.94000 33.25400 34.04300
H  -1.43200 32.36400 35.22100
N  -0.25700 35.91700 27.19400
C  0.42400 36.42000 28.24300
C  1.55500 37.29400 27.74200
C  1.39300 37.32500 26.31500
C  0.20400 36.42800 25.99400
C  2.49900 38.09300 28.71600
C  2.24200 38.03000 25.40600
O  2.13800 37.97600 24.20500
C  3.41900 38.78800 25.82200
N  -1.98100 34.48000 25.15200
C  -1.31600 35.24700 24.27700
C  -1.53400 34.81600 22.80100
C  -2.34500 33.56900 22.99000
C  -2.63700 33.49400 24.51700
C  -2.27400 35.87300 21.93400
C  -1.49200 32.47800 22.38200
C  -0.50000 31.78200 23.29700
N  -3.03500 32.93600 27.37300
C  -3.68600 32.26900 26.34800
C  -4.62200 31.21100 26.91700
C  -4.37700 31.27600 28.30400
C  -3.38700 32.28800 28.50500
C  -5.59400 30.39600 26.19600
C  -4.61100 30.58500 29.56800
O  -5.33400 29.65300 29.82400
C  -3.72500 31.31000 30.62100
C  -4.73900 31.67700 31.67300
O  -5.84200 32.20000 31.53800
O  -4.23100 31.25100 32.87900
C  -5.10700 31.38200 34.09600
H  0.73800 36.63700 30.37800
H  0.27500 36.58000 23.92400
H  -3.80300 31.91100 24.25900
H  -2.93200 34.18900 32.14000
H  -0.00300 35.10800 32.07300
H  -2.54600 36.30700 32.62500
H  -1.72500 37.22500 31.28300
H  -0.99800 37.03500 32.83500
H  -0.27200 32.72500 32.18000
H  -1.88600 31.97000 32.43500
H  -1.35500 34.23700 34.26200
H  0.14200 33.37100 34.10400
H  2.43000 37.74600 29.74700
H  2.22800 39.14500 28.63400
H  3.52900 37.84600 28.45900
H  4.01400 39.01300 24.93700
H  4.01800 38.22000 26.53400
H  3.14800 39.74000 26.27900
H  -0.51800 34.70900 22.42300
H  -3.30200 33.47600 22.47700
H  -1.56400 36.17100 21.16300
H  -2.63300 36.75000 22.47400
H  -3.01600 35.32700 21.35200
H  -0.77700 32.83800 21.64200
H  -2.11800 31.68300 21.97800
H  -0.57500 32.11300 24.33300
H  0.53000 32.08700 23.11400
H  -0.37500 30.72100 23.08000
H  -5.23500 29.37200 26.29500
H  -5.52400 30.49800 25.11300
H  -6.59400 30.47900 26.62200
H  -2.98900 30.64000 31.06500
H  -5.81500 32.17400 33.85200
H  -4.41300 31.56700 34.91500
H  -5.60600 30.45400 34.37500

