158

Mg 1.47800 8.42000 27.06200
C  2.20700 10.24300 29.87300
C  1.32100 5.45800 28.91300
C  1.30200 6.57800 24.22100
C  2.19100 11.32000 25.11100
N  1.71800 7.87700 29.12100
C  1.85000 8.85000 30.13700
C  1.77100 8.27400 31.59600
C  1.74900 6.71900 31.24900
C  1.56200 6.65900 29.70500
C  2.99100 5.96100 31.82300
C  0.50500 8.72800 32.34700
C  0.42100 8.55900 33.89600
H  1.74000 7.95300 34.54800
N  1.22200 6.25900 26.59600
C  1.16900 5.24100 27.51400
C  0.89700 3.97600 26.76600
C  0.98700 4.29500 25.36100
C  1.17200 5.73000 25.35500
C  0.76800 2.67100 27.58800
C  1.00000 3.37900 24.16300
O  1.25300 3.83700 23.02300
C  0.69900 1.85700 24.46800
N  1.77400 8.87500 24.94900
C  1.49200 7.92500 24.02200
C  1.78900 8.50200 22.63800
C  1.94400 10.01300 22.85400
C  2.02900 10.06000 24.37300
C  2.98400 7.88400 21.91100
C  0.91700 10.93400 22.19800
C  -0.53600 10.68000 22.52300
N  1.96900 10.40000 27.34200
C  2.29000 11.45400 26.52600
C  2.57500 12.66800 27.27700
C  2.66300 12.19700 28.58700
C  2.21300 10.82400 28.57700
C  2.96000 13.99900 26.72700
C  2.86600 12.64200 29.91900
O  3.24900 13.76600 30.35200
C  2.45100 11.44600 30.90800
C  3.52500 11.27500 31.87700
O  4.60900 10.71000 31.77000
O  3.09900 11.87600 33.00400
C  3.85700 11.70200 34.20900
H  1.24400 4.55000 29.51600
H  1.14400 5.97300 23.32600
H  2.53100 12.09400 24.41900
H  2.69900 8.62600 32.04600
H  0.86700 6.36300 31.78100
H  3.49500 6.56500 32.57700
H  3.70500 5.70300 31.04100
H  2.60800 5.05800 32.29800
H  -0.33400 8.17900 31.92100
H  0.31600 9.78200 32.14200
H  -0.43900 8.00800 34.27400
H  0.33000 9.56800 34.29900
H  1.62100 2.00600 27.45300
H  0.02000 2.09300 27.04500
H  0.45600 2.77400 28.62700
H  -0.21700 1.79500 25.05500
H  1.52200 1.51500 25.09500
H  0.66500 1.46100 23.45300
H  0.95800 8.24300 21.98300
H  2.93200 10.34100 22.53200
H  3.42500 8.64900 21.27200
H  2.69800 7.09900 21.21000
H  3.68800 7.61900 22.70000
H  0.97400 10.83000 21.11500
H  1.17100 11.93100 22.55900
H  -1.04200 10.18000 21.69700
H  -1.03800 11.56400 22.91600
H  -0.60300 10.09100 23.43800
H  2.10800 14.55000 26.32900
H  3.65400 13.84500 25.90100
H  3.38700 14.72100 27.42300
H  1.45700 11.71100 31.26800
H  3.11700 11.37700 34.94000
H  4.31600 12.67900 34.36400
H  4.67700 10.98500 34.18000
Mg 26.47900 50.46000 26.47200
C  24.47700 51.75000 29.20200
C  28.73300 49.42400 28.79400
C  28.23900 49.23900 23.92200
C  24.27600 51.93400 24.26200
N  26.50800 50.58900 28.76900
C  25.59500 51.09700 29.67700
C  26.00200 50.81400 31.14000
C  27.47900 50.23900 30.91300
C  27.58100 50.00500 29.38300
C  28.58200 51.18700 31.51000
C  25.08100 49.79500 31.85100
C  24.60700 50.33700 33.22500
H  25.64800 50.26100 34.32000
N  28.23600 49.52500 26.34100
C  29.05700 49.13700 27.42600
C  30.25900 48.54400 26.90300
C  30.02300 48.29400 25.48000
C  28.78200 49.03000 25.14700
C  31.46200 48.06500 27.75500
C  30.87100 47.53700 24.41600
O  30.53800 47.40200 23.24200
C  32.09100 46.95900 24.86300
N  26.28900 50.61100 24.31100
C  27.11000 49.93000 23.47100
C  26.68500 50.02000 21.99900
C  25.32500 50.84900 22.12300
C  25.28600 51.21600 23.62100
C  27.74000 50.55600 20.99300
C  24.00200 50.06700 21.79900
C  22.80400 50.95100 21.25000
N  24.78000 51.52500 26.57100
C  24.00300 52.08100 25.60700
C  22.85000 52.74700 26.18100
C  23.03700 52.65800 27.54100
C  24.24100 51.92000 27.75400
C  21.88900 53.58100 25.31200
C  22.41400 53.03600 28.86700
O  21.33300 53.58800 29.13000
C  23.41300 52.45200 30.00400
C  23.81600 53.64700 30.88700
O  24.56900 54.56900 30.57800
O  23.24300 53.41600 32.11100
C  23.66900 54.27700 33.19800
H  29.47400 49.09100 29.52300
H  28.71000 48.68500 23.10700
H  23.57000 52.40900 23.57800
H  26.01900 51.67500 31.80800
H  27.59700 49.26400 31.38400
H  29.19500 51.78500 30.83600
H  29.36000 50.63400 32.03600
H  28.05900 51.84300 32.20600
H  25.65400 48.90700 32.11900
H  24.28400 49.46900 31.18200
H  23.71600 49.82700 33.59000
H  24.43000 51.41200 33.25400
H  32.38000 48.18900 27.18100
H  31.35900 47.03500 28.09700
H  31.60000 48.70600 28.62600
H  32.74600 47.83100 24.87100
H  32.38500 46.30200 24.04400
H  32.04500 46.44700 25.82400
H  26.45300 48.96800 21.83400
H  25.40900 51.75400 21.52100
H  27.37400 51.27200 20.25800
H  28.12200 49.74500 20.37300
H  28.54900 51.00000 21.57200
H  23.63800 49.50100 22.65600
H  24.19600 49.16900 21.21300
H  22.50600 50.55600 20.27900
H  23.12300 51.99100 21.17800
H  21.93100 50.90900 21.90200
H  21.29800 53.08500 24.54200
H  22.54100 54.31400 24.83600
H  21.26700 54.08600 26.05100
H  22.92400 51.68700 30.60800
H  23.55300 55.31000 32.87200
H  24.68200 53.98600 33.47500
H  23.02400 54.24300 34.07600

