158

Mg 35.78300 2.32400 31.01800
C  33.00400 3.32300 33.00800
C  37.70900 2.66700 33.83100
C  38.34700 1.72800 29.07000
C  33.58600 2.33700 28.17800
N  35.34100 2.87100 33.13900
C  34.18000 3.11600 33.78100
C  34.24500 3.30500 35.34200
C  35.77700 3.39300 35.48800
C  36.32900 2.99900 34.02100
C  36.28200 4.80900 35.80300
C  33.66900 2.13600 36.15200
C  33.02000 2.59300 37.48300
H  33.58200 3.74200 38.29400
N  37.76500 2.15900 31.37700
C  38.37000 2.29700 32.58500
C  39.79000 2.04900 32.41600
C  39.98200 1.70900 31.05500
C  38.69200 1.91100 30.41900
C  40.80200 2.22700 33.57400
C  41.24700 1.28300 30.33700
O  41.35900 1.13100 29.08900
C  42.52000 1.00800 31.18600
N  35.91400 2.20300 28.87900
C  37.13100 1.77900 28.37600
C  36.95800 1.26800 26.94800
C  35.42800 1.41400 26.65300
C  34.93000 1.95700 27.95000
C  37.80200 2.02100 25.90200
C  34.68800 0.07100 26.20100
C  33.59300 0.37200 25.05400
N  33.69400 2.70000 30.60800
C  32.95600 2.75100 29.44200
C  31.62700 3.25300 29.70500
C  31.60700 3.58300 31.13600
C  32.86700 3.22600 31.57600
C  30.43800 3.41800 28.81800
C  30.84400 4.18200 32.20700
O  29.70100 4.62200 32.21200
C  31.68900 3.95000 33.54400
C  31.97700 5.33600 34.03600
O  32.63800 6.14200 33.43800
O  31.20600 5.58600 35.15900
C  31.15500 6.99500 35.59400
H  38.30600 2.72500 34.74400
H  39.16800 1.35200 28.45500
H  32.80500 2.22700 27.42300
H  33.78500 4.26300 35.58300
H  36.30200 2.66300 36.10300
H  36.13200 5.46600 34.94700
H  37.33500 4.61200 36.00300
H  35.74400 5.26200 36.63600
H  34.42400 1.37400 36.34700
H  32.87900 1.64300 35.58500
H  32.91500 1.67900 38.06700
H  31.97100 2.80300 37.27100
H  40.98700 1.28300 34.08700
H  40.35700 2.89200 34.31400
H  41.72200 2.73200 33.28100
H  43.29300 0.70600 30.48000
H  42.30200 0.29900 31.98400
H  42.92500 1.98400 31.45400
H  37.13300 0.19200 26.96400
H  35.34200 2.21800 25.92200
H  37.30300 2.29200 24.97100
H  38.77800 1.60800 25.64700
H  38.11500 2.94100 26.39500
H  34.19800 -0.29600 27.10200
H  35.47200 -0.61100 25.87200
H  33.96400 0.12900 24.05800
H  33.33200 1.42800 25.12900
H  32.71600 -0.24200 25.25800
H  30.57100 3.16200 27.76700
H  30.07500 4.44400 28.76900
H  29.66700 2.77600 29.24300
H  31.03100 3.37000 34.19200
H  30.11800 7.32400 35.51600
H  31.69700 7.67900 34.94200
H  31.58800 7.01200 36.59400
Mg 54.14100 25.08800 44.76600
C  51.41500 27.17800 43.80300
C  52.22600 22.52600 43.72200
C  57.00900 23.31200 44.78000
C  55.99300 27.97000 45.48800
N  52.09000 24.95400 43.64100
C  51.19800 25.83800 43.39300
C  50.04400 25.29100 42.57400
C  50.01100 23.81100 43.15300
C  51.56000 23.73500 43.52900
C  48.95400 23.53800 44.29200
C  50.39100 25.38000 41.10600
C  49.13900 25.54000 40.18600
H  48.99300 24.72000 38.94700
N  54.50200 23.08000 44.36100
C  53.57200 22.21900 43.94700
C  54.17800 20.90700 43.84600
C  55.62800 21.07600 44.21800
C  55.79400 22.54000 44.48400
C  53.39400 19.70700 43.51000
C  56.66800 19.88200 44.41700
O  56.22300 18.74300 44.37200
C  58.02200 20.14800 44.93600
N  56.21600 25.54700 45.10600
C  57.21800 24.65500 45.09400
C  58.57300 25.27300 45.45100
C  58.19800 26.71300 45.68500
C  56.69100 26.76900 45.39500
C  59.22800 24.65500 46.79400
C  59.03600 27.56100 44.68700
C  60.54000 27.75000 45.12400
N  53.86200 27.10500 44.76800
C  54.57200 28.16500 45.25900
C  53.79900 29.38200 45.25700
C  52.57700 28.94300 44.68700
C  52.58200 27.62200 44.50600
C  54.27400 30.72200 45.59000
C  51.32800 29.48800 44.35800
O  50.93200 30.65300 44.42100
C  50.50700 28.38300 43.73400
C  50.16900 28.73400 42.30400
O  50.95400 29.10900 41.48600
O  48.82800 28.67000 42.19200
C  48.38000 29.29200 40.90100
H  51.54300 21.68100 43.60700
H  57.86100 22.64400 44.63600
H  56.63700 28.81900 45.72400
H  49.07500 25.72600 42.81700
H  49.94100 23.15600 42.28400
H  48.56700 24.54000 44.47700
H  49.36700 23.20800 45.24600
H  48.17400 22.88500 43.90200
H  50.86600 24.44100 40.82100
H  51.09900 26.19400 40.95100
H  49.10600 26.59700 39.92500
H  48.22600 25.36100 40.75500
H  54.10900 19.01200 43.07000
H  52.69900 19.90900 42.69400
H  52.82400 19.30300 44.34600
H  58.01300 20.58700 45.93400
H  58.60900 20.66600 44.17600
H  58.40300 19.15500 45.17100
H  59.39600 25.24100 44.73600
H  58.33600 26.97900 46.73300
H  58.83100 23.67000 47.04100
H  59.21500 25.27500 47.69000
H  60.29300 24.44400 46.69300
H  58.67000 28.58700 44.66800
H  58.96900 27.18100 43.66800
H  60.67100 27.51500 46.18000
H  60.84900 28.78300 44.96200
H  61.16000 27.09300 44.51400
H  53.55500 31.33400 46.13300
H  54.53100 31.16200 44.62600
H  55.19100 30.61100 46.17000
H  49.61700 28.21500 44.34000
H  48.86400 30.26200 40.78700
H  47.30500 29.47300 40.89800
H  48.68300 28.72800 40.01900

