158

Mg 6.16900 54.76800 40.15800
C  5.66800 51.32700 39.83500
C  9.48200 54.19200 39.12600
C  6.52400 58.12200 39.76000
C  2.69900 55.25600 40.55100
N  7.43200 52.92200 39.57800
C  6.98200 51.67800 39.48800
C  8.15900 50.76600 39.02500
C  9.47900 51.64000 39.09400
C  8.80900 52.99300 39.40600
C  10.42900 51.34000 40.28300
C  8.02100 49.94200 37.71800
C  7.22600 50.51500 36.51800
H  6.88200 52.05500 36.52700
N  7.80500 56.01600 39.55000
C  9.11000 55.59500 39.20900
C  9.81600 56.80900 38.92800
C  9.03500 57.92600 39.25100
C  7.72600 57.38700 39.53200
C  11.27000 56.74900 38.50900
C  9.47500 59.44900 39.20600
O  10.66800 59.66900 39.01200
C  8.58400 60.59000 39.40500
N  4.80800 56.33600 39.84600
C  5.25700 57.65600 39.98100
C  4.17000 58.61100 40.29100
C  2.98800 57.73700 40.57600
C  3.51000 56.35200 40.35200
C  4.45700 59.58400 41.42100
C  1.76000 58.06500 39.74200
C  1.70500 57.79100 38.21300
N  4.47200 53.54700 40.36700
C  3.14900 53.88200 40.62400
C  2.34100 52.62800 40.88900
C  3.29500 51.60400 40.55200
C  4.58100 52.22800 40.23400
C  0.87100 52.57400 41.17200
C  3.47700 50.13200 40.42700
O  2.57600 49.28100 40.62900
C  5.01600 49.88800 39.98800
C  5.02500 48.93300 38.89400
O  4.35400 49.02400 37.88000
O  5.74200 47.84200 39.10600
C  5.57800 46.61400 38.35400
H  10.51400 54.18800 38.76900
H  6.67500 59.20100 39.82700
H  1.65900 55.35500 40.87000
H  8.20300 49.99500 39.79400
H  10.07800 51.68800 38.18500
H  11.20200 52.07300 40.51700
H  10.83300 50.33200 40.19200
H  9.95400 51.22900 41.25800
H  7.63700 48.94100 37.91800
H  9.03200 49.80500 37.33500
H  6.36900 49.85500 36.37800
H  7.90700 50.36200 35.68100
H  11.56100 57.58500 37.87300
H  11.53200 55.79700 38.04600
H  11.84000 56.88400 39.42900
H  7.77500 60.60600 38.67500
H  9.03400 61.56200 39.60500
H  8.30400 60.29000 40.41500
H  3.87000 59.24000 39.45300
H  2.61400 57.80400 41.59800
H  5.52100 59.78400 41.54600
H  3.93200 59.27800 42.32600
H  4.00500 60.53300 41.13000
H  1.41300 59.08200 39.92700
H  0.97700 57.51800 40.26700
H  1.39900 58.66000 37.63100
H  1.01200 56.98400 37.97800
H  2.65100 57.35000 37.90000
H  0.30600 53.19800 40.48000
H  0.68500 53.00800 42.15400
H  0.65200 51.51000 41.08100
H  5.60300 49.41600 40.77700
H  5.44300 46.95200 37.32700
H  4.67100 46.09300 38.66200
H  6.40800 45.91200 38.43300
Mg -10.15300 16.93000 40.81600
C  -6.66500 16.65800 41.27900
C  -9.77700 20.32600 40.50000
C  -13.34800 17.04100 39.98700
C  -10.22000 13.48400 40.64200
N  -8.42100 18.26600 40.99300
C  -7.12500 17.98500 41.09800
C  -6.29300 19.24300 40.90200
C  -7.25000 20.44800 41.17300
C  -8.56400 19.66100 40.85800
C  -7.21200 21.11900 42.54000
C  -5.67200 19.32700 39.48400
C  -4.25400 18.94000 39.33600
H  -3.79600 18.16200 38.13000
N  -11.48300 18.51400 40.30100
C  -11.12200 19.82900 40.20800
C  -12.26900 20.56900 39.71200
C  -13.32600 19.60300 39.47400
C  -12.74500 18.34000 39.91700
C  -12.32300 22.09700 39.48300
C  -14.75800 19.87700 39.00200
O  -15.04100 21.06900 38.73200
C  -15.94900 18.86200 38.97100
N  -11.52800 15.41000 40.16100
C  -12.81600 15.75600 40.17100
C  -13.66100 14.47700 40.43400
C  -12.63100 13.34400 40.21600
C  -11.36800 14.12400 40.31900
C  -14.46500 14.52600 41.82500
C  -12.77500 12.63100 38.86900
C  -12.79400 11.10900 38.92200
N  -8.78000 15.33200 41.02200
C  -9.00900 13.98900 41.02100
C  -7.74500 13.32100 41.31800
C  -6.79000 14.34600 41.49800
C  -7.49500 15.53900 41.29900
C  -7.54000 11.86500 41.54800
C  -5.46500 14.66000 41.77500
O  -4.56500 13.90000 41.99000
C  -5.28000 16.12100 41.46800
C  -4.42000 16.73700 42.50500
O  -3.29000 17.13800 42.35300
O  -5.21200 16.99100 43.61800
C  -4.58200 17.60900 44.76300
H  -9.59900 21.39800 40.39500
H  -14.43200 16.98000 39.86900
H  -10.29800 12.40200 40.51500
H  -5.54900 19.37000 41.68800
H  -7.24000 21.13300 40.32400
H  -6.21100 21.15900 42.97000
H  -7.87400 20.63100 43.25400
H  -7.49500 22.14000 42.28300
H  -5.74600 20.38300 39.22300
H  -6.24400 18.68000 38.82000
H  -4.04800 18.28300 40.18200
H  -3.67700 19.84800 39.51100
H  -11.54800 22.40100 38.78000
H  -12.02800 22.71400 40.33100
H  -13.20500 22.45600 38.95300
H  -15.57600 18.17700 38.21000
H  -16.84600 19.33800 38.57300
H  -15.93600 18.47400 39.98900
H  -14.47800 14.47400 39.71200
H  -12.62000 12.63100 41.04000
H  -14.54400 13.48500 42.13700
H  -15.44300 15.00500 41.78800
H  -13.96400 15.07000 42.62600
H  -11.87200 12.88800 38.31500
H  -13.64200 12.92900 38.28000
H  -12.67500 10.74200 39.94100
H  -11.86600 10.81800 38.43000
H  -13.63700 10.73600 38.34100
H  -7.18700 11.24400 40.72500
H  -8.52200 11.56900 41.91700
H  -6.85100 11.78300 42.38900
H  -4.74100 16.23800 40.52800
H  -5.16600 17.25700 45.61400
H  -4.79900 18.67700 44.78600
H  -3.54700 17.33900 44.97400

