158

Mg 29.65500 58.02700 40.63300
C  26.91200 56.34500 39.26300
C  31.71600 55.59200 39.21900
C  32.32600 60.16600 40.71800
C  27.51400 60.85200 41.54900
N  29.31200 56.22600 39.27700
C  28.13800 55.70400 38.82300
C  28.32300 54.34600 38.13300
C  29.83600 54.15700 38.25000
C  30.36200 55.37300 38.99900
C  30.38800 52.84900 38.87500
C  27.67700 54.01900 36.68400
C  27.50400 55.23000 35.65700
H  28.02300 55.15700 34.20400
N  31.74400 57.80000 40.32700
C  32.41600 56.68800 39.79000
C  33.77400 56.90100 39.87200
C  34.00500 58.28500 40.17100
C  32.64100 58.84400 40.38600
C  34.90500 55.91200 39.53700
C  35.39700 59.05000 40.09600
O  36.43700 58.44000 39.76200
C  35.52100 60.49300 40.23300
N  29.93000 60.17900 41.27500
C  31.14500 60.77800 41.14600
C  31.06600 62.29400 41.54400
C  29.52000 62.49400 41.77500
C  28.90100 61.05100 41.60400
C  32.05600 62.82600 42.67700
C  28.79600 63.63600 40.98300
C  28.18200 64.80600 41.72200
N  27.64300 58.47300 40.59500
C  26.93800 59.58000 41.10400
C  25.51300 59.32200 40.87900
C  25.46200 58.09000 40.21100
C  26.79100 57.63400 40.01200
C  24.35500 60.20400 41.22800
C  24.63300 57.07200 39.54400
O  23.41900 57.14200 39.36500
C  25.46300 55.94200 38.88100
C  25.10900 54.63400 39.46800
O  25.53500 54.20400 40.53700
O  24.15600 53.96100 38.73900
C  23.35500 52.82900 39.34100
H  32.29400 54.69600 38.98300
H  33.13900 60.87900 40.56400
H  26.86500 61.67300 41.86200
H  27.85400 53.56100 38.72600
H  30.16100 54.26300 37.21500
H  29.52100 52.21300 39.05500
H  30.94000 52.96900 39.80800
H  31.04300 52.44900 38.10200
H  26.67800 53.59500 36.78200
H  28.32400 53.24800 36.26600
H  27.91000 56.10200 36.16900
H  26.43100 55.42300 35.66400
H  35.49600 56.36500 38.74100
H  34.49400 55.01700 39.06900
H  35.45000 55.53100 40.40000
H  36.56700 60.76400 40.37100
H  34.95200 60.77600 41.11900
H  35.08400 61.00800 39.37700
H  31.34700 62.85300 40.65100
H  29.30300 62.75100 42.81200
H  32.53500 61.88800 42.95800
H  31.60200 63.11000 43.62700
H  32.82700 63.53600 42.37800
H  28.10200 63.20700 40.26000
H  29.56900 64.14200 40.40600
H  28.48200 65.83100 41.50400
H  28.45700 64.76100 42.77600
H  27.10300 64.86100 41.57400
H  24.26000 60.59100 42.24300
H  23.40300 59.68200 41.13200
H  24.38600 61.11900 40.63700
H  25.40600 56.02600 37.79500
H  23.73700 52.56600 40.32700
H  23.50900 51.93900 38.73000
H  22.30400 53.09100 39.46400
Mg -1.80200 34.84600 27.23600
C  -3.65500 32.68900 29.48000
C  -0.70500 36.47900 29.92000
C  -0.31400 36.91400 25.16900
C  -3.31900 33.24100 24.58800
N  -2.38900 34.77600 29.43400
C  -2.95000 33.70000 30.08800
C  -2.73400 33.85700 31.62300
C  -1.88900 35.16500 31.74300
C  -1.66800 35.56000 30.27100
C  -2.49300 36.20800 32.66700
C  -1.95600 32.58100 32.16800
C  -2.66000 31.76300 33.34700
H  -1.96200 31.75800 34.65300
N  -0.48000 36.36600 27.53200
C  -0.13900 36.90200 28.70900
C  0.94700 37.83500 28.49700
C  1.02800 38.06400 27.09600
C  0.08200 37.10100 26.51500
C  1.69400 38.44900 29.63000
C  1.84100 39.02800 26.31700
O  1.80700 39.03900 25.12500
C  2.75700 40.04100 27.07900
N  -2.00200 35.17000 25.22000
C  -1.23500 36.08100 24.56100
C  -1.44900 36.02800 23.01500
C  -2.25600 34.68700 22.85300
C  -2.55700 34.31400 24.33800
C  -1.90300 37.35600 22.29700
C  -1.51500 33.56100 22.01900
C  -0.48200 32.75100 22.77400
N  -3.32000 33.36200 27.02700
C  -3.73300 32.73900 25.84600
C  -4.37300 31.54800 26.17400
C  -4.48200 31.50100 27.58500
C  -3.77600 32.61200 28.07500
C  -5.00000 30.60000 25.16100
C  -4.97200 30.79300 28.73000
O  -5.68000 29.76800 28.79500
C  -4.46300 31.53200 29.98600
C  -5.55900 31.99800 30.78600
O  -6.20000 33.06300 30.62800
O  -5.79500 31.11100 31.73800
C  -6.74800 31.56600 32.73800
H  -0.16700 36.90400 30.77000
H  0.16500 37.55800 24.42900
H  -3.48400 32.57900 23.73500
H  -3.74100 34.03800 31.99900
H  -0.84300 34.99200 31.99900
H  -3.46300 35.95100 33.09400
H  -2.74200 36.99400 31.95400
H  -1.76900 36.59900 33.38100
H  -1.06100 32.95700 32.66400
H  -1.64900 31.91900 31.35800
H  -2.86800 30.77000 32.94900
H  -3.63800 32.20400 33.54100
H  1.67600 37.79900 30.50400
H  1.20700 39.38500 29.90600
H  2.70300 38.75000 29.34800
H  3.56600 39.54800 27.61900
H  2.18000 40.49900 27.88200
H  3.21900 40.73900 26.38200
H  -0.48600 35.81300 22.55100
H  -3.22200 34.86600 22.38200
H  -1.15900 37.61300 21.54300
H  -1.88700 38.27100 22.88900
H  -2.93400 37.28000 21.95200
H  -0.95700 34.16600 21.30500
H  -2.24000 32.89500 21.55100
H  0.32300 32.76800 22.03900
H  -0.75300 31.70900 22.94500
H  -0.12900 33.20500 23.70000
H  -4.27000 30.04000 24.57600
H  -5.73300 31.22400 24.65000
H  -5.60600 29.95400 25.79700
H  -3.85400 30.80000 30.51500
H  -6.45100 32.44700 33.30700
H  -6.95900 30.73900 33.41600
H  -7.71400 31.92000 32.37900

