158

Mg 55.10800 24.96600 45.07200
C  52.43900 27.13900 43.99300
C  53.40300 22.34400 43.85100
C  58.01900 23.32600 45.13700
C  56.66400 27.89000 46.44300
N  53.29100 24.84200 43.84800
C  52.37300 25.84300 43.51800
C  51.08600 25.29200 42.84600
C  51.33100 23.72200 43.26100
C  52.79100 23.62300 43.70200
C  50.31300 23.22300 44.30300
C  51.07300 25.57100 41.25200
C  49.73800 25.12200 40.64200
H  49.68400 24.23400 39.37300
N  55.64400 23.04000 44.59200
C  54.77800 22.10100 44.09900
C  55.54500 20.85600 43.92700
C  56.87600 21.14200 44.18300
C  56.92300 22.54200 44.61600
C  54.89700 19.58200 43.56300
C  58.04700 20.23700 44.14500
O  57.86700 19.07500 43.82100
C  59.45500 20.72800 44.42300
N  57.11000 25.59300 45.53500
C  58.06700 24.63900 45.66000
C  59.28600 25.25000 46.35600
C  58.83000 26.72000 46.81800
C  57.42000 26.70200 46.30300
C  60.03400 24.31100 47.38300
C  59.69000 27.91300 46.27000
C  61.14800 27.65900 45.93200
N  54.74800 27.12500 45.20900
C  55.39800 28.12100 45.87800
C  54.57900 29.30600 45.82600
C  53.42900 29.04600 45.06700
C  53.56400 27.69600 44.74600
C  54.96800 30.55300 46.51200
C  52.19200 29.51700 44.61200
O  51.78100 30.66900 44.73400
C  51.47000 28.32000 43.82200
C  51.34600 28.89500 42.43200
O  52.22700 29.44700 41.75000
O  50.08300 28.64400 41.93000
C  49.76000 29.05000 40.53600
H  52.81900 21.50400 43.46900
H  59.00100 22.86900 45.27500
H  57.28200 28.64300 46.93900
H  50.24800 25.71000 43.40400
H  51.19900 23.12000 42.36200
H  49.37900 23.78200 44.36800
H  50.85200 23.29700 45.24800
H  49.97300 22.19400 44.18400
H  51.81000 24.93100 40.76800
H  51.33200 26.59600 40.98500
H  49.24200 26.07200 40.44400
H  49.27500 24.59400 41.47600
H  55.19900 19.35500 42.54100
H  53.84800 19.74000 43.31100
H  55.09700 18.78500 44.28000
H  59.65900 21.63000 43.84600
H  60.12900 20.06700 43.87800
H  59.68600 20.80000 45.48500
H  59.92600 25.51300 45.51300
H  58.69000 26.68200 47.89800
H  59.58700 23.32200 47.48700
H  60.03600 24.74200 48.38400
H  61.07800 24.14500 47.11400
H  59.83400 28.67400 47.03700
H  59.18300 28.29600 45.38400
H  61.46800 26.65400 46.20900
H  61.79900 28.40900 46.37900
H  61.21200 27.80300 44.85400
H  55.38600 31.13300 45.68900
H  55.74000 30.50000 47.27900
H  54.14100 31.13300 46.92100
H  50.55100 28.15500 44.38300
H  49.03000 28.35400 40.12100
H  50.63200 28.95700 39.88900
H  49.41700 30.08300 40.47800
Mg 1.14600 42.08500 25.22800
C  1.97600 42.23400 28.72300
C  -1.89000 40.72100 26.31300
C  0.42200 41.71300 22.14400
C  4.32500 43.11700 24.58400
N  0.08600 41.71500 27.28100
C  0.61500 41.89900 28.49100
C  -0.43800 41.83500 29.63200
C  -1.62200 41.25100 28.79900
C  -1.12500 41.15100 27.35700
C  -2.32100 39.96900 29.40500
C  -0.78800 43.17100 30.38100
C  -1.35200 43.08900 31.80700
H  -1.97000 41.73000 32.22300
N  -0.53900 41.36700 24.34500
C  -1.68500 40.88300 24.90300
C  -2.57700 40.43500 23.93500
C  -1.97100 40.69400 22.63700
C  -0.66200 41.34200 23.00300
C  -3.85600 39.65900 24.10400
C  -2.43700 40.39700 21.21200
O  -1.83600 40.74800 20.25200
C  -3.72900 39.75800 20.97300
N  2.23600 42.22900 23.63700
C  1.69500 42.23500 22.38600
C  2.69100 42.44000 21.27000
C  3.89300 43.09500 22.07000
C  3.48900 42.81000 23.56200
C  3.11400 41.18400 20.50200
C  4.05200 44.64400 21.74400
C  2.85500 45.57400 21.91300
N  2.86200 42.63600 26.37000
C  4.12100 42.97300 25.91000
C  5.01300 43.22400 26.95600
C  4.21200 42.90400 28.09100
C  2.88500 42.59200 27.70000
C  6.51700 43.56700 26.78100
C  4.21100 42.68700 29.59000
O  5.10900 42.82600 30.43500
C  2.76900 42.25200 30.02400
C  2.72500 40.85300 30.55600
O  3.22900 39.94800 30.00700
O  1.93300 40.87500 31.71700
C  1.75000 39.49500 32.33700
H  -2.83800 40.30500 26.65900
H  0.13800 41.49200 21.11300
H  5.31100 43.46900 24.27500
H  -0.17200 41.03600 30.32400
H  -2.35400 42.05700 28.75000
H  -2.32100 39.11700 28.72400
H  -3.33800 40.30700 29.60800
H  -1.80500 39.68900 30.32400
H  -1.35600 43.84900 29.74500
H  0.17000 43.68700 30.31900
H  -2.26500 43.68300 31.78200
H  -0.74100 43.58200 32.56300
H  -3.91500 39.30200 25.13200
H  -3.94900 38.70100 23.59100
H  -4.76700 40.19500 23.83700
H  -4.65500 40.24800 21.27300
H  -3.70000 38.74200 21.36600
H  -3.89500 39.61400 19.90600
H  2.40900 43.15200 20.49400
H  4.87000 42.63100 21.93200
H  2.88300 41.37300 19.45400
H  2.60900 40.25300 20.75900
H  4.18900 41.09300 20.66200
H  4.59800 44.86000 20.82500
H  4.64400 44.97000 22.59900
H  1.86600 45.17500 22.13900
H  2.70900 46.03700 20.93700
H  3.10400 46.32300 22.66400
H  6.69000 43.97500 25.78600
H  7.12400 42.69700 27.03400
H  6.70100 44.35500 27.51100
H  2.28300 42.87700 30.77400
H  1.24800 38.81100 31.65300
H  1.06700 39.41500 33.18300
H  2.72600 39.11000 32.63100

