158

Mg 16.41000 -1.45100 27.98900
C  15.09500 0.64500 30.39600
C  18.27000 -3.05900 30.48500
C  17.68700 -3.44100 25.68000
C  14.86800 0.48700 25.54100
N  16.68800 -1.16500 30.20700
C  16.02600 -0.21600 30.97000
C  16.35100 -0.50300 32.49200
C  17.59100 -1.45200 32.47900
C  17.52200 -1.92100 30.93300
C  18.95400 -0.72800 32.93600
C  15.12600 -1.11100 33.22100
C  15.16400 -1.23500 34.73900
H  16.39600 -0.67400 35.43300
N  17.76000 -3.09400 28.10800
C  18.40900 -3.55400 29.19700
C  19.23400 -4.72800 28.79100
C  18.97300 -4.94900 27.39600
C  18.11700 -3.78700 27.00100
C  20.16900 -5.51500 29.66200
C  19.48100 -6.11900 26.46800
O  19.14500 -6.05700 25.29900
C  20.22800 -7.27000 27.00300
N  16.23800 -1.49600 25.89200
C  16.95600 -2.35100 25.14200
C  17.07900 -2.00500 23.61300
C  16.21800 -0.63900 23.60100
C  15.75000 -0.50700 25.05400
C  18.57000 -1.85600 23.22900
C  14.97600 -0.68500 22.66700
C  15.22500 -0.35200 21.17100
N  15.34800 0.24500 27.90500
C  14.61800 0.85800 26.85800
C  13.79400 1.88600 27.36400
C  13.97600 1.82300 28.75000
C  14.89100 0.78600 29.01500
C  12.94100 2.68700 26.46600
C  13.43600 2.40700 29.99300
O  12.71100 3.34000 30.29100
C  14.17900 1.61200 31.11600
C  14.97500 2.69600 31.84500
O  16.06600 3.12600 31.56000
O  14.14500 3.09700 32.90700
C  14.88300 4.00200 33.74200
H  18.74700 -3.66700 31.25700
H  18.34800 -3.98900 25.00500
H  14.47900 1.05500 24.69300
H  16.68700 0.40300 32.99700
H  17.48000 -2.36400 33.06600
H  19.72600 -0.92200 32.19200
H  19.27800 -1.19800 33.86500
H  18.88800 0.35400 33.05500
H  15.10800 -2.11900 32.80500
H  14.14300 -0.74900 32.92100
H  14.96500 -2.29100 34.92400
H  14.31900 -0.60000 35.00500
H  19.62700 -6.33200 30.13700
H  20.38500 -4.90100 30.53600
H  21.05300 -5.73400 29.06300
H  21.18600 -6.92500 27.39200
H  20.37900 -7.89000 26.12000
H  19.54100 -7.64500 27.76100
H  16.58200 -2.86200 23.15800
H  16.84900 0.15000 23.19300
H  19.11600 -1.54400 24.12000
H  18.70500 -1.06600 22.49000
H  19.03900 -2.74300 22.80400
H  14.43400 0.22800 22.91400
H  14.26200 -1.50800 22.70500
H  14.82700 -1.17500 20.57800
H  16.31200 -0.29000 21.11400
H  14.66000 0.53900 20.89700
H  12.33100 3.37600 27.05000
H  12.17100 2.09100 25.97600
H  13.50200 3.35200 25.80900
H  13.41500 1.12200 31.72000
H  15.45700 4.72100 33.15700
H  15.40800 3.43200 34.50800
H  14.17700 4.58900 34.33100
Mg -11.17400 37.17900 42.14100
C  -8.86900 34.62600 41.52200
C  -8.90700 39.45000 40.65700
C  -13.61300 39.47200 42.40800
C  -13.37700 34.75300 43.38100
N  -9.28000 36.96000 40.94000
C  -8.51700 35.82700 40.88600
C  -7.33900 36.04500 40.00400
C  -7.19200 37.64600 40.04400
C  -8.53600 38.05900 40.59700
C  -5.97100 38.05800 40.93700
C  -7.50600 35.34400 38.65900
C  -6.37700 34.35800 38.25700
H  -5.51300 34.83100 37.08100
N  -11.34600 39.18500 41.56300
C  -10.25800 39.95000 41.10000
C  -10.71400 41.32500 40.90000
C  -12.05600 41.36100 41.30000
C  -12.42300 39.97400 41.83700
C  -9.81000 42.33100 40.41800
C  -12.91800 42.57900 41.13100
O  -12.45000 43.56200 40.62600
C  -14.38000 42.66900 41.58400
N  -13.19600 37.15400 42.79100
C  -14.00700 38.26600 42.90600
C  -15.47100 37.94800 43.30100
C  -15.37200 36.33800 43.62900
C  -13.88800 36.02400 43.19900
C  -16.07200 38.93900 44.33000
C  -16.47900 35.48100 42.93800
C  -17.14700 34.29300 43.82100
N  -11.14900 35.07500 42.47400
C  -12.10400 34.26400 43.07100
C  -11.57100 32.96100 43.15500
C  -10.25400 33.02800 42.56500
C  -10.05700 34.33200 42.17300
C  -12.34000 31.74000 43.53100
C  -9.08400 32.25700 42.19100
O  -8.85000 31.06100 42.36600
C  -8.15400 33.34700 41.47600
C  -6.82500 33.27300 42.11600
O  -5.87900 32.59400 41.80800
O  -6.81100 34.15500 43.19300
C  -5.48300 34.50900 43.68300
H  -8.23900 40.20600 40.23900
H  -14.41700 40.21000 42.36500
H  -14.10300 34.13300 43.91100
H  -6.53900 35.47600 40.47800
H  -7.08500 37.98500 39.01300
H  -5.52400 38.91100 40.42600
H  -5.34100 37.17500 41.04400
H  -6.25300 38.39600 41.93400
H  -7.69600 36.09500 37.89200
H  -8.46700 34.83500 38.73600
H  -6.73100 33.36500 37.98100
H  -5.83300 34.18100 39.18500
H  -10.01800 42.52400 39.36600
H  -8.82800 41.95200 40.70100
H  -9.93000 43.30200 40.90000
H  -14.30200 42.40100 42.63700
H  -14.98000 41.89700 41.10200
H  -14.71500 43.69300 41.41300
H  -15.97700 38.01200 42.33800
H  -15.46200 36.26300 44.71200
H  -16.63500 39.68900 43.77500
H  -15.38000 39.47300 44.98100
H  -16.80000 38.54800 45.04100
H  -16.00800 35.03600 42.06100
H  -17.22500 36.08700 42.42500
H  -16.82700 33.34300 43.39300
H  -18.23700 34.31800 43.79000
H  -16.80500 34.17000 44.84900
H  -12.50900 31.21600 42.59000
H  -13.29300 32.03800 43.96800
H  -11.68700 31.24500 44.24900
H  -7.97400 32.98000 40.46500
H  -5.57800 35.14400 44.56500
H  -4.97700 35.21800 43.02800
H  -4.89200 33.64100 43.97700

