158

Mg 7.18800 2.72800 27.65500
C  8.75100 1.40400 30.50800
C  5.05000 4.52400 29.69900
C  5.45600 3.78300 24.89900
C  8.92400 0.39900 25.67900
N  6.87200 2.84000 29.84700
C  7.71000 2.29800 30.85100
C  7.29000 2.77500 32.28600
C  6.05700 3.67700 31.92600
C  5.99900 3.70000 30.33800
C  4.69100 3.41200 32.59200
C  8.50800 3.37700 33.09000
C  8.22300 4.39300 34.21900
H  8.94300 4.04600 35.54300
N  5.58200 4.15300 27.31800
C  4.92200 4.79600 28.30700
C  3.98200 5.71300 27.68500
C  4.13900 5.54700 26.25900
C  5.11900 4.51000 26.06400
C  3.10900 6.65900 28.47800
C  3.55800 6.33600 25.17900
O  3.84400 6.07100 24.05500
C  2.46800 7.49800 25.44600
N  7.00200 2.01000 25.62700
C  6.24700 2.57000 24.73700
C  6.42300 2.02800 23.30400
C  7.74300 1.15100 23.55300
C  7.89400 1.16900 25.04300
C  5.22500 1.15900 22.69800
C  9.00100 1.78100 22.89400
C  9.81900 2.74900 23.72900
N  8.56300 1.20400 27.96500
C  9.22000 0.38700 27.06900
C  10.10400 -0.46800 27.75800
C  10.01000 -0.04500 29.13600
C  9.04100 0.92200 29.15600
C  11.01900 -1.50400 27.10700
C  10.62200 -0.19300 30.42800
O  11.58300 -0.88200 30.79300
C  9.72200 0.66700 31.45400
C  9.11000 -0.46700 32.27500
O  8.14000 -1.10100 31.93300
O  9.81000 -0.51000 33.43000
C  9.26500 -1.38600 34.44100
H  4.47800 5.06600 30.45400
H  5.11900 4.22900 23.96000
H  9.65900 -0.14500 25.08300
H  6.98700 1.90500 32.86700
H  6.33400 4.67000 32.28000
H  4.21100 4.34900 32.87300
H  4.74600 2.72400 33.43600
H  3.91500 3.07700 31.90500
H  9.25000 3.83400 32.43600
H  9.02600 2.59700 33.64900
H  7.14100 4.38900 34.35000
H  8.39300 5.41700 33.88700
H  3.38800 7.71300 28.46100
H  3.07400 6.41100 29.53900
H  2.08200 6.55800 28.12700
H  1.51000 7.04300 25.69900
H  2.38300 7.99700 24.48100
H  2.84000 8.23300 26.15900
H  6.61000 2.87200 22.63900
H  7.54000 0.11800 23.27300
H  4.30600 1.44700 23.20900
H  5.32400 0.07900 22.80600
H  5.19800 1.27900 21.61500
H  8.54500 2.38500 22.11000
H  9.55200 0.95400 22.44500
H  9.24800 3.07700 24.59800
H  9.91000 3.70500 23.21400
H  10.86100 2.45300 23.84900
H  10.70200 -1.79300 26.10400
H  10.90300 -2.41400 27.69500
H  12.07800 -1.24700 27.13800
H  10.35600 1.36100 32.00500
H  8.94700 -2.34900 34.04100
H  8.42400 -0.96200 34.98900
H  10.13300 -1.58200 35.07000
Mg 54.08700 25.40300 45.25800
C  51.46800 27.79500 44.61400
C  52.09200 22.92300 44.00100
C  56.77900 23.45800 44.80700
C  56.11600 28.23800 45.95700
N  52.11300 25.45600 44.30100
C  51.20800 26.47200 44.15700
C  49.93800 25.95200 43.53700
C  50.05200 24.45700 43.82500
C  51.50900 24.28000 44.05900
C  49.19400 23.87200 45.03900
C  49.73200 26.33200 42.04100
C  48.37400 26.00300 41.45400
H  48.24400 25.28900 40.15300
N  54.41100 23.34700 44.54600
C  53.41900 22.49500 44.24000
C  53.97200 21.13800 44.08700
C  55.34600 21.24200 44.49600
C  55.58200 22.71300 44.63100
C  53.08700 19.91400 43.77400
C  56.38600 20.14700 44.67200
O  56.13600 18.94800 44.38300
C  57.69800 20.42700 45.37800
N  56.13500 25.89200 45.15400
C  57.05000 24.85200 45.04600
C  58.48200 25.38000 45.25300
C  58.26300 27.01000 45.28700
C  56.70800 27.08400 45.51800
C  58.88800 24.85600 46.60800
C  58.78000 27.73700 44.02600
C  60.02300 28.68500 44.20200
N  53.79900 27.49400 45.60900
C  54.69400 28.49800 45.98500
C  53.95400 29.66800 46.38100
C  52.76500 29.51300 45.64600
C  52.70800 28.18200 45.22400
C  54.52100 30.99800 46.96700
C  51.53200 30.18100 45.24500
O  51.16000 31.31600 45.58600
C  50.68600 29.08200 44.53800
C  50.33500 29.52700 43.13900
O  51.14400 29.72200 42.27500
O  48.99600 29.51400 42.90300
C  48.54600 29.99000 41.59700
H  51.31500 22.17600 43.82500
H  57.71300 22.89500 44.85700
H  56.87600 28.97900 46.21100
H  49.02700 26.30800 44.01800
H  49.85100 23.85100 42.94100
H  49.70400 24.07000 45.98200
H  49.17300 22.78600 44.94900
H  48.19000 24.29500 45.02700
H  50.51200 25.85100 41.45100
H  49.99000 27.34900 41.74400
H  47.78400 26.92000 41.43800
H  47.83900 25.44800 42.22400
H  53.41200 19.39700 42.87100
H  52.02500 20.14000 43.68500
H  53.14100 19.25300 44.64000
H  58.41700 20.94300 44.74100
H  58.16200 19.55300 45.83400
H  57.45200 21.03900 46.24600
H  59.25900 25.14700 44.52400
H  58.71200 27.47500 46.16500
H  59.87500 24.39300 46.61200
H  58.21300 24.16200 47.10800
H  59.22000 25.63700 47.29200
H  57.90900 28.27900 43.65800
H  59.11600 26.97100 43.32700
H  60.53600 28.70200 43.24000
H  60.76600 28.30600 44.90300
H  59.57800 29.65200 44.43400
H  55.29600 30.65100 47.65000
H  53.73100 31.60100 47.41500
H  54.94000 31.61400 46.17100
H  49.75200 28.84300 45.04500
H  48.58400 29.29400 40.76000
H  48.98900 30.96500 41.39400
H  47.46600 30.11500 41.68600

