158

Mg 47.17000 15.98100 28.32000
C  45.40100 15.69000 31.25200
C  49.44200 18.02900 29.97900
C  48.77800 16.63700 25.35800
C  44.80800 14.21100 26.55500
N  47.23800 16.96100 30.37000
C  46.46900 16.57300 31.37700
C  47.10600 17.03500 32.74300
C  48.27100 18.00300 32.33000
C  48.34200 17.63500 30.78700
C  48.09000 19.54100 32.52300
C  47.61800 15.84700 33.52000
C  48.03100 16.06200 34.99800
H  47.59200 17.31700 35.72100
N  48.90800 17.14900 27.83600
C  49.78100 17.76900 28.70400
C  50.90100 18.28500 27.97800
C  50.81600 17.78700 26.58900
C  49.45800 17.18800 26.51900
C  51.99600 19.06100 28.62300
C  51.70700 18.01100 25.37100
O  51.47300 17.40800 24.34100
C  52.98800 18.86800 25.46600
N  46.70100 15.68400 26.15700
C  47.58400 15.95600 25.18600
C  47.04700 15.46100 23.78300
C  45.80100 14.59900 24.16600
C  45.74800 14.85200 25.66200
C  46.78500 16.65300 22.78500
C  45.74000 13.10600 23.73800
C  44.74300 12.71600 22.63900
N  45.39700 15.22200 28.74800
C  44.58100 14.47900 27.95800
C  43.46300 14.07700 28.76500
C  43.69000 14.48500 30.09000
C  44.93100 15.16200 30.03100
C  42.24600 13.32700 28.22500
C  43.27300 14.43100 31.45000
O  42.30500 13.92300 31.91700
C  44.38000 15.16600 32.27600
C  43.67800 16.12700 33.19400
O  43.56500 17.30800 32.95800
O  43.16800 15.48000 34.29700
C  42.73700 16.43600 35.27600
H  50.26900 18.44100 30.56100
H  49.22200 16.79100 24.37200
H  44.08700 13.56000 26.05700
H  46.36400 17.65600 33.24600
H  49.20300 17.65700 32.77600
H  48.84300 20.08100 33.09700
H  47.18600 19.63200 33.12400
H  47.94800 20.04300 31.56500
H  48.50700 15.52600 32.97700
H  46.93900 14.99600 33.47300
H  49.11400 16.03500 34.87300
H  47.78600 15.20300 35.62200
H  52.04000 20.04100 28.14800
H  52.92200 18.56200 28.33800
H  51.93900 19.15000 29.70800
H  53.26600 19.09000 24.43500
H  53.84700 18.27800 25.78700
H  52.71700 19.78800 25.98300
H  47.85400 14.85900 23.36500
H  44.86900 15.02900 23.79800
H  47.18600 16.47800 21.78600
H  47.27800 17.54500 23.17100
H  45.73400 16.89000 22.62100
H  45.40000 12.42400 24.51800
H  46.75000 12.82100 23.44300
H  45.02000 11.81200 22.09500
H  44.79000 13.47800 21.86100
H  43.70300 12.53800 22.91300
H  42.59300 12.31000 28.04100
H  41.96200 13.81200 27.29100
H  41.36400 13.40400 28.86100
H  44.78700 14.36600 32.89500
H  43.59500 17.09100 35.42400
H  42.55700 15.98600 36.25200
H  41.86600 17.03700 35.01500
Mg 26.48300 50.93100 26.31000
C  24.71700 52.06500 28.92000
C  28.73800 49.70500 28.39300
C  28.00600 49.81900 23.66400
C  24.21600 52.73100 24.08900
N  26.86400 51.18800 28.47000
C  25.82200 51.40800 29.37000
C  26.16200 50.87800 30.82300
C  27.59700 50.32500 30.68300
C  27.76600 50.41900 29.07700
C  28.69100 51.06500 31.52300
C  25.08200 49.99200 31.46100
C  24.48000 50.26600 32.83000
H  25.51300 50.91100 33.71700
N  28.14300 49.86200 26.04200
C  28.99300 49.48000 26.99100
C  30.07500 48.79600 26.38600
C  29.79000 48.67800 25.03500
C  28.59600 49.43300 24.84700
C  31.23300 48.19300 27.31400
C  30.49100 47.75100 24.06500
O  30.06700 47.62700 22.93500
C  31.69100 46.88800 24.50600
N  26.32800 51.49000 24.13000
C  27.01100 50.71400 23.21600
C  26.54200 50.86100 21.75900
C  25.28500 51.74300 21.98800
C  25.24600 52.04100 23.48700
C  27.61600 51.38200 20.77000
C  23.95200 51.05000 21.63400
C  22.74900 51.89300 21.15100
N  24.92100 52.24200 26.37900
C  24.07900 52.88900 25.46100
C  23.01100 53.60600 26.16200
C  23.25100 53.28600 27.48000
C  24.41000 52.48900 27.59200
C  21.90400 54.51400 25.61700
C  22.70300 53.41500 28.79400
O  21.78100 53.95200 29.35300
C  23.72600 52.67300 29.80500
C  24.23900 53.86000 30.55700
O  25.17800 54.54700 30.16000
O  23.49200 54.01200 31.71300
C  24.17900 54.81800 32.69200
H  29.37500 49.12000 29.05900
H  28.49500 49.31500 22.82700
H  23.53500 53.15700 23.34900
H  26.33500 51.77900 31.41100
H  27.56100 49.29800 31.04700
H  29.33500 50.43800 32.14000
H  28.28600 51.79100 32.22800
H  29.29200 51.70800 30.88000
H  25.43100 48.96400 31.35800
H  24.23100 50.11100 30.79000
H  24.17000 49.32400 33.28300
H  23.60800 50.92000 32.81400
H  31.21300 48.36000 28.39100
H  32.21000 48.60200 27.05800
H  31.13100 47.11300 27.21100
H  31.26800 46.07100 25.09000
H  32.54700 47.37300 24.97600
H  32.04200 46.50600 23.54700
H  26.21000 49.88700 21.39800
H  25.43600 52.71200 21.51300
H  28.56300 51.28600 21.30000
H  27.37500 52.41100 20.50200
H  27.58200 50.82800 19.83100
H  23.65100 50.36300 22.42500
H  24.26100 50.40600 20.81100
H  22.46400 51.58500 20.14500
H  22.94900 52.96400 21.18900
H  21.90900 51.67000 21.80800
H  21.34100 54.06400 24.79900
H  22.45500 55.35900 25.20400
H  21.35600 54.69200 26.54200
H  23.22900 52.01200 30.51500
H  23.57000 55.03600 33.57000
H  24.48700 55.76400 32.24700
H  25.11300 54.36200 33.01900

