158

Mg 9.05400 4.48900 28.02400
C  10.42100 2.74200 30.92200
C  7.44700 6.54800 29.98000
C  7.68200 5.75000 25.19400
C  10.65800 2.11800 26.07100
N  8.90300 4.60800 30.17600
C  9.58100 3.88000 31.18800
C  9.28300 4.49600 32.58900
C  8.17200 5.62200 32.18500
C  8.15100 5.62300 30.69000
C  6.84000 5.50300 32.94300
C  10.62900 5.12700 33.22300
C  11.18700 4.45000 34.52400
H  11.39400 5.25700 35.82500
N  7.66300 5.93100 27.68200
C  7.13400 6.69300 28.63800
C  6.24000 7.60600 27.98100
C  6.29500 7.37400 26.59400
C  7.25000 6.32500 26.46900
C  5.53500 8.68200 28.82800
C  5.44800 8.07300 25.57100
O  5.60500 7.80300 24.36100
C  4.43900 9.09300 25.90900
N  9.08500 4.01900 25.88400
C  8.57100 4.70300 24.89600
C  8.90500 4.14000 23.45500
C  9.95300 3.05900 23.86400
C  9.90400 3.06000 25.39800
C  7.67000 3.64500 22.66700
C  11.42500 3.36500 23.37000
C  12.14700 2.18700 22.66500
N  10.22000 2.73200 28.35100
C  10.86100 1.95000 27.48000
C  11.61100 0.84500 28.12400
C  11.48700 1.16100 29.45600
C  10.62600 2.28000 29.58700
C  12.41300 -0.29600 27.54400
C  11.87000 0.80200 30.83100
O  12.51100 -0.15300 31.25600
C  11.16600 1.85000 31.84400
C  10.28800 1.13500 32.73900
O  9.31100 0.53800 32.30900
O  10.73500 1.15800 33.99900
C  9.87800 0.50400 35.04100
H  6.92800 7.26400 30.62100
H  7.29500 6.33400 24.35700
H  11.17600 1.34500 25.50000
H  8.71200 3.70700 33.07700
H  8.57700 6.54900 32.59000
H  7.09900 5.35300 33.99100
H  6.39400 4.53200 32.72900
H  6.14200 6.33600 32.85000
H  10.49400 6.16900 33.51200
H  11.39000 4.94500 32.46400
H  12.15100 4.00900 34.27000
H  10.57000 3.60800 34.83900
H  5.51100 9.60100 28.24300
H  6.04500 8.84100 29.77800
H  4.48600 8.43300 28.98700
H  3.76400 9.38000 25.10300
H  4.75700 10.05500 26.31100
H  3.70300 8.66900 26.59200
H  9.37900 4.99000 22.96500
H  9.74200 2.07000 23.45800
H  6.81800 3.97500 23.26200
H  7.53500 2.56400 22.61600
H  7.58800 3.87200 21.60400
H  12.05200 3.58500 24.23400
H  11.37200 4.31400 22.83700
H  13.10600 2.00600 23.15200
H  12.37200 2.43200 21.62700
H  11.54700 1.27700 22.63600
H  13.36500 -0.50600 28.03100
H  12.74400 -0.10200 26.52300
H  11.78400 -1.18200 27.63100
H  11.94100 2.35200 32.42300
H  10.25600 -0.44600 35.42000
H  8.86400 0.18700 34.80000
H  9.67700 1.22800 35.83100
Mg -2.17500 35.35400 26.69500
C  -3.53000 33.73200 29.64000
C  -1.08600 37.80500 28.84500
C  -1.24000 36.89000 24.08100
C  -3.90400 32.94600 24.88800
N  -2.42200 35.72300 28.99200
C  -2.81600 34.89600 30.00600
C  -2.44900 35.35600 31.35500
C  -1.63100 36.68400 31.07600
C  -1.70200 36.81500 29.54200
C  -2.18200 37.92800 31.76600
C  -1.60800 34.23700 32.05200
C  -2.09000 33.72900 33.36900
H  -1.14300 33.57400 34.59200
N  -1.10700 37.03400 26.45700
C  -0.71000 37.90100 27.49700
C  0.10300 38.96900 26.86500
C  0.19800 38.61000 25.46700
C  -0.76200 37.51500 25.26800
C  0.83300 40.02600 27.67100
C  0.99200 39.16800 24.34100
O  1.20000 38.57300 23.31000
C  1.77200 40.34200 24.56000
N  -2.71700 35.04700 24.77000
C  -2.10800 35.87400 23.80900
C  -2.56400 35.44300 22.37800
C  -3.33600 34.08400 22.63700
C  -3.30700 33.95600 24.14400
C  -3.48500 36.43000 21.62900
C  -2.63500 32.74300 21.96900
C  -1.16000 32.43000 22.31700
N  -3.39000 33.66100 27.10200
C  -3.99600 32.84100 26.29300
C  -4.69200 31.71500 26.94000
C  -4.47600 32.01500 28.22000
C  -3.71000 33.20000 28.26500
C  -5.47900 30.52900 26.39600
C  -4.77800 31.56500 29.56100
O  -5.41500 30.59700 29.94500
C  -4.15700 32.63000 30.52200
C  -5.37000 33.17900 31.22600
O  -6.20200 33.95100 30.72600
O  -5.52700 32.61600 32.44700
C  -6.69100 32.99100 33.23200
H  -0.54100 38.46900 29.51900
H  -1.06700 37.50000 23.19200
H  -4.43700 32.22900 24.26000
H  -3.44300 35.52600 31.76800
H  -0.57900 36.59700 31.35000
H  -2.77900 38.48600 31.04500
H  -1.30800 38.54500 31.97500
H  -2.74800 37.54900 32.61700
H  -0.58200 34.59200 32.15500
H  -1.47700 33.48800 31.27000
H  -2.49000 32.72600 33.21900
H  -2.84100 34.42300 33.74800
H  0.72700 39.91100 28.75000
H  0.43400 40.98400 27.33800
H  1.90200 39.95300 27.47100
H  2.04000 40.80600 23.61100
H  2.69700 39.98500 25.01300
H  1.20700 41.02800 25.19200
H  -1.76500 35.21600 21.67200
H  -4.41000 34.24100 22.53800
H  -3.80700 37.27500 22.23700
H  -4.39400 35.90900 21.32600
H  -3.02100 36.78300 20.70900
H  -2.68800 32.91100 20.89400
H  -3.15100 31.78600 22.05100
H  -1.15100 31.37200 22.57900
H  -0.88700 33.07700 23.15100
H  -0.45400 32.47200 21.48700
H  -6.48000 30.96100 26.43200
H  -5.37500 29.66800 27.05600
H  -5.28000 30.21900 25.37000
H  -3.51000 32.12800 31.24100
H  -7.61500 32.78800 32.69000
H  -6.54200 34.04200 33.48000
H  -6.71600 32.48600 34.19700

