158

Mg 41.38200 9.26700 30.24300
C  42.96000 10.39200 33.10600
C  39.01400 7.66400 32.20900
C  39.64200 8.37500 27.47100
C  43.85200 10.61000 28.42500
N  41.06900 9.01700 32.35300
C  41.82500 9.58100 33.34100
C  41.08900 9.51700 34.67700
C  40.02400 8.35100 34.42500
C  40.04900 8.29200 32.90200
C  40.46400 6.99600 34.98400
C  40.45200 10.89300 35.01200
C  40.17500 11.08900 36.57100
H  40.89100 12.01300 37.51400
N  39.62600 8.20000 29.88400
C  38.77400 7.62600 30.84000
C  37.59600 7.00700 30.10500
C  37.68200 7.31700 28.71900
C  39.03000 7.98300 28.63600
C  36.45600 6.31000 30.81700
C  36.67900 7.10400 27.62100
O  36.84600 7.56300 26.49200
C  35.40400 6.25800 27.89400
N  41.68500 9.44800 28.29400
C  40.89000 8.98200 27.35700
C  41.56100 9.06800 25.95100
C  42.83100 9.96700 26.24400
C  42.80800 10.02100 27.74300
C  41.82900 7.71700 25.27500
C  42.85000 11.37900 25.55300
C  41.62900 12.32200 25.85700
N  43.08300 10.25700 30.63000
C  44.07100 10.73700 29.83600
C  45.07900 11.42700 30.57200
C  44.71200 11.31400 31.89500
C  43.51300 10.64500 31.87200
C  46.38100 12.01900 30.01500
C  45.07300 11.60100 33.28100
O  45.92000 12.27600 33.77000
C  43.87900 11.09500 34.08900
C  44.42500 10.21200 35.12700
O  44.99100 9.11400 34.87900
O  44.25600 10.80100 36.35900
C  44.57000 10.09100 37.59500
H  38.27500 7.13800 32.81700
H  39.15900 8.23700 26.50100
H  44.66500 11.11300 27.89700
H  41.62100 9.25500 35.59100
H  39.04400 8.58900 34.83900
H  39.55100 6.71000 35.50600
H  41.33000 6.85100 35.63000
H  40.74400 6.21100 34.28200
H  39.49200 10.96200 34.50000
H  40.95800 11.77400 34.61400
H  40.25800 10.13400 37.09000
H  39.18500 11.52700 36.69300
H  35.57400 6.88700 30.53700
H  36.59600 6.33400 31.89800
H  36.51600 5.28900 30.44000
H  34.81300 6.18800 26.98000
H  34.77000 6.80400 28.59200
H  35.72200 5.27500 28.24100
H  40.86100 9.75100 25.46900
H  43.66000 9.36200 25.87600
H  41.43400 6.88300 25.85300
H  42.90200 7.52300 25.24400
H  41.46100 7.75400 24.24900
H  42.79100 11.16800 24.48600
H  43.80800 11.86000 25.74800
H  41.96500 13.30500 26.18700
H  41.01900 11.92900 26.67000
H  41.00500 12.36100 24.96400
H  46.99700 11.20400 29.63500
H  46.92300 12.71700 30.65200
H  46.17300 12.62400 29.13300
H  43.48400 11.95300 34.63300
H  45.39700 10.58300 38.10700
H  44.90300 9.11800 37.23400
H  43.71700 9.94200 38.25600
Mg 26.65600 49.43300 26.02900
C  24.89000 50.87600 28.77000
C  29.21400 48.87200 28.38700
C  28.65000 48.65700 23.49500
C  24.34100 50.83500 23.88800
N  26.99700 49.90000 28.23600
C  26.07200 50.33400 29.23500
C  26.62200 50.19400 30.67400
C  28.10000 49.95100 30.42200
C  28.12700 49.50700 28.89800
C  28.92900 51.25600 30.68200
C  25.97700 49.04200 31.42900
C  25.30800 49.34100 32.76500
H  26.20800 49.79800 33.94000
N  28.55400 48.69500 25.96100
C  29.43100 48.45800 27.03600
C  30.65000 47.87100 26.47800
C  30.60300 47.97900 25.05000
C  29.22700 48.45700 24.81800
C  31.84000 47.43200 27.29300
C  31.61500 47.81300 23.98500
O  31.47200 48.18800 22.83900
C  32.99600 47.46600 24.46200
N  26.56900 49.84000 24.00600
C  27.45600 49.28800 23.13400
C  26.98900 49.35300 21.63800
C  25.55200 50.00200 21.81800
C  25.44300 50.23600 23.31600
C  27.80900 50.26900 20.76700
C  24.37900 48.93300 21.44100
C  23.03800 49.57800 20.93900
N  24.94700 50.62100 26.28000
C  24.07000 51.03300 25.29300
C  23.00300 51.79900 25.88000
C  23.24200 51.71500 27.25300
C  24.42100 50.97100 27.42600
C  21.90600 52.57000 25.22900
C  22.71300 52.04700 28.57200
O  21.67800 52.56900 28.91900
C  23.79200 51.56600 29.58700
C  24.34400 52.66200 30.34200
O  25.01000 53.53500 29.82900
O  23.96700 52.56400 31.65100
C  24.64300 53.29600 32.66900
H  30.02000 48.68800 29.09900
H  29.15400 48.21000 22.63600
H  23.67500 51.29400 23.15400
H  26.41500 51.12500 31.20100
H  28.57900 49.26100 31.11600
H  29.51100 51.44600 29.78000
H  29.64000 50.97400 31.45900
H  28.37700 52.10800 31.07900
H  26.67600 48.22400 31.60500
H  25.20300 48.63200 30.77900
H  24.74200 48.46900 33.09300
H  24.68000 50.18200 32.47000
H  32.65800 48.14600 27.19300
H  32.04800 46.39800 27.01900
H  31.59200 47.63100 28.33600
H  32.93600 46.55800 25.06100
H  33.45900 48.29100 25.00400
H  33.57900 47.24600 23.56800
H  26.81800 48.36500 21.21100
H  25.34800 50.91700 21.26200
H  28.83000 50.30000 21.14700
H  27.37400 51.26400 20.67500
H  27.77800 49.65900 19.86400
H  24.36200 48.38000 22.37900
H  24.77500 48.27800 20.66500
H  22.30500 49.59800 21.74500
H  22.53800 49.03300 20.13900
H  23.15500 50.53000 20.42100
H  22.23100 53.59900 25.38400
H  20.98600 52.53300 25.81300
H  21.77600 52.29400 24.18300
H  23.36700 50.79700 30.23200
H  23.88900 53.99300 33.03300
H  25.55400 53.77400 32.30900
H  24.85400 52.59400 33.47700

