158

Mg 24.83300 -5.48200 46.00100
C  27.27600 -3.45800 44.61500
C  22.56300 -4.12800 43.86100
C  22.94000 -8.09200 46.66000
C  27.50100 -7.07600 47.94300
N  24.97900 -4.08800 44.43300
C  26.02100 -3.31300 44.01200
C  25.70200 -2.29400 42.95100
C  24.12800 -2.15500 43.19600
C  23.85000 -3.52800 43.87100
C  23.61900 -1.01100 44.04400
C  26.23700 -2.65900 41.57200
C  26.76600 -1.49300 40.70800
H  26.21500 -1.41200 39.23900
N  22.88700 -6.01800 45.30400
C  22.10500 -5.31800 44.56500
C  20.93100 -6.10500 44.28000
C  20.94000 -7.25700 45.13300
C  22.24800 -7.17600 45.78500
C  19.92200 -5.66000 43.18800
C  19.86200 -8.20400 45.23900
O  18.82500 -7.91400 44.66700
C  20.03700 -9.40000 46.09500
N  25.26600 -7.30300 47.11800
C  24.18200 -8.14800 47.32500
C  24.58900 -9.35200 48.25300
C  26.03700 -8.95400 48.67600
C  26.31100 -7.66500 47.87400
C  23.50300 -9.65800 49.35100
C  27.15400 -10.08100 48.40500
C  27.54500 -11.01000 49.61100
N  26.87400 -5.22800 46.40600
C  27.82300 -5.89100 47.14300
C  29.07400 -5.19600 47.06400
C  28.90500 -4.21200 46.10600
C  27.57500 -4.30500 45.67800
C  30.23900 -5.64400 47.84500
C  29.63300 -3.28400 45.29700
O  30.82100 -3.01000 45.26100
C  28.54900 -2.73200 44.35500
C  28.61100 -1.29400 44.60700
O  28.66900 -0.66900 45.66300
O  28.70200 -0.58100 43.44500
C  28.51600 0.90200 43.47500
H  21.79500 -3.71300 43.20600
H  22.28900 -8.89000 47.02000
H  28.30200 -7.58000 48.48800
H  26.13600 -1.36100 43.31100
H  23.58800 -2.20400 42.25000
H  24.19100 -0.08600 43.97500
H  23.47200 -1.41800 45.04400
H  22.64800 -0.74300 43.62800
H  25.42700 -3.15300 41.03700
H  26.92500 -3.49000 41.72600
H  27.83600 -1.65000 40.84500
H  26.65900 -0.52800 41.20300
H  20.36700 -5.03400 42.41400
H  19.03000 -5.26200 43.67200
H  19.52100 -6.49000 42.60800
H  19.37700 -10.25100 45.92900
H  19.78200 -9.19400 47.13500
H  21.01200 -9.74600 45.75200
H  24.62100 -10.28400 47.68900
H  26.06200 -8.78400 49.75300
H  22.56000 -9.13200 49.19700
H  23.97800 -9.38800 50.29400
H  23.14100 -10.68600 49.36800
H  28.08700 -9.65000 48.04100
H  26.66500 -10.70300 47.65500
H  28.55800 -10.77900 49.94200
H  27.45100 -12.05100 49.30100
H  26.88500 -10.79300 50.45100
H  31.10000 -5.17900 47.36600
H  30.36200 -6.70800 47.64500
H  30.11500 -5.26400 48.85900
H  28.83100 -2.89400 43.31400
H  27.50000 0.98100 43.08900
H  29.19500 1.30900 42.72600
H  28.67500 1.43300 44.41300
Mg 17.49700 -1.33200 28.47300
C  16.59400 0.81800 31.24800
C  19.81700 -2.86200 30.52100
C  18.83800 -2.87400 25.81600
C  16.03800 1.11300 26.45300
N  18.16000 -1.01600 30.60100
C  17.44400 -0.27600 31.56600
C  18.00600 -0.60700 32.96900
C  19.13800 -1.62300 32.66500
C  19.04800 -1.93700 31.20600
C  20.54800 -1.15800 33.19600
C  16.94200 -1.19600 33.94000
C  16.82700 -0.55300 35.29200
H  17.94700 0.07100 36.00600
N  18.91900 -2.82400 28.23900
C  19.71400 -3.31800 29.21000
C  20.51000 -4.35200 28.61600
C  20.21200 -4.47200 27.25800
C  19.28700 -3.36600 27.06700
C  21.58600 -5.06900 29.42100
C  20.65000 -5.46000 26.26500
O  20.32900 -5.36300 25.12800
C  21.55900 -6.66300 26.59700
N  17.35900 -0.93900 26.39900
C  17.97200 -1.79400 25.48100
C  17.66600 -1.25200 24.02700
C  16.67300 -0.06100 24.32300
C  16.66300 0.06900 25.81300
C  18.99100 -0.70300 23.34000
C  15.26100 -0.16100 23.58000
C  14.16900 -1.05000 24.22200
N  16.43900 0.63600 28.73900
C  15.90200 1.42500 27.79500
C  15.16600 2.52800 28.46700
C  15.35800 2.22300 29.81500
C  16.22800 1.15800 29.88700
C  14.20400 3.43700 27.75900
C  14.92900 2.50200 31.22000
O  13.97800 3.18400 31.59600
C  15.85400 1.71900 32.16400
C  16.68000 2.70700 32.75500
O  17.48700 3.36600 32.17200
O  16.33700 2.82400 34.11000
C  16.99400 3.88900 34.88900
H  20.49500 -3.45300 31.14100
H  19.33000 -3.36000 24.97100
H  15.40400 1.65200 25.74600
H  18.52100 0.21600 33.46600
H  19.05500 -2.53400 33.25800
H  20.43000 -0.25800 33.80000
H  21.15400 -0.99700 32.30400
H  20.90900 -1.96800 33.82800
H  17.20200 -2.25100 34.03000
H  15.95300 -1.25000 33.48500
H  16.38000 -1.21900 36.03000
H  16.05900 0.21400 35.19800
H  22.32500 -5.60200 28.82200
H  21.22300 -5.82700 30.11600
H  22.10400 -4.31400 30.01200
H  21.16200 -7.46300 25.97200
H  21.33100 -7.00300 27.60700
H  22.63600 -6.50300 26.55100
H  17.23800 -1.95500 23.31200
H  17.17200 0.77700 23.83700
H  19.71400 -0.48600 24.12600
H  18.91900 0.35700 23.10000
H  19.27400 -1.36000 22.51700
H  15.48900 -0.51500 22.57400
H  14.86600 0.84700 23.45600
H  13.36500 -0.48800 24.69700
H  14.62100 -1.70700 24.96500
H  13.69600 -1.65300 23.44700
H  13.95000 3.19400 26.72800
H  14.68300 4.40700 27.62300
H  13.33300 3.58900 28.39700
H  15.32100 1.11200 32.89600
H  18.02400 3.65500 35.15900
H  16.35200 4.13200 35.73600
H  17.25100 4.75200 34.27400

