158

Mg 5.93200 53.72800 41.39200
C  5.50000 50.24300 41.12400
C  9.18500 53.15400 40.13100
C  6.45300 56.98100 41.32100
C  2.77300 54.05900 42.60700
N  7.15800 51.91300 40.51400
C  6.71800 50.60900 40.57700
C  7.74700 49.74100 39.87700
C  9.03500 50.60200 39.84600
C  8.40900 52.01500 40.10700
C  9.99500 50.18300 40.97600
C  7.37500 49.24700 38.40800
C  6.61700 50.24700 37.44400
H  5.88400 49.61000 36.36400
N  7.63600 54.93300 40.85400
C  8.79100 54.48000 40.40800
C  9.67500 55.62700 40.32000
C  8.98600 56.75300 40.72500
C  7.63200 56.29500 40.95400
C  11.12400 55.57100 39.85300
C  9.49000 58.22200 40.86500
O  10.64900 58.58500 40.67200
C  8.60500 59.36200 41.39600
N  4.66700 55.30100 41.61600
C  5.17700 56.54200 41.65700
C  4.07100 57.52000 42.15300
C  2.85900 56.61300 42.54300
C  3.44000 55.25300 42.19500
C  4.55900 58.51400 43.30700
C  1.44000 56.88100 41.94700
C  0.85500 58.23400 42.31100
N  4.31400 52.44200 41.66300
C  3.12600 52.66800 42.28800
C  2.40800 51.47500 42.51600
C  3.35200 50.43700 42.13200
C  4.45000 51.13000 41.62500
C  0.98900 51.33800 43.18300
C  3.56800 49.06600 42.06400
O  2.87100 48.08500 42.27900
C  4.98600 48.89500 41.44400
C  4.75300 48.01300 40.27600
O  4.14900 48.33000 39.22100
O  5.33700 46.71600 40.52900
C  5.07500 45.67300 39.57200
H  10.15600 53.05600 39.64100
H  6.62000 58.05800 41.39200
H  1.89500 54.19900 43.24200
H  7.88200 48.89700 40.55300
H  9.48200 50.63500 38.85300
H  11.04200 50.19400 40.67200
H  9.80800 49.19800 41.40100
H  9.86900 50.78100 41.87900
H  6.90900 48.26100 38.41800
H  8.29100 48.97300 37.88400
H  7.36100 50.92000 37.01900
H  5.88100 50.83800 37.98900
H  11.74500 56.17800 40.51200
H  11.21700 55.88900 38.81400
H  11.58200 54.58300 39.80000
H  9.24300 60.23300 41.54700
H  8.24200 59.12400 42.39600
H  7.87300 59.56400 40.61400
H  3.74100 58.14900 41.32600
H  2.77400 56.68100 43.62700
H  4.85500 59.44400 42.82300
H  5.40000 58.04800 43.82100
H  3.80200 58.54300 44.09000
H  0.81200 56.01600 42.16300
H  1.49900 57.03600 40.87000
H  1.22600 58.63900 43.25200
H  -0.22300 58.11700 42.41700
H  0.95900 59.08000 41.63100
H  1.12400 51.14200 44.24600
H  0.43000 50.52400 42.72100
H  0.42400 52.26700 43.10700
H  5.70900 48.42600 42.11100
H  5.21000 44.70000 40.04400
H  5.80200 45.72000 38.76100
H  4.06800 45.66500 39.15700
Mg -2.01300 34.50500 27.16200
C  -3.65900 32.36400 29.51600
C  -0.81700 36.26200 29.88500
C  -0.66200 36.55100 24.92600
C  -3.53900 32.59600 24.60900
N  -2.28900 34.39700 29.46200
C  -3.00000 33.44900 30.16800
C  -2.85600 33.65200 31.68100
C  -2.11600 35.05600 31.73500
C  -1.74300 35.22200 30.30800
C  -2.84500 36.31300 32.33800
C  -2.04300 32.46600 32.34800
C  -2.62300 31.82600 33.63000
H  -1.85900 31.85200 34.98200
N  -0.86000 36.02800 27.40900
C  -0.40800 36.59500 28.57400
C  0.64000 37.57100 28.27800
C  0.57800 37.72900 26.85400
C  -0.37800 36.76200 26.32000
C  1.62800 38.07600 29.32400
C  1.44300 38.72100 25.94600
O  1.32800 38.89000 24.72700
C  2.52400 39.59300 26.63400
N  -2.19400 34.65500 25.01100
C  -1.55700 35.62100 24.33400
C  -1.81100 35.49200 22.76200
C  -2.42100 34.03300 22.68700
C  -2.77000 33.71000 24.20100
C  -2.83300 36.52200 22.25900
C  -1.60500 32.93600 22.01700
C  -2.36700 31.67200 21.55600
N  -3.44200 32.92900 27.04600
C  -3.93200 32.20100 25.93100
C  -4.74500 31.07500 26.37300
C  -4.67900 31.08100 27.79600
C  -3.86600 32.21600 28.15600
C  -5.50400 30.05300 25.49900
C  -5.16900 30.43900 29.05600
O  -5.87000 29.51200 29.17400
C  -4.43200 31.24200 30.15200
C  -5.39300 31.66300 31.10200
O  -6.18700 32.56200 30.99700
O  -5.48600 30.78400 32.14600
C  -6.45500 31.04300 33.25300
H  -0.52200 36.92900 30.69700
H  -0.25600 37.32200 24.26700
H  -3.98200 31.85000 23.94600
H  -3.84600 33.70900 32.13400
H  -1.22800 34.87200 32.33900
H  -2.46100 36.66500 33.29500
H  -3.81900 35.88800 32.58100
H  -2.96700 37.08600 31.57900
H  -1.02100 32.72500 32.62500
H  -1.91400 31.66900 31.61500
H  -2.74700 30.79600 33.29500
H  -3.63600 32.15200 33.86400
H  2.58400 37.55200 29.33700
H  1.34900 37.93600 30.36800
H  1.86900 39.12700 29.16700
H  2.09500 40.39000 27.24100
H  3.20600 40.05600 25.92100
H  2.97500 38.80600 27.23800
H  -0.88500 35.48800 22.18700
H  -3.35900 34.06200 22.13400
H  -3.59600 36.52400 23.03700
H  -3.32000 36.30500 21.30800
H  -2.52500 37.56800 22.23000
H  -0.81600 32.63600 22.70700
H  -1.03500 33.44700 21.24000
H  -3.44800 31.73600 21.43800
H  -2.06300 30.95600 22.32000
H  -1.86000 31.29100 20.67000
H  -5.02800 29.73500 24.57100
H  -6.47700 30.53000 25.38000
H  -5.72100 29.18200 26.11700
H  -3.73000 30.57900 30.65700
H  -5.99600 31.76200 33.93300
H  -6.72400 30.09900 33.72600
H  -7.31000 31.48400 32.74000

