158

Mg 49.31200 35.85400 26.80500
C  47.23700 34.85300 29.49200
C  49.59300 38.96400 28.24800
C  51.15200 36.65100 24.19600
C  48.21400 32.89700 25.05300
N  48.68900 36.64600 28.77300
C  47.78100 36.15600 29.69200
C  47.38500 37.14200 30.76800
C  47.89300 38.43000 30.19300
C  48.79400 38.00900 28.97000
C  46.89900 39.63400 30.16600
C  47.74000 36.87300 32.28400
C  46.52700 36.84800 33.18800
H  46.45200 38.00200 34.26700
N  50.36700 37.47200 26.31900
C  50.39500 38.69600 27.06000
C  51.24500 39.62200 26.36500
C  51.70900 38.97300 25.13000
C  51.11900 37.61300 25.20700
C  51.35900 41.05600 26.90400
C  52.58100 39.60200 24.05400
O  52.98600 39.00700 23.09700
C  53.05500 41.00500 24.25900
N  49.64100 34.87500 24.92000
C  50.49300 35.45000 24.00600
C  50.64100 34.70500 22.70500
C  49.71500 33.46600 22.90000
C  49.16100 33.75700 24.36800
C  50.18800 35.48700 21.40300
C  50.43000 31.99400 22.81800
C  50.06800 31.07400 21.68400
N  48.10300 34.08800 27.21100
C  47.70500 33.03100 26.38600
C  46.79000 32.18200 27.12600
C  46.58300 32.85500 28.32700
C  47.44500 34.02000 28.37300
C  46.24700 30.82000 26.75100
C  45.88000 32.83600 29.60200
O  45.16000 31.97300 30.06600
C  46.32100 34.08500 30.41800
C  47.08100 33.61700 31.60400
O  48.31700 33.56800 31.74100
O  46.26300 33.29300 32.64900
C  46.74600 33.00100 33.92900
H  49.60200 39.96900 28.67600
H  51.86500 36.97700 23.43500
H  47.89100 31.99600 24.52700
H  46.31100 37.13500 30.58300
H  48.67300 38.80900 30.85400
H  46.03000 39.25700 30.70500
H  46.91000 39.97900 29.13200
H  47.34000 40.38700 30.81900
H  48.33700 37.72400 32.61200
H  48.34800 35.98500 32.45700
H  46.39800 35.94000 33.77800
H  45.58400 37.02100 32.66900
H  51.02400 41.16200 27.93500
H  50.76800 41.58900 26.15900
H  52.37200 41.45300 26.83700
H  52.16000 41.61900 24.36400
H  53.82300 41.27300 23.53300
H  53.56000 40.97700 25.22400
H  51.68500 34.39400 22.67900
H  48.75100 33.46300 22.39100
H  49.24500 35.11400 21.00300
H  51.05000 35.27900 20.76900
H  50.25500 36.54400 21.65800
H  50.05900 31.52200 23.72800
H  51.49700 32.11600 23.00100
H  49.91400 31.59900 20.74100
H  49.10300 30.58700 21.82200
H  50.88300 30.36800 21.52100
H  46.08400 30.33200 27.71100
H  47.08000 30.26000 26.32700
H  45.38800 30.79100 26.08000
H  45.38700 34.58200 30.67700
H  47.70600 33.48700 34.09700
H  46.94000 31.93300 34.02800
H  46.01000 33.24100 34.69700
Mg -5.19800 25.14200 26.66300
C  -3.99300 26.43700 29.63100
C  -6.91400 22.77500 28.55300
C  -6.05800 23.72500 23.73300
C  -2.92000 27.25000 24.85700
N  -5.34000 24.65000 28.82900
C  -4.82800 25.35300 29.82500
C  -5.27100 24.84300 31.23300
C  -6.01300 23.46400 30.85000
C  -6.13700 23.64000 29.29900
C  -5.19800 22.18600 31.26500
C  -6.16500 26.02400 31.87400
C  -5.98500 26.19100 33.41500
H  -5.39400 24.98000 34.19500
N  -6.19200 23.51300 26.21600
C  -6.99900 22.74200 27.12900
C  -7.81500 21.80900 26.38600
C  -7.63100 22.13400 25.02300
C  -6.58400 23.17800 24.93500
C  -8.66300 20.75300 27.08200
C  -8.33500 21.44600 23.92400
O  -8.08200 21.77600 22.77200
C  -9.38900 20.33000 24.12800
N  -4.57400 25.45200 24.53900
C  -5.07000 24.71700 23.56900
C  -4.43000 25.07700 22.20600
C  -3.45900 26.21100 22.59400
C  -3.59900 26.32400 24.12300
C  -3.77900 23.89800 21.47600
C  -3.62500 27.51800 21.78200
C  -2.43000 28.00300 20.92400
N  -3.93100 26.63000 27.10000
C  -3.06000 27.40000 26.26200
C  -2.23600 28.22900 27.02900
C  -2.54700 28.02300 28.33500
C  -3.52400 26.91100 28.39800
C  -1.31600 29.26900 26.45600
C  -2.35100 28.41800 29.75300
O  -1.71300 29.36300 30.31900
C  -3.25800 27.33200 30.56400
C  -2.38800 26.50600 31.53300
O  -1.80700 25.47500 31.20600
O  -2.20600 27.03100 32.82200
C  -1.17400 26.27100 33.56300
H  -7.49900 22.05400 29.12800
H  -6.23900 23.20100 22.79100
H  -2.15500 27.77500 24.28000
H  -4.37300 24.63700 31.81500
H  -6.95500 23.48800 31.39900
H  -4.27500 22.53300 31.72900
H  -4.87900 21.60800 30.39700
H  -5.74800 21.56600 31.97400
H  -7.19700 25.73200 31.68100
H  -6.00300 26.95800 31.33700
H  -7.02400 26.33800 33.71200
H  -5.45700 27.12700 33.59800
H  -9.74000 20.86000 26.95500
H  -8.27400 20.56600 28.08300
H  -8.43500 19.83200 26.54600
H  -9.76500 19.99900 23.16000
H  -10.14700 20.75000 24.78800
H  -9.00400 19.44000 24.62600
H  -5.32500 25.30700 21.62800
H  -2.46100 25.79800 22.44400
H  -3.00500 24.24000 20.78900
H  -4.58300 23.39900 20.93600
H  -3.25700 23.23900 22.17000
H  -3.94700 28.35200 22.40500
H  -4.56800 27.40700 21.24700
H  -2.05900 28.91900 21.38500
H  -2.84100 28.12200 19.92100
H  -1.72100 27.17900 21.00600
H  -1.95500 30.11400 26.20200
H  -0.77100 28.94700 25.56900
H  -0.58100 29.54600 27.21200
H  -4.02000 27.89600 31.10200
H  -0.72100 26.96800 34.26800
H  -0.32700 26.02200 32.92400
H  -1.52900 25.37800 34.07800

