158

Mg 0.66700 42.98200 25.93300
C  2.63100 43.28500 28.62100
C  -1.89000 41.83900 27.82600
C  -1.15700 42.29400 23.05900
C  3.27200 43.84300 23.84000
N  0.43400 42.71100 28.02600
C  1.33100 43.01500 28.96600
C  0.74400 42.79500 30.44600
C  -0.63600 42.18800 30.10600
C  -0.74600 42.30800 28.58000
C  -0.98000 40.82500 30.69500
C  0.69800 44.17800 31.10400
C  0.62400 44.26300 32.63000
H  0.31900 42.86500 33.31900
N  -1.17600 42.05000 25.48900
C  -2.10000 41.71200 26.41000
C  -3.26100 41.27400 25.84700
C  -3.11900 41.46100 24.43400
C  -1.74800 41.92200 24.22500
C  -4.40400 40.85000 26.66800
C  -4.13000 41.22100 23.37900
O  -3.92300 41.31900 22.19900
C  -5.52200 40.71200 23.77400
N  0.90400 43.20000 23.74800
C  0.03500 42.87600 22.72700
C  0.62700 43.11400 21.29500
C  2.00600 43.81300 21.57700
C  2.09300 43.59100 23.17300
C  0.74200 41.76200 20.48900
C  1.97600 45.35800 21.22200
C  3.28300 45.97000 20.74600
N  2.55700 43.59200 26.05200
C  3.51900 43.79300 25.19500
C  4.77700 44.05700 25.89800
C  4.50600 43.84300 27.21400
C  3.09600 43.53100 27.29800
C  6.11200 44.38900 25.23600
C  5.05800 43.88600 28.55200
O  6.21700 44.11900 28.90900
C  3.90500 43.41600 29.51000
C  4.33100 42.14800 30.11800
O  4.89100 41.22400 29.55400
O  3.97800 42.22000 31.38400
C  4.26600 41.04600 32.19000
H  -2.64200 41.52600 28.55300
H  -1.72200 42.13600 22.13800
H  4.05800 44.15700 23.15000
H  1.44200 42.07300 30.86900
H  -1.39600 42.88300 30.46400
H  -1.82800 40.78100 31.37900
H  -0.20600 40.37500 31.31600
H  -1.21700 40.02800 29.99000
H  -0.15700 44.74900 30.74300
H  1.58600 44.74200 30.81700
H  -0.26300 44.86400 32.83200
H  1.47900 44.79400 33.04900
H  -5.27800 41.50000 26.69000
H  -4.19100 40.61800 27.71100
H  -4.62900 39.85800 26.27700
H  -5.53800 39.85100 24.44300
H  -6.14600 40.45800 22.91700
H  -6.10300 41.53300 24.19500
H  -0.03500 43.76400 20.72200
H  2.88300 43.39800 21.08000
H  1.77400 41.41300 20.52400
H  0.28300 41.87400 19.50600
H  0.24600 40.89700 20.93000
H  1.59200 45.91300 22.07900
H  1.20400 45.57200 20.48300
H  3.62000 46.82300 21.33600
H  3.14700 46.35700 19.73600
H  3.99100 45.17000 20.96300
H  6.16900 45.47600 25.16900
H  6.18400 43.98100 24.22800
H  6.92600 43.93000 25.79700
H  3.79000 44.10600 30.34600
H  5.24300 40.95600 32.66500
H  4.13100 40.08100 31.70100
H  3.51300 41.21300 32.96100
Mg -11.45400 15.99900 41.67600
C  -8.51800 13.96100 41.12500
C  -9.97400 18.46400 40.11400
C  -14.40400 17.35100 41.75500
C  -12.99700 12.84200 42.77600
N  -9.52300 16.10700 40.69800
C  -8.46600 15.25400 40.61300
C  -7.23000 15.93900 39.90100
C  -7.73300 17.42800 39.76500
C  -9.19200 17.31500 40.18500
C  -6.93400 18.53000 40.42100
C  -6.75800 15.20700 38.62500
C  -5.24100 15.05900 38.47200
H  -4.64800 15.60900 37.15400
N  -12.14700 17.63500 40.97300
C  -11.35800 18.64800 40.46600
C  -12.10700 19.81700 40.30800
C  -13.42900 19.61900 40.80200
C  -13.39400 18.14700 41.17200
C  -11.46900 21.18800 39.86000
C  -14.55700 20.63600 40.91700
O  -14.40300 21.76600 40.46900
C  -15.91100 20.28800 41.59700
N  -13.53000 15.03200 41.77600
C  -14.50900 16.02000 42.06200
C  -15.85800 15.28900 42.21500
C  -15.40400 13.87000 42.68900
C  -13.90500 13.92900 42.43600
C  -16.83600 15.94700 43.32000
C  -15.97300 12.68700 41.86400
C  -16.62800 11.54200 42.70800
N  -10.84200 13.84400 42.12800
C  -11.59100 12.75200 42.60100
C  -10.68100 11.65200 42.78800
C  -9.47600 12.08700 42.31700
C  -9.59800 13.38200 41.80800
C  -10.99500 10.28100 43.38800
C  -8.08700 11.69500 42.15700
O  -7.47000 10.70400 42.52600
C  -7.39200 12.87500 41.26700
C  -6.33200 13.45800 42.08100
O  -6.44400 13.78900 43.25400
O  -5.12800 13.39500 41.40800
C  -3.89600 13.86600 41.91100
H  -9.48200 19.33200 39.67000
H  -15.36500 17.86000 41.85000
H  -13.44200 11.95200 43.22500
H  -6.43000 16.05500 40.63200
H  -7.64500 17.78000 38.73700
H  -6.76300 19.28600 39.65400
H  -6.07100 18.14900 40.96600
H  -7.45800 19.11900 41.17500
H  -7.06300 15.79200 37.75700
H  -7.13200 14.18400 38.58900
H  -4.92500 14.02100 38.57000
H  -4.79000 15.60300 39.30200
H  -11.10900 21.75600 40.71700
H  -12.14600 21.77200 39.23600
H  -10.60300 20.92600 39.25100
H  -16.37000 21.27100 41.69700
H  -15.66900 19.82000 42.55100
H  -16.60100 19.68400 41.00800
H  -16.34800 15.21900 41.24300
H  -15.50200 13.76800 43.77000
H  -16.57400 16.99200 43.48600
H  -16.89100 15.45400 44.29100
H  -17.83100 15.98400 42.87600
H  -15.16700 12.25000 41.27300
H  -16.74600 13.03500 41.17900
H  -16.38000 10.58700 42.24400
H  -17.70400 11.71500 42.70200
H  -16.26500 11.54700 43.73500
H  -10.08300 9.69800 43.51600
H  -11.65800 9.70700 42.74100
H  -11.51500 10.36700 44.34200
H  -7.02600 12.53500 40.29800
H  -3.27800 14.21800 41.08500
H  -3.35600 12.97100 42.22000
H  -3.93500 14.50900 42.79100

