158

Mg 1.42800 -0.79400 43.78000
C  4.68900 0.09500 43.16300
C  0.35000 1.92400 41.96100
C  -1.81500 -2.16700 43.41000
C  2.57700 -3.95400 44.88500
N  2.42300 0.69200 42.58500
C  3.76600 0.98200 42.58200
C  4.02800 2.35100 41.90000
C  2.63700 3.04900 41.85000
C  1.70500 1.81600 42.21900
C  2.47500 4.38900 42.67700
C  4.73900 2.19300 40.44300
C  5.97200 3.06200 40.25300
H  5.88900 3.97500 39.11300
N  -0.53500 -0.17200 42.87400
C  -0.70700 1.01600 42.23400
C  -2.14100 1.15100 41.85000
C  -2.82300 0.00300 42.41300
C  -1.77300 -0.85700 42.99400
C  -2.73400 2.45300 41.22500
C  -4.33200 -0.26600 42.34400
O  -5.06800 0.56800 41.84600
C  -4.93500 -1.28300 43.34300
N  0.54200 -2.80300 44.17800
C  -0.77900 -3.03600 43.95000
C  -1.17800 -4.44500 44.37600
C  0.22400 -5.01300 44.82000
C  1.20100 -3.92700 44.61400
C  -2.20000 -4.61000 45.46400
C  0.70300 -6.39300 44.27400
C  0.82700 -7.55400 45.27700
N  3.24900 -1.68600 44.16400
C  3.51700 -2.96100 44.56800
C  4.94700 -3.14200 44.62600
C  5.49200 -1.91400 44.06600
C  4.39100 -1.08900 43.77900
C  5.72300 -4.28900 45.12300
C  6.74900 -1.14700 43.82500
O  7.93200 -1.34800 44.12200
C  6.19200 0.25000 43.24600
C  6.61800 1.37300 44.05600
O  5.90400 1.98200 44.82700
O  7.94800 1.66200 43.76700
C  8.59300 2.90000 44.22000
H  0.02000 2.90400 41.61000
H  -2.74400 -2.72100 43.56100
H  3.05200 -4.85100 45.28700
H  4.66400 2.95600 42.54700
H  2.36500 3.20800 40.80700
H  2.07300 5.11400 41.97000
H  3.34700 4.83100 43.16000
H  1.66300 4.31100 43.40000
H  4.03300 2.51700 39.67900
H  4.92800 1.12200 40.37000
H  6.81000 2.39500 40.05200
H  6.09500 3.62700 41.17800
H  -3.61900 2.64300 41.83300
H  -2.96200 2.27400 40.17400
H  -2.04600 3.28900 41.34800
H  -5.95300 -0.90000 43.40800
H  -4.37000 -1.28500 44.27500
H  -4.97600 -2.27000 42.88200
H  -1.57500 -5.05400 43.56400
H  0.20800 -5.01200 45.91000
H  -2.17000 -3.67900 46.02900
H  -1.96100 -5.34500 46.23300
H  -3.19000 -4.76900 45.03700
H  1.68200 -6.29600 43.80500
H  0.03600 -6.68300 43.46200
H  1.70100 -8.15700 45.03200
H  -0.04500 -8.20800 45.26200
H  1.08600 -7.15500 46.25700
H  5.27600 -4.71100 46.02300
H  6.75600 -4.08000 45.39900
H  5.66600 -5.03700 44.33100
H  6.83500 0.19800 42.36700
H  8.14800 3.29900 45.13200
H  8.42100 3.68000 43.47800
H  9.65700 2.81400 44.43800
Mg -9.83700 39.77500 39.60400
C  -9.21300 36.30000 38.94000
C  -6.73000 40.53500 38.55700
C  -10.99800 42.96900 39.24900
C  -13.37300 38.72000 39.98300
N  -8.13400 38.48400 38.68900
C  -8.01900 37.13000 38.63800
C  -6.53800 36.74100 38.36900
C  -5.84000 38.13200 38.56700
C  -6.96900 39.12200 38.69200
C  -4.80200 38.22000 39.65900
C  -6.37300 36.01900 37.00000
C  -6.82700 36.76000 35.76200
H  -8.09300 36.29700 35.01900
N  -8.99800 41.48700 39.04700
C  -7.63300 41.60700 38.66400
C  -7.29600 43.00000 38.64900
C  -8.49200 43.73300 38.83600
C  -9.57400 42.74200 39.05700
C  -5.80600 43.48800 38.59400
C  -8.51400 45.25200 38.73900
O  -7.49500 45.90600 38.48600
C  -9.74200 46.00300 39.04200
N  -11.89600 40.67500 39.64700
C  -12.01400 42.00000 39.57300
C  -13.52200 42.36800 39.67000
C  -14.19400 41.08200 40.16600
C  -13.09000 40.08800 39.91400
C  -13.75800 43.63700 40.59700
C  -15.63400 40.84500 39.52700
C  -16.70700 40.59100 40.66100
N  -11.02900 37.96600 39.60900
C  -12.40600 37.73900 39.72400
C  -12.70800 36.37500 39.43000
C  -11.48700 35.77600 39.26300
C  -10.48600 36.79500 39.37700
C  -14.06500 35.78100 39.46100
C  -10.89100 34.46800 39.09500
O  -11.35200 33.36000 38.91100
C  -9.37500 34.80300 38.84100
C  -8.55000 33.99800 39.79900
O  -8.86100 33.77400 40.99200
O  -7.33200 33.61500 39.19700
C  -6.35100 32.92800 40.00500
H  -5.71300 40.89400 38.38800
H  -11.28400 44.02300 39.24000
H  -14.42600 38.49400 40.16500
H  -6.29900 36.06700 39.19300
H  -5.34800 38.38900 37.62900
H  -3.83300 38.10600 39.17300
H  -4.85300 37.40300 40.37800
H  -4.91200 39.16800 40.18600
H  -6.87500 35.05200 36.97600
H  -5.34100 35.77500 36.74900
H  -6.01400 36.59800 35.05500
H  -7.01200 37.78500 36.08200
H  -5.55600 44.09500 37.72400
H  -5.03700 42.73300 38.75400
H  -5.74600 44.19700 39.42000
H  -10.07500 45.85800 40.07000
H  -10.52300 45.63000 38.37900
H  -9.66300 47.07300 38.84600
H  -13.69700 42.42900 38.59600
H  -14.33700 41.25100 41.23300
H  -12.93100 43.77500 41.29400
H  -14.63300 43.46500 41.22400
H  -13.89700 44.62200 40.15100
H  -15.76600 39.89400 39.01100
H  -15.99900 41.52100 38.75500
H  -17.16100 39.60400 40.56900
H  -17.53000 41.30400 40.69700
H  -16.25100 40.68000 41.64700
H  -13.91900 34.70100 39.41600
H  -14.59900 35.99600 38.53600
H  -14.56200 36.08500 40.38200
H  -9.29300 34.49500 37.79800
H  -5.46600 32.90200 39.37000
H  -6.77500 31.93900 40.18100
H  -6.13500 33.49500 40.91000

