158

Mg 44.24500 4.43000 46.87500
C  42.51200 7.55800 46.63200
C  41.38400 2.83100 45.89100
C  46.15800 1.77900 46.14700
C  47.30800 6.31500 47.07400
N  42.19100 5.13400 46.17300
C  41.71600 6.43700 46.24000
C  40.19400 6.45200 45.89000
C  39.79400 4.94800 45.74700
C  41.17900 4.22900 46.00000
C  38.59400 4.43600 46.64900
C  39.71700 7.51700 44.78800
C  40.68800 7.60700 43.53800
H  39.98800 7.85900 42.19700
N  43.85200 2.52400 46.26200
C  42.56900 2.09600 45.87800
C  42.70700 0.70200 45.60200
C  44.05100 0.43800 45.42500
C  44.81000 1.62500 45.94800
C  41.59100 -0.21500 45.41300
C  44.57600 -0.82400 44.86300
O  43.80000 -1.76200 44.56600
C  46.04100 -1.18700 44.77600
N  46.37700 4.10500 46.74600
C  46.88900 2.86300 46.66200
C  48.45300 2.83900 46.76100
C  48.77600 4.35300 46.87500
C  47.39500 5.01500 46.89100
C  49.03500 2.00400 47.92900
C  49.70200 4.91900 45.75800
C  50.95900 5.52600 46.29100
N  44.81300 6.48100 46.87900
C  46.11300 7.09700 47.01000
C  45.95200 8.55800 47.06300
C  44.52700 8.75400 47.02900
C  43.92400 7.50300 46.89000
C  47.06500 9.50800 47.05200
C  43.53500 9.79300 46.96400
O  43.70900 11.01100 47.09700
C  42.13300 9.09500 46.86300
C  41.35900 9.19500 48.12700
O  41.54200 8.57200 49.14300
O  40.47200 10.16000 47.94900
C  39.57900 10.36300 49.07100
H  40.47800 2.38800 45.47400
H  46.84100 0.97300 45.86800
H  48.24100 6.87100 47.19600
H  39.81800 6.75700 46.86600
H  39.57100 4.73400 44.70200
H  39.01400 3.70800 47.34300
H  37.85200 4.04500 45.95300
H  38.14200 5.24500 47.22200
H  39.36400 8.43900 45.24900
H  38.75700 7.18300 44.39700
H  41.21700 6.65400 43.54500
H  41.38300 8.42200 43.74300
H  41.50100 -0.54300 44.37800
H  40.67800 0.32600 45.66300
H  41.59800 -1.09000 46.06300
H  46.24300 -2.21200 44.46700
H  46.30600 -1.05800 45.82500
H  46.42500 -0.45500 44.06500
H  48.89800 2.46400 45.84000
H  49.21800 4.36200 47.87100
H  49.93000 1.49800 47.56800
H  48.18200 1.41500 48.26700
H  49.29600 2.62000 48.79000
H  49.14600 5.71700 45.26600
H  49.90200 4.07500 45.09900
H  50.78500 5.99800 47.25900
H  51.19100 6.27200 45.53200
H  51.77600 4.80600 46.34400
H  46.71900 10.44100 46.60900
H  48.05700 9.28500 46.66000
H  47.25200 9.78300 48.09000
H  41.47300 9.50700 46.10000
H  40.14300 10.65700 49.95600
H  38.86400 9.54200 49.13500
H  39.01000 11.24500 48.77500
Mg 50.31900 46.46900 42.46800
C  47.40800 48.00300 41.17100
C  49.47500 43.63000 40.64700
C  53.50200 45.27900 42.80400
C  51.45300 49.63900 43.39000
N  48.77200 45.92200 40.84100
C  47.60900 46.66500 40.68700
C  46.57800 45.83500 39.86700
C  47.22700 44.43100 39.75800
C  48.59900 44.63900 40.43400
C  46.25100 43.30000 40.26700
C  46.38100 46.50400 38.46500
C  44.91100 46.60400 37.92900
H  44.49200 45.58700 36.92800
N  51.23800 44.58900 42.13500
C  50.70000 43.55300 41.38400
C  51.54900 42.43100 41.44700
C  52.72400 42.84400 42.10500
C  52.53600 44.28700 42.41700
C  51.12400 40.93800 41.01300
C  53.88300 41.84900 42.40800
O  53.84100 40.68000 42.00700
C  55.21300 42.25500 43.23800
N  52.27000 47.40200 42.72000
C  53.39600 46.67500 42.98400
C  54.60000 47.57900 43.45200
C  53.86300 48.93200 43.65800
C  52.43200 48.69100 43.19600
C  55.57300 47.15400 44.54200
C  54.57300 50.14500 42.94900
C  54.11600 50.64300 41.51600
N  49.56200 48.38600 42.46500
C  50.10100 49.50700 43.01500
C  49.13100 50.57300 42.93500
C  48.06400 50.01100 42.31200
C  48.41700 48.68700 41.89600
C  49.21200 52.03500 43.33000
C  46.70400 50.29000 41.83900
O  46.02800 51.27200 41.98100
C  46.25900 48.99200 41.02500
C  44.97200 48.52200 41.57200
O  44.69900 48.22600 42.74900
O  44.09300 48.34300 40.47400
C  42.86600 47.57400 40.82700
H  49.19700 42.69700 40.15300
H  54.47700 44.79400 42.88100
H  51.85500 50.51700 43.89900
H  45.69200 45.96000 40.48900
H  47.37800 44.06100 38.74500
H  45.30000 43.66900 40.65100
H  46.70800 42.65300 41.01600
H  45.99900 42.60000 39.47000
H  46.92400 45.97000 37.68500
H  46.85600 47.48400 38.44100
H  44.64100 47.65500 37.82500
H  44.30300 46.37000 38.80300
H  51.81100 40.69600 40.20200
H  50.09700 40.90300 40.65000
H  51.18200 40.30700 41.90000
H  54.97200 42.73600 44.18600
H  55.85900 42.89800 42.64000
H  55.88200 41.42800 43.47700
H  55.18000 47.68700 42.53500
H  53.89800 49.14500 44.72600
H  56.56400 47.06600 44.09700
H  55.33600 46.15400 44.90600
H  55.61100 47.96200 45.27300
H  55.64900 49.98300 43.01500
H  54.39100 50.97900 43.62700
H  54.89000 51.23400 41.02600
H  53.25700 51.31000 41.58900
H  53.86000 49.85000 40.81400
H  49.34700 52.56400 42.38700
H  50.11100 52.23000 43.91400
H  48.30400 52.17300 43.91800
H  46.01700 49.21300 39.98600
H  42.05700 47.60000 40.09700
H  42.34000 47.97600 41.69300
H  43.10600 46.53600 41.05900

