158

Mg -2.42900 17.02000 26.14100
C  -2.84200 14.72900 28.74100
C  -2.94700 19.61800 28.31400
C  -2.23000 19.15900 23.53200
C  -2.55300 14.37900 23.80600
N  -2.69400 17.12100 28.31900
C  -2.79400 16.07900 29.19600
C  -2.78500 16.56900 30.69900
C  -2.90400 18.16000 30.49900
C  -2.92600 18.34300 28.95500
C  -4.13400 18.82200 31.12200
C  -1.46700 16.13000 31.48500
C  -0.99400 16.81500 32.77200
H  -0.53200 15.96100 33.97200
N  -2.63100 19.04800 25.98600
C  -2.73600 19.99200 27.00700
C  -2.78200 21.33800 26.47400
C  -2.57200 21.13100 25.13300
C  -2.39400 19.73300 24.80100
C  -3.03800 22.63500 27.24000
C  -2.44500 22.17400 24.02200
O  -2.31700 22.02100 22.79200
C  -2.43700 23.57800 24.43300
N  -2.36800 16.76400 23.97400
C  -2.32900 17.82500 23.11600
C  -2.28300 17.37600 21.66400
C  -2.67100 15.86500 21.78400
C  -2.46000 15.66700 23.27100
C  -3.15500 18.05900 20.67800
C  -2.04500 14.87900 20.72300
C  -2.96500 14.26100 19.65800
N  -2.58100 14.99300 26.18800
C  -2.59300 13.99100 25.17700
C  -2.93600 12.69200 25.72500
C  -3.00300 12.89200 27.14500
C  -2.78200 14.29400 27.35100
C  -3.19100 11.49100 24.95600
C  -3.25900 12.28500 28.39800
O  -3.57700 11.14300 28.64400
C  -3.07600 13.42300 29.44500
C  -1.93600 13.09000 30.26300
O  -0.75400 13.36600 29.95300
O  -2.32900 12.46500 31.38800
C  -1.27300 12.08500 32.35700
H  -3.03200 20.38100 29.09100
H  -2.17000 19.76700 22.62800
H  -2.86100 13.59800 23.10700
H  -3.62800 16.13700 31.24000
H  -1.99900 18.60900 30.90900
H  -5.05300 18.82800 30.53700
H  -3.85100 19.82700 31.43500
H  -4.42200 18.39800 32.08400
H  -0.59400 16.19000 30.83500
H  -1.53300 15.08200 31.77600
H  -1.84600 17.42400 33.07500
H  -0.21200 17.45700 32.36800
H  -3.28400 22.39300 28.27400
H  -3.85900 23.20500 26.80400
H  -2.11700 23.21700 27.26200
H  -3.46100 23.75500 24.76100
H  -2.15500 24.25700 23.62800
H  -1.81300 23.79700 25.29900
H  -1.29100 17.44600 21.21700
H  -3.75000 15.83100 21.63300
H  -3.56900 17.41000 19.90600
H  -2.65800 18.82500 20.08300
H  -3.96500 18.55200 21.21700
H  -1.49300 14.02100 21.10800
H  -1.33900 15.47900 20.14800
H  -3.98100 14.58200 19.89000
H  -2.77400 13.18800 19.63700
H  -2.84900 14.73100 18.68100
H  -3.81300 10.75300 25.46400
H  -2.20100 11.08500 24.74800
H  -3.73100 11.80700 24.06300
H  -3.93400 13.47000 30.11400
H  -1.21500 10.99900 32.42900
H  -1.52300 12.63900 33.26200
H  -0.29400 12.49800 32.11300
Mg 1.18400 41.91900 26.21200
C  3.21000 42.54500 28.98900
C  -1.26700 40.81400 28.54200
C  -0.59200 40.93300 23.69100
C  3.90400 42.61000 24.11700
N  1.09100 41.69300 28.52000
C  1.98300 42.10900 29.42100
C  1.39600 42.08300 30.89500
C  0.01500 41.41500 30.63500
C  -0.06600 41.28700 29.14400
C  -0.24900 40.07400 31.38800
C  1.17200 43.65700 31.25400
C  1.27800 44.03800 32.78400
H  1.19400 42.83600 33.70600
N  -0.70700 41.00700 26.09900
C  -1.54000 40.63800 27.17400
C  -2.73500 40.04000 26.64800
C  -2.53400 39.97400 25.24000
C  -1.27300 40.71200 24.91300
C  -3.79700 39.45400 27.59200
C  -3.32900 39.16200 24.21100
O  -3.06900 39.18200 23.00200
C  -4.49200 38.40100 24.64100
N  1.57300 41.89200 24.19800
C  0.60600 41.46500 23.32800
C  1.01800 41.59700 21.81100
C  2.34000 42.49100 22.07800
C  2.70100 42.35300 23.50100
C  1.31600 40.27900 21.00500
C  2.24300 43.97300 21.68500
C  3.37900 44.67100 20.91400
N  3.15800 42.42200 26.42700
C  4.14400 42.62500 25.49100
C  5.35400 42.94000 26.15700
C  5.07900 42.89200 27.53800
C  3.70500 42.55100 27.66900
C  6.54900 43.56600 25.50700
C  5.61300 43.02300 28.85400
O  6.79500 43.21800 29.19500
C  4.48700 42.73500 29.83100
C  4.88100 41.61300 30.69700
O  4.71800 40.44700 30.36300
O  5.34400 42.07400 31.88500
C  5.84100 41.07100 32.80100
H  -2.08700 40.69400 29.25200
H  -1.09700 40.52700 22.81300
H  4.66200 42.84700 23.36800
H  2.11000 41.55100 31.52400
H  -0.82400 42.09300 30.79100
H  0.56200 39.89600 32.09300
H  -0.36300 39.32500 30.60300
H  -1.17600 40.32500 31.90300
H  0.17200 44.00200 30.99300
H  1.92900 44.29900 30.80200
H  0.43500 44.70400 32.96600
H  2.22200 44.53700 33.00000
H  -4.81300 39.60100 27.22300
H  -3.90500 39.90600 28.57800
H  -3.59400 38.39200 27.72700
H  -4.92400 37.81000 23.83300
H  -5.21700 39.10800 25.04200
H  -4.18600 37.63800 25.35700
H  0.15400 42.02900 21.30600
H  3.17500 42.09800 21.49900
H  0.69700 39.54200 21.51700
H  2.34800 39.93300 21.07300
H  1.13300 40.55000 19.96500
H  2.10000 44.62000 22.55100
H  1.37800 44.11500 21.03700
H  2.98200 44.89600 19.92400
H  4.28800 44.06900 20.89000
H  3.69800 45.56700 21.44600
H  6.94000 44.13500 26.35100
H  6.20900 44.30800 24.78400
H  7.27200 42.85700 25.10600
H  4.38600 43.63600 30.43700
H  6.92000 41.11000 32.94500
H  5.56100 40.06200 32.49900
H  5.45700 41.24200 33.80600

