158

Mg 0.37400 8.03800 26.66400
C  1.36000 9.82200 29.49900
C  0.75800 5.11000 28.45700
C  0.46900 6.30900 23.74000
C  0.71900 10.99900 24.84100
N  1.05300 7.59300 28.80000
C  1.19000 8.41700 29.81300
C  1.10900 7.69200 31.21600
C  1.22400 6.23500 30.74800
C  0.85600 6.29200 29.23700
C  2.50300 5.43900 30.98700
C  -0.22400 7.90300 32.00900
C  -0.19300 8.35500 33.45800
H  0.95000 7.90300 34.33800
N  0.41100 5.93900 26.20600
C  0.48700 4.89600 27.08700
C  0.40900 3.67700 26.35800
C  0.30000 4.02300 24.98900
C  0.34500 5.50600 24.92600
C  0.47500 2.28900 26.97800
C  -0.14300 3.07100 23.82900
O  -0.38600 3.54000 22.76200
C  -0.32900 1.54000 23.96800
N  0.40900 8.59900 24.60900
C  0.41400 7.67600 23.53400
C  0.50400 8.36300 22.25700
C  0.03700 9.76800 22.65000
C  0.38600 9.84500 24.14800
C  1.89600 8.31200 21.67700
C  -1.54300 9.92100 22.41500
C  -1.94100 10.41400 21.05100
N  0.87200 10.00200 27.02900
C  1.02400 11.08700 26.18800
C  1.30900 12.24600 26.93200
C  1.50300 11.75000 28.23700
C  1.13500 10.42800 28.23900
C  1.54200 13.71400 26.43600
C  1.96500 12.15200 29.57200
O  2.44300 13.20400 30.01100
C  1.65600 10.87600 30.51800
C  2.78800 10.57300 31.26400
O  3.90900 10.18100 30.90200
O  2.51400 11.08200 32.54900
C  3.72100 11.44100 33.33000
H  0.91400 4.21100 29.05700
H  0.60500 5.72700 22.82600
H  0.86400 11.80100 24.11400
H  1.93200 8.03100 31.84400
H  0.46400 5.72400 31.34000
H  3.22500 5.46700 30.17100
H  2.19300 4.47400 31.38800
H  2.95800 5.91900 31.85400
H  -0.86400 7.02500 32.09000
H  -0.78000 8.59900 31.38000
H  -1.09600 8.18100 34.04400
H  -0.18400 9.44400 33.50400
H  0.91600 2.39700 27.96800
H  0.98000 1.52100 26.39300
H  -0.53300 1.93500 27.19600
H  -0.86800 1.29500 23.05300
H  -0.89200 1.18700 24.83300
H  0.65900 1.10400 23.82300
H  -0.22900 7.88800 21.60500
H  0.50000 10.62200 22.15500
H  2.12200 9.32200 21.33400
H  1.95800 7.71800 20.76600
H  2.57800 8.00900 22.47100
H  -1.93300 10.67100 23.10300
H  -2.14700 9.04600 22.65500
H  -1.06600 10.47500 20.40300
H  -2.47700 11.36300 21.08800
H  -2.59600 9.62200 20.69000
H  1.82800 13.74900 25.38500
H  2.25900 14.25700 27.05200
H  0.56400 14.17600 26.57400
H  0.73400 11.08000 31.06300
H  4.28900 12.21400 32.81000
H  4.52800 10.73100 33.51400
H  3.46500 11.92500 34.27200
Mg 6.74100 55.20000 40.71300
C  5.64800 51.92600 41.18800
C  9.69400 54.02500 39.53600
C  7.14300 58.10500 39.16100
C  3.24000 56.08200 41.25500
N  7.52400 53.22100 40.24400
C  6.84500 52.03600 40.55100
C  7.77700 50.81500 40.06900
C  9.17200 51.49900 39.98400
C  8.77800 53.01500 39.90200
C  10.14500 51.20600 41.22000
C  7.26800 50.04900 38.76400
C  6.33400 50.70700 37.78000
H  6.98600 51.37900 36.52600
N  8.31800 56.06300 39.65800
C  9.49800 55.39600 39.46200
C  10.42800 56.42800 39.15000
C  9.68200 57.59200 38.79900
C  8.29100 57.32500 39.17900
C  11.92800 56.08600 38.85100
C  10.20200 58.84000 38.21400
O  11.39500 58.88100 37.98100
C  9.32200 60.01700 37.88200
N  5.38200 56.81500 40.15200
C  5.82800 57.89900 39.53800
C  4.84800 59.09500 39.58500
C  3.66100 58.43300 40.34700
C  4.14900 57.05700 40.67800
C  5.46300 60.34700 40.23200
C  2.29200 58.33200 39.55500
C  1.11800 58.97400 40.29800
N  4.83400 54.26200 41.42500
C  3.58300 54.76000 41.58400
C  2.64700 53.75700 42.01300
C  3.44300 52.63700 41.92000
C  4.76400 52.98200 41.59400
C  1.07300 53.91300 42.19600
C  3.44300 51.23600 42.12300
O  2.59900 50.49400 42.56100
C  4.94300 50.71100 41.72200
C  4.77500 49.61600 40.78000
O  4.21800 49.77100 39.72700
O  5.27500 48.36500 41.27000
C  4.89000 47.16700 40.42300
H  10.72900 53.80000 39.27300
H  7.32400 59.10200 38.75400
H  2.20800 56.34000 41.50200
H  7.66200 50.04200 40.82800
H  9.63800 51.36500 39.00800
H  9.60800 51.08500 42.16000
H  10.61600 52.17800 41.36400
H  10.94400 50.49400 41.01300
H  6.79300 49.12000 39.08100
H  8.17300 49.87800 38.18000
H  5.87400 51.58500 38.23400
H  5.44400 50.12800 37.53100
H  11.93700 55.80300 37.79900
H  12.37500 55.30600 39.46800
H  12.50400 56.99800 39.00900
H  9.89900 60.92700 37.71500
H  8.78800 60.40300 38.75000
H  8.43000 59.88000 37.27000
H  4.67400 59.40200 38.55300
H  3.36800 58.94000 41.26700
H  5.76900 61.01100 39.42300
H  6.25900 60.14900 40.95000
H  4.68600 60.93000 40.72700
H  2.09200 57.27000 39.41300
H  2.32600 58.86100 38.60300
H  0.47700 59.28100 39.47200
H  1.41200 59.87700 40.83400
H  0.53700 58.24100 40.85900
H  0.57600 52.94900 42.30600
H  0.58600 54.53900 41.44900
H  0.88500 54.44100 43.13100
H  5.51300 50.39300 42.59500
H  4.66300 47.41600 39.38600
H  3.96500 46.68600 40.73900
H  5.67600 46.41400 40.38000

