158

Mg 2.05200 -2.12500 44.81300
C  5.37900 -1.26000 43.93700
C  0.93600 0.60600 42.89600
C  -1.02900 -3.28000 45.22600
C  3.38000 -5.05100 46.11300
N  3.16200 -0.56100 43.47300
C  4.49700 -0.38400 43.32500
C  4.79200 0.86100 42.46200
C  3.32600 1.44900 42.11600
C  2.37500 0.42100 42.85900
C  2.99900 2.92300 42.65900
C  5.63300 0.64400 41.20900
C  6.82900 1.62700 40.99100
H  6.78600 2.42100 39.64300
N  0.24600 -1.47400 44.16300
C  -0.02600 -0.36400 43.39700
C  -1.45700 -0.33300 43.07700
C  -2.05700 -1.46400 43.72500
C  -0.91300 -2.18000 44.36500
C  -2.04500 0.85800 42.31900
C  -3.49500 -1.75200 43.73000
O  -4.40400 -1.02000 43.33300
C  -3.99700 -3.02700 44.11500
N  1.28000 -3.99000 45.35500
C  0.00800 -4.07400 45.73700
C  -0.35100 -5.24600 46.69600
C  1.09400 -5.85300 46.82300
C  1.97900 -4.90900 46.02400
C  -1.01500 -5.04200 48.03900
C  1.40300 -7.30800 46.23400
C  1.68500 -8.47800 47.28700
N  3.99600 -3.09100 45.02000
C  4.38500 -4.28600 45.58100
C  5.81800 -4.36300 45.71900
C  6.24500 -3.15200 45.14300
C  5.12900 -2.47400 44.66800
C  6.55900 -5.37500 46.50800
C  7.35800 -2.34500 44.94400
O  8.49200 -2.54900 45.26300
C  6.88100 -1.19700 43.98100
C  7.27000 0.04600 44.64500
O  7.06400 0.41000 45.78300
O  8.20200 0.65900 43.79800
C  8.69600 1.99100 44.21400
H  0.77800 1.48800 42.27200
H  -2.04900 -3.54300 45.51400
H  3.55900 -5.95000 46.70700
H  5.24000 1.57300 43.15500
H  3.09100 1.33500 41.05800
H  3.93300 3.42300 42.91600
H  2.37400 3.06700 43.54000
H  2.37400 3.35400 41.87700
H  5.09600 0.50700 40.27000
H  6.03000 -0.36700 41.30400
H  7.75400 1.05100 40.95400
H  7.01500 2.33200 41.80000
H  -2.88600 0.48200 41.73500
H  -1.47700 1.37500 41.54600
H  -2.37800 1.71200 42.90800
H  -4.17500 -3.16600 45.18100
H  -3.24000 -3.75200 43.81600
H  -4.97300 -3.21800 43.66800
H  -0.92600 -5.95400 46.10000
H  1.48200 -5.74000 47.83500
H  -1.98700 -4.57800 47.86900
H  -0.34800 -4.49900 48.70700
H  -1.14600 -6.01300 48.51800
H  2.22100 -7.24700 45.51600
H  0.61100 -7.70900 45.60000
H  2.63200 -8.97300 47.07200
H  0.78400 -9.08900 47.22100
H  1.71500 -8.03300 48.28100
H  7.54900 -5.04100 46.81800
H  6.69500 -6.23100 45.84700
H  6.13900 -5.82800 47.40600
H  7.36700 -1.37900 43.02300
H  7.79600 2.54100 44.48600
H  9.23800 2.45200 43.38800
H  9.34000 1.91400 45.09000
Mg -2.09000 34.63600 26.06800
C  -3.65900 32.86700 28.60200
C  -0.86000 36.81000 28.43600
C  -0.85200 36.54900 23.57800
C  -3.74000 32.58600 23.74600
N  -2.21400 34.80600 28.25600
C  -2.80700 33.93100 29.09000
C  -2.51100 34.27400 30.54100
C  -1.80100 35.67100 30.43100
C  -1.58300 35.77300 28.90400
C  -2.66700 36.85600 31.02700
C  -1.72500 33.18200 31.37200
C  -2.37100 32.75000 32.74500
H  -1.44100 33.00800 33.99200
N  -0.87300 36.17600 26.02000
C  -0.40000 36.89800 27.10700
C  0.57900 37.88300 26.62200
C  0.64300 37.79000 25.20700
C  -0.39500 36.81700 24.87200
C  1.29900 38.76400 27.64200
C  1.57800 38.38300 24.20700
O  1.57900 38.05900 23.01100
C  2.73500 39.34600 24.56400
N  -2.49200 34.70900 23.94300
C  -1.79900 35.58400 23.16000
C  -1.90700 35.11100 21.68000
C  -2.76900 33.82200 21.74700
C  -3.05300 33.68100 23.19500
C  -2.53500 36.27300 20.84900
C  -2.00700 32.53300 21.20100
C  -1.21400 31.63900 22.07200
N  -3.46500 33.10500 26.06900
C  -4.03100 32.35300 25.06000
C  -4.80400 31.29700 25.60500
C  -4.71500 31.50700 26.95600
C  -3.89800 32.58100 27.22100
C  -5.62700 30.28500 24.77600
C  -5.22900 30.97600 28.20300
O  -6.02300 30.08900 28.48700
C  -4.57600 31.88500 29.32900
C  -5.64000 32.54800 30.14300
O  -6.04700 33.66200 29.87800
O  -5.94900 31.81800 31.27700
C  -6.90600 32.55100 32.18800
H  -0.51600 37.55000 29.16200
H  -0.59900 37.22100 22.75600
H  -4.13900 31.85600 23.03900
H  -3.49500 34.25300 31.00700
H  -0.86100 35.78900 30.96800
H  -3.17500 37.30000 30.17100
H  -1.92100 37.51500 31.47200
H  -3.43200 36.47900 31.70600
H  -0.70900 33.48500 31.62600
H  -1.84600 32.34900 30.67900
H  -2.67100 31.70200 32.75800
H  -3.33600 33.25200 32.81900
H  1.48500 39.77200 27.27000
H  2.26900 38.26900 27.69400
H  0.84900 38.83300 28.63200
H  3.07700 39.90500 23.69300
H  3.57200 38.77700 24.96900
H  2.29700 40.12000 25.19400
H  -0.89200 34.87600 21.36000
H  -3.72500 33.97600 21.24600
H  -2.74400 37.11000 21.51600
H  -3.45500 36.02300 20.32200
H  -1.77300 36.70300 20.19900
H  -1.34200 32.96900 20.45600
H  -2.76400 31.92400 20.70800
H  -1.63600 30.63500 22.03100
H  -1.13500 32.00600 23.09500
H  -0.15500 31.53300 21.83900
H  -5.51200 29.35200 25.32700
H  -5.04600 30.16400 23.86200
H  -6.62300 30.70800 24.64200
H  -4.05100 31.18000 29.97400
H  -6.43900 33.50600 32.42900
H  -7.17600 32.01300 33.09600
H  -7.78800 32.72000 31.57000

