158

Mg 47.02000 16.71300 28.23200
C  45.24000 16.15500 31.19500
C  48.97700 18.94100 29.98200
C  48.69900 17.40200 25.33300
C  44.64400 14.98700 26.44600
N  47.02200 17.48400 30.36900
C  46.32400 17.00300 31.38000
C  46.87600 17.49000 32.75000
C  48.11300 18.42200 32.22900
C  48.00400 18.26700 30.76100
C  48.06100 19.85600 32.67300
C  47.33700 16.38300 33.66000
C  46.97200 16.47000 35.15200
H  47.55300 17.65700 35.94100
N  48.59500 17.97500 27.66100
C  49.24600 18.86900 28.55600
C  50.08100 19.76700 27.84600
C  50.02500 19.30300 26.53700
C  49.14600 18.16200 26.44300
C  50.98400 20.84900 28.46900
C  50.88100 19.83500 25.29100
O  50.68600 19.32900 24.13200
C  51.89600 20.91100 25.40000
N  46.89800 16.04300 26.25500
C  47.74200 16.42500 25.27500
C  47.16700 15.89200 23.94600
C  45.92300 15.05100 24.31500
C  45.77000 15.41000 25.77700
C  46.88200 16.85800 22.76200
C  46.01300 13.53700 24.01600
C  46.22800 12.95300 22.60900
N  45.26900 15.71000 28.64000
C  44.37400 15.08600 27.85900
C  43.23700 14.65600 28.66700
C  43.59800 15.03300 29.97400
C  44.85100 15.67900 29.90600
C  42.04200 13.92100 28.23900
C  43.08900 15.01600 31.32700
O  42.02700 14.56300 31.76200
C  44.16000 15.80600 32.21500
C  43.55200 17.02200 32.91000
O  42.91900 17.85800 32.29300
O  43.73100 16.97600 34.26500
C  43.03400 18.02600 34.98500
H  49.59700 19.63200 30.55700
H  49.10800 17.60200 24.34000
H  43.81200 14.56500 25.87800
H  46.11200 18.18500 33.09900
H  49.08100 18.06400 32.57900
H  48.90100 19.94800 33.36100
H  47.21000 20.00400 33.33700
H  48.13700 20.63400 31.91300
H  48.42100 16.26700 33.65500
H  47.01700 15.43700 33.22300
H  47.02100 15.47000 35.58100
H  45.90900 16.71000 35.17000
H  50.87000 21.70200 27.80000
H  52.01300 20.52000 28.61400
H  50.62000 21.11800 29.46000
H  51.29900 21.80100 25.59800
H  52.55300 20.85000 24.53200
H  52.52700 20.63700 26.24600
H  47.89600 15.14200 23.63900
H  45.01900 15.52900 23.93800
H  47.42400 17.77800 22.97900
H  45.83700 17.09900 22.56400
H  47.34800 16.48000 21.85200
H  45.11300 13.18100 24.51800
H  46.73700 13.10500 24.70700
H  47.06100 12.25500 22.51800
H  46.59800 13.65700 21.86300
H  45.28300 12.53200 22.26700
H  42.26700 13.66300 27.20400
H  41.25000 14.66800 28.18600
H  41.88300 13.07800 28.91100
H  44.54200 15.13400 32.98300
H  43.21600 18.99500 34.52100
H  43.43200 18.04900 35.99900
H  41.96400 17.91700 35.16500
Mg 49.20500 35.39400 27.23200
C  46.98400 34.01100 29.68200
C  49.59300 38.09800 29.35200
C  51.32400 36.51000 25.06800
C  48.06900 32.90000 25.06700
N  48.48500 35.95000 29.31200
C  47.60600 35.18500 30.11400
C  47.60900 35.78800 31.57400
C  48.09900 37.25500 31.27300
C  48.70300 37.13100 29.84400
C  47.03300 38.38800 31.33700
C  48.56600 34.98200 32.47300
C  49.71300 35.70600 33.20100
H  49.23400 36.76100 34.31900
N  50.37700 37.07000 27.20200
C  50.46300 38.08000 28.13900
C  51.42800 39.04800 27.76000
C  51.97300 38.57000 26.49700
C  51.18400 37.35500 26.15600
C  51.68300 40.40500 28.56500
C  53.05500 39.35900 25.61900
O  53.21700 39.04200 24.42500
C  53.82700 40.56400 26.16200
N  49.42900 34.95500 25.19200
C  50.47300 35.52400 24.58700
C  50.83000 34.77700 23.24400
C  49.67000 33.75300 23.14100
C  49.00400 33.84500 24.52600
C  50.86600 35.60300 21.94100
C  50.00500 32.38900 22.61400
C  49.10100 31.68900 21.53400
N  47.87100 33.80000 27.32100
C  47.53200 32.83400 26.40300
C  46.56800 31.92900 26.89000
C  46.29700 32.36600 28.15700
C  47.09300 33.50700 28.39500
C  46.11700 30.69900 26.18400
C  45.59100 32.03100 29.38800
O  44.76700 31.13300 29.50800
C  45.98100 33.02300 30.40900
C  46.48400 32.42400 31.66800
O  47.43800 31.63600 31.83100
O  45.58800 32.70300 32.70500
C  45.87300 32.23800 34.09500
H  49.71500 38.90300 30.07900
H  52.09500 36.67600 24.31300
H  47.83900 32.06600 24.40100
H  46.54300 35.71700 31.79000
H  48.87200 37.62900 31.94400
H  47.42500 39.18300 31.97000
H  46.10700 37.91500 31.66300
H  46.93000 38.83500 30.34800
H  48.81500 34.05000 31.96600
H  47.86700 34.79400 33.28800
H  50.31200 36.15500 32.40900
H  50.33800 34.92700 33.63900
H  52.66400 40.28700 29.02500
H  51.00200 40.44900 29.41500
H  51.57300 41.16800 27.79500
H  53.27600 41.45400 26.46600
H  54.79200 40.65100 25.66100
H  54.12200 40.13400 27.12000
H  51.74500 34.22600 23.46000
H  48.88700 34.24500 22.56300
H  50.23500 36.47800 22.10000
H  50.44200 35.10000 21.07100
H  51.91100 35.90400 21.87900
H  50.16100 31.84400 23.54600
H  50.95500 32.49500 22.09000
H  48.39700 32.49300 21.32100
H  48.65600 30.76600 21.90700
H  49.53700 31.40200 20.57600
H  45.51600 31.05000 25.34500
H  45.51900 30.02900 26.80200
H  46.93800 30.04100 25.90100
H  44.99100 33.45000 30.56400
H  44.95200 32.05300 34.64700
H  46.36300 33.09200 34.56300
H  46.47700 31.33300 34.16100

