158

Mg 1.92400 -3.11600 45.08200
C  5.14900 -2.27700 44.35400
C  0.80400 -0.79800 42.76600
C  -1.18500 -4.64900 45.04200
C  3.20800 -6.28100 46.38300
N  2.89200 -1.81700 43.66100
C  4.20200 -1.46500 43.71000
C  4.60000 -0.45200 42.65000
C  3.21500 0.27800 42.44900
C  2.21900 -0.82000 42.94600
C  3.02800 1.65100 43.20500
C  5.23700 -1.02200 41.31900
C  6.47100 -0.28000 40.74600
H  6.18800 0.60300 39.54900
N  0.04700 -2.67500 44.15300
C  -0.20800 -1.61500 43.31100
C  -1.65200 -1.59000 43.00000
C  -2.22900 -2.61700 43.81600
C  -1.07000 -3.38800 44.32400
C  -2.29200 -0.47200 42.19700
C  -3.70000 -2.87300 43.95100
O  -4.50200 -2.10300 43.52700
C  -4.32800 -4.08300 44.55600
N  1.19300 -5.16800 45.48700
C  -0.15400 -5.40300 45.64300
C  -0.43000 -6.52600 46.53700
C  0.92600 -7.33000 46.63600
C  1.87400 -6.22000 46.13700
C  -1.09400 -5.92200 47.80100
C  0.93600 -8.60300 45.78200
C  1.70000 -9.77800 46.35800
N  3.76900 -4.02100 45.55200
C  4.14400 -5.24700 46.07700
C  5.54800 -5.26000 46.27300
C  5.99400 -4.13000 45.58700
C  4.86000 -3.44600 45.11200
C  6.28000 -6.33800 47.03700
C  7.21300 -3.30800 45.30100
O  8.32500 -3.42200 45.77300
C  6.64400 -2.22500 44.35300
C  7.07000 -0.90500 44.75600
O  6.54300 -0.23600 45.61400
O  8.10900 -0.43900 43.98700
C  8.41400 0.97000 44.25900
H  0.55600 -0.03000 42.03100
H  -2.19300 -4.97500 45.30500
H  3.53200 -7.21400 46.84900
H  5.26500 0.25500 43.14500
H  3.04800 0.49400 41.39400
H  2.67800 2.42200 42.51900
H  3.80800 2.01000 43.87700
H  2.21700 1.49600 43.91600
H  4.44300 -0.90800 40.58100
H  5.50900 -2.06200 41.49800
H  7.32200 -0.94500 40.60100
H  6.68300 0.52900 41.44600
H  -2.26500 -0.90300 41.19600
H  -1.82500 0.51200 42.22200
H  -3.37000 -0.44100 42.35300
H  -3.96800 -4.97200 44.03800
H  -5.37500 -4.11000 44.25600
H  -4.21600 -4.12400 45.64000
H  -1.20700 -7.13000 46.06900
H  1.10800 -7.55300 47.68700
H  -2.10100 -6.29900 47.97700
H  -1.19800 -4.84800 47.95900
H  -0.50100 -6.29800 48.63600
H  1.20400 -8.37500 44.75000
H  -0.10700 -8.88400 45.92900
H  0.96700 -10.36300 46.91400
H  2.45800 -9.44800 47.06700
H  2.26500 -10.45700 45.71900
H  6.70400 -7.18300 46.49500
H  5.63500 -6.70000 47.83600
H  7.11400 -5.85600 47.54800
H  7.01700 -2.30500 43.33200
H  8.80200 0.99200 45.27800
H  7.53400 1.57100 44.02900
H  9.16600 1.24700 43.52000
Mg 41.42900 9.24300 29.57300
C  43.08300 10.37800 32.53700
C  39.00700 8.00600 31.54400
C  40.22200 8.06300 26.88000
C  44.38000 10.42900 27.78700
N  41.08900 9.19500 31.84900
C  41.80300 9.78500 32.85800
C  41.14300 9.53600 34.25300
C  40.03000 8.54200 33.84000
C  40.01500 8.61600 32.35500
C  40.09600 7.05100 34.33900
C  40.76300 10.86400 34.90900
C  40.36700 10.72800 36.41800
H  41.14800 11.58000 37.46900
N  39.77700 8.18600 29.24300
C  38.80600 7.85500 30.14300
C  37.69900 7.26200 29.34800
C  38.09500 7.26900 27.91900
C  39.40100 7.81500 27.96500
C  36.42500 6.87300 29.99400
C  37.18400 6.99600 26.71300
O  37.63100 6.98600 25.54100
C  35.71200 6.66600 26.94600
N  42.21200 9.29500 27.62400
C  41.46400 8.69100 26.69700
C  42.18600 8.69700 25.30200
C  43.53900 9.47700 25.58900
C  43.38100 9.73900 27.12100
C  42.38600 7.27400 24.57600
C  43.50400 10.75700 24.80000
C  42.63400 11.99100 25.31300
N  43.30800 10.35700 29.98200
C  44.40800 10.68600 29.15000
C  45.34300 11.36500 29.98600
C  44.81600 11.24100 31.31700
C  43.61000 10.56800 31.26700
C  46.63300 11.90900 29.63500
C  45.07200 11.74800 32.61000
O  45.91500 12.48600 33.01500
C  44.00000 11.04300 33.53100
C  44.58600 10.03300 34.44800
O  45.14300 8.96800 34.15200
O  44.37100 10.40300 35.73400
C  44.29300 9.39400 36.84600
H  38.22800 7.54600 32.15400
H  39.86700 7.80300 25.88000
H  45.22100 10.83800 27.22400
H  41.98300 9.10500 34.79800
H  39.08200 9.02500 34.07600
H  39.17300 6.82300 34.87100
H  40.92900 6.75900 34.98000
H  40.14100 6.33100 33.52200
H  39.84000 11.22500 34.45400
H  41.48000 11.63200 34.61900
H  40.28600 9.69900 36.76700
H  39.35500 11.12800 36.36300
H  35.59500 7.42700 29.55600
H  36.48200 7.20400 31.03100
H  36.19600 5.80700 29.99600
H  35.53000 5.99900 27.78800
H  35.35400 6.17500 26.04100
H  35.08900 7.51300 27.23200
H  41.44800 9.25900 24.72900
H  44.42200 8.88200 25.35700
H  43.43200 6.97900 24.65800
H  41.97300 7.38300 23.57300
H  41.84500 6.55700 25.19300
H  43.09600 10.55000 23.81100
H  44.50000 11.16500 24.63000
H  42.24600 11.89700 26.32700
H  41.81300 12.24700 24.64300
H  43.31300 12.84400 25.29200
H  46.56500 12.38800 28.65800
H  47.38200 11.12200 29.54700
H  46.78100 12.64400 30.42600
H  43.45500 11.82900 34.05400
H  43.45800 9.55000 37.52900
H  45.16000 9.47400 37.50100
H  44.33800 8.39500 36.41100

