158

Mg 15.89200 -1.73400 28.25200
C  15.03400 0.23000 31.04800
C  17.95300 -3.54800 30.39100
C  17.20900 -3.26800 25.66200
C  14.19100 0.47100 26.24600
N  16.40000 -1.66500 30.46900
C  15.80500 -0.82300 31.39400
C  16.35100 -1.09100 32.81400
C  17.42300 -2.23800 32.49900
C  17.22900 -2.52200 31.03000
C  18.88300 -2.08500 33.03100
C  15.21300 -1.50800 33.71100
C  15.10500 -1.03800 35.15900
H  16.46200 -0.72700 35.77400
N  17.29600 -3.27700 28.03900
C  17.99200 -3.93200 29.03000
C  18.76300 -4.99500 28.41000
C  18.65500 -4.88000 27.00600
C  17.71600 -3.75500 26.82300
C  19.60700 -6.03700 29.22100
C  19.25500 -5.66400 25.87300
O  19.04600 -5.47600 24.66900
C  20.28100 -6.81300 26.13500
N  15.73600 -1.39300 26.20600
C  16.31300 -2.20400 25.29700
C  15.98400 -1.82800 23.81000
C  14.77800 -0.86300 24.05100
C  14.89100 -0.56300 25.58400
C  17.12000 -1.34900 22.84500
C  13.38900 -1.53600 23.74300
C  12.55900 -0.92400 22.54700
N  14.94800 0.02800 28.52300
C  14.20000 0.76300 27.62200
C  13.64800 1.90300 28.27000
C  13.90500 1.70800 29.61800
C  14.74200 0.54400 29.75900
C  12.85400 2.98700 27.65000
C  13.76400 2.31500 30.96600
O  13.15500 3.34100 31.29700
C  14.52800 1.40500 31.95400
C  15.51300 2.19600 32.61100
O  16.64600 2.31700 32.34400
O  14.87400 2.85100 33.68500
C  15.68000 3.88500 34.38700
H  18.48500 -4.20000 31.08700
H  17.51400 -3.75600 24.73400
H  13.76200 1.17900 25.53400
H  16.82200 -0.21000 33.25000
H  17.17600 -3.14900 33.04400
H  19.59900 -1.96400 32.21900
H  19.03400 -2.90600 33.73400
H  18.84900 -1.24100 33.72000
H  15.24000 -2.59700 33.72200
H  14.24200 -1.29600 33.26200
H  14.63800 -1.73100 35.85800
H  14.55900 -0.09600 35.12200
H  19.50800 -5.89800 30.29700
H  20.60800 -5.80800 28.85500
H  19.45000 -7.10800 29.09500
H  21.11800 -6.33000 26.63900
H  20.59800 -7.19500 25.16500
H  19.81700 -7.63900 26.67500
H  15.55600 -2.71500 23.34300
H  14.79600 0.00000 23.38700
H  17.11800 -0.28600 22.60200
H  17.06100 -1.94900 21.93700
H  18.07800 -1.54400 23.32700
H  12.73500 -1.48000 24.61300
H  13.55600 -2.59300 23.53600
H  11.78900 -0.23800 22.90000
H  12.17400 -1.68000 21.86400
H  13.25500 -0.39300 21.89800
H  13.31500 3.49900 26.80600
H  12.75200 3.82300 28.34200
H  11.90500 2.56900 27.31700
H  13.89400 0.94200 32.71100
H  15.11000 4.74100 34.74900
H  16.59400 4.24800 33.91700
H  16.01200 3.32100 35.25800
Mg -5.41400 25.91300 26.04900
C  -4.06400 27.05200 29.06200
C  -7.44100 23.64300 27.93200
C  -6.32700 24.45400 23.27400
C  -2.87800 27.73600 24.40500
N  -5.69600 25.46400 28.16100
C  -5.05400 26.04800 29.19100
C  -5.53600 25.54600 30.58000
C  -6.42800 24.31300 30.18500
C  -6.60500 24.51800 28.66200
C  -5.75800 22.96200 30.65500
C  -6.34400 26.65400 31.24400
C  -6.71500 26.51900 32.75800
H  -6.12100 25.34800 33.62400
N  -6.85000 24.37000 25.65100
C  -7.62600 23.62500 26.50600
C  -8.48500 22.74200 25.71300
C  -8.16700 22.93600 24.29800
C  -7.06200 23.89200 24.35400
C  -9.51600 21.84600 26.29200
C  -8.84000 22.32600 23.13300
O  -8.41700 22.44200 21.98700
C  -10.00700 21.42400 23.23200
N  -4.86900 26.12500 24.17300
C  -5.37400 25.42700 23.13000
C  -4.68300 25.71300 21.79100
C  -3.87100 26.99300 22.12200
C  -3.87400 26.96500 23.67200
C  -3.97600 24.44200 21.24300
C  -4.55100 28.29200 21.58900
C  -3.68500 29.17400 20.65300
N  -3.91200 27.30700 26.57900
C  -3.00900 27.92200 25.77600
C  -2.13500 28.75000 26.56500
C  -2.56700 28.43900 27.87200
C  -3.61000 27.60200 27.80600
C  -1.10400 29.67000 26.12400
C  -2.25300 28.69100 29.27000
O  -1.47100 29.44700 29.86100
C  -3.24500 27.79100 30.08300
C  -2.45300 27.07700 31.05500
O  -1.81000 26.01600 30.95200
O  -2.57000 27.80900 32.21800
C  -1.89100 27.11400 33.39200
H  -8.07600 22.98800 28.53200
H  -6.63300 23.98000 22.33900
H  -2.12100 28.20800 23.77400
H  -4.74200 25.17500 31.22900
H  -7.39300 24.46500 30.67000
H  -5.10100 23.07600 31.51700
H  -5.18100 22.45600 29.88000
H  -6.52400 22.22300 30.89000
H  -7.20200 26.88200 30.61100
H  -5.71900 27.54700 31.27500
H  -7.80300 26.48900 32.80400
H  -6.34800 27.44500 33.20100
H  -10.46900 22.30300 26.02600
H  -9.55300 21.97300 27.37400
H  -9.43300 20.79200 26.02700
H  -9.84200 20.42200 23.62800
H  -10.36800 21.20600 22.22600
H  -10.80400 21.86600 23.83100
H  -5.51300 25.98700 21.14100
H  -2.87100 26.96000 21.69000
H  -4.46800 24.20600 20.29900
H  -3.99600 23.56400 21.88800
H  -2.90600 24.61300 21.13300
H  -4.73900 28.90200 22.47300
H  -5.54700 28.10800 21.18600
H  -2.76800 28.63800 20.40800
H  -3.49200 30.18300 21.01800
H  -4.25600 29.30400 19.73400
H  -0.31700 29.25300 25.49600
H  -0.51000 29.94700 26.99400
H  -1.48700 30.59100 25.68600
H  -3.96200 28.43600 30.59100
H  -0.80700 27.22700 33.40900
H  -2.03000 26.03400 33.42000
H  -2.09800 27.54800 34.37100

