158

Mg -1.87400 17.52700 25.72100
C  -2.44500 15.35000 28.59400
C  -2.78400 20.13800 27.84600
C  -1.94500 19.40500 23.07100
C  -1.78900 14.62200 23.76000
N  -2.33500 17.67200 28.01700
C  -2.46400 16.71100 29.00600
C  -2.86400 17.34200 30.32400
C  -3.09500 18.84200 30.02700
C  -2.73300 18.92600 28.54700
C  -4.58200 19.19600 30.34800
C  -1.70000 17.16500 31.35900
C  -1.97200 16.31100 32.58100
H  -2.34800 17.10500 33.80900
N  -2.28000 19.51500 25.44300
C  -2.41400 20.41700 26.49300
C  -2.35600 21.74500 25.85100
C  -2.08500 21.59800 24.44400
C  -2.08100 20.17900 24.30500
C  -2.51100 23.00100 26.61200
C  -1.72800 22.62700 23.45500
O  -1.53200 22.35800 22.28400
C  -1.65900 24.05500 23.80600
N  -2.09700 16.99500 23.71200
C  -1.85400 18.01300 22.83100
C  -1.57700 17.50100 21.40900
C  -1.42700 15.96400 21.66100
C  -1.71200 15.85600 23.17900
C  -2.64000 17.78200 20.35000
C  -0.09800 15.24700 21.28100
C  1.02100 15.52300 22.28000
N  -1.99000 15.36700 26.08900
C  -1.87900 14.35500 25.13800
C  -1.98300 13.04400 25.82800
C  -2.23300 13.38800 27.19000
C  -2.23600 14.80300 27.30000
C  -1.98200 11.71400 25.22700
C  -2.55000 12.88600 28.52700
O  -2.61800 11.75100 28.84200
C  -2.73600 14.07700 29.51300
C  -1.73900 13.84500 30.67600
O  -0.57100 14.20200 30.67100
O  -2.31400 13.11100 31.66000
C  -1.57700 12.89200 32.90900
H  -3.03000 21.01000 28.45700
H  -1.91900 20.03000 22.17500
H  -1.70300 13.71400 23.16000
H  -3.78900 16.81400 30.55700
H  -2.49100 19.60000 30.52600
H  -4.84100 18.83800 31.34400
H  -5.35400 18.66600 29.79000
H  -4.72700 20.27500 30.28800
H  -1.26000 18.14400 31.55100
H  -0.89500 16.64000 30.84500
H  -1.04100 15.77600 32.76600
H  -2.76000 15.56400 32.48600
H  -2.34300 22.92300 27.68600
H  -3.40700 23.60800 26.48400
H  -1.81200 23.76800 26.27600
H  -0.87600 24.50900 24.41300
H  -2.60100 24.35800 24.26300
H  -1.79600 24.63600 22.89300
H  -0.63700 17.93400 21.06600
H  -2.20900 15.41400 21.13700
H  -2.85300 18.84100 20.20500
H  -3.59900 17.37000 20.66200
H  -2.42900 17.28400 19.40300
H  0.22500 15.63200 20.31400
H  -0.35400 14.18800 21.24400
H  0.79500 16.32800 22.98000
H  1.94000 15.70800 21.72300
H  1.25000 14.65900 22.90400
H  -1.49800 11.87700 24.26500
H  -2.97300 11.26300 25.18700
H  -1.36900 10.94900 25.70400
H  -3.72700 14.00900 29.96200
H  -2.18500 12.93500 33.81300
H  -0.75700 13.60000 33.03500
H  -1.25900 11.85000 32.89800
Mg 6.09500 57.12200 42.15600
C  5.30700 53.46300 41.92600
C  9.07200 56.21200 40.54000
C  6.46400 60.23800 41.84100
C  2.81000 57.53100 43.29000
N  7.01600 55.03800 41.36300
C  6.53400 53.75400 41.33900
C  7.54400 52.71100 40.72800
C  8.78500 53.65300 40.48400
C  8.30800 55.04200 40.83600
C  10.08100 53.24000 41.25500
C  7.00800 52.09200 39.50000
C  7.53900 50.67000 39.23700
H  7.05400 50.11000 37.87900
N  7.54100 58.10600 41.37600
C  8.71500 57.68900 40.77600
C  9.44500 58.77800 40.37800
C  8.74800 59.95200 40.69700
C  7.54500 59.45400 41.31100
C  10.84900 58.58800 39.70200
C  9.40300 61.36900 40.57600
O  10.43300 61.62400 39.97400
C  8.70800 62.57500 41.30800
N  4.65200 58.67600 42.22200
C  5.26600 59.87200 42.39800
C  4.23900 60.86400 42.91500
C  2.97200 60.05200 43.27300
C  3.51900 58.67600 42.94100
C  4.70500 61.87100 43.97200
C  1.67400 60.45300 42.42700
C  0.28000 60.29700 43.06200
N  4.47100 55.84100 42.72200
C  3.25400 56.22300 43.21000
C  2.54800 54.99500 43.58300
C  3.33400 53.89400 43.15900
C  4.46700 54.43600 42.55400
C  1.26400 54.99900 44.20800
C  3.43700 52.45600 43.16100
O  2.71300 51.59400 43.63900
C  4.74000 52.11900 42.36600
C  4.46200 51.02300 41.33900
O  3.68400 51.02800 40.38900
O  5.22900 49.94600 41.73600
C  4.91200 48.70100 41.04000
H  10.06300 56.07200 40.10300
H  6.75000 61.29200 41.82100
H  1.84800 57.81500 43.72300
H  7.67500 51.95700 41.50400
H  9.08500 53.66700 39.43600
H  9.94400 52.42100 41.96200
H  10.39300 54.08100 41.87400
H  10.95500 52.89700 40.70100
H  7.08400 52.67200 38.58000
H  5.92900 52.00300 39.62400
H  7.27400 49.98700 40.04400
H  8.62000 50.80800 39.22200
H  11.39400 57.80700 40.23100
H  11.44200 59.50200 39.65400
H  10.69900 58.06500 38.75800
H  8.74800 62.48600 42.39300
H  7.78400 62.68600 40.74000
H  9.39200 63.40500 41.13100
H  4.06900 61.45900 42.01800
H  2.67900 60.18000 44.31500
H  5.67300 62.22100 43.61500
H  5.03000 61.41900 44.90900
H  4.11200 62.77800 44.08900
H  1.54000 59.70000 41.65100
H  1.77500 61.43300 41.96200
H  -0.45400 60.69300 42.35900
H  0.25500 60.68200 44.08100
H  0.01200 59.25000 43.20400
H  0.77200 54.03100 44.10900
H  0.67200 55.79900 43.76300
H  1.21900 55.09500 45.29300
H  5.36900 51.71800 43.16000
H  3.84100 48.64400 40.84700
H  5.26100 47.84000 41.61100
H  5.40500 48.56100 40.07800

