158

Mg 44.38600 3.42900 47.24800
C  42.28300 6.23300 47.45900
C  41.42600 1.47600 47.53600
C  46.23200 0.83100 46.76400
C  47.12300 5.59700 47.29900
N  42.11600 3.80200 47.33500
C  41.51700 5.08500 47.47200
C  40.01900 4.94600 47.19100
C  39.71500 3.47300 47.62900
C  41.15900 2.83400 47.46600
C  38.95800 3.36500 48.93000
C  39.79800 5.29100 45.69800
C  38.78000 6.39200 45.36700
H  38.02200 6.47000 44.04000
N  43.90600 1.41700 46.98700
C  42.73000 0.82200 47.35000
C  42.92900 -0.62800 47.32600
C  44.25200 -0.87400 46.89100
C  44.87300 0.48000 46.83900
C  41.86700 -1.64300 47.61800
C  44.87100 -2.32600 46.64000
O  44.12300 -3.29300 46.73300
C  46.35300 -2.60600 46.32800
N  46.43400 3.32300 46.93600
C  46.95300 2.06300 46.74500
C  48.48200 2.18900 46.87100
C  48.75800 3.68800 47.09500
C  47.38400 4.22100 47.07200
C  49.17100 1.41400 48.07300
C  49.58300 4.38600 45.93200
C  50.82900 5.07800 46.53400
N  44.72000 5.51100 47.32300
C  45.85600 6.20900 47.37400
C  45.51900 7.58800 47.48500
C  44.17000 7.75000 47.42400
C  43.69200 6.39500 47.37600
C  46.59000 8.75500 47.52500
C  42.99800 8.63000 47.48900
O  42.89700 9.80400 47.58400
C  41.73800 7.67700 47.34700
C  40.64000 7.95200 48.38100
O  40.58600 7.35700 49.44300
O  39.81800 8.97300 48.01800
C  38.73100 9.38500 48.91500
H  40.61300 0.82000 47.85300
H  46.82800 -0.07500 46.63600
H  47.95500 6.30100 47.36800
H  39.51400 5.56200 47.93600
H  39.14700 2.88100 46.91100
H  38.69700 4.32300 49.37800
H  39.60200 2.83200 49.63000
H  37.98900 2.88700 48.78700
H  39.46400 4.40100 45.16600
H  40.71900 5.57100 45.18600
H  39.33300 7.32900 45.42800
H  38.11800 6.40000 46.23200
H  42.15200 -2.40000 48.34800
H  41.65900 -2.09900 46.65000
H  41.01700 -1.13700 48.07700
H  47.10400 -2.31300 47.06200
H  46.49000 -1.99000 45.43900
H  46.49600 -3.65200 46.05600
H  48.98400 1.79100 45.98900
H  49.23100 3.93700 48.04500
H  49.31400 0.35100 47.87500
H  48.48400 1.46800 48.91800
H  50.08700 1.92100 48.37400
H  49.05000 5.14700 45.36100
H  49.84400 3.70100 45.12500
H  50.73500 5.27300 47.60200
H  51.07500 5.97300 45.96300
H  51.67500 4.39200 46.49900
H  46.21000 9.53100 48.19000
H  46.77900 9.15000 46.52700
H  47.44300 8.30900 48.03700
H  41.40900 7.89000 46.33000
H  37.89700 8.68400 48.87700
H  38.48500 10.37000 48.51900
H  38.99300 9.52900 49.96300
Mg 41.90100 40.55200 25.95700
C  41.05700 43.01400 28.42200
C  42.29200 38.28200 28.38900
C  42.87900 38.39500 23.61000
C  41.46100 42.96800 23.57200
N  41.74400 40.75500 28.15900
C  41.33200 41.75300 28.97200
C  41.31600 41.31200 30.52600
C  41.54300 39.71400 30.42100
C  41.82100 39.55500 28.89900
C  42.59000 39.12600 31.37400
C  39.95200 41.72800 31.24200
C  39.57600 41.08300 32.51000
H  39.19800 42.01000 33.63400
N  42.48600 38.54400 25.93500
C  42.59400 37.81600 27.05600
C  43.05400 36.47900 26.77800
C  43.14300 36.37900 25.36000
C  42.87000 37.83200 24.86800
C  43.27900 35.43100 27.84400
C  43.50200 35.22900 24.39000
O  43.51000 35.31500 23.16700
C  43.64700 33.83800 24.97600
N  42.28700 40.69900 23.87400
C  42.66000 39.67300 23.11800
C  42.53800 39.97300 21.61300
C  41.64200 41.28200 21.70800
C  41.82800 41.66000 23.17000
C  43.93500 40.16200 20.97600
C  40.25800 41.22100 21.08300
C  39.32800 40.14900 21.58800
N  41.42600 42.58800 25.89900
C  41.29700 43.47700 24.84700
C  40.96900 44.81900 25.34600
C  40.87700 44.65500 26.70700
C  41.17900 43.30700 27.03200
C  40.70100 46.05000 24.52700
C  40.40600 45.34500 27.93300
O  39.90800 46.45100 28.10300
C  40.60800 44.30500 29.07400
C  41.59500 44.94600 30.00400
O  42.81200 44.73300 30.10300
O  40.91900 45.83000 30.86700
C  41.52700 46.17300 32.11600
H  42.27000 37.51400 29.16500
H  43.02800 37.65100 22.82500
H  41.16300 43.67700 22.79700
H  42.08100 41.90000 31.03400
H  40.62000 39.19200 30.67500
H  42.21000 38.32500 32.00700
H  42.83100 39.85200 32.15000
H  43.45900 38.82300 30.78900
H  39.10000 41.66100 30.56500
H  40.04100 42.76600 31.56200
H  40.38900 40.41100 32.78500
H  38.62900 40.57700 32.32600
H  42.27700 35.10600 28.12600
H  43.68100 35.85700 28.76300
H  43.84400 34.55800 27.51700
H  43.56500 33.16100 24.12600
H  42.82100 33.69800 25.67400
H  44.61400 33.89500 25.47700
H  42.08300 39.13600 21.08300
H  42.08000 42.07100 21.09600
H  44.50600 39.43500 21.55400
H  44.28900 41.18300 20.83700
H  43.87900 39.73100 19.97600
H  40.31200 41.09700 20.00100
H  39.96100 42.25700 21.24500
H  38.83500 39.63600 20.76300
H  38.58500 40.45700 22.32300
H  39.93900 39.49300 22.20700
H  39.66500 46.14300 24.20000
H  41.22800 45.99400 23.57500
H  41.14400 46.94200 24.96900
H  39.62600 44.21800 29.53700
H  42.58500 46.35900 31.93300
H  41.47500 45.33700 32.81300
H  40.94600 47.01400 32.49400

