158

Mg 9.23600 48.11600 25.83000
C  7.30700 48.32600 28.68000
C  11.90200 49.46100 27.60800
C  10.97400 48.34300 23.05700
C  6.18100 47.44300 23.94100
N  9.52300 48.83400 27.92800
C  8.61100 48.80500 28.94200
C  9.23100 49.18800 30.33100
C  10.60200 49.85800 29.85500
C  10.71000 49.30500 28.38100
C  10.51300 51.41000 29.90200
C  9.53400 48.07300 31.32300
C  9.02900 48.36700 32.72400
H  9.32400 47.24800 33.70000
N  11.25000 48.69000 25.39200
C  12.17600 49.11800 26.26700
C  13.38900 49.24300 25.49200
C  13.14700 48.94400 24.09300
C  11.74500 48.63800 24.14200
C  14.71300 49.38500 26.10100
C  14.13400 48.91300 22.89700
O  13.66700 48.67000 21.76100
C  15.48800 49.26800 23.02100
N  8.63700 47.82800 23.75900
C  9.58100 48.04900 22.81500
C  9.02900 47.70700 21.41400
C  7.53000 47.19400 21.72000
C  7.40600 47.49100 23.22700
C  9.11400 48.86500 20.41900
C  7.25800 45.70500 21.51800
C  8.13600 44.74400 22.34900
N  7.08900 47.93600 26.10600
C  6.02700 47.61500 25.32000
C  4.83300 47.46000 26.17400
C  5.29100 47.74400 27.48200
C  6.69900 48.01800 27.40900
C  3.54700 46.98900 25.69200
C  4.89600 47.88200 28.85800
O  3.80400 47.72700 29.40000
C  6.23000 48.10400 29.66400
C  6.49800 46.89000 30.42200
O  6.90000 45.86800 29.88900
O  6.04900 47.07900 31.67400
C  6.46900 45.97400 32.59200
H  12.74200 49.93000 28.12500
H  11.43400 48.40100 22.06900
H  5.30300 47.24400 23.32400
H  8.63100 49.87900 30.92200
H  11.41700 49.53800 30.50400
H  9.48300 51.72300 29.73000
H  11.14100 51.94500 29.18900
H  10.79100 51.73200 30.90600
H  10.59700 47.89600 31.49200
H  8.98400 47.18100 31.02200
H  7.95900 48.54300 32.62300
H  9.44800 49.26400 33.18000
H  14.62900 49.40400 27.18800
H  15.17000 50.31200 25.75600
H  15.27100 48.49300 25.81500
H  16.05600 48.37700 23.29200
H  15.62000 50.11600 23.69200
H  15.75900 49.65100 22.03700
H  9.75100 47.01300 20.98400
H  6.76200 47.76000 21.19300
H  8.24500 49.01500 19.77700
H  9.99300 48.76000 19.78200
H  9.31400 49.78500 20.96700
H  7.40900 45.53700 20.45200
H  6.22200 45.56100 21.82200
H  7.35200 44.27600 22.94200
H  8.95900 45.30900 22.78700
H  8.48700 43.90700 21.74500
H  3.68900 45.99200 25.27600
H  3.29700 47.63300 24.84800
H  2.82100 47.08000 26.50000
H  6.18200 49.00400 30.27800
H  7.40900 45.46600 32.38100
H  5.65200 45.27200 32.76100
H  6.72200 46.47200 33.52800
Mg -11.67200 15.64400 42.11500
C  -8.79500 13.78100 41.68700
C  -10.35500 18.19700 40.51800
C  -14.79100 17.11100 41.95400
C  -13.29900 12.61100 43.26400
N  -9.69500 15.87800 41.10400
C  -8.70500 15.09200 41.18000
C  -7.47600 15.80100 40.48000
C  -7.96300 17.29100 40.35600
C  -9.46100 17.12600 40.66000
C  -7.24800 18.33700 41.28600
C  -6.97400 15.15100 39.15100
C  -5.46400 14.96500 38.91600
H  -4.97500 15.62200 37.65500
N  -12.42200 17.46200 41.44700
C  -11.70600 18.34800 40.70800
C  -12.51900 19.44600 40.29600
C  -13.82600 19.19600 40.74900
C  -13.74600 17.88600 41.45900
C  -11.96700 20.63600 39.54700
C  -14.98300 20.12800 40.57400
O  -14.86800 21.18500 39.91500
C  -16.30400 19.88700 41.19700
N  -13.76700 15.02400 42.58800
C  -14.80900 15.79600 42.35100
C  -16.17800 15.07500 42.65600
C  -15.67500 13.66400 43.13200
C  -14.18200 13.69400 42.97800
C  -17.21700 15.66700 43.61500
C  -16.31900 12.47600 42.27900
C  -16.41700 11.10000 42.93400
N  -11.18300 13.54900 42.53400
C  -11.90900 12.48500 42.96200
C  -10.93400 11.39600 43.16600
C  -9.71700 11.80000 42.61700
C  -9.91500 13.15000 42.27400
C  -11.22600 10.02300 43.69000
C  -8.34100 11.45200 42.25800
O  -7.72300 10.40600 42.32700
C  -7.64700 12.70500 41.72900
C  -6.62300 13.10100 42.72100
O  -6.71500 13.42900 43.90000
O  -5.41600 12.86500 42.11700
C  -4.23300 13.43200 42.73900
H  -9.83500 19.03300 40.04500
H  -15.83500 17.33400 41.72600
H  -13.79200 11.69100 43.58500
H  -6.72500 15.69200 41.26200
H  -7.85900 17.68200 39.34400
H  -6.18700 18.08900 41.25900
H  -7.64700 18.24500 42.29600
H  -7.41600 19.34500 40.90700
H  -7.45500 15.57600 38.27000
H  -7.49200 14.19200 39.14000
H  -5.27500 13.89200 38.90000
H  -4.92900 15.38300 39.76900
H  -12.56600 20.83900 38.65900
H  -11.03000 20.31900 39.09000
H  -11.72500 21.51500 40.14400
H  -17.00600 20.70200 41.02400
H  -16.07500 19.74600 42.25300
H  -16.75700 18.99700 40.76000
H  -16.59000 14.97500 41.65200
H  -15.92200 13.47600 44.17700
H  -17.57000 15.00900 44.40900
H  -18.07900 15.94800 43.00900
H  -16.80200 16.57500 44.05100
H  -15.75900 12.29700 41.36100
H  -17.37300 12.66700 42.07700
H  -17.23100 10.57400 42.43600
H  -16.60500 11.29400 43.99000
H  -15.51200 10.52300 42.74400
H  -11.89500 10.01100 44.55000
H  -10.37100 9.49200 44.10900
H  -11.73200 9.47700 42.89400
H  -7.17200 12.51500 40.76700
H  -3.46300 13.43700 41.96800
H  -3.86500 12.81200 43.55700
H  -4.41700 14.43300 43.13000

