158

Mg -2.62100 17.96100 25.84600
C  -3.11100 16.01800 28.64300
C  -3.04900 20.80800 27.80500
C  -2.85300 19.67700 23.00600
C  -2.26800 14.89300 23.84000
N  -3.14700 18.30500 27.90600
C  -3.09400 17.35800 28.86500
C  -3.28000 18.01400 30.24700
C  -3.25900 19.52400 29.96300
C  -3.06800 19.58900 28.43900
C  -4.54200 20.32200 30.47000
C  -2.39600 17.66100 31.43500
C  -2.81100 18.27800 32.78600
H  -2.83600 17.31700 33.97100
N  -2.87400 19.99100 25.47700
C  -3.05000 21.04200 26.37900
C  -3.15700 22.29200 25.71900
C  -3.14900 21.97300 24.34200
C  -2.99800 20.49900 24.18100
C  -3.27700 23.64700 26.36600
C  -3.24300 22.88000 23.20300
O  -3.25400 22.45000 22.06000
C  -3.47500 24.29400 23.47800
N  -2.51100 17.36400 23.70200
C  -2.55600 18.31200 22.77100
C  -2.38700 17.67100 21.34800
C  -2.03100 16.21300 21.68300
C  -2.24900 16.11000 23.17400
C  -3.64100 17.86100 20.42400
C  -0.57100 15.82900 21.20300
C  0.64500 16.05700 22.08100
N  -2.71000 15.90900 26.14100
C  -2.70700 14.79700 25.23400
C  -3.01700 13.65300 26.01400
C  -3.05900 14.05500 27.39400
C  -2.89900 15.44900 27.36400
C  -3.12900 12.21700 25.51200
C  -3.17400 13.58800 28.71800
O  -3.33500 12.43700 29.05800
C  -3.14200 14.84300 29.64300
C  -1.84000 14.64500 30.35000
O  -0.66700 14.80900 29.90700
O  -2.19000 14.11400 31.57500
C  -1.02700 13.64800 32.36200
H  -2.90100 21.63700 28.50000
H  -3.01600 20.27900 22.11000
H  -1.97200 13.97000 23.33600
H  -4.28900 17.71000 30.52500
H  -2.45400 20.06800 30.45500
H  -4.21900 21.19400 31.03900
H  -5.07200 19.78200 31.25500
H  -5.27900 20.52100 29.69200
H  -1.40400 17.84200 31.02200
H  -2.56700 16.58700 31.50400
H  -3.82000 18.68700 32.73100
H  -2.09800 19.08000 32.97600
H  -2.44500 24.24500 25.99300
H  -3.19500 23.55300 27.44900
H  -4.23200 24.13800 26.17600
H  -3.46800 24.84200 22.53600
H  -2.53400 24.52800 23.97500
H  -4.27200 24.61400 24.15000
H  -1.55500 18.17100 20.85300
H  -2.64600 15.39900 21.30000
H  -3.25600 18.33300 19.52000
H  -4.29300 18.60600 20.88000
H  -4.14400 16.90100 20.30800
H  -0.43400 16.43900 20.31000
H  -0.60400 14.77000 20.94400
H  0.37400 16.72500 22.89900
H  1.43200 16.46100 21.44400
H  1.02800 15.14200 22.53100
H  -3.37900 11.43900 26.23200
H  -2.27400 11.79600 24.98300
H  -3.99600 12.15300 24.85400
H  -4.00400 14.93900 30.30400
H  -0.56000 14.59900 32.61700
H  -0.25900 13.10800 31.80800
H  -1.39700 13.30500 33.32800
Mg 46.90200 34.87100 26.90400
C  45.73300 33.49000 29.85400
C  47.29200 37.81300 28.53700
C  47.41600 36.38000 23.87800
C  46.27700 31.80400 25.26900
N  46.66700 35.50900 28.95600
C  46.32700 34.74300 30.00800
C  46.69300 35.43900 31.34900
C  46.87500 36.93900 30.90400
C  46.96400 36.76000 29.33700
C  45.74700 37.97000 31.34400
C  47.97700 34.80700 31.89200
C  48.37800 35.23900 33.35100
H  47.40700 36.11900 34.20000
N  47.26100 36.86200 26.33400
C  47.47300 37.90200 27.13800
C  47.81500 39.09800 26.39400
C  47.82200 38.68900 25.03200
C  47.44900 37.27300 25.01500
C  48.19800 40.33200 27.14200
C  48.21700 39.46200 23.74700
O  48.12400 38.98400 22.63200
C  48.88400 40.79900 23.93300
N  46.98200 34.17100 24.96500
C  47.20700 34.96300 23.89500
C  47.33200 34.07300 22.61100
C  47.10300 32.64100 23.04200
C  46.81100 32.84600 24.51600
C  46.50900 34.52500 21.34500
C  48.21300 31.65300 22.65200
C  49.58600 31.86500 23.35100
N  46.00200 33.04600 27.36700
C  45.84400 31.86400 26.68100
C  45.37300 30.80500 27.52700
C  45.23900 31.37600 28.79500
C  45.67600 32.76200 28.66800
C  45.11100 29.44100 27.07400
C  44.86000 31.18100 30.18300
O  44.50400 30.13100 30.72800
C  44.95000 32.60700 30.87100
C  45.33500 32.51700 32.30200
O  46.14200 31.74800 32.66500
O  44.58800 33.33600 33.06200
C  44.71500 32.96000 34.47400
H  47.41600 38.79200 29.00400
H  47.64100 36.67700 22.85100
H  46.33100 30.82700 24.78500
H  45.90400 35.38800 32.09900
H  47.79700 37.36300 31.30200
H  46.33400 38.83100 31.66400
H  45.24400 37.58300 32.23000
H  45.00000 38.25000 30.60100
H  48.81600 35.10000 31.26100
H  47.85000 33.72500 31.86100
H  49.38200 35.66200 33.31400
H  48.42100 34.31100 33.92100
H  47.33900 40.69400 27.70700
H  48.51300 41.17100 26.52100
H  48.99700 39.92900 27.76400
H  49.35100 41.07300 22.98700
H  49.71400 40.74400 24.63800
H  48.10300 41.55200 24.03800
H  48.38100 34.11500 22.31700
H  46.15100 32.19700 22.75000
H  46.00800 33.65200 20.92700
H  47.11200 35.03600 20.59400
H  45.71500 35.20700 21.64900
H  48.37400 31.70800 21.57500
H  47.91800 30.61000 22.76800
H  50.35000 31.97800 22.58300
H  49.67200 31.02300 24.03800
H  49.42300 32.75000 23.96700
H  45.92100 29.23500 26.37400
H  44.14300 29.49900 26.57600
H  45.21900 28.75400 27.91200
H  43.91400 32.94800 30.85800
H  44.52400 31.89400 34.60000
H  43.89200 33.46800 34.97800
H  45.64600 33.32900 34.90300

