158

Mg 0.76300 42.87300 25.02500
C  2.26800 42.97800 28.06000
C  -2.11200 41.47100 26.55000
C  -0.47000 41.91100 21.96400
C  3.79900 43.63200 23.46800
N  0.11200 42.39800 26.99400
C  0.89700 42.64000 28.09300
C  0.13000 42.54400 29.44700
C  -1.21800 41.88300 28.97100
C  -1.10600 41.85300 27.46900
C  -1.49300 40.47400 29.61100
C  0.00000 43.90200 30.21800
C  0.49700 43.72000 31.60500
H  -0.56200 43.70700 32.66000
N  -1.05600 41.93800 24.31500
C  -2.05800 41.40700 25.11700
C  -3.04500 40.83500 24.27300
C  -2.65200 40.99800 22.96600
C  -1.36200 41.71400 23.00300
C  -4.28100 40.06100 24.79100
C  -3.32500 40.62000 21.67300
O  -2.88000 40.81400 20.51400
C  -4.60000 39.83700 21.74700
N  1.48100 42.95600 23.02600
C  0.82500 42.47400 21.92100
C  1.74500 42.36500 20.69900
C  2.98700 43.09700 21.11300
C  2.76200 43.26100 22.60300
C  1.91600 40.93400 20.02300
C  3.28600 44.46300 20.43800
C  2.41300 45.69600 20.75400
N  2.57500 43.47000 25.55800
C  3.76500 43.71500 24.90900
C  4.90000 43.98300 25.79900
C  4.33300 43.60300 27.03400
C  2.96400 43.36200 26.85400
C  6.34000 44.37300 25.35100
C  4.61100 43.37800 28.44400
O  5.68600 43.40600 28.98200
C  3.28600 43.11000 29.17600
C  3.48000 41.91800 30.03300
O  3.71200 40.80900 29.67600
O  3.65900 42.30300 31.34000
C  4.13400 41.40200 32.39700
H  -2.95000 41.11000 27.15000
H  -0.76300 41.66400 20.94200
H  4.69800 43.98900 22.96200
H  0.51000 41.76000 30.10100
H  -2.06900 42.51600 29.22300
H  -1.80100 39.81100 28.80300
H  -2.32600 40.50900 30.31300
H  -0.62600 39.97900 30.05100
H  -1.01000 44.30900 30.25600
H  0.57400 44.75600 29.85800
H  1.14400 44.57500 31.79700
H  1.23200 42.93100 31.76800
H  -5.22600 40.59400 24.68000
H  -4.22600 39.68700 25.81300
H  -4.43700 39.14400 24.22200
H  -4.41800 38.83300 22.12900
H  -4.77200 39.71700 20.67800
H  -5.34700 40.48900 22.19900
H  1.24700 43.06200 20.02500
H  3.81800 42.39200 21.07600
H  2.95300 40.66700 19.82000
H  1.46900 41.00400 19.03200
H  1.31300 40.22900 20.59500
H  3.37200 44.42200 19.35300
H  4.26100 44.81600 20.77300
H  1.82800 45.61200 19.83800
H  2.95700 46.63200 20.88300
H  1.69600 45.50900 21.55300
H  6.69600 45.15600 26.02000
H  6.40100 44.70700 24.31500
H  7.08200 43.62500 25.63200
H  3.17600 44.00800 29.78500
H  5.08400 41.79700 32.75600
H  4.22900 40.34900 32.13200
H  3.51600 41.41800 33.29500
Mg -2.50300 34.26400 26.24500
C  -3.95400 32.64100 28.95700
C  -0.92800 36.51000 28.37700
C  -1.30800 35.85900 23.60500
C  -4.22000 31.98800 24.07000
N  -2.47900 34.51100 28.44100
C  -3.03600 33.67100 29.38900
C  -2.89300 34.25400 30.79600
C  -1.91400 35.48600 30.59900
C  -1.70800 35.50900 29.09900
C  -2.34000 36.72800 31.37400
C  -2.33300 33.24300 31.83500
C  -3.23300 32.90300 33.07900
H  -2.46400 32.64400 34.46700
N  -1.34900 35.92300 26.03100
C  -0.79600 36.72800 27.01600
C  -0.00700 37.74500 26.43400
C  -0.02800 37.53100 25.02800
C  -0.94100 36.39500 24.82500
C  0.70300 38.77400 27.22700
C  0.63800 38.43100 23.90600
O  0.33300 38.28900 22.71200
C  1.67700 39.44300 24.35800
N  -2.88200 34.04700 24.09900
C  -2.14200 34.78200 23.21600
C  -2.51900 34.50300 21.76800
C  -3.26400 33.11300 21.95900
C  -3.50800 33.02300 23.44900
C  -3.37500 35.56000 21.16500
C  -2.46300 31.81500 21.47000
C  -1.04100 31.56300 21.87600
N  -3.80800 32.68500 26.39600
C  -4.37300 31.82400 25.43700
C  -5.11600 30.79800 26.18900
C  -5.02600 31.05100 27.54300
C  -4.19400 32.25800 27.57400
C  -5.88400 29.72700 25.49000
C  -5.39800 30.62200 28.81200
O  -6.09200 29.68500 29.13600
C  -4.86400 31.70000 29.75700
C  -5.84700 32.30100 30.62100
O  -6.44100 33.37500 30.38700
O  -6.01200 31.58000 31.72000
C  -6.96800 32.01200 32.76100
H  -0.47200 37.19000 29.10000
H  -0.91400 36.33200 22.70400
H  -4.58500 31.20600 23.40000
H  -3.89200 34.46000 31.18100
H  -0.97500 35.15300 31.04100
H  -2.38200 37.49500 30.60100
H  -1.54800 37.07000 32.03900
H  -3.31300 36.53700 31.82500
H  -1.27800 33.37100 32.07800
H  -2.24700 32.33300 31.24300
H  -3.87700 32.05100 32.86100
H  -3.89500 33.75000 33.26200
H  1.73400 38.95300 26.92100
H  0.65500 38.61000 28.30300
H  0.04500 39.62600 27.05400
H  1.89600 39.97100 23.43000
H  2.65600 39.01900 24.58100
H  1.25900 40.18500 25.03800
H  -1.60700 34.45100 21.17200
H  -4.27900 33.13200 21.56400
H  -2.83100 35.82800 20.26000
H  -3.33500 36.43800 21.81000
H  -4.39500 35.28900 20.89200
H  -2.51800 31.75400 20.38300
H  -2.93000 30.84500 21.64300
H  -0.95500 30.67900 22.50900
H  -0.67700 32.45900 22.37700
H  -0.44300 31.47800 20.96800
H  -5.26200 28.97000 25.01200
H  -6.49300 30.22000 24.73300
H  -6.52600 29.25000 26.23100
H  -4.23900 31.11900 30.43500
H  -7.02600 31.28900 33.57500
H  -7.98200 32.24100 32.43200
H  -6.52800 32.95500 33.08400

