158

Mg 0.33200 7.59500 25.59000
C  0.88600 9.43800 28.52300
C  0.18700 4.72100 27.47600
C  0.35200 5.91600 22.69100
C  0.68300 10.58000 23.73500
N  0.49300 7.18100 27.79000
C  0.50500 8.11700 28.78500
C  0.46000 7.42100 30.16600
C  0.45100 5.87300 29.80300
C  0.35600 5.92000 28.23800
C  1.59000 5.02800 30.42700
C  -0.67800 7.84900 31.06300
C  -0.45700 7.92300 32.58600
H  0.71700 7.19400 33.28700
N  0.20300 5.59800 25.21700
C  0.08600 4.51900 26.08800
C  0.13300 3.25600 25.29100
C  0.20500 3.67100 23.90900
C  0.23800 5.10600 23.86000
C  0.27600 1.92300 25.79900
C  0.18700 2.84200 22.60900
O  -0.04000 3.25600 21.49000
C  0.29300 1.32500 22.73600
N  0.31600 8.17400 23.44200
C  0.43500 7.29300 22.46700
C  0.34700 8.03300 21.09900
C  0.43200 9.54900 21.40800
C  0.44800 9.45300 22.94000
C  1.36100 7.47400 20.07200
C  -0.66700 10.46600 20.82400
C  -1.90000 10.83900 21.63000
N  0.76600 9.51500 25.96800
C  0.92400 10.62400 25.08500
C  1.21700 11.80300 25.80800
C  1.32100 11.40700 27.19600
C  0.95000 9.98300 27.22900
C  1.47200 13.18500 25.29300
C  1.64500 11.85800 28.52000
O  1.97000 12.99300 28.91000
C  1.27400 10.58100 29.45700
C  2.42900 10.39600 30.36200
O  3.32400 9.58100 30.21300
O  2.31500 11.25600 31.45900
C  3.18300 10.93300 32.54400
H  0.09200 3.74700 27.96000
H  0.28900 5.45800 21.70200
H  0.61900 11.55000 23.23800
H  1.38900 7.48400 30.73200
H  -0.47100 5.42400 30.17300
H  1.13200 4.53700 31.28600
H  2.47500 5.54900 30.79200
H  1.93000 4.24000 29.75500
H  -1.51700 7.16500 30.94100
H  -1.00900 8.77200 30.58600
H  -1.32400 7.59800 33.15900
H  -0.34600 8.93600 32.97400
H  1.24000 1.50400 25.50800
H  -0.52400 1.25400 25.48300
H  0.18200 1.90900 26.88400
H  1.23200 1.06100 23.22300
H  0.43000 0.85700 21.76200
H  -0.57600 0.87600 23.21700
H  -0.63400 7.83300 20.66900
H  1.38400 9.89700 21.00600
H  2.06900 6.81700 20.57900
H  1.79600 8.36200 19.61200
H  0.90800 6.82900 19.32000
H  -0.87300 10.05200 19.83800
H  -0.18600 11.43600 20.69500
H  -2.69900 10.54900 20.94700
H  -2.06700 11.87700 21.91600
H  -2.04100 10.24200 22.53100
H  2.26200 13.08900 24.54800
H  1.92400 13.67100 26.15800
H  0.60700 13.76000 24.96500
H  0.45100 10.89200 30.09900
H  2.98200 11.44000 33.48700
H  4.17200 11.36100 32.37500
H  3.21900 9.87900 32.82000
Mg 8.09100 3.39200 27.19700
C  9.26300 1.93800 30.20200
C  5.89200 5.24400 29.06000
C  6.81300 4.34500 24.38800
C  9.75000 0.79400 25.42600
N  7.73500 3.66600 29.39900
C  8.38400 3.03400 30.45300
C  7.91600 3.71900 31.74800
C  6.76800 4.68000 31.36600
C  6.80300 4.56900 29.86800
C  5.42600 4.26800 31.96000
C  9.13900 4.31200 32.52900
C  9.51700 3.71400 33.90900
H  9.59400 4.68200 35.09600
N  6.71700 4.71900 26.75900
C  5.91500 5.43900 27.65000
C  5.15000 6.40500 26.92700
C  5.41800 6.16300 25.54500
C  6.35200 5.04900 25.52800
C  4.19000 7.34800 27.75300
C  4.85900 6.83900 24.22400
O  5.03300 6.45500 23.07500
C  3.83700 7.91800 24.40100
N  8.12600 2.50900 25.19700
C  7.61300 3.22600 24.14400
C  7.94600 2.69500 22.76800
C  8.90600 1.51700 23.07900
C  8.92900 1.53800 24.61900
C  6.77300 2.24000 21.94700
C  10.39000 1.72500 22.60400
C  10.88200 0.77800 21.54400
N  9.31100 1.79300 27.69600
C  9.98000 0.88100 26.85700
C  10.74100 -0.07600 27.62800
C  10.52100 0.36600 28.98400
C  9.58400 1.42800 28.93200
C  11.52200 -1.26900 27.07400
C  10.87700 0.09600 30.37500
O  11.66200 -0.68900 30.84800
C  10.10700 1.09300 31.25000
C  9.21800 0.43200 32.28700
O  8.27500 -0.23500 32.06000
O  9.78000 0.57800 33.53600
C  8.91600 0.04100 34.65300
H  5.27600 5.95500 29.61400
H  6.47300 4.68300 23.40700
H  10.28900 0.05100 24.83400
H  7.56400 2.84200 32.29100
H  7.03700 5.71900 31.55600
H  4.65000 4.15000 31.20400
H  5.08600 5.06100 32.62600
H  5.58300 3.39700 32.59700
H  8.92700 5.37300 32.66700
H  10.03800 4.33400 31.91400
H  10.48100 3.21600 33.80300
H  8.74200 2.97200 34.10200
H  4.74100 7.79900 28.57900
H  3.31500 6.79600 28.09500
H  3.87900 8.08400 27.01100
H  3.40700 8.08500 23.41300
H  4.34400 8.76200 24.86800
H  3.00100 7.58000 25.01300
H  8.40500 3.50100 22.19500
H  8.51700 0.53300 22.82100
H  6.73600 1.18200 21.68900
H  6.83600 2.74800 20.98400
H  5.87700 2.58200 22.46400
H  11.17700 1.62600 23.35100
H  10.42400 2.72800 22.18100
H  11.73100 1.25600 21.05600
H  10.18000 0.46400 20.77200
H  11.16400 -0.09100 22.13700
H  11.93000 -0.86600 26.14600
H  10.90700 -2.16000 26.95100
H  12.28700 -1.39000 27.84100
H  10.79200 1.80400 31.71200
H  8.15800 -0.67200 34.32900
H  8.38300 0.90100 35.05800
H  9.56000 -0.18500 35.50400

