158

Mg 26.36100 49.73400 27.16800
C  24.37500 50.85500 29.90100
C  28.96900 49.32600 29.43200
C  28.37900 49.25000 24.61300
C  23.84600 50.86500 25.00000
N  26.65400 50.24200 29.41000
C  25.65700 50.50200 30.31100
C  26.16400 50.37900 31.78400
C  27.65900 50.04000 31.56000
C  27.78600 49.85200 30.03500
C  28.71300 51.03100 32.25900
C  25.28500 49.31200 32.55000
C  24.56500 49.79500 33.89500
H  25.54900 50.31500 34.95600
N  28.36400 49.27500 27.01200
C  29.21800 49.07400 28.06000
C  30.45300 48.61400 27.59000
C  30.36100 48.69100 26.17000
C  28.97600 49.12100 25.83900
C  31.64700 48.21000 28.50300
C  31.46400 48.48700 25.16700
O  31.27400 48.59500 23.94700
C  32.87100 48.25200 25.51100
N  26.11300 50.01600 25.14800
C  27.09200 49.65000 24.29900
C  26.66100 49.67300 22.84700
C  25.16800 50.10100 22.98000
C  25.00500 50.24700 24.48900
C  27.49400 50.30800 21.65300
C  24.15600 49.07500 22.28800
C  23.09200 49.73500 21.37600
N  24.48600 50.78100 27.39700
C  23.62400 51.16000 26.40400
C  22.47800 51.75900 27.01000
C  22.67500 51.68000 28.37500
C  23.95100 51.06900 28.54300
C  21.31900 52.38300 26.28600
C  22.11300 52.00900 29.72000
O  21.09200 52.59600 30.00100
C  23.21800 51.49400 30.72600
C  23.59900 52.72400 31.53300
O  24.71700 53.24900 31.61800
O  22.64200 53.00800 32.50200
C  23.05000 53.93300 33.60300
H  29.77300 49.13000 30.14300
H  28.99600 49.02000 23.74200
H  23.06800 51.15200 24.29000
H  26.12100 51.30600 32.35500
H  27.86300 49.05200 31.97400
H  28.32200 51.96500 32.66400
H  29.49300 51.11000 31.50200
H  29.02800 50.45800 33.13000
H  25.98700 48.53600 32.85500
H  24.63300 48.74200 31.88800
H  24.00200 48.94900 34.29000
H  23.92900 50.67000 33.76200
H  31.34800 47.66800 29.40100
H  32.29600 49.04200 28.77500
H  32.32200 47.54100 27.96900
H  33.17400 48.94300 26.29800
H  33.42600 48.38400 24.58300
H  32.88300 47.21200 25.83900
H  26.56400 48.62300 22.57200
H  25.12100 51.13400 22.63500
H  28.44800 50.52600 22.13400
H  26.98100 51.18900 21.26500
H  27.58600 49.50200 20.92500
H  23.63100 48.45600 23.01600
H  24.71300 48.38100 21.65900
H  22.07700 49.40900 21.60600
H  23.30200 49.35900 20.37500
H  23.14500 50.81700 21.49900
H  20.42400 52.27500 26.89900
H  21.07900 52.17600 25.24300
H  21.59100 53.43700 26.23700
H  22.61200 50.84200 31.35500
H  23.26900 54.93400 33.23100
H  24.05300 53.76700 33.99700
H  22.34800 53.97000 34.43600
Mg 6.19100 53.92600 41.15900
C  4.71700 50.90400 41.18400
C  8.81700 52.59800 39.55900
C  7.39900 57.18100 40.85300
C  3.23100 55.38900 42.64700
N  6.65600 51.99700 40.30700
C  5.94600 50.86900 40.53800
C  6.66000 49.64700 39.96300
C  8.11700 50.18800 39.84800
C  7.84000 51.67700 39.79100
C  9.07300 49.86300 41.03400
C  6.24200 49.04400 38.61700
C  5.51600 49.92500 37.58600
H  6.12900 50.08800 36.15200
N  7.88300 54.72900 40.39300
C  8.89200 54.04600 39.78000
C  9.98100 54.88500 39.37100
C  9.66800 56.18700 39.78800
C  8.23100 56.09800 40.39600
C  11.22100 54.33700 38.69300
C  10.62100 57.36000 39.66200
O  11.69400 57.15800 39.14600
C  10.32100 58.65200 40.41300
N  5.40500 55.97100 41.60700
C  6.11300 57.19300 41.43800
C  5.42000 58.49900 41.96600
C  4.05500 57.78700 42.44100
C  4.25400 56.28000 42.31000
C  6.10900 59.32400 43.03100
C  2.81900 58.37500 41.81400
C  2.27600 57.70500 40.54900
N  4.31400 53.37100 41.80300
C  3.28400 54.03000 42.39900
C  2.28700 53.07900 42.67300
C  2.81600 51.84100 42.29100
C  4.03600 52.09700 41.68800
C  0.85300 53.35200 43.21700
C  2.50900 50.43200 42.30600
O  1.59300 49.83500 42.84200
C  3.80100 49.71800 41.61200
C  3.30200 48.87400 40.51800
O  2.69100 49.20600 39.53700
O  3.79700 47.57200 40.69600
C  3.45500 46.59200 39.71900
H  9.68800 52.07500 39.15800
H  7.76100 58.20600 40.75400
H  2.32500 55.66400 43.19200
H  6.56400 48.94300 40.78900
H  8.67900 50.03600 38.92700
H  9.42200 50.68400 41.66000
H  9.92800 49.27100 40.70800
H  8.62400 49.10700 41.67900
H  5.68700 48.11100 38.71600
H  7.17200 48.71400 38.15300
H  5.36400 50.95900 37.89400
H  4.52300 49.47700 37.56000
H  11.16900 53.31100 38.32800
H  12.02600 54.32200 39.42900
H  11.54400 54.99400 37.88600
H  11.12300 59.37700 40.27400
H  10.07400 58.36200 41.43400
H  9.40800 58.94300 39.89400
H  5.24500 59.08500 41.06400
H  3.86800 57.84100 43.51400
H  6.34500 60.30100 42.60900
H  7.00100 58.92200 43.51100
H  5.44200 59.44000 43.88500
H  2.93800 59.45400 41.71600
H  2.11000 58.14500 42.60900
H  1.27300 57.30200 40.69400
H  2.93800 56.89800 40.23500
H  2.09200 58.51300 39.84100
H  0.45000 54.33700 42.98400
H  0.95600 53.27000 44.29900
H  0.23500 52.54200 42.83000
H  4.22000 48.98400 42.30100
H  2.37800 46.47000 39.83700
H  3.94500 45.63400 39.89300
H  3.66000 46.88100 38.68800

