158

Mg 23.61100 -5.86200 45.95600
C  26.04700 -3.86400 44.51800
C  21.34000 -4.70500 43.70400
C  21.64900 -8.50600 46.65300
C  26.27200 -7.41700 47.83700
N  23.72100 -4.44700 44.34000
C  24.80100 -3.71300 43.91800
C  24.42700 -2.80500 42.73300
C  22.84000 -2.85500 42.66200
C  22.62900 -4.16800 43.59000
C  22.13400 -1.67700 43.27900
C  25.16500 -3.21300 41.40600
C  26.13700 -2.21200 40.78800
H  25.48900 -1.20000 39.79500
N  21.72600 -6.44500 45.31600
C  20.85300 -5.74400 44.51800
C  19.58300 -6.48900 44.42600
C  19.61400 -7.52700 45.39000
C  21.05000 -7.54700 45.82400
C  18.39900 -6.04400 43.57400
C  18.41900 -8.46100 45.77000
O  17.34100 -8.28200 45.23000
C  18.52500 -9.51500 46.81700
N  23.92500 -7.73900 47.10600
C  22.93100 -8.64300 47.24300
C  23.46900 -9.88800 48.01400
C  24.74000 -9.31900 48.66000
C  24.99300 -8.04600 47.82800
C  22.35300 -10.50000 48.94100
C  26.00200 -10.21000 49.03400
C  26.94500 -10.56600 47.79800
N  25.71000 -5.68000 46.20700
C  26.66800 -6.39100 46.95700
C  27.95800 -5.73900 46.80200
C  27.68100 -4.80500 45.78900
C  26.39800 -4.80000 45.49800
C  29.25200 -6.00900 47.45900
C  28.36300 -3.84800 44.95600
O  29.55000 -3.65500 44.83600
C  27.26100 -3.12800 44.16000
C  27.34800 -1.67900 44.55700
O  26.62600 -1.11700 45.35100
O  28.39700 -1.16400 43.86800
C  28.83500 0.18900 44.32300
H  20.49900 -4.31800 43.12500
H  21.06400 -9.40600 46.85400
H  27.07300 -7.88800 48.41200
H  24.86400 -1.84100 42.99300
H  22.41400 -2.99700 41.66900
H  21.35400 -1.93700 43.99500
H  21.78300 -1.05600 42.45400
H  22.83200 -1.01100 43.78800
H  24.39700 -3.36300 40.64800
H  25.50600 -4.24200 41.51900
H  27.06600 -2.66000 40.43700
H  26.44200 -1.52900 41.58200
H  18.59200 -5.33200 42.77200
H  17.68500 -5.56800 44.24700
H  17.95200 -6.94100 43.14600
H  17.51500 -9.67000 47.19500
H  19.05800 -9.19800 47.71400
H  19.07300 -10.40700 46.51400
H  23.74200 -10.68200 47.31900
H  24.43900 -8.87500 49.60900
H  22.05700 -11.51000 48.65800
H  21.62600 -9.69500 49.05100
H  22.77800 -10.64500 49.93400
H  25.55700 -11.13900 49.39100
H  26.55000 -9.69500 49.82300
H  26.85900 -11.65100 47.74700
H  27.95600 -10.33200 48.12900
H  26.79900 -10.10300 46.82200
H  29.94700 -6.42100 46.72700
H  29.15400 -6.62500 48.35200
H  29.59500 -5.00600 47.71500
H  27.44400 -3.18300 43.08700
H  29.92100 0.13600 44.23500
H  28.62500 0.46400 45.35700
H  28.37200 0.87900 43.61800
Mg 41.00200 9.52100 30.24100
C  43.07000 10.64100 32.58300
C  38.89500 8.12500 32.63300
C  38.95400 8.37500 27.74300
C  43.30300 10.60500 27.74400
N  40.98700 9.32400 32.28600
C  41.92900 10.02200 33.09300
C  41.58400 9.92300 34.57900
C  40.35700 8.85100 34.57700
C  40.11200 8.69400 33.07800
C  40.62300 7.53800 35.35700
C  41.25900 11.29300 35.31300
C  41.96500 11.48600 36.64700
H  41.32300 12.21000 37.90300
N  39.17100 8.45000 30.17700
C  38.49000 7.97800 31.30000
C  37.16600 7.41000 30.79800
C  37.18300 7.41700 29.36500
C  38.48300 8.09200 29.01500
C  36.18500 6.69900 31.69700
C  36.19700 6.83300 28.36500
O  36.37700 6.67200 27.17200
C  34.92700 6.18200 28.87400
N  41.11200 9.58900 28.03400
C  40.15700 8.93900 27.27000
C  40.41700 9.16700 25.69200
C  41.83500 9.86300 25.75500
C  42.12400 10.04000 27.25300
C  40.26100 7.84100 24.87900
C  41.90000 11.18200 24.87300
C  41.19100 12.40800 25.54100
N  42.96700 10.33900 30.10700
C  43.68600 10.85900 29.09100
C  44.84500 11.52800 29.59900
C  44.69200 11.51600 31.01600
C  43.51600 10.73300 31.23900
C  45.96700 12.10700 28.83300
C  45.12200 11.98000 32.31300
O  46.09400 12.66100 32.68800
C  44.14200 11.38700 33.38000
C  44.92500 10.65400 34.38600
O  45.32100 9.47900 34.33300
O  45.08600 11.42400 35.48200
C  45.66700 10.90400 36.74000
H  38.08500 7.91700 33.33600
H  38.40300 8.02200 26.86900
H  44.00900 10.79000 26.93200
H  42.50500 9.63900 35.08800
H  39.43900 9.27900 34.98000
H  40.61100 6.72200 34.63400
H  39.97100 7.39800 36.21900
H  41.65000 7.49700 35.72000
H  40.20800 11.32700 35.60000
H  41.42400 12.12100 34.62300
H  42.81900 12.08600 36.33400
H  42.46100 10.58000 36.99500
H  36.49800 6.68100 32.74100
H  36.06300 5.65900 31.39600
H  35.20300 7.16800 31.74600
H  34.24500 5.85200 28.09000
H  34.45300 7.00400 29.41000
H  35.04700 5.29100 29.49100
H  39.78000 9.99900 25.39600
H  42.52700 9.07400 25.46000
H  39.99700 6.94700 25.44400
H  41.07000 7.45600 24.25900
H  39.38500 8.06400 24.26900
H  41.36200 11.08900 23.93000
H  42.92400 11.41500 24.58000
H  40.69700 12.95200 24.73700
H  42.03500 12.97600 25.93200
H  40.44100 11.95300 26.18900
H  45.73100 12.94000 28.17000
H  46.27200 11.33100 28.13100
H  46.73700 12.27500 29.58700
H  43.75000 12.29300 33.84300
H  46.32500 10.05400 36.56000
H  44.89300 10.66400 37.46900
H  46.28100 11.74100 37.07200

