158

Mg -1.15600 18.52300 26.77100
C  -1.75000 16.36700 29.47700
C  -2.05700 21.11800 28.92100
C  -0.78400 20.59400 24.33500
C  -1.08000 15.83500 24.63300
N  -1.44500 18.79800 29.18200
C  -1.66500 17.70000 29.95700
C  -2.10800 18.19200 31.44500
C  -2.50400 19.70000 31.15700
C  -2.01100 19.89600 29.69300
C  -4.01000 20.04000 31.35900
C  -0.96200 18.12500 32.49400
C  -1.46500 17.54800 33.82600
H  -0.38400 17.34300 34.89600
N  -1.27100 20.58500 26.60300
C  -1.66700 21.46500 27.63000
C  -1.77400 22.77600 27.02500
C  -1.28100 22.63700 25.65300
C  -1.11800 21.20000 25.51200
C  -2.27700 24.00900 27.68600
C  -0.94300 23.66200 24.54600
O  -0.26300 23.36800 23.57600
C  -1.28200 25.06100 24.69900
N  -1.16900 18.24900 24.68800
C  -0.83100 19.28100 23.94900
C  -0.35900 18.88900 22.52800
C  -0.45600 17.29700 22.63900
C  -0.88800 17.05500 24.07900
C  -1.32800 19.41800 21.40900
C  0.79100 16.39000 22.28700
C  0.45300 15.21300 21.35800
N  -1.34800 16.51800 26.92100
C  -1.27500 15.53600 25.97600
C  -1.44600 14.27800 26.62200
C  -1.59300 14.53500 28.00900
C  -1.58700 15.93300 28.11300
C  -1.54400 12.98800 25.88400
C  -1.82400 13.95800 29.27100
O  -1.89800 12.79400 29.60600
C  -1.98600 15.19100 30.26100
C  -0.93400 15.01000 31.29800
O  0.21100 15.36300 31.22800
O  -1.48700 14.24900 32.25500
C  -0.62600 13.77900 33.42200
H  -2.52300 21.95300 29.44800
H  -0.65200 21.26000 23.48000
H  -0.87600 14.91600 24.08000
H  -3.04400 17.66400 31.62700
H  -1.89100 20.40600 31.71700
H  -4.60200 19.13900 31.51900
H  -4.49200 20.63500 30.58400
H  -3.96200 20.74200 32.19100
H  -0.50100 19.10100 32.64700
H  -0.13200 17.63900 31.98200
H  -1.96700 16.58400 33.73400
H  -2.16000 18.29100 34.21500
H  -1.88300 24.94400 27.28600
H  -1.95800 24.06100 28.72700
H  -3.35600 23.86300 27.62200
H  -1.20000 25.53000 23.71800
H  -0.70700 25.62400 25.43500
H  -2.35100 24.94600 24.87700
H  0.62800 19.30100 22.31900
H  -1.28200 17.00100 21.99300
H  -1.98400 18.64700 21.00300
H  -0.72900 19.64600 20.52700
H  -1.92800 20.22300 21.83400
H  1.31000 15.93500 23.13000
H  1.45800 17.08600 21.77800
H  0.17600 15.72700 20.43700
H  -0.49500 14.77700 21.67200
H  1.20500 14.42400 21.36100
H  -2.37500 13.16400 25.20000
H  -1.82200 12.20200 26.58600
H  -0.63500 12.75700 25.32900
H  -3.01700 15.12400 30.60800
H  0.15400 14.50200 33.66200
H  -0.18900 12.78100 33.44400
H  -1.22900 13.81100 34.33000
Mg 8.85700 3.77400 27.57700
C  10.23200 2.26100 30.47100
C  6.90900 5.78600 29.82100
C  7.61300 5.36000 24.92400
C  10.72600 1.67600 25.57300
N  8.67000 3.96300 29.88400
C  9.38300 3.28900 30.88200
C  8.94100 3.69600 32.28300
C  8.03400 4.90100 32.00100
C  7.81100 4.85500 30.47800
C  6.65400 5.05500 32.75800
C  10.10000 4.02300 33.21300
C  9.93200 4.98600 34.40700
H  10.73200 4.66600 35.67200
N  7.36200 5.28500 27.36400
C  6.73000 6.02100 28.40300
C  5.94900 7.12600 27.75200
C  6.20800 7.03000 26.32500
C  7.09900 5.86000 26.15400
C  5.00600 8.06400 28.50000
C  5.81300 7.92400 25.15600
O  6.01600 7.73400 23.96400
C  4.94800 9.18300 25.47000
N  9.17100 3.58100 25.55300
C  8.56200 4.38500 24.61000
C  8.88300 3.92700 23.17100
C  9.97700 2.76400 23.37200
C  10.00700 2.66400 24.93500
C  7.59800 3.59300 22.35700
C  11.33400 3.08100 22.69500
C  11.88300 2.03400 21.72100
N  10.17200 2.22800 27.89700
C  10.87600 1.49300 27.03200
C  11.65900 0.45700 27.75600
C  11.45400 0.83000 29.08100
C  10.53400 1.90000 29.14100
C  12.43400 -0.67100 27.14500
C  11.78500 0.36700 30.42300
O  12.58400 -0.51800 30.87800
C  11.04800 1.31500 31.38500
C  10.21100 0.49100 32.33200
O  9.06900 0.06700 32.08000
O  10.73800 0.43500 33.59200
C  9.86600 -0.07200 34.58400
H  6.34900 6.44000 30.49200
H  7.35000 5.85700 23.98700
H  11.49400 1.03500 25.13500
H  8.41200 2.78700 32.56800
H  8.54800 5.85500 32.11700
H  6.42900 6.10800 32.92700
H  6.52700 4.45900 33.66200
H  5.83000 4.67800 32.15200
H  11.01700 4.29200 32.68900
H  10.30400 3.06100 33.68300
H  8.88800 4.84200 34.68600
H  10.17700 5.97100 34.01000
H  5.49200 9.02200 28.68600
H  4.90700 7.60500 29.48300
H  4.14200 8.09500 27.83600
H  3.99000 8.82500 25.84900
H  4.77700 9.65500 24.50300
H  5.35300 9.83400 26.24400
H  9.37600 4.67000 22.54400
H  9.53700 1.87400 22.92100
H  7.84500 2.75100 21.70900
H  7.18600 4.50500 21.92600
H  6.87900 3.19200 23.07100
H  12.06000 3.37300 23.45400
H  11.24600 4.00500 22.12200
H  11.04300 1.36900 21.52000
H  12.73300 1.47200 22.10900
H  12.16500 2.52800 20.79100
H  13.29000 -0.26800 26.60400
H  11.75600 -1.09700 26.40500
H  12.88100 -1.42900 27.78900
H  11.87200 1.78300 31.92400
H  9.30100 -0.93500 34.23200
H  9.20600 0.78200 34.73800
H  10.29400 -0.42800 35.52200

