158

Mg 8.86000 3.33300 27.91200
C  9.91600 1.62100 30.92800
C  7.25800 5.45900 29.76300
C  7.24400 4.28100 25.08300
C  10.23000 0.64000 26.09700
N  8.38700 3.23800 30.04800
C  9.11500 2.77400 31.14300
C  8.90400 3.57400 32.40200
C  7.72500 4.49500 32.00900
C  7.76300 4.40000 30.48100
C  6.34700 4.31200 32.63600
C  10.26900 4.31300 32.86100
C  10.13800 4.85000 34.30300
H  10.99400 4.08500 35.30500
N  7.41600 4.70900 27.50500
C  6.96500 5.59200 28.41800
C  6.15200 6.58000 27.72000
C  6.14500 6.32000 26.28500
C  6.95100 5.06200 26.21400
C  5.44700 7.69000 28.50700
C  5.38900 7.06200 25.19700
O  5.51000 6.68500 24.00500
C  4.67900 8.33100 25.55000
N  8.82900 2.67100 25.88700
C  8.10500 3.22500 24.89400
C  8.46200 2.70500 23.55200
C  9.51700 1.64400 23.88100
C  9.48800 1.59800 25.39000
C  7.21300 2.17600 22.77200
C  10.94700 1.90700 23.33000
C  11.31000 1.08500 22.09300
N  9.97300 1.47500 28.31400
C  10.42700 0.51000 27.45900
C  11.02800 -0.55200 28.29400
C  10.85900 -0.19400 29.63800
C  10.16100 1.05500 29.63100
C  11.78400 -1.69700 27.71300
C  11.16200 -0.47700 31.03800
O  11.83500 -1.31200 31.52300
C  10.63800 0.64800 31.86400
C  9.60700 0.01700 32.75100
O  8.47100 -0.21700 32.37500
O  10.14400 -0.46300 33.85300
C  9.38500 -1.20600 34.82400
H  7.04500 6.37500 30.31800
H  6.69400 4.65700 24.21800
H  10.62600 -0.18200 25.49700
H  8.57300 2.85500 33.15200
H  8.08600 5.50900 32.18100
H  5.67100 3.84900 31.91700
H  6.00800 5.31700 32.88900
H  6.38600 3.74200 33.56400
H  10.40400 5.19000 32.22900
H  11.16600 3.72100 32.68000
H  9.09200 4.98000 34.58100
H  10.57000 5.85000 34.32400
H  5.91000 8.66600 28.35900
H  5.47000 7.57500 29.59000
H  4.36900 7.62900 28.35600
H  3.84100 8.20500 26.23600
H  4.27100 8.83600 24.67500
H  5.41100 9.00700 25.99300
H  8.94200 3.46100 22.93100
H  9.09300 0.65600 23.70200
H  7.10300 1.14200 22.44500
H  7.19300 2.67800 21.80400
H  6.31400 2.57200 23.24300
H  11.75000 1.70900 24.03900
H  10.92200 2.89800 22.87800
H  11.33700 1.60400 21.13500
H  10.52700 0.32700 22.11200
H  12.29200 0.62300 22.19600
H  11.37100 -1.79300 26.70800
H  11.54100 -2.57100 28.31700
H  12.81800 -1.35600 27.66800
H  11.38700 1.01800 32.56500
H  10.16800 -1.82800 35.25800
H  8.63900 -1.77700 34.27100
H  8.94800 -0.47700 35.50700
Mg 30.56300 58.41400 38.88600
C  27.39100 56.83800 37.97000
C  32.02900 55.52700 37.70600
C  33.37500 59.99500 39.10800
C  28.66300 61.27000 39.61000
N  29.72100 56.50300 37.67300
C  28.44800 56.08300 37.53600
C  28.44300 54.83900 36.71100
C  29.83200 54.20100 37.11400
C  30.59800 55.49200 37.49100
C  29.64400 53.09400 38.24400
C  28.26700 55.01000 35.19600
C  27.00400 54.41900 34.56700
H  26.34000 55.34500 33.57200
N  32.51800 57.86500 38.41500
C  32.93000 56.61800 38.09000
C  34.35800 56.57700 38.15900
C  34.80200 57.84800 38.58900
C  33.59600 58.62400 38.82100
C  35.12600 55.29600 37.83500
C  36.27700 58.29500 38.53100
O  37.07700 57.54800 38.05200
C  36.70400 59.62100 38.93900
N  30.99700 60.42600 39.27800
C  32.26400 60.87100 39.19500
C  32.30000 62.46400 39.25500
C  30.76500 62.75100 39.60600
C  30.08000 61.44400 39.51600
C  33.29500 63.20900 40.17100
C  30.12500 63.96600 38.86000
C  29.33200 64.96600 39.67400
N  28.48600 58.93100 38.93000
C  27.88900 60.10200 39.36700
C  26.45500 59.99000 39.35600
C  26.26400 58.66700 38.90400
C  27.49800 58.11100 38.60600
C  25.51000 61.02900 39.61900
C  25.19500 57.81600 38.62500
O  23.97200 57.88600 38.70900
C  25.92200 56.54000 38.04100
C  25.64100 55.38100 38.91400
O  26.08900 55.13500 40.01900
O  24.59000 54.62100 38.28300
C  24.03600 53.50600 39.03500
H  32.51500 54.57500 37.48000
H  34.30400 60.56300 39.19200
H  28.06700 62.18400 39.58500
H  27.66600 54.22900 37.17100
H  30.32700 53.78200 36.23800
H  30.44000 53.24600 38.97300
H  29.75700 52.07600 37.87100
H  28.67800 53.16300 38.74400
H  29.12500 54.58300 34.67700
H  28.36400 56.08400 35.03700
H  26.30900 54.22400 35.38300
H  27.35100 53.50500 34.08500
H  35.46600 54.74800 38.71300
H  36.01300 55.42600 37.21500
H  34.51700 54.68800 37.16600
H  37.77300 59.61200 39.15300
H  36.26100 59.94900 39.88000
H  36.56100 60.41300 38.20500
H  32.47700 62.74900 38.21800
H  30.67900 62.92300 40.67900
H  33.81200 63.94100 39.55000
H  33.94600 62.42600 40.55900
H  32.94000 63.83400 40.99100
H  29.43100 63.56400 38.12200
H  30.93400 64.54600 38.41600
H  28.44100 65.10800 39.06300
H  29.83900 65.92900 39.63200
H  29.03400 64.68900 40.68600
H  24.56400 60.57800 39.91500
H  25.49600 61.62500 38.70600
H  25.85000 61.66800 40.43400
H  25.56700 56.28900 37.04200
H  23.40800 52.84600 38.43600
H  23.64000 53.77600 40.01300
H  24.88500 52.83900 39.18500

