158

Mg 51.91300 24.52000 45.28800
C  49.13200 26.49300 44.59700
C  50.22700 21.77000 44.09800
C  54.94200 22.76000 45.36000
C  53.73300 27.34900 46.35500
N  49.95000 24.16500 44.26400
C  48.95200 25.13100 44.11400
C  47.77000 24.51500 43.32900
C  47.94800 22.99300 43.63100
C  49.45200 22.93200 44.02600
C  47.03000 22.66800 44.74900
C  47.73600 24.93000 41.77900
C  49.14000 25.30200 41.20900
H  49.13200 25.48500 39.66600
N  52.53900 22.53900 44.81100
C  51.62000 21.57000 44.42900
C  52.39900 20.31500 44.37600
C  53.74100 20.59300 44.49100
C  53.81400 22.03100 44.94000
C  51.78400 19.03600 43.93500
C  54.90800 19.64600 44.27100
O  54.62400 18.59600 43.70900
C  56.38300 19.90700 44.54500
N  54.09000 25.01600 45.61700
C  55.05400 24.11600 45.65100
C  56.47200 24.69200 45.97000
C  56.09700 26.20000 46.32800
C  54.53900 26.22800 46.02600
C  57.23000 23.84600 47.13700
C  56.88500 27.20200 45.38900
C  57.65300 28.21600 46.12800
N  51.50300 26.53000 45.53500
C  52.32900 27.56500 45.97700
C  51.44800 28.74000 46.19300
C  50.21200 28.33700 45.63600
C  50.30800 27.01100 45.26700
C  51.88800 30.08200 46.77700
C  48.86900 28.76400 45.32600
O  48.40200 29.91000 45.44600
C  48.11600 27.66800 44.58800
C  47.68000 28.10500 43.29400
O  48.38200 28.31200 42.31200
O  46.32400 28.26100 43.38100
C  45.70000 28.86700 42.22500
H  49.63500 20.86200 43.96200
H  55.85000 22.16900 45.49100
H  54.27100 28.14000 46.88100
H  46.88800 24.94900 43.80000
H  47.73200 22.36500 42.76700
H  47.29600 21.66100 45.07000
H  46.02900 22.71900 44.32000
H  46.92300 23.37300 45.57300
H  46.99100 25.72400 41.71800
H  47.39400 24.10600 41.15300
H  49.76200 24.42200 41.37600
H  49.57600 26.19000 41.66600
H  51.41300 19.01800 42.91100
H  50.92800 18.76800 44.55400
H  52.50600 18.26100 44.19100
H  57.09700 19.20300 44.11700
H  56.55100 20.07100 45.60900
H  56.62200 20.82600 44.01000
H  57.04800 24.57000 45.05200
H  56.34900 26.50300 47.34400
H  56.45300 23.28400 47.65500
H  57.76400 24.56400 47.76000
H  57.91800 23.16800 46.63200
H  56.16200 27.84900 44.89300
H  57.52000 26.70400 44.65600
H  57.26200 29.21400 45.92800
H  58.71600 28.12100 45.91000
H  57.50100 28.14300 47.20500
H  51.06100 30.79100 46.73200
H  52.79500 30.34100 46.23000
H  52.16600 30.07700 47.83100
H  47.25000 27.50000 45.22800
H  44.62400 29.01800 42.31000
H  45.95000 28.36600 41.28900
H  46.06900 29.88200 42.08100
Mg -8.05200 19.36400 42.64800
C  -4.62000 18.78800 42.74700
C  -7.35400 22.71700 42.34400
C  -11.31900 19.89800 42.52000
C  -8.51400 15.87600 42.43900
N  -6.19000 20.55400 42.48800
C  -4.89900 20.08600 42.47600
C  -3.87200 21.16400 42.23200
C  -4.79700 22.48200 42.32700
C  -6.19300 21.92000 42.45300
C  -4.46600 23.48500 43.53400
C  -3.16400 21.15100 40.84900
C  -3.72500 20.35100 39.64300
H  -3.30300 20.84600 38.17100
N  -9.19200 21.08900 42.46900
C  -8.70800 22.33500 42.35100
C  -9.82400 23.23700 42.22700
C  -10.95900 22.43900 42.29600
C  -10.55800 21.06300 42.46800
C  -9.61200 24.69000 42.09600
C  -12.39600 22.93900 42.30900
O  -12.62400 24.10100 42.68100
C  -13.64100 21.98400 41.91400
N  -9.64100 18.11600 42.50200
C  -10.87800 18.60700 42.67800
C  -11.94600 17.41400 42.54200
C  -10.98400 16.16700 42.44200
C  -9.63300 16.74300 42.47500
C  -12.90000 17.47100 43.75100
C  -11.27300 15.29900 41.21500
C  -11.47200 13.84900 41.56100
N  -6.82200 17.59100 42.65900
C  -7.14500 16.26700 42.70700
C  -5.94400 15.46700 42.92500
C  -4.95200 16.46800 42.94500
C  -5.55200 17.67800 42.75600
C  -5.77500 14.05000 43.28500
C  -3.52100 16.67400 43.15000
O  -2.61300 15.83200 43.49300
C  -3.19800 18.20600 42.97100
C  -2.40900 18.66500 44.18200
O  -1.27800 19.09100 44.17600
O  -3.19000 18.51800 45.34400
C  -2.53100 19.02000 46.61300
H  -7.18000 23.77700 42.14700
H  -12.39000 20.03100 42.68400
H  -8.76800 14.82300 42.57900
H  -3.11800 21.17500 43.01900
H  -4.71500 22.96400 41.35300
H  -5.29300 23.87900 44.12400
H  -4.04900 24.37400 43.06000
H  -3.73200 23.11500 44.25000
H  -2.19200 20.66500 40.92100
H  -3.02100 22.17200 40.49300
H  -4.80600 20.24000 39.72100
H  -3.42100 19.32600 39.85700
H  -10.55000 25.03000 41.65800
H  -8.84800 24.98200 41.37600
H  -9.45700 25.24800 43.02000
H  -14.00300 21.44000 42.78600
H  -13.46600 21.24000 41.13600
H  -14.47500 22.62300 41.62200
H  -12.51400 17.67000 41.64800
H  -11.13800 15.52500 43.31000
H  -13.27800 16.45600 43.87500
H  -13.82700 18.02900 43.62300
H  -12.29900 17.69000 44.63300
H  -10.46800 15.53200 40.51800
H  -12.12100 15.66900 40.63800
H  -12.39000 13.50500 42.03800
H  -10.74600 13.50000 42.29500
H  -11.10600 13.21300 40.75500
H  -5.29100 13.64500 42.39600
H  -6.65900 13.44800 43.49100
H  -4.96300 13.87800 43.99200
H  -2.55200 18.28000 42.09600
H  -3.03800 19.95300 46.85800
H  -1.46900 19.25600 46.54800
H  -2.45700 18.24700 47.37800

