158

Mg 0.07500 8.43700 26.82000
C  0.79600 10.51200 29.61100
C  0.64400 5.70300 28.83300
C  -0.13900 6.54600 24.08500
C  0.08300 11.40600 24.93500
N  0.48500 8.21900 28.95100
C  0.56200 9.10500 29.97100
C  0.65900 8.51600 31.32500
C  0.95200 6.98500 31.03700
C  0.72500 6.95100 29.50300
C  2.36300 6.49900 31.27600
C  -0.72200 8.78000 31.93200
C  -0.90900 8.59400 33.47400
H  0.16700 8.25500 34.44300
N  0.12200 6.36600 26.54500
C  0.36400 5.41800 27.45000
C  0.32700 4.09700 26.83500
C  0.07300 4.34100 25.46000
C  0.11500 5.82600 25.26100
C  0.49100 2.87200 27.64200
C  -0.11700 3.32100 24.38700
O  -0.23300 3.79800 23.23700
C  -0.21400 1.78200 24.60400
N  0.20800 8.89100 24.87800
C  -0.14300 7.94900 23.92800
C  -0.28900 8.61600 22.54700
C  -0.56400 10.09400 22.88800
C  0.02300 10.14000 24.27800
C  0.87500 8.46800 21.57100
C  -2.04400 10.59300 22.92500
C  -2.45800 11.37900 21.65100
N  0.38400 10.50600 27.17000
C  0.40800 11.60300 26.27500
C  0.72900 12.85800 26.88600
C  0.90300 12.42300 28.22400
C  0.62500 11.07400 28.34100
C  0.94300 14.28800 26.25100
C  1.31800 12.87700 29.54000
O  1.73200 14.00100 29.83100
C  1.10600 11.67500 30.52100
C  2.37900 11.52800 31.27600
O  3.45500 11.00600 30.94100
O  2.13500 12.17000 32.45300
C  3.21100 12.06400 33.53500
H  0.97200 4.91900 29.51800
H  -0.35500 5.97700 23.17800
H  -0.04300 12.23700 24.23700
H  1.46200 9.00200 31.88000
H  0.14800 6.42200 31.51100
H  2.25300 5.63300 31.93000
H  2.94400 7.32400 31.68700
H  2.85800 6.11900 30.38300
H  -1.51900 8.30200 31.36300
H  -0.85400 9.85800 31.84100
H  -1.69400 7.85600 33.63500
H  -1.27100 9.55800 33.83300
H  0.98500 3.02000 28.60200
H  1.13800 2.19600 27.08100
H  -0.48700 2.42200 27.80900
H  0.81900 1.48400 24.78500
H  -0.44600 1.38500 23.61700
H  -1.05300 1.58200 25.27100
H  -1.22200 8.27700 22.09700
H  0.06400 10.72700 22.26000
H  1.22900 7.43700 21.55000
H  1.74200 9.03300 21.91100
H  0.55100 8.70600 20.55800
H  -2.34300 11.16200 23.80600
H  -2.58800 9.65700 23.05600
H  -1.66100 11.50700 20.91900
H  -2.74200 12.35400 22.04800
H  -3.26900 10.88200 21.11800
H  1.37700 14.95200 26.99900
H  0.06000 14.76100 25.82100
H  1.74600 14.24000 25.51600
H  0.31700 12.00700 31.19500
H  3.60800 13.04900 33.78100
H  4.00600 11.38200 33.23200
H  2.69300 11.68500 34.41600
Mg -1.77900 34.27800 26.46600
C  -3.92800 32.77000 28.94300
C  -0.86200 36.48200 28.88300
C  -0.42100 36.08700 24.12800
C  -3.58800 32.49800 24.05000
N  -2.43100 34.62200 28.60700
C  -3.15300 33.81300 29.41900
C  -2.94300 34.20400 30.90600
C  -2.16700 35.56000 30.80800
C  -1.79100 35.58800 29.38100
C  -2.89600 36.83700 31.24500
C  -2.23600 33.09600 31.85600
C  -2.84500 32.66400 33.23100
H  -1.99500 32.39900 34.42600
N  -0.67400 36.07300 26.46800
C  -0.39100 36.77400 27.55800
C  0.62200 37.82400 27.16700
C  0.81200 37.65200 25.74600
C  -0.10800 36.59000 25.37900
C  1.18200 38.85500 28.06200
C  1.62200 38.46100 24.82700
O  1.57000 38.36600 23.56500
C  2.60200 39.46900 25.26900
N  -2.16000 34.44600 24.41200
C  -1.26300 35.15300 23.62600
C  -1.30700 34.77400 22.11600
C  -2.44400 33.72600 22.04500
C  -2.81900 33.58400 23.58100
C  -1.37700 35.94500 21.10400
C  -2.06300 32.40800 21.35700
C  -3.19900 31.74300 20.49200
N  -3.28500 32.76400 26.44600
C  -3.91200 32.11800 25.38500
C  -4.83800 31.17300 25.89600
C  -4.86000 31.39500 27.31600
C  -3.92900 32.39000 27.57700
C  -5.52700 30.15900 25.00700
C  -5.41900 30.85700 28.56200
O  -6.18000 29.92700 28.72000
C  -4.77200 31.75300 29.68900
C  -5.96500 32.21000 30.49000
O  -6.70000 33.14300 30.17900
O  -5.97300 31.56000 31.72000
C  -6.94600 32.15400 32.70500
H  -0.36800 37.08800 29.64500
H  0.18500 36.46300 23.30100
H  -4.02700 31.79900 23.33500
H  -3.87400 34.52800 31.37200
H  -1.30500 35.48600 31.47100
H  -3.94500 36.70900 31.51000
H  -2.86100 37.61900 30.48700
H  -2.49600 37.28900 32.15200
H  -1.24000 33.44900 32.12200
H  -2.14500 32.13600 31.35000
H  -3.50800 31.80100 33.17000
H  -3.62700 33.39000 33.45600
H  2.27000 38.78400 28.07900
H  0.75300 38.67500 29.04700
H  0.98100 39.90200 27.83700
H  3.11300 40.04400 24.49700
H  3.30700 38.73400 25.65900
H  2.09300 40.17300 25.92700
H  -0.37000 34.28100 21.85900
H  -3.27100 34.20100 21.51700
H  -1.37700 36.91700 21.59700
H  -2.28400 35.97200 20.50100
H  -0.48800 36.02700 20.47800
H  -1.88200 31.62900 22.09700
H  -1.21600 32.53000 20.68200
H  -3.83500 32.43600 19.94100
H  -3.84000 31.18400 21.17300
H  -2.65800 31.09200 19.80500
H  -6.53800 30.53400 24.84700
H  -5.52600 29.23400 25.58400
H  -5.12100 30.01900 24.00500
H  -4.17800 31.24200 30.44700
H  -6.62700 33.16700 32.95000
H  -6.88700 31.71600 33.70200
H  -7.96500 32.10200 32.32300

