158

Mg 25.26000 0.72300 29.74200
C  27.27400 0.65700 32.64400
C  22.42500 0.92700 31.76900
C  23.45100 0.17600 26.92900
C  28.15900 -0.00900 27.83900
N  24.93700 0.71700 32.05400
C  25.92400 0.71000 33.05600
C  25.25100 0.83700 34.46900
C  23.70800 0.87200 34.05900
C  23.67400 0.82800 32.52400
C  22.81400 -0.25800 34.71300
C  25.76600 2.10300 35.37900
C  26.40500 1.83600 36.68100
H  26.26700 2.95600 37.74600
N  23.26700 0.69100 29.41300
C  22.23600 0.81400 30.30000
C  21.03000 1.04700 29.58700
C  21.26300 0.84100 28.24600
C  22.74300 0.59300 28.11500
C  19.69400 1.26600 30.18900
C  20.25700 0.75300 27.12000
O  20.56200 0.37900 25.99300
C  18.93400 1.21000 27.31100
N  25.75900 0.23700 27.77600
C  24.78900 -0.01500 26.82500
C  25.37900 -0.26800 25.45100
C  26.86700 -0.42400 25.81000
C  26.97400 0.02900 27.21400
C  24.64300 -1.32700 24.53900
C  27.71900 0.50200 24.86400
C  27.97800 1.97800 25.22800
N  27.36800 0.50800 30.11500
C  28.40400 0.15000 29.21000
C  29.61200 0.03900 30.07200
C  29.19200 0.26200 31.34700
C  27.84800 0.52600 31.36200
C  31.02000 -0.18900 29.55600
C  29.72300 0.42800 32.65700
O  30.91000 0.41000 33.01900
C  28.50700 0.77200 33.54900
C  28.41400 -0.30800 34.61800
O  27.67000 -1.30200 34.48800
O  29.25800 0.01600 35.62400
C  29.26200 -0.98500 36.76500
H  21.51500 0.94700 32.37300
H  22.83900 0.11700 26.02600
H  29.08100 0.01500 27.25500
H  25.59800 0.01200 35.09000
H  23.34400 1.85400 34.36100
H  21.93900 0.10300 35.25400
H  23.34600 -0.93300 35.38300
H  22.41600 -0.91400 33.93900
H  24.93800 2.74000 35.68900
H  26.35400 2.84000 34.83200
H  27.46200 1.57400 36.65100
H  25.94100 0.95800 37.13100
H  19.15000 2.18400 29.96600
H  19.85500 1.23400 31.26600
H  19.07500 0.39600 29.97000
H  18.50800 1.34000 26.31700
H  18.95500 2.22000 27.72000
H  18.20100 0.61600 27.85700
H  25.27700 0.65700 24.88500
H  27.21700 -1.45400 25.74800
H  25.33200 -2.12000 24.24600
H  24.27700 -0.81400 23.65000
H  23.86100 -1.82100 25.11500
H  27.36600 0.44200 23.83500
H  28.69300 0.01300 24.84900
H  27.49000 2.32300 26.13900
H  27.49100 2.49200 24.40000
H  29.05500 2.14600 25.22100
H  31.36800 0.71200 29.05200
H  30.99900 -1.07700 28.92500
H  31.73900 -0.38200 30.35200
H  28.55000 1.73900 34.05000
H  29.34600 -2.03900 36.49800
H  28.28000 -0.85900 37.22200
H  30.06900 -0.95200 37.49700
Mg -5.89500 24.90800 25.98000
C  -4.35000 26.32000 28.84400
C  -7.76200 22.93400 28.13300
C  -6.95500 23.36100 23.20000
C  -3.62700 26.66600 23.97900
N  -5.78500 24.49000 28.20900
C  -5.24000 25.28400 29.20100
C  -5.76000 24.85200 30.60900
C  -6.69600 23.60700 30.27600
C  -6.79800 23.72400 28.77400
C  -6.08000 22.14900 30.80400
C  -6.50800 26.05700 31.27900
C  -6.39100 26.17900 32.79400
H  -5.92500 24.95600 33.53600
N  -7.38600 23.56600 25.65700
C  -8.03100 22.85800 26.66700
C  -9.08200 22.07100 26.09200
C  -8.78400 22.03800 24.66500
C  -7.66200 22.97700 24.45600
C  -10.15700 21.50400 26.91100
C  -9.46300 21.30200 23.54100
O  -9.19800 21.49000 22.30100
C  -10.70800 20.41000 23.80600
N  -5.25700 24.82300 23.92300
C  -5.86600 24.21200 22.94300
C  -5.41000 24.59900 21.58600
C  -4.49600 25.81000 21.78000
C  -4.47900 25.76700 23.32900
C  -4.73300 23.41800 20.78400
C  -5.09100 27.09100 21.13200
C  -4.25700 27.57900 19.96600
N  -4.33900 26.27200 26.27500
C  -3.56800 26.89300 25.35100
C  -2.69600 27.84700 26.01500
C  -2.90600 27.57100 27.36800
C  -3.94500 26.61600 27.50300
C  -1.70900 28.87400 25.37000
C  -2.45400 27.86800 28.70000
O  -1.47900 28.49000 29.04700
C  -3.42500 27.12100 29.74200
C  -2.55200 26.37300 30.67100
O  -2.08800 25.27500 30.42500
O  -2.43700 26.97100 31.84700
C  -1.76500 26.21100 32.93400
H  -8.47900 22.43900 28.79100
H  -7.48100 22.97600 22.32400
H  -2.90300 27.10600 23.29000
H  -4.90100 24.50800 31.18500
H  -7.63700 23.64400 30.82500
H  -6.86600 21.75800 31.45000
H  -5.23900 22.21700 31.49400
H  -6.02800 21.46600 29.95600
H  -7.53000 25.99900 30.90400
H  -6.12700 26.96700 30.81500
H  -7.38400 26.42300 33.17300
H  -5.75600 27.05000 32.95400
H  -10.45500 22.19600 27.69900
H  -10.01200 20.57100 27.45400
H  -11.03200 21.25500 26.30900
H  -10.40500 19.62500 24.49900
H  -11.08400 20.05700 22.84600
H  -11.46000 20.97800 24.35300
H  -6.37600 24.83100 21.13700
H  -3.47400 25.61500 21.45400
H  -3.81900 23.64100 20.23400
H  -5.47900 23.06800 20.07000
H  -4.42400 22.60500 21.44200
H  -5.24200 27.81800 21.93000
H  -6.08900 26.95400 20.71600
H  -3.60600 26.76800 19.63800
H  -3.62600 28.40400 20.29600
H  -4.92900 27.88600 19.16500
H  -2.02700 29.87500 25.66000
H  -1.71300 28.68600 24.29600
H  -0.69600 28.64200 25.69800
H  -3.91900 27.89700 30.32700
H  -0.69200 26.30100 32.76600
H  -2.06400 25.18200 33.13300
H  -2.11400 26.67400 33.85700

