158

Mg 47.54300 16.74600 28.31100
C  45.83300 16.60800 31.46700
C  49.96500 18.75100 29.96700
C  49.05600 17.16700 25.47400
C  44.91300 15.14100 26.91200
N  47.76100 17.73300 30.44900
C  47.01900 17.33900 31.56700
C  47.55100 18.01800 32.82100
C  48.73200 18.84500 32.22800
C  48.91000 18.39100 30.79100
C  48.48000 20.38100 32.21300
C  47.98200 17.02000 33.93500
C  47.83300 17.59100 35.45100
H  47.91200 19.08900 35.62200
N  49.36100 17.72000 27.79900
C  50.13000 18.51100 28.64200
C  51.31000 18.85100 27.87900
C  51.07000 18.45800 26.47100
C  49.81000 17.68800 26.54300
C  52.50600 19.60700 28.47900
C  51.75500 18.70600 25.24600
O  51.33900 18.27900 24.21800
C  52.92500 19.60200 25.26300
N  47.07000 16.15200 26.46100
C  47.84500 16.46800 25.44100
C  47.19700 15.98200 24.14400
C  46.14000 14.97600 24.63700
C  45.96900 15.52600 26.08700
C  46.71300 17.12600 23.19500
C  46.58500 13.48700 24.67000
C  46.16200 12.71100 23.40500
N  45.68400 16.11000 28.94500
C  44.67500 15.50900 28.21900
C  43.56200 15.16500 29.12000
C  44.01900 15.58000 30.37300
C  45.26400 16.12700 30.25500
C  42.30000 14.32100 28.88400
C  43.72100 15.44800 31.74600
O  42.81900 14.85600 32.31900
C  44.88200 16.12200 32.55900
C  44.29200 17.22900 33.33000
O  43.66100 18.19500 32.94100
O  44.48000 16.96600 34.66000
C  43.92900 17.82200 35.70300
H  50.75300 19.19600 30.57900
H  49.47600 17.26100 24.47000
H  44.10300 14.52200 26.52100
H  46.74800 18.64400 33.21100
H  49.68800 18.66800 32.72200
H  47.62900 20.75500 32.78300
H  48.39900 20.60600 31.15000
H  49.44000 20.73700 32.58800
H  49.06400 16.94900 33.82700
H  47.51300 16.03800 33.87400
H  48.44400 17.04700 36.17100
H  46.82300 17.28200 35.72100
H  53.45200 19.06600 28.48900
H  52.27500 19.90000 29.50400
H  52.57900 20.44500 27.78500
H  53.41800 19.65600 24.29200
H  53.67100 19.13400 25.90500
H  52.69600 20.63200 25.54000
H  47.97200 15.35700 23.69800
H  45.18800 15.11300 24.12500
H  46.27900 16.63200 22.32600
H  47.61700 17.59400 22.80500
H  45.93200 17.68300 23.71400
H  46.39300 13.01800 25.63500
H  47.66200 13.31800 24.65600
H  47.04100 12.16500 23.06300
H  45.75900 13.38000 22.64500
H  45.36400 12.04300 23.73100
H  41.92600 14.33600 27.86000
H  41.54000 14.46800 29.65100
H  42.62000 13.29500 29.06400
H  45.26400 15.28900 33.14900
H  42.90600 17.55800 35.97300
H  43.80600 18.85400 35.37400
H  44.56500 17.85100 36.58700
Mg -12.20900 40.01600 41.98200
C  -10.81000 36.90200 41.20000
C  -9.61000 41.56300 40.10300
C  -13.87800 42.97100 42.19800
C  -14.99900 38.37500 43.26600
N  -10.48600 39.25700 40.70000
C  -10.07800 37.95000 40.65600
C  -8.71800 37.89200 39.87600
C  -8.34200 39.34900 39.65200
C  -9.52300 40.11900 40.17700
C  -6.96400 39.75900 40.23300
C  -8.70400 36.92900 38.69900
C  -7.63900 35.82500 38.63900
H  -7.07800 35.33800 37.28300
N  -11.82500 42.04300 41.24700
C  -10.67900 42.38000 40.54800
C  -10.67400 43.82800 40.39800
C  -11.87100 44.30500 40.98500
C  -12.62400 43.11600 41.53600
C  -9.57800 44.65700 39.75400
C  -12.37100 45.66200 41.12200
O  -11.57800 46.61300 40.81600
C  -13.62400 46.01300 41.73800
N  -14.30300 40.53100 42.48300
C  -14.71000 41.82600 42.54100
C  -16.15300 41.93800 42.98500
C  -16.56500 40.39500 43.29200
C  -15.17600 39.70200 42.94500
C  -16.54600 42.92000 44.19200
C  -17.72800 39.81700 42.41100
C  -19.07900 39.69600 43.09500
N  -12.80700 38.07000 42.25600
C  -13.89400 37.57300 42.89200
C  -13.71300 36.09600 43.07900
C  -12.43900 35.81300 42.38600
C  -12.02700 37.00200 41.85900
C  -14.57500 35.18600 43.86700
C  -11.54700 34.74400 42.16200
O  -11.63300 33.60900 42.56800
C  -10.42700 35.39500 41.19300
C  -9.17700 35.04200 41.84700
O  -8.59800 33.95600 41.73100
O  -8.59300 36.08300 42.41600
C  -7.37900 35.90800 43.18700
H  -8.63000 41.87700 39.73700
H  -14.43600 43.82100 42.59600
H  -15.81800 37.84300 43.75500
H  -7.97000 37.47000 40.54700
H  -8.39800 39.66700 38.61100
H  -6.74900 38.99900 40.98400
H  -6.87800 40.69800 40.77900
H  -6.09800 39.73400 39.57100
H  -8.37500 37.41700 37.78200
H  -9.70000 36.51200 38.55200
H  -8.20400 34.98700 39.04700
H  -6.83100 35.91700 39.36500
H  -9.89700 45.06700 38.79500
H  -8.78800 43.97700 39.43500
H  -9.05100 45.39300 40.36100
H  -14.40400 45.62800 41.08100
H  -13.65300 47.10100 41.79200
H  -13.60200 45.71800 42.78700
H  -16.74600 42.18100 42.10300
H  -16.88500 40.23400 44.32200
H  -17.08000 43.80200 43.84100
H  -15.64400 43.16500 44.75300
H  -17.19300 42.41200 44.90700
H  -17.47000 38.80600 42.09800
H  -17.85000 40.38300 41.48800
H  -19.48200 38.68400 43.05700
H  -19.86400 40.17800 42.51300
H  -19.02700 40.12100 44.09700
H  -14.30600 34.15900 43.62300
H  -15.57100 35.28900 43.43600
H  -14.42800 35.48500 44.90500
H  -10.41800 34.87400 40.23600
H  -6.86400 36.86800 43.14700
H  -6.66300 35.23600 42.71400
H  -7.44900 35.67300 44.24900

