158

Mg 43.15000 41.94500 26.19600
C  42.22100 44.30000 28.74000
C  44.40000 39.93400 28.71100
C  44.20400 39.94000 23.87400
C  42.41300 44.42400 23.82500
N  43.28400 42.13100 28.53100
C  42.78500 43.12900 29.33300
C  42.74700 42.79300 30.84300
C  43.68500 41.54600 30.75100
C  43.87400 41.17800 29.25100
C  45.04000 41.70500 31.49800
C  41.31100 42.58000 31.52700
C  40.94200 43.41900 32.80000
H  41.87500 43.62000 33.92600
N  44.00800 40.10400 26.27900
C  44.53300 39.44500 27.39800
C  45.11800 38.14300 26.95100
C  44.83900 38.06600 25.55000
C  44.31400 39.33900 25.18000
C  45.82100 37.29200 27.96000
C  44.92700 36.93400 24.64300
O  44.68900 36.97300 23.45500
C  45.33100 35.59900 25.20500
N  43.46000 42.29700 24.18400
C  43.71700 41.21100 23.43100
C  43.41500 41.37100 21.92500
C  42.90600 42.81400 21.92400
C  43.02900 43.27900 23.37100
C  44.68800 41.28500 20.97600
C  41.52100 42.95000 21.37100
C  40.51700 42.13500 22.07300
N  42.46800 44.00000 26.18500
C  42.25200 44.84400 25.14600
C  41.73500 46.11800 25.70300
C  41.60500 45.94500 27.10700
C  42.15700 44.64000 27.38000
C  41.49900 47.42900 24.82900
C  41.21500 46.56400 28.36100
O  40.73500 47.67200 28.56000
C  41.66600 45.53100 29.49400
C  42.63300 46.15400 30.42100
O  43.82300 46.21800 30.21800
O  42.02100 46.76100 31.45100
C  42.82100 47.57700 32.42800
H  44.65700 39.18700 29.46400
H  44.57700 39.25700 23.10800
H  42.38300 45.25900 23.12300
H  43.40900 43.48400 31.36500
H  43.26700 40.63100 31.16900
H  44.74200 41.97800 32.51100
H  45.64800 42.48500 31.04100
H  45.70800 40.84600 31.44000
H  41.25600 41.52400 31.79000
H  40.61100 42.72800 30.70400
H  40.01200 42.93300 33.09900
H  40.72400 44.42400 32.43800
H  45.09800 36.63600 28.44500
H  46.33200 37.82300 28.76400
H  46.59000 36.65300 27.52700
H  46.39200 35.58300 25.45500
H  45.14700 34.80600 24.48000
H  44.69100 35.36000 26.05500
H  42.74200 40.57200 21.61600
H  43.66100 43.41200 21.41400
H  44.61600 41.72300 19.98100
H  44.92900 40.22600 20.88200
H  45.61700 41.71500 21.35100
H  41.55200 42.55100 20.35700
H  41.14600 43.96700 21.25400
H  40.93500 41.69200 22.97700
H  40.26800 41.33600 21.37500
H  39.62300 42.69600 22.34300
H  41.37700 47.10500 23.79600
H  42.37600 48.07600 24.84800
H  40.58000 47.91600 25.15600
H  40.76400 45.26000 30.04200
H  43.16200 47.00500 33.29100
H  42.19200 48.30900 32.93600
H  43.66700 48.07900 31.96100
Mg 9.92600 47.28700 26.69400
C  8.00600 47.27700 29.55700
C  12.62500 48.38900 28.41600
C  11.64700 47.30300 23.75600
C  7.04900 46.42100 24.88800
N  10.23500 47.67600 28.80100
C  9.33200 47.57100 29.83600
C  9.99400 47.87400 31.16400
C  11.33900 48.68100 30.68700
C  11.39900 48.26000 29.21900
C  11.23700 50.23000 30.75100
C  10.24600 46.57500 32.08800
C  9.68800 46.78100 33.50700
H  9.67700 45.50000 34.37900
N  11.92500 47.56900 26.17900
C  12.90700 48.07800 27.03000
C  14.14800 48.18500 26.35000
C  13.87800 47.64400 25.01900
C  12.43800 47.55600 24.90500
C  15.40500 48.77300 26.97000
C  14.87100 47.36900 23.88100
O  14.53200 47.03400 22.76400
C  16.30800 47.50500 24.04400
N  9.46500 46.84800 24.62700
C  10.31800 46.96000 23.52700
C  9.72700 46.41000 22.23700
C  8.33700 45.98800 22.70600
C  8.22800 46.47100 24.12700
C  9.73100 47.49400 21.10200
C  8.15000 44.42600 22.64200
C  9.34700 43.56500 23.10400
N  7.86200 47.01500 27.10500
C  6.87300 46.67500 26.29000
C  5.63900 46.55300 27.05200
C  6.03800 46.83500 28.38500
C  7.39200 47.08100 28.32600
C  4.27100 46.18500 26.51100
C  5.64000 47.03200 29.72500
O  4.53000 47.02200 30.20600
C  6.92700 47.15500 30.59400
C  6.93000 45.88100 31.40300
O  7.49400 44.82400 31.12000
O  6.16000 46.15100 32.48500
C  5.85500 44.91500 33.25400
H  13.47200 48.78000 28.98400
H  12.12500 47.37600 22.77700
H  6.14700 45.94900 24.49400
H  9.42400 48.58700 31.76000
H  12.22700 48.39700 31.25000
H  11.52700 50.70400 29.81400
H  12.01300 50.47800 31.47500
H  10.27500 50.66800 31.01500
H  11.33400 46.50400 32.10500
H  9.69200 45.71600 31.71100
H  8.70400 47.22100 33.34800
H  10.33200 47.50900 34.00000
H  15.94100 49.21100 26.12800
H  15.96500 47.95300 27.41900
H  15.27400 49.50000 27.77100
H  16.69400 47.04800 24.95500
H  16.50000 48.54800 23.79200
H  16.76500 46.91300 23.25100
H  10.36600 45.56900 21.96800
H  7.55600 46.50000 22.14300
H  10.26800 47.12500 20.22900
H  10.21000 48.36600 21.54800
H  8.73800 47.82100 20.79100
H  7.81800 44.10800 21.65400
H  7.24200 44.15000 23.17900
H  10.01500 43.22300 22.31400
H  8.99900 42.69700 23.66500
H  9.88900 44.16900 23.83300
H  3.79700 47.03900 26.02900
H  3.65100 46.22400 27.40700
H  4.28500 45.26100 25.93200
H  6.89700 48.04900 31.21700
H  5.95900 44.00700 32.66000
H  4.83200 44.93400 33.63000
H  6.49800 44.69700 34.10700

