158

Mg 49.24300 35.31900 28.48700
C  47.00500 33.80900 30.67900
C  49.30700 38.05900 30.52900
C  51.19700 36.76200 26.17100
C  48.47400 32.86500 26.03300
N  48.35100 35.85500 30.46800
C  47.54800 34.97900 31.18100
C  47.31300 35.58500 32.62000
C  47.86900 37.07400 32.45400
C  48.55300 36.96700 31.06400
C  46.82300 38.20400 32.47900
C  48.06400 34.60800 33.66500
C  49.55900 34.93600 34.05700
H  49.95900 35.64300 35.38600
N  50.18900 37.12900 28.46100
C  50.03800 38.18100 29.33000
C  50.95900 39.25400 28.93300
C  51.64800 38.82700 27.76900
C  50.99300 37.50700 27.40500
C  51.19600 40.49900 29.81600
C  52.75600 39.47500 26.94900
O  53.21400 38.91400 25.96800
C  53.43000 40.78500 27.45200
N  49.76800 34.89000 26.42000
C  50.67100 35.58100 25.65400
C  51.08500 34.84500 24.40100
C  49.96700 33.80900 24.30000
C  49.30400 33.82100 25.67700
C  51.12200 35.86900 23.18900
C  50.57200 32.44700 23.77500
C  49.84800 31.81400 22.62300
N  48.03900 33.58000 28.39100
C  47.85300 32.69700 27.30200
C  46.99800 31.67100 27.79100
C  46.53900 32.10200 29.03400
C  47.23900 33.25300 29.41100
C  46.54800 30.38300 27.12100
C  45.59300 31.79000 30.12300
O  44.83700 30.83100 30.25000
C  45.90400 32.90600 31.26500
C  46.31000 32.16800 32.48800
O  46.87900 31.05000 32.55800
O  45.54600 32.66300 33.53000
C  45.79100 32.10200 34.87300
H  49.36900 38.90700 31.21400
H  51.83200 37.27200 25.44300
H  48.36400 32.04300 25.32200
H  46.23500 35.61500 32.77800
H  48.60300 37.29600 33.22900
H  47.25900 39.09300 32.93400
H  46.03800 37.83400 33.13900
H  46.44000 38.40200 31.47800
H  48.14000 33.55600 33.39100
H  47.47800 34.61600 34.58400
H  50.06600 35.67500 33.43700
H  50.23700 34.09100 33.93100
H  52.27300 40.66400 29.84500
H  50.98600 40.21400 30.84700
H  50.53700 41.32200 29.54100
H  52.74000 41.53500 27.83700
H  53.91100 41.22900 26.58000
H  54.28600 40.59700 28.10000
H  52.07300 34.47200 24.67100
H  49.17500 34.11500 23.61600
H  50.56700 36.80000 23.30300
H  50.65200 35.50900 22.27400
H  52.15100 36.16500 22.98700
H  50.64000 31.72400 24.58800
H  51.54900 32.73800 23.39100
H  48.81100 32.12400 22.50000
H  49.80400 30.74000 22.80300
H  50.42700 31.96000 21.71100
H  46.40900 30.59000 26.06000
H  45.63200 29.98900 27.56100
H  47.31800 29.61200 27.13500
H  45.02300 33.48200 31.54600
H  45.85100 32.93300 35.57500
H  46.73300 31.55300 34.84800
H  44.96600 31.45100 35.16100
Mg 28.53800 57.40100 41.76600
C  25.87000 55.39900 40.50700
C  30.69600 55.40500 40.08600
C  30.77500 59.71100 42.19000
C  25.96400 59.68200 42.69200
N  28.33100 55.64600 40.53300
C  27.19800 54.96100 40.15400
C  27.50500 53.85200 39.20900
C  29.00300 53.57000 39.45900
C  29.41300 54.95500 40.14500
C  29.43800 52.52400 40.40400
C  27.10300 54.26100 37.72000
C  26.46300 53.25300 36.81300
H  26.91500 53.22300 35.36600
N  30.56700 57.47100 41.32200
C  31.25000 56.55400 40.57400
C  32.69700 56.94100 40.54400
C  32.73900 58.21900 41.17400
C  31.36900 58.52600 41.64500
C  33.73900 56.03200 39.90500
C  34.03200 58.98600 41.36800
O  35.02900 58.56800 40.86400
C  34.05500 60.19500 42.20400
N  28.36100 59.39100 42.28700
C  29.46000 60.12400 42.50300
C  29.16000 61.52900 42.87000
C  27.61400 61.54300 43.00200
C  27.26700 60.08300 42.72600
C  29.80000 62.02700 44.19700
C  26.86200 62.55900 42.13300
C  25.72700 63.33700 42.74800
N  26.34400 57.45600 41.84100
C  25.50000 58.41400 42.27500
C  24.11500 57.96800 42.15600
C  24.21800 56.73900 41.46200
C  25.58500 56.54300 41.28100
C  22.81400 58.60000 42.72400
C  23.48000 55.69600 40.84900
O  22.28800 55.52300 40.70500
C  24.51600 54.74800 40.13800
C  24.37400 53.42500 40.74200
O  24.75500 53.07800 41.83400
O  23.75000 52.53500 39.85700
C  23.62000 51.08600 40.22800
H  31.41500 54.86100 39.47000
H  31.48400 60.54100 42.23400
H  25.14700 60.34200 42.99300
H  27.02300 52.92100 39.50800
H  29.56300 53.35700 38.54900
H  29.83800 52.88000 41.35300
H  30.14400 51.85100 39.91700
H  28.64700 51.81100 40.63500
H  28.04800 54.44700 37.20900
H  26.54200 55.19500 37.67800
H  25.37700 53.28200 36.90100
H  26.53400 52.29700 37.33100
H  33.74800 56.03500 38.81500
H  33.57000 54.97600 40.11600
H  34.72300 56.17300 40.35100
H  33.76500 60.99700 41.52500
H  35.00000 60.58900 42.57700
H  33.40100 59.93300 43.03500
H  29.47300 62.08200 41.98500
H  27.41400 61.70300 44.06100
H  30.68700 62.57300 43.87800
H  30.10600 61.21000 44.85100
H  29.23800 62.78000 44.74900
H  26.60300 62.15900 41.15200
H  27.65100 63.26600 41.87700
H  26.08000 64.36700 42.78900
H  25.41200 63.06800 43.75600
H  24.87700 63.40100 42.06800
H  22.67800 58.33500 43.77200
H  21.92800 58.24800 42.19500
H  22.76100 59.68300 42.61500
H  24.45000 54.78200 39.05100
H  24.39400 50.59200 40.81600
H  23.57200 50.50700 39.30600
H  22.70900 51.11100 40.82800

