158

Mg 9.07500 3.06100 27.69700
C  10.42800 1.77100 30.67300
C  7.09200 5.14000 29.67400
C  7.52300 4.02000 25.06300
C  10.56800 0.29000 26.10700
N  8.60000 3.16400 29.93300
C  9.49300 2.75500 30.90400
C  9.20800 3.40300 32.27800
C  7.91400 4.21700 31.95300
C  7.88000 4.20900 30.38900
C  6.63100 3.58400 32.52400
C  10.43200 4.27600 32.75500
C  10.88900 4.12800 34.21200
H  9.90400 3.65100 35.20800
N  7.60500 4.54600 27.37400
C  7.01100 5.32200 28.29000
C  6.25200 6.26600 27.57000
C  6.24300 5.96000 26.19900
C  7.13000 4.80300 26.10800
C  5.58600 7.50700 28.27100
C  5.50500 6.62200 25.06000
O  5.63100 6.16100 23.91600
C  4.49800 7.86300 25.31700
N  9.23900 2.41700 25.81300
C  8.38800 2.90100 24.89500
C  8.61700 2.29700 23.48200
C  9.44500 1.10800 23.92100
C  9.77700 1.21900 25.38800
C  7.32300 1.87600 22.71800
C  10.68500 0.87400 23.06900
C  10.65600 -0.40400 22.23700
N  10.45000 1.52800 28.22100
C  10.94000 0.52600 27.44000
C  11.81400 -0.31700 28.25500
C  11.69500 0.12900 29.52000
C  10.73000 1.16100 29.45800
C  12.70600 -1.37600 27.70300
C  12.14300 -0.00500 30.86700
O  13.06300 -0.68900 31.29800
C  11.27000 1.03800 31.65800
C  10.46400 0.30000 32.75100
O  9.30300 -0.12500 32.65300
O  11.27200 0.04800 33.85400
C  10.59700 -0.65600 34.86700
H  6.46600 5.88000 30.17700
H  7.16100 4.35000 24.08700
H  10.76500 -0.64900 25.58600
H  8.93900 2.62100 32.98900
H  7.95100 5.22700 32.36100
H  6.37500 4.15900 33.41400
H  6.98200 2.58400 32.78000
H  5.89300 3.39600 31.74500
H  10.12100 5.31200 32.61700
H  11.18700 4.17700 31.97600
H  11.24700 5.12700 34.45600
H  11.79900 3.52900 34.24400
H  6.01600 7.78300 29.23400
H  4.51100 7.34300 28.33700
H  5.68400 8.38300 27.62900
H  3.89900 8.11500 24.44200
H  5.12700 8.72400 25.54400
H  3.84400 7.59600 26.14700
H  9.25500 3.00800 22.95700
H  8.81400 0.22000 23.90800
H  6.49100 2.02500 23.40600
H  7.23800 0.88200 22.27900
H  7.26500 2.47100 21.80700
H  11.58700 0.96200 23.67500
H  10.72400 1.58300 22.24200
H  11.32600 -0.30800 21.38300
H  9.69700 -0.68600 21.80300
H  11.09400 -1.27000 22.73400
H  13.55500 -1.58400 28.35400
H  13.01700 -1.20900 26.67100
H  11.98100 -2.18900 27.65900
H  12.02500 1.71600 32.05600
H  11.14700 -0.52100 35.79800
H  10.56300 -1.72500 34.65600
H  9.58000 -0.31800 35.06400
Mg 25.36900 50.44800 26.87900
C  23.11100 51.15900 29.58900
C  27.64800 49.35700 29.05700
C  27.57700 50.50400 24.32400
C  23.03200 52.04400 24.73300
N  25.34900 50.35400 29.03900
C  24.38100 50.70000 29.98100
C  24.95100 50.48100 31.39300
C  26.28000 49.77800 31.17000
C  26.50700 49.92100 29.66100
C  27.40900 50.25000 31.98900
C  23.95200 49.69600 32.35900
C  24.43800 49.37700 33.81300
H  24.13000 50.28600 34.99500
N  27.27400 50.00600 26.72200
C  28.11200 49.50000 27.73400
C  29.35900 49.11000 27.19200
C  29.35100 49.56900 25.84300
C  28.00900 50.09900 25.62100
C  30.35100 48.25700 28.00300
C  30.52300 49.53200 24.85900
O  30.49500 49.93200 23.70000
C  31.81900 49.05500 25.40200
N  25.24500 51.01500 24.74800
C  26.34200 50.95900 23.90600
C  26.11100 51.79100 22.59900
C  24.56600 51.93900 22.62400
C  24.21400 51.58600 24.06900
C  26.92600 53.05600 22.41200
C  23.77000 51.08100 21.67100
C  23.43500 49.64600 22.15100
N  23.43100 51.34600 27.06200
C  22.62000 51.89700 26.08200
C  21.32500 52.26400 26.65500
C  21.53300 52.09400 27.98500
C  22.77100 51.46000 28.24800
C  20.20000 52.79900 25.89000
C  20.85300 52.33700 29.23000
O  19.79000 52.88800 29.53600
C  21.86900 51.70100 30.31800
C  22.22300 52.78400 31.23200
O  23.12600 53.58200 31.19600
O  21.30300 52.77200 32.27100
C  21.46600 53.95900 33.12000
H  28.28100 48.90400 29.82300
H  28.40600 50.57500 23.61700
H  22.32100 52.50800 24.04600
H  25.24100 51.44100 31.82100
H  26.19800 48.69700 31.28500
H  28.09000 49.47500 32.34100
H  26.99600 50.86500 32.78900
H  28.01700 50.98600 31.46400
H  23.36200 48.96400 31.80700
H  23.22900 50.46200 32.63900
H  25.47200 49.03600 33.85200
H  23.87300 48.50200 34.13500
H  30.36300 47.22500 27.65300
H  30.12400 48.28100 29.06900
H  31.36600 48.65400 27.98500
H  31.87300 48.04500 25.80800
H  31.95400 49.73500 26.24400
H  32.63400 49.16800 24.68800
H  26.34400 51.10600 21.78300
H  24.11100 52.91400 22.45100
H  27.43900 53.22000 23.35900
H  26.39500 53.96900 22.14400
H  27.69600 53.01400 21.64100
H  24.20300 50.99000 20.67500
H  22.80800 51.59300 21.70200
H  24.00300 49.30700 23.01700
H  23.53400 49.01900 21.26500
H  22.37400 49.56900 22.39100
H  20.22200 52.43500 24.86200
H  20.32800 53.87700 25.98600
H  19.35700 52.55200 26.53500
H  21.43000 50.90500 30.92000
H  22.38100 53.87600 33.70700
H  20.61200 53.98600 33.79600
H  21.40400 54.91700 32.60400

