158

Mg -1.63000 16.55200 26.55900
C  -2.31400 14.21400 29.18600
C  -2.06100 19.06700 28.72500
C  -1.55500 18.63800 23.98200
C  -1.87800 13.80200 24.27100
N  -2.24800 16.59200 28.74900
C  -2.23300 15.55500 29.62400
C  -2.22800 16.14900 31.12800
C  -2.13600 17.66500 30.88300
C  -2.13600 17.83900 29.37300
C  -3.31100 18.54200 31.49700
C  -1.05100 15.55800 32.00600
C  -0.54700 16.42700 33.15100
H  -0.58700 15.76000 34.59500
N  -1.63500 18.61000 26.37600
C  -1.80600 19.51100 27.39500
C  -1.72400 20.85800 26.91100
C  -1.34700 20.75000 25.56000
C  -1.55800 19.29200 25.23800
C  -1.84300 21.97700 27.90000
C  -0.89100 21.85800 24.64700
O  -0.47000 21.63000 23.53000
C  -0.72900 23.22900 25.12300
N  -1.86500 16.25200 24.39100
C  -1.76600 17.29400 23.55500
C  -1.66000 16.84500 22.05700
C  -1.75900 15.26300 22.18200
C  -1.74800 15.05600 23.69300
C  -2.63700 17.46000 21.01000
C  -0.58500 14.44300 21.56300
C  0.80500 14.87500 22.18100
N  -2.01800 14.48200 26.68600
C  -2.05200 13.51600 25.67100
C  -2.30900 12.21800 26.26600
C  -2.45500 12.41500 27.63900
C  -2.17200 13.83200 27.85100
C  -2.48500 10.87600 25.59300
C  -2.61200 11.69800 28.89900
O  -2.76000 10.50600 29.24300
C  -2.49800 12.89300 29.93500
C  -1.41800 12.52500 30.83900
O  -0.19300 12.77300 30.75400
O  -1.93200 11.75100 31.80200
C  -1.03200 11.26000 32.88400
H  -2.15700 19.96300 29.34200
H  -1.52200 19.30200 23.11600
H  -2.03800 12.93800 23.62400
H  -3.10500 15.83700 31.69500
H  -1.17500 18.09200 31.17000
H  -3.95500 19.01600 30.75600
H  -2.93900 19.35200 32.12500
H  -4.00600 17.98100 32.12200
H  -0.17500 15.49900 31.36100
H  -1.28900 14.55900 32.37300
H  -1.17300 17.31400 33.25600
H  0.41100 16.87700 32.89000
H  -2.48700 21.84400 28.76800
H  -2.24100 22.77400 27.27200
H  -0.86400 22.30500 28.24900
H  -1.67200 23.73100 25.33600
H  -0.20100 23.87200 24.41900
H  -0.09700 23.24300 26.01100
H  -0.67400 16.97500 21.61000
H  -2.63200 14.82100 21.70300
H  -3.22600 18.10500 21.66200
H  -3.25400 16.68200 20.56200
H  -2.08200 18.05400 20.28400
H  -0.62300 14.57000 20.48100
H  -0.75900 13.37600 21.70600
H  1.33000 15.45200 21.42000
H  1.24300 13.88100 22.27400
H  0.70900 15.46800 23.09000
H  -3.36900 10.76000 24.96600
H  -2.60400 10.17600 26.42000
H  -1.64200 10.35600 25.13900
H  -3.40500 12.84800 30.53900
H  -0.40200 12.06100 33.27100
H  -0.29200 10.62800 32.39400
H  -1.69600 10.88100 33.66000
Mg 17.16800 52.58800 26.47700
C  19.01600 50.88800 29.08700
C  14.76300 53.20400 28.95200
C  15.46500 54.31400 24.22600
C  19.37200 51.43200 24.13300
N  16.87900 52.03100 28.77800
C  17.80300 51.46400 29.63900
C  17.35400 51.67600 31.13900
C  15.80900 52.12700 30.94700
C  15.78000 52.39100 29.45800
C  14.76600 51.19800 31.59100
C  18.17600 52.75100 31.81800
C  18.09300 52.89900 33.35900
H  17.11800 52.05800 34.17200
N  15.49400 53.83900 26.64500
C  14.63500 53.90000 27.70800
C  13.48000 54.72900 27.30600
C  13.73200 55.11700 25.93100
C  14.88000 54.40000 25.53600
C  12.30200 54.98900 28.17800
C  12.94900 56.05400 24.98800
O  13.29700 56.44100 23.88600
C  11.79800 56.83600 25.59100
N  17.29000 52.70800 24.42900
C  16.51700 53.56700 23.73600
C  16.74100 53.28100 22.17400
C  18.26500 52.86200 22.23800
C  18.34100 52.27500 23.65000
C  15.88300 52.21800 21.38700
C  19.24000 54.06600 22.12800
C  20.00900 54.16100 20.81400
N  18.80100 51.38000 26.44900
C  19.66200 51.03000 25.43900
C  20.65900 50.21300 25.98400
C  20.51000 50.14100 27.32200
C  19.33900 50.85400 27.64700
C  21.79500 49.52100 25.24500
C  21.12400 49.69100 28.65500
O  22.23000 49.17400 28.85800
C  20.15400 50.28000 29.81000
C  19.84900 49.23000 30.81900
O  19.44800 48.07900 30.58900
O  20.16400 49.64400 32.05900
C  19.75000 48.75700 33.14900
H  13.96100 53.47000 29.64400
H  14.91100 54.72800 23.38200
H  20.01700 50.98900 23.37100
H  17.48700 50.71400 31.63300
H  15.66800 53.04800 31.51400
H  15.18000 50.63300 32.42600
H  14.45700 50.42000 30.89400
H  13.85600 51.75600 31.81100
H  17.93300 53.71800 31.37800
H  19.22600 52.54300 31.61500
H  17.91400 53.94600 33.60200
H  19.05400 52.69500 33.83000
H  11.44700 55.03800 27.50400
H  12.53400 55.94800 28.64200
H  12.14300 54.18200 28.89200
H  10.91400 56.22500 25.77300
H  11.52800 57.56400 24.82600
H  12.16400 57.35400 26.47700
H  16.59200 54.22700 21.65400
H  18.50000 52.09000 21.50600
H  16.60400 51.67000 20.78000
H  15.05000 52.57800 20.78500
H  15.45600 51.49500 22.08200
H  19.90500 54.12300 22.99000
H  18.64100 54.97000 22.23700
H  19.85600 55.22800 20.65200
H  19.68500 53.51600 19.99700
H  21.05900 53.93600 20.99800
H  22.57000 50.28700 25.26200
H  21.54000 49.25800 24.21900
H  22.06100 48.59100 25.74800
H  20.70900 51.07400 30.30900
H  20.56400 48.03600 33.21800
H  18.73300 48.38200 33.03200
H  19.81900 49.42500 34.00800

