158

Mg -2.05800 17.41700 26.25000
C  -2.28700 15.36100 29.03300
C  -2.79900 20.17200 28.22500
C  -2.07700 19.43700 23.49400
C  -2.07500 14.56100 24.28600
N  -2.52600 17.71000 28.36800
C  -2.37500 16.75500 29.34600
C  -2.51800 17.42000 30.79300
C  -3.05200 18.89800 30.42000
C  -2.70300 18.96700 28.87400
C  -4.52700 19.30300 30.62100
C  -1.21800 17.42700 31.68300
C  -1.35400 18.06900 33.09600
H  -1.31100 17.16900 34.37800
N  -2.32200 19.51700 25.95900
C  -2.57200 20.48700 26.87200
C  -2.62900 21.74400 26.33100
C  -2.26100 21.55700 24.97800
C  -2.27700 20.07800 24.75200
C  -2.65800 23.09700 27.04100
C  -1.89500 22.58800 23.89500
O  -1.80700 22.28500 22.75200
C  -1.82600 24.00400 24.22200
N  -2.30100 17.03200 24.12600
C  -2.10900 18.02400 23.24900
C  -1.99800 17.38100 21.88300
C  -1.86100 15.85800 22.11000
C  -2.02600 15.80100 23.64500
C  -3.25000 17.73500 20.97400
C  -0.51700 15.14400 21.59900
C  0.80700 15.75300 22.11000
N  -2.07600 15.37300 26.57400
C  -2.12800 14.33300 25.65000
C  -2.17800 13.09900 26.31100
C  -2.29200 13.41800 27.71300
C  -2.11400 14.82500 27.77500
C  -2.25500 11.69900 25.72500
C  -2.44400 12.97200 29.13400
O  -2.57700 11.85100 29.61800
C  -2.45300 14.19600 29.94200
C  -1.42600 14.05500 30.93300
O  -0.22700 14.27500 30.79500
O  -2.04000 13.47400 32.03000
C  -1.25000 13.00100 33.21700
H  -3.20000 21.05200 28.73200
H  -1.99900 20.02000 22.57400
H  -2.04700 13.65100 23.68100
H  -3.40100 16.93900 31.21200
H  -2.56000 19.64800 31.03900
H  -4.87800 19.80000 29.71600
H  -4.62200 20.02100 31.43600
H  -5.12000 18.42800 30.88600
H  -0.36600 17.85000 31.14900
H  -0.91600 16.40100 31.89500
H  -2.35700 18.44200 33.30600
H  -0.67600 18.91600 33.20100
H  -2.70500 23.07700 28.13000
H  -3.46400 23.74000 26.69100
H  -1.73300 23.63100 26.82300
H  -2.66600 24.41100 24.78500
H  -1.87500 24.50500 23.25600
H  -0.91100 24.13200 24.80100
H  -1.19200 17.87900 21.34500
H  -2.65200 15.25900 21.65700
H  -3.89400 18.31400 21.63600
H  -3.84800 16.88200 20.65200
H  -3.00600 18.38500 20.13400
H  -0.42100 15.12800 20.51400
H  -0.47600 14.10600 21.92800
H  1.38000 15.01200 22.66700
H  0.57600 16.55900 22.80600
H  1.40500 16.07100 21.25500
H  -3.18700 11.19800 25.98900
H  -1.42100 11.15900 26.17400
H  -1.95800 11.68300 24.67600
H  -3.44400 14.26600 30.38900
H  -0.24300 13.36700 33.01700
H  -1.20500 11.91200 33.22200
H  -1.61800 13.35400 34.18100
Mg 46.43700 24.63500 28.16800
C  47.19900 26.81700 31.00900
C  45.74100 22.17100 30.48000
C  46.57000 22.43000 25.69300
C  47.43400 27.20100 26.14200
N  46.63600 24.49600 30.46600
C  46.76700 25.54200 31.38900
C  46.64600 24.99600 32.85800
C  46.26100 23.52000 32.60200
C  46.11100 23.34500 31.11100
C  47.10900 22.48400 33.27300
C  45.56800 25.79100 33.66200
C  45.86400 26.57900 34.90500
H  44.85800 26.49700 36.03500
N  46.09600 22.61900 28.09000
C  45.77900 21.77200 29.15400
C  45.58200 20.34700 28.65500
C  45.76400 20.44500 27.18100
C  46.19600 21.86300 26.90200
C  45.19200 19.12700 29.60100
C  45.74700 19.42600 26.20500
O  46.12400 19.51700 25.07100
C  45.31200 18.07100 26.70600
N  47.12800 24.76900 26.25100
C  46.96500 23.71500 25.33600
C  47.33800 24.25700 23.94100
C  47.17400 25.75900 24.07400
C  47.22300 25.97500 25.60100
C  48.78800 23.79900 23.64400
C  45.92000 26.35100 23.40200
C  44.59900 26.25900 24.27600
N  47.03300 26.64500 28.39100
C  47.43000 27.53600 27.41800
C  47.67000 28.80900 28.03500
C  47.63700 28.55500 29.47700
C  47.27900 27.25100 29.61000
C  48.03800 30.08700 27.36200
C  47.96500 29.15300 30.71300
O  48.35300 30.24900 31.02200
C  47.67000 28.03400 31.85100
C  48.92200 27.61900 32.55000
O  49.97100 27.36300 31.97500
O  48.75200 27.68100 33.92500
C  49.89300 27.28600 34.72500
H  45.36000 21.43000 31.18600
H  46.66900 21.72500 24.86500
H  47.46700 27.98300 25.38000
H  47.65500 25.07300 33.26300
H  45.29100 23.43400 33.09100
H  47.68300 21.91300 32.54300
H  46.53400 21.79700 33.89500
H  47.94600 22.91600 33.82200
H  44.65200 25.21700 33.79600
H  45.28000 26.59000 32.98000
H  45.95200 27.64300 34.68400
H  46.82000 26.23500 35.29900
H  46.07800 18.50900 29.74500
H  44.42100 18.55100 29.09000
H  44.78100 19.49000 30.54300
H  44.24400 17.95800 26.89300
H  45.96700 17.72100 27.50400
H  45.42200 17.43400 25.82900
H  46.69400 23.88900 23.14300
H  47.96000 26.33700 23.58900
H  49.46400 24.65200 23.58400
H  48.66500 23.44100 22.62200
H  49.23500 23.00800 24.24700
H  45.59700 25.95900 22.43700
H  46.11500 27.41500 23.26700
H  44.60300 27.17200 24.87200
H  44.70200 25.38500 24.91900
H  43.68200 26.20800 23.68800
H  47.72000 30.14100 26.32000
H  49.12800 30.09100 27.37000
H  47.74500 30.97800 27.91600
H  46.95100 28.44900 32.55800
H  50.69800 28.00500 34.87600
H  50.36000 26.41100 34.27200
H  49.58600 26.89700 35.69600

