158

Mg 8.29100 47.28600 28.42000
C  6.89100 46.89800 31.71200
C  11.28100 47.81700 29.94000
C  9.53300 48.16900 25.44700
C  5.02200 47.89900 27.25100
N  8.90100 47.41900 30.54300
C  8.23900 47.14500 31.76200
C  9.15500 47.45800 32.95500
C  10.45100 48.10900 32.38400
C  10.19300 47.75400 30.82200
C  10.63600 49.63600 32.57800
C  9.47500 46.19100 33.82200
C  9.23200 46.34800 35.29000
H  9.84700 45.23900 36.19200
N  10.22900 47.82500 27.80300
C  11.36300 47.72200 28.54800
C  12.52700 47.91100 27.64900
C  11.99400 48.02900 26.30500
C  10.50700 48.00800 26.46600
C  14.01600 47.74700 28.06500
C  12.75700 48.16700 24.99400
O  12.18700 48.21900 23.93400
C  14.28000 48.24100 24.95900
N  7.45600 48.02100 26.74300
C  8.12400 48.08500 25.54600
C  7.23600 48.03700 24.31200
C  5.84400 48.25500 24.96500
C  6.14600 48.08800 26.43500
C  7.40900 48.99000 23.13000
C  4.75500 47.26500 24.37600
C  3.43500 47.92000 24.07800
N  6.26900 47.19100 29.23500
C  5.08000 47.40500 28.57200
C  3.99600 47.14300 29.48100
C  4.67000 46.90000 30.71200
C  6.07800 47.03200 30.55100
C  2.54300 47.13000 29.24000
C  4.52700 46.51300 32.11400
O  3.53600 46.23700 32.73600
C  5.93300 46.48700 32.83700
C  6.24500 45.07600 33.18100
O  6.72100 44.20300 32.44900
O  5.71300 44.75700 34.42700
C  6.08700 43.40200 34.88300
H  12.28000 47.94800 30.36200
H  9.92400 48.37800 24.45000
H  4.04800 47.92800 26.75900
H  8.64600 48.19900 33.57200
H  11.37700 47.62400 32.69300
H  10.13300 50.03000 33.46100
H  10.28300 50.20300 31.71600
H  11.71600 49.76600 32.63900
H  10.49300 45.82000 33.70700
H  8.91500 45.37000 33.37200
H  8.17200 46.32400 35.54400
H  9.55100 47.34500 35.59500
H  14.53600 48.67300 27.82000
H  14.47000 46.82600 27.70100
H  14.20800 47.76800 29.13800
H  14.72500 48.91300 25.69300
H  14.45600 48.53500 23.92400
H  14.48800 47.19200 25.16900
H  7.37300 47.03000 23.91900
H  5.52900 49.29800 24.96500
H  6.53000 49.63200 23.06700
H  7.43600 48.51800 22.14800
H  8.38100 49.47700 23.21600
H  4.54100 46.42100 25.03100
H  4.98300 46.85400 23.39200
H  3.18400 47.91800 23.01700
H  3.44900 49.00500 24.17800
H  2.63300 47.54300 24.71200
H  2.25000 48.13400 28.93100
H  2.00900 46.75300 30.11200
H  2.25100 46.54000 28.37100
H  5.95500 47.13100 33.71700
H  5.91200 43.32400 35.95600
H  7.14000 43.23300 34.65600
H  5.37700 42.70900 34.43200
Mg -10.85500 17.27500 42.92900
C  -7.54100 18.22800 42.95900
C  -11.66200 20.65800 42.53100
C  -14.21300 16.42400 42.60200
C  -10.04500 13.93900 43.02500
N  -9.73100 19.13700 42.74800
C  -8.34000 19.31200 42.75100
C  -7.94100 20.80100 42.56700
C  -9.28800 21.55200 42.97000
C  -10.33300 20.42600 42.80400
C  -9.23200 22.16200 44.34300
C  -7.55700 21.17200 41.16600
C  -6.24800 21.87800 40.94100
H  -5.24100 21.25800 39.94000
N  -12.71900 18.38300 42.47600
C  -12.77500 19.75900 42.45600
C  -14.09800 20.15900 42.10700
C  -14.90600 18.93900 42.13300
C  -13.97800 17.83900 42.36000
C  -14.41200 21.58000 41.96100
C  -16.39500 18.91600 41.88900
O  -16.97600 19.89400 41.44200
C  -17.19000 17.64400 42.09800
N  -11.95600 15.49700 42.79200
C  -13.31600 15.38600 42.81700
C  -13.76500 14.02300 43.25100
C  -12.43100 13.16500 42.92200
C  -11.36500 14.26800 42.85500
C  -14.29200 13.87000 44.72900
C  -12.39100 12.42800 41.55200
C  -11.93400 10.93200 41.58800
N  -9.14800 16.23300 42.95500
C  -8.94300 14.86100 43.03400
C  -7.48300 14.67900 43.08500
C  -6.89800 15.94300 43.11400
C  -7.94000 16.84600 43.06300
C  -6.70500 13.39800 43.30700
C  -5.64500 16.65800 43.11400
O  -4.52900 16.32800 43.06800
C  -6.10300 18.16200 43.21200
C  -5.78300 18.56500 44.62300
O  -6.25900 18.22300 45.69700
O  -4.72800 19.39300 44.55500
C  -3.97700 19.78600 45.84100
H  -11.98300 21.69800 42.61700
H  -15.23300 16.04000 42.66900
H  -9.88100 12.86000 42.97100
H  -7.14300 21.00200 43.28200
H  -9.48400 22.31800 42.22000
H  -8.26900 21.95900 44.81100
H  -9.89200 21.61700 45.01800
H  -9.37100 23.24300 44.35800
H  -8.23900 21.91600 40.75400
H  -7.77800 20.33400 40.50500
H  -5.69400 22.01500 41.87000
H  -6.45900 22.90600 40.64500
H  -15.27000 21.82200 41.33300
H  -13.54800 22.15900 41.63500
H  -14.69200 21.94900 42.94700
H  -18.27900 17.63900 42.15400
H  -16.76600 17.19200 42.99400
H  -16.85500 16.98900 41.29400
H  -14.60100 13.73200 42.61600
H  -12.30000 12.47100 43.75200
H  -14.40300 14.88200 45.11900
H  -13.61200 13.34800 45.40300
H  -15.26500 13.38100 44.77000
H  -11.69600 12.98600 40.92500
H  -13.34800 12.52800 41.04100
H  -10.90900 10.95200 41.21600
H  -12.61000 10.45600 40.87700
H  -12.06500 10.53400 42.59500
H  -6.13800 13.38300 44.23800
H  -6.03100 13.26700 42.46100
H  -7.35400 12.52200 43.31500
H  -5.47500 18.73100 42.52600
H  -3.95300 20.86300 46.00700
H  -2.96400 19.38800 45.79600
H  -4.56100 19.36700 46.66000

