158

Mg 1.94700 -2.15900 42.77900
C  5.31500 -1.88500 42.22500
C  1.50400 0.95900 41.32500
C  -1.27400 -2.90200 42.39700
C  2.60500 -5.60300 43.54000
N  3.31500 -0.76100 41.66000
C  4.65900 -0.79100 41.75200
C  5.24100 0.40800 41.10500
C  4.10500 1.44900 41.06200
C  2.86800 0.55200 41.39700
C  4.31700 2.70000 41.97700
C  6.11300 0.33400 39.78400
C  5.58600 -0.70000 38.80700
H  5.24400 -0.29000 37.38700
N  0.37400 -1.10400 41.98600
C  0.33500 0.22400 41.38200
C  -1.02900 0.56000 41.12000
C  -1.88100 -0.49900 41.52400
C  -0.93600 -1.53800 42.05200
C  -1.53100 1.99600 40.71100
C  -3.46100 -0.50900 41.69800
O  -4.13500 0.41300 41.26600
C  -4.15700 -1.58000 42.35200
N  0.83500 -3.92500 42.92500
C  -0.51000 -3.99300 42.82000
C  -1.13000 -5.34400 42.99200
C  0.13400 -6.20400 43.36200
C  1.28100 -5.18700 43.30200
C  -2.27800 -5.39100 44.01300
C  0.44900 -7.43400 42.56500
C  0.52500 -8.79800 43.34900
N  3.59600 -3.44600 43.21300
C  3.73200 -4.78000 43.44000
C  5.07800 -5.16500 43.71400
C  5.79400 -4.06800 43.23200
C  4.76200 -3.05600 42.86400
C  5.46200 -6.55600 44.21700
C  7.08800 -3.54000 42.97800
O  8.26300 -3.86300 43.07400
C  6.82500 -2.15200 42.18900
C  7.68800 -1.04800 42.91600
O  8.84500 -0.76500 42.62300
O  7.02400 -0.48000 43.89800
C  7.47800 0.80100 44.36500
H  1.40700 2.01400 41.06000
H  -2.27900 -3.32400 42.32100
H  2.72500 -6.61800 43.92500
H  5.90200 0.81300 41.87200
H  3.95800 1.78500 40.03500
H  5.26700 2.72000 42.51100
H  3.61000 2.62200 42.80200
H  4.01400 3.65500 41.54700
H  7.16100 0.16500 40.02800
H  6.00500 1.26300 39.22400
H  4.75900 -1.28200 39.21400
H  6.31600 -1.50700 38.74500
H  -2.45400 2.25000 41.23200
H  -1.73400 1.87200 39.64700
H  -0.74500 2.74500 40.80300
H  -5.18900 -1.30700 42.57000
H  -3.71300 -1.91400 43.29000
H  -4.04100 -2.36100 41.60000
H  -1.46100 -5.75900 42.04000
H  0.08000 -6.58100 44.38300
H  -3.01900 -6.00500 43.50100
H  -2.63300 -4.37100 44.16000
H  -1.97900 -5.92400 44.91600
H  1.40400 -7.23300 42.07900
H  -0.29500 -7.60300 41.78700
H  1.51700 -9.01800 43.74500
H  0.03400 -9.58900 42.78300
H  -0.10500 -8.75000 44.23700
H  5.70600 -7.27800 43.43800
H  4.76200 -6.95700 44.95000
H  6.39300 -6.36300 44.75000
H  7.15600 -2.34900 41.16900
H  7.75300 0.64700 45.40900
H  6.75100 1.60700 44.27300
H  8.44200 1.14600 43.99200
Mg 36.27900 49.45300 26.84300
C  36.63000 47.42000 29.52600
C  35.46600 52.03900 28.96700
C  36.01100 51.42600 24.15300
C  36.97100 46.69600 24.73600
N  36.19500 49.71300 29.01900
C  36.45700 48.74900 29.93700
C  36.29200 49.25500 31.39200
C  35.49300 50.61200 31.08500
C  35.73800 50.88000 29.61300
C  34.03800 50.59200 31.56700
C  37.65700 49.41200 32.23200
C  37.55900 49.35400 33.74300
H  36.23700 49.66900 34.40900
N  35.84200 51.48900 26.63200
C  35.51500 52.39400 27.58800
C  35.06200 53.62700 26.96200
C  35.38000 53.48500 25.58400
C  35.70800 52.08800 25.39900
C  34.60600 54.86400 27.78100
C  35.39600 54.60000 24.50400
O  35.77200 54.45700 23.37500
C  34.89500 56.01800 24.92900
N  36.35200 49.02800 24.69900
C  36.27000 50.06900 23.82300
C  36.59800 49.57000 22.43000
C  36.96100 48.09000 22.64000
C  36.80600 47.93300 24.13800
C  35.46500 49.71500 21.39000
C  38.41600 47.76500 22.18400
C  38.63500 46.93200 20.89900
N  36.64700 47.43400 27.01200
C  36.95600 46.40400 26.09700
C  37.26200 45.17300 26.80100
C  37.04800 45.54500 28.09100
C  36.69800 46.88900 28.18500
C  37.65400 43.90000 26.18600
C  37.11900 45.02900 29.47500
O  37.46200 43.89100 29.82200
C  36.79600 46.19200 30.43100
C  35.63200 45.92400 31.26000
O  34.47100 45.83600 30.87100
O  36.07500 45.76700 32.58100
C  35.03500 45.59400 33.55500
H  35.13600 52.85100 29.61700
H  35.93100 52.12200 23.31500
H  37.26200 45.94400 23.99900
H  35.55800 48.71000 31.98600
H  35.95500 51.44900 31.60800
H  33.61400 49.62400 31.83100
H  33.38000 50.97700 30.78800
H  33.90000 51.29800 32.38600
H  38.16700 50.34800 32.00600
H  38.31500 48.61400 31.88600
H  38.31000 50.03800 34.13800
H  37.84400 48.36600 34.10600
H  35.42900 55.54900 27.98600
H  34.44500 54.61700 28.83100
H  33.69200 55.38500 27.49700
H  35.51400 56.44400 25.71900
H  33.86100 55.87200 25.24200
H  34.98000 56.58100 24.00000
H  37.46100 50.17100 22.14300
H  36.26800 47.35900 22.22300
H  35.45300 50.74900 21.04300
H  34.47400 49.50400 21.79100
H  35.71900 49.03900 20.57400
H  39.00400 47.29500 22.97300
H  38.91000 48.72600 22.03900
H  38.63700 45.87800 21.17700
H  39.58800 47.17400 20.43000
H  37.84200 47.17100 20.19100
H  38.66500 43.87200 25.77900
H  37.16400 43.71300 25.23100
H  37.44600 43.02800 26.80500
H  37.65200 46.29900 31.09800
H  34.34200 44.87300 33.12100
H  34.58500 46.55000 33.82300
H  35.44000 45.18700 34.48100

