158

Mg 2.45600 -0.16900 42.84300
C  6.03400 0.42800 42.43500
C  1.86100 2.61300 41.07500
C  -0.55000 -1.43700 42.30200
C  3.49800 -3.29300 44.31400
N  3.82600 1.28700 41.80900
C  5.16500 1.43200 41.92800
C  5.60800 2.83700 41.40000
C  4.28500 3.54300 41.02400
C  3.22500 2.40500 41.33400
C  3.98700 4.78600 41.93300
C  6.74800 2.90800 40.31200
C  6.53400 2.03500 39.08200
H  6.49100 2.81200 37.71800
N  0.79700 0.53800 41.87200
C  0.76800 1.74200 41.18800
C  -0.54700 1.88700 40.61600
C  -1.24100 0.66900 40.95200
C  -0.35200 -0.18700 41.72400
C  -1.04700 3.12100 39.90500
C  -2.70700 0.50500 40.60300
O  -3.38500 1.35700 40.02400
C  -3.34000 -0.85600 41.05000
N  1.59400 -2.07800 43.27000
C  0.30800 -2.31500 43.01800
C  -0.18900 -3.60400 43.59800
C  1.10700 -4.15400 44.28300
C  2.13300 -3.10600 43.99000
C  -1.35000 -3.47100 44.61700
C  1.53100 -5.65500 43.82300
C  1.23300 -6.67800 44.86900
N  4.35600 -1.27400 43.20600
C  4.53700 -2.47400 43.84500
C  5.93200 -2.74400 43.92600
C  6.56900 -1.59200 43.41600
C  5.50800 -0.73300 42.97500
C  6.58000 -3.98200 44.45800
C  7.85200 -0.96600 43.14000
O  9.01600 -1.41200 43.28900
C  7.58300 0.42300 42.60200
C  8.06300 1.40000 43.63900
O  7.51600 1.63800 44.74100
O  9.07600 2.19400 43.08000
C  9.26500 3.48900 43.80400
H  1.83100 3.54800 40.51200
H  -1.53300 -1.90900 42.35500
H  3.71200 -4.27900 44.73100
H  6.05000 3.37600 42.23800
H  4.23300 3.77200 39.96000
H  3.13700 4.57400 42.58100
H  3.72300 5.55900 41.21100
H  4.84500 5.11200 42.52100
H  7.69300 2.54300 40.71500
H  7.06200 3.90300 39.99600
H  5.61000 1.45600 39.10400
H  7.40000 1.38500 38.96100
H  -0.20900 3.78000 39.67200
H  -1.84300 3.57900 40.49100
H  -1.27400 2.70600 38.92300
H  -2.77200 -1.55200 40.43100
H  -4.37400 -0.83500 40.70600
H  -3.32600 -1.05700 42.12100
H  -0.53800 -4.27500 42.81400
H  1.02800 -4.01000 45.36000
H  -2.31200 -3.86100 44.28500
H  -1.48000 -2.41300 44.84200
H  -1.14700 -4.11100 45.47500
H  2.58100 -5.70400 43.53800
H  0.97900 -6.00600 42.95100
H  0.15300 -6.68200 45.01200
H  1.86300 -6.28700 45.66800
H  1.72000 -7.59800 44.54700
H  7.60500 -3.76500 44.75700
H  6.69000 -4.77700 43.72000
H  6.02000 -4.47800 45.25100
H  8.00700 0.64800 41.62300
H  9.21000 3.34800 44.88400
H  8.39000 4.08600 43.54800
H  10.12300 4.08400 43.49100
Mg 42.08300 7.06800 30.54800
C  43.88700 9.23500 32.60300
C  39.87900 6.40900 33.10200
C  40.25600 5.34400 28.41900
C  44.32600 7.89200 27.94500
N  41.88400 7.88500 32.58900
C  42.71200 8.73900 33.22600
C  42.30200 8.82100 34.72700
C  41.05600 7.93400 34.81800
C  40.94600 7.25200 33.42500
C  40.97100 6.90000 35.92000
C  42.09500 10.25400 35.27100
C  41.05900 10.53300 36.42700
H  41.67100 11.34900 37.59100
N  40.41200 5.89000 30.73900
C  39.55100 5.84300 31.82700
C  38.43400 4.92300 31.51900
C  38.56600 4.55900 30.19000
C  39.76200 5.29400 29.69100
C  37.38400 4.49000 32.57000
C  37.76800 3.61400 29.35800
O  38.05400 3.36300 28.15600
C  36.72900 2.77700 29.90200
N  42.34500 6.65700 28.54900
C  41.40200 5.91000 27.86100
C  41.68000 5.78700 26.41200
C  42.77500 6.93900 26.28300
C  43.31500 7.04400 27.64500
C  42.14400 4.31800 25.96000
C  42.11200 8.29600 25.87300
C  42.12400 8.68100 24.36700
N  43.90400 8.19300 30.27500
C  44.64900 8.44900 29.13600
C  45.72900 9.35900 29.46800
C  45.44400 9.70500 30.85100
C  44.36200 8.97200 31.25600
C  46.82100 9.95000 28.59600
C  45.92000 10.47200 31.96200
O  46.80100 11.34400 32.05300
C  45.04000 10.06700 33.18300
C  45.78700 9.41000 34.27800
O  46.21200 8.28800 34.17100
O  45.78200 10.22700 35.36700
C  45.79900 9.41500 36.60000
H  39.15700 6.23000 33.90100
H  39.58400 4.87100 27.69900
H  45.04500 8.27400 27.21600
H  43.13700 8.31500 35.21100
H  40.14200 8.52200 34.90300
H  41.77200 7.09600 36.63300
H  40.96300 5.84800 35.63500
H  40.03600 7.15800 36.41800
H  41.83300 10.82200 34.37800
H  43.07500 10.64800 35.54100
H  40.59800 9.63700 36.84200
H  40.22200 10.95500 35.87100
H  36.59300 5.21100 32.36300
H  37.74400 4.68200 33.58100
H  37.06400 3.45800 32.42000
H  37.18700 1.92200 30.40000
H  36.07600 2.39900 29.11500
H  36.00800 3.28800 30.54100
H  40.78200 6.01300 25.83700
H  43.56600 6.70500 25.57100
H  42.58700 3.82200 26.82400
H  42.97500 4.38300 25.25900
H  41.27000 3.76800 25.61200
H  42.58700 9.11900 26.40700
H  41.04600 8.22000 26.08700
H  42.99200 8.27100 23.85100
H  42.22300 9.76300 24.27500
H  41.31000 8.29800 23.75200
H  47.72800 9.99400 29.19900
H  46.66200 10.96800 28.24000
H  46.96600 9.32400 27.71600
H  44.80200 11.07300 33.52900
H  45.37000 8.41400 36.60700
H  45.15600 10.08500 37.17100
H  46.77100 9.39100 37.09200

