158

Mg -2.07500 17.44900 27.19400
C  -2.68700 15.15600 29.88900
C  -2.68700 20.03800 29.33200
C  -2.08700 19.41500 24.56600
C  -1.91600 14.57700 25.09300
N  -2.61300 17.58700 29.42000
C  -2.77900 16.50600 30.32100
C  -2.95100 17.07900 31.82000
C  -2.96000 18.65900 31.50300
C  -2.75700 18.83100 29.98400
C  -4.19600 19.39800 32.01600
C  -1.77700 16.60100 32.74700
C  -1.35500 17.55900 33.87000
H  -0.98400 16.73600 35.13300
N  -2.27700 19.46600 26.97200
C  -2.41000 20.37700 27.98800
C  -2.44100 21.73400 27.40700
C  -2.29800 21.62100 25.95300
C  -2.29600 20.10500 25.79200
C  -2.59800 22.99700 28.28900
C  -2.23400 22.55900 24.98500
O  -2.17100 22.25300 23.83100
C  -2.16000 23.93200 25.33400
N  -2.20400 17.00800 25.18800
C  -2.06600 18.04100 24.31700
C  -1.92100 17.49000 22.88300
C  -1.68700 15.98900 23.08400
C  -1.94800 15.81400 24.52600
C  -3.14500 17.81100 21.96700
C  -0.20800 15.57800 22.64000
C  1.02200 16.18300 23.31800
N  -2.13900 15.40000 27.41400
C  -1.99000 14.38200 26.43600
C  -2.02500 13.10500 27.06400
C  -2.45300 13.40000 28.38800
C  -2.34100 14.74500 28.53500
C  -1.97100 11.80600 26.47500
C  -2.74600 12.78000 29.67800
O  -2.92300 11.60100 29.99500
C  -2.74000 13.88300 30.69100
C  -1.50500 13.68900 31.39900
O  -0.36200 13.95200 31.03100
O  -1.78700 13.13500 32.62700
C  -0.64200 12.87100 33.54600
H  -2.91600 20.89100 29.97500
H  -1.80600 19.99500 23.68400
H  -1.80900 13.74800 24.39000
H  -3.82500 16.68300 32.33700
H  -2.10600 19.11400 32.00600
H  -3.95500 19.91900 32.94300
H  -4.80400 18.61500 32.46800
H  -4.70900 20.07500 31.33300
H  -0.86100 16.45000 32.17600
H  -2.07200 15.66700 33.22600
H  -2.12600 18.20900 34.28400
H  -0.48900 18.17700 33.63100
H  -1.69100 23.58500 28.15300
H  -2.72600 22.73400 29.33900
H  -3.41400 23.66200 28.00700
H  -1.19200 24.27200 25.70100
H  -2.99700 24.21100 25.97500
H  -2.18300 24.43800 24.36900
H  -1.12900 17.97900 22.31600
H  -2.40400 15.38200 22.53000
H  -2.93200 17.78200 20.89800
H  -3.42300 18.85500 22.11000
H  -4.08300 17.28800 22.15400
H  -0.08400 15.79300 21.57800
H  -0.06300 14.50200 22.73900
H  1.50300 16.78100 22.54500
H  1.69700 15.51600 23.85500
H  0.68700 16.97800 23.98400
H  -1.10200 11.85600 25.81900
H  -2.89800 11.49900 25.99100
H  -1.62100 11.03800 27.16400
H  -3.62000 13.86200 31.33400
H  -0.95800 13.27300 34.50800
H  0.32600 13.33800 33.36000
H  -0.54600 11.79300 33.67800
Mg 41.41500 8.81100 30.33800
C  43.25600 10.01700 32.92500
C  39.01300 7.69400 32.54800
C  39.82800 7.27700 27.79900
C  44.21300 9.43600 28.22300
N  41.32100 8.61000 32.50200
C  42.05600 9.41500 33.31900
C  41.34200 9.72900 34.62200
C  40.11900 8.70800 34.59900
C  40.16200 8.30000 33.10000
C  40.24300 7.50200 35.54200
C  40.98900 11.20800 34.72200
C  40.31100 11.59300 35.98700
H  41.02600 12.03000 37.31500
N  39.57900 7.85500 30.14600
C  38.78800 7.44900 31.18800
C  37.64500 6.76500 30.61600
C  37.71400 6.85700 29.22900
C  39.05600 7.32200 28.99500
C  36.53700 6.28000 31.57000
C  36.70700 6.37500 28.18100
O  36.92500 6.29900 26.97000
C  35.32500 5.96900 28.70600
N  41.97200 8.37300 28.30200
C  41.10200 7.68600 27.50000
C  41.85600 7.60400 26.08700
C  43.08600 8.47800 26.25700
C  43.09600 8.79200 27.67300
C  42.19900 6.11500 25.79700
C  43.20900 9.58700 25.20200
C  42.50500 10.95500 25.41700
N  43.41500 9.57700 30.48500
C  44.44400 9.87800 29.58200
C  45.47300 10.58500 30.25100
C  45.11500 10.64000 31.62300
C  43.85200 9.97400 31.70200
C  46.75300 11.09200 29.56700
C  45.49300 11.07400 32.89100
O  46.45400 11.66200 33.38900
C  44.32500 10.67000 33.82700
C  44.76300 9.52900 34.76400
O  44.49900 8.30800 34.68900
O  45.57700 10.14600 35.66900
C  45.78700 9.19400 36.74000
H  38.30900 7.55800 33.37200
H  39.32600 6.79900 26.95500
H  45.10600 9.82300 27.72900
H  42.08200 9.52900 35.39700
H  39.11600 9.08200 34.80500
H  39.60800 7.57700 36.42500
H  41.29100 7.38200 35.81700
H  39.82100 6.61700 35.06600
H  40.43700 11.47500 33.82100
H  41.86700 11.85200 34.66700
H  39.76600 10.69500 36.27700
H  39.46300 12.24500 35.77400
H  36.07100 7.22300 31.85700
H  36.95100 5.84200 32.47800
H  35.87000 5.55600 31.10100
H  34.63600 5.95800 27.86200
H  35.00500 6.76000 29.38400
H  35.40000 4.98800 29.17400
H  41.29500 7.99100 25.23700
H  44.00200 7.88700 26.27500
H  41.89800 6.06300 24.75100
H  41.84700 5.44900 26.58500
H  43.26900 5.92600 25.70700
H  42.93100 9.33900 24.17800
H  44.26700 9.84400 25.15400
H  43.22700 11.76600 25.32200
H  42.03400 10.96100 26.40000
H  41.74200 11.12300 24.65600
H  46.56800 11.22000 28.50100
H  47.58400 10.39000 29.63200
H  47.06300 12.08900 29.88300
H  43.93200 11.56000 34.31700
H  44.92300 8.91100 37.34000
H  46.50700 9.68900 37.39300
H  46.25300 8.30700 36.31100

