158

Mg 47.49800 34.47800 27.68400
C  46.03000 32.77900 30.34800
C  47.77100 37.22800 29.60100
C  48.77200 36.00700 24.97400
C  46.50000 31.72500 25.58100
N  47.11700 34.86300 29.76700
C  46.62100 34.02200 30.69600
C  46.62300 34.68400 32.04100
C  46.65100 36.22500 31.69500
C  47.13400 36.15100 30.24500
C  45.39500 37.12300 31.79800
C  47.83300 34.11500 32.80500
C  48.21000 34.51100 34.25200
H  47.10900 35.21300 35.11800
N  48.35000 36.37300 27.35200
C  48.39100 37.34000 28.23600
C  49.03700 38.46900 27.63900
C  49.40000 38.11700 26.26100
C  48.82300 36.77500 26.10600
C  49.18200 39.79200 28.39000
C  50.07700 38.89200 25.25200
O  50.38700 38.42100 24.19500
C  50.62900 40.33000 25.50600
N  47.54300 33.95800 25.50700
C  48.17100 34.76600 24.66000
C  48.24400 34.09800 23.28200
C  47.41200 32.78800 23.42300
C  47.11700 32.80200 24.93200
C  47.84900 35.04000 22.13900
C  48.10200 31.54300 22.96600
C  47.18900 30.51800 22.24800
N  46.45600 32.71500 27.84700
C  46.21600 31.63000 26.93400
C  45.61000 30.49800 27.66400
C  45.52600 30.88500 29.02200
C  46.05300 32.22300 29.05200
C  45.32200 29.14500 27.12000
C  45.15800 30.51700 30.38900
O  44.64700 29.48100 30.81300
C  45.13900 31.84700 31.16200
C  45.23600 31.72000 32.62000
O  46.24400 31.27900 33.17400
O  44.04400 32.13300 33.19300
C  43.96300 32.24800 34.61500
H  47.80000 38.15000 30.18600
H  49.24000 36.48900 24.11300
H  46.14000 30.93200 24.92200
H  45.67900 34.36800 32.48600
H  47.50400 36.63000 32.23900
H  45.13600 37.36300 32.83000
H  44.51700 36.60900 31.40500
H  45.43000 38.09600 31.30900
H  48.73500 34.46100 32.29900
H  47.89400 33.03400 32.68100
H  49.11500 35.10200 34.39500
H  48.38900 33.61700 34.84900
H  50.18900 39.93600 28.78200
H  48.49000 39.83700 29.23100
H  49.01100 40.69000 27.79700
H  51.19700 40.65700 24.63400
H  51.08900 40.35400 26.49400
H  49.75600 40.97700 25.59400
H  49.28500 33.84900 23.07700
H  46.47700 32.89200 22.87200
H  47.09900 35.78700 22.40000
H  47.31100 34.46100 21.38800
H  48.73000 35.58900 21.80900
H  48.52400 30.91200 23.74800
H  48.97800 31.65800 22.32800
H  46.53100 30.92500 21.48000
H  46.53900 30.12400 23.03000
H  47.72700 29.65400 21.85800
H  45.46300 29.15400 26.03900
H  44.27300 28.92100 27.31700
H  46.00000 28.44400 27.60700
H  44.13300 32.22600 30.98000
H  44.51800 31.44800 35.10600
H  42.91700 32.27300 34.92100
H  44.55400 33.11800 34.90000
Mg -10.09900 39.34100 42.59800
C  -8.72000 36.38600 41.52600
C  -7.33100 41.03100 41.28600
C  -11.68700 42.43300 43.14700
C  -13.08000 37.75600 43.42400
N  -8.22400 38.70400 41.36500
C  -7.82800 37.41800 41.24100
C  -6.38200 37.36200 40.68600
C  -5.96800 38.87700 40.85600
C  -7.20600 39.63100 41.21600
C  -4.86600 39.19800 41.93800
C  -6.45400 36.87200 39.15900
C  -5.60400 35.71000 38.89900
H  -4.86500 35.61100 37.57300
N  -9.68600 41.35100 42.23000
C  -8.46700 41.78700 41.72600
C  -8.46700 43.25300 41.64500
C  -9.70700 43.68100 42.20700
C  -10.43600 42.47900 42.56600
C  -7.40400 44.24100 41.03000
C  -10.13100 45.14000 42.22200
O  -9.28700 46.06400 42.06000
C  -11.54200 45.61700 42.34400
N  -12.01900 39.98200 43.30500
C  -12.41700 41.29400 43.45100
C  -13.99100 41.48200 43.77600
C  -14.36400 39.90900 43.98200
C  -13.13400 39.15200 43.46700
C  -14.27000 42.48800 44.95500
C  -15.67600 39.51400 43.35500
C  -16.82800 39.18600 44.33800
N  -10.76600 37.49900 42.60000
C  -11.96100 36.97900 43.06900
C  -11.94600 35.51000 42.85700
C  -10.69700 35.27000 42.23300
C  -10.02400 36.49100 42.13000
C  -13.07600 34.65200 43.13800
C  -9.88000 34.18300 41.77500
O  -10.12000 32.96500 41.73800
C  -8.45700 34.91400 41.36900
C  -7.41600 34.45500 42.31700
O  -7.43000 34.56800 43.54200
O  -6.48800 33.77400 41.60700
C  -5.62100 32.83500 42.36900
H  -6.40600 41.57400 41.07900
H  -12.16300 43.38400 43.39500
H  -13.98000 37.19100 43.67600
H  -5.68000 36.72300 41.22300
H  -5.68900 39.16800 39.84300
H  -4.07800 39.81300 41.50100
H  -4.48100 38.28600 42.39300
H  -5.28400 39.74700 42.78200
H  -5.98200 37.71100 38.64700
H  -7.47700 36.80800 38.78800
H  -6.14900 34.81000 39.18500
H  -4.73500 35.79500 39.55200
H  -6.91200 44.92400 41.72300
H  -7.88900 44.92900 40.33800
H  -6.65200 43.63600 40.52300
H  -11.75400 46.13200 43.28100
H  -12.39900 44.95700 42.20500
H  -11.64700 46.57800 41.84100
H  -14.34000 41.87600 42.82100
H  -14.33200 39.75800 45.06100
H  -13.30900 42.62600 45.44900
H  -15.00800 42.00000 45.59200
H  -14.54300 43.43500 44.49000
H  -15.61900 38.59500 42.77100
H  -15.95400 40.29300 42.64500
H  -17.74800 39.69600 44.05100
H  -16.62300 39.53500 45.35000
H  -17.05700 38.12100 44.28900
H  -13.82100 34.81000 42.35800
H  -13.58000 34.88300 44.07600
H  -12.84400 33.59600 43.00000
H  -8.12700 34.76700 40.34100
H  -5.26100 33.24000 43.31400
H  -4.69500 32.74200 41.80100
H  -6.14100 31.89000 42.52600

