158

Mg 25.20400 0.94700 29.79900
C  27.15900 0.70400 32.63300
C  22.46200 1.09900 31.96000
C  23.19500 0.62300 27.15800
C  28.07000 0.35200 27.77100
N  24.89800 1.03600 31.99100
C  25.88100 1.03400 32.98900
C  25.33100 1.24100 34.38800
C  23.84400 1.29800 34.15000
C  23.70800 1.09200 32.58000
C  22.83400 0.37600 34.96900
C  26.06300 2.27800 35.26200
C  26.56100 1.73400 36.63200
H  26.52300 2.62200 37.92000
N  23.08900 0.77200 29.56700
C  22.17500 0.96800 30.59900
C  20.85000 0.96700 29.95500
C  21.02200 0.74100 28.54300
C  22.49900 0.65600 28.33700
C  19.58200 1.13700 30.77900
C  19.94000 0.56500 27.48900
O  20.18100 0.26200 26.31300
C  18.50400 0.95900 27.81000
N  25.71200 0.75400 27.68900
C  24.62600 0.65900 26.87800
C  25.13100 0.44500 25.41600
C  26.68700 0.27800 25.56700
C  26.87800 0.60300 27.05500
C  24.40700 -0.71700 24.68700
C  27.63900 1.29300 24.73000
C  28.21500 0.83600 23.40900
N  27.15500 0.52400 30.11900
C  28.21600 0.34800 29.21300
C  29.39800 0.09900 29.98800
C  29.02700 0.22500 31.32600
C  27.65400 0.50900 31.33900
C  30.76000 -0.22100 29.45400
C  29.57700 0.25600 32.58600
O  30.72700 0.01300 32.95000
C  28.30300 0.39400 33.56400
C  28.23600 -0.94300 34.31200
O  27.77900 -1.99100 33.83200
O  28.59800 -0.79600 35.61400
C  28.49000 -1.85600 36.59100
H  21.65200 1.22100 32.68200
H  22.50800 0.50200 26.31800
H  28.91100 0.02800 27.15500
H  25.33000 0.30300 34.94400
H  23.43500 2.26000 34.46000
H  22.10200 1.00500 35.47600
H  23.32700 -0.25500 35.70900
H  22.40900 -0.40100 34.33300
H  25.43000 3.14800 35.43400
H  26.97800 2.53300 34.72700
H  27.59800 1.50200 36.38800
H  26.02600 0.80100 36.81100
H  18.97700 0.24700 30.60500
H  19.04900 2.07400 30.62000
H  19.63100 1.10800 31.86700
H  18.00900 0.35800 28.57300
H  17.93600 0.84200 26.88800
H  18.56200 2.00900 28.09800
H  24.88000 1.37500 24.90500
H  26.98600 -0.75900 25.41600
H  23.68500 -1.13800 25.38700
H  25.09300 -1.54200 24.49300
H  23.85200 -0.36300 23.81800
H  28.48100 1.65600 25.31900
H  27.15100 2.26400 24.64100
H  27.79100 -0.11100 23.07600
H  29.25600 0.51300 23.40000
H  28.07200 1.55500 22.60300
H  31.13000 -0.90600 30.21700
H  31.43300 0.63600 29.42800
H  30.75400 -0.80000 28.53000
H  28.44900 1.16200 34.32300
H  28.66000 -2.81900 36.10800
H  27.44800 -1.86500 36.91200
H  29.18900 -1.74700 37.42000
Mg -6.36800 24.99700 25.96900
C  -4.45500 26.27200 28.68600
C  -7.72500 22.65400 28.16600
C  -7.30600 23.18300 23.34300
C  -4.47100 27.02100 23.90000
N  -5.95400 24.46600 28.12300
C  -5.29600 25.20800 29.08600
C  -5.71800 24.81700 30.50100
C  -6.52000 23.46800 30.21900
C  -6.75300 23.49300 28.73100
C  -5.88100 22.14700 30.83000
C  -6.71100 25.95000 31.06700
C  -6.50700 26.24800 32.57100
H  -5.76500 25.17800 33.38300
N  -7.51500 23.33400 25.77200
C  -8.11000 22.59200 26.79700
C  -8.91700 21.53200 26.21000
C  -8.70600 21.55100 24.80600
C  -7.84800 22.68200 24.58700
C  -9.86600 20.78100 27.06400
C  -9.30100 20.72600 23.68500
O  -9.12800 21.04600 22.49400
C  -9.94000 19.47500 24.05000
N  -5.94200 25.12000 23.89100
C  -6.43700 24.17600 23.03500
C  -5.96100 24.47800 21.58800
C  -5.28000 25.88700 21.77600
C  -5.26000 26.07900 23.26500
C  -4.94800 23.36800 21.12300
C  -6.13900 27.00600 21.08600
C  -5.62000 27.55500 19.76300
N  -4.85500 26.54500 26.20600
C  -4.24900 27.24000 25.22300
C  -3.32500 28.19100 25.80300
C  -3.42500 27.87900 27.19300
C  -4.37500 26.83000 27.32600
C  -2.35700 29.20800 25.17400
C  -2.97200 28.18800 28.54700
O  -2.12800 28.99900 28.95200
C  -3.64700 27.11700 29.56500
C  -2.54200 26.37800 30.24700
O  -1.51100 26.03600 29.67800
O  -2.73000 26.43200 31.59200
C  -1.57300 26.09500 32.40800
H  -8.18800 21.94300 28.85300
H  -7.37700 22.51500 22.48200
H  -4.05200 27.73100 23.18400
H  -4.88300 24.49700 31.12400
H  -7.47300 23.56600 30.74000
H  -5.91500 21.37700 30.05900
H  -6.39400 21.87200 31.75200
H  -4.82300 22.27700 31.05600
H  -7.72500 25.62900 30.82800
H  -6.55400 26.90300 30.56200
H  -7.49500 26.57700 32.89100
H  -5.82700 27.09500 32.66900
H  -10.86300 20.67700 26.63600
H  -9.93400 21.32700 28.00500
H  -9.40300 19.83500 27.34600
H  -10.79400 19.55600 24.72300
H  -9.17700 18.83700 24.49600
H  -10.36500 18.97200 23.18200
H  -6.72500 24.45000 20.81100
H  -4.25800 25.93100 21.40000
H  -3.95400 23.76300 20.91000
H  -5.36800 22.86800 20.25000
H  -4.83800 22.54800 21.83300
H  -6.28300 27.80400 21.81400
H  -7.13500 26.57600 20.98400
H  -6.33100 27.25300 18.99400
H  -4.59600 27.26000 19.53500
H  -5.75100 28.63700 19.77400
H  -2.23600 30.07100 25.82900
H  -2.72200 29.57700 24.21600
H  -1.42900 28.71800 24.88000
H  -4.20800 27.52300 30.40700
H  -1.96500 26.23200 33.41600
H  -0.67200 26.69000 32.26400
H  -1.39100 25.02100 32.40300

