158

Mg 53.38400 25.47800 44.79300
C  50.96100 27.71700 43.54300
C  51.41500 22.86300 43.81800
C  56.10700 23.27700 45.06600
C  55.51200 28.14800 45.36700
N  51.54000 25.41600 43.58900
C  50.67400 26.35600 43.23400
C  49.53300 25.84700 42.41900
C  49.41000 24.36800 43.07800
C  50.90000 24.18200 43.55100
C  48.43200 24.19900 44.28200
C  49.70100 25.68000 40.84500
C  48.70300 26.26300 39.89800
H  49.21300 26.61100 38.49700
N  53.77500 23.30000 44.44200
C  52.77200 22.47400 44.10300
C  53.31000 21.17000 44.20100
C  54.63500 21.21700 44.57500
C  54.94000 22.59500 44.67000
C  52.38600 19.92500 43.98600
C  55.50700 19.97100 44.87300
O  55.03000 18.86200 44.87000
C  57.01800 20.01100 45.17800
N  55.57400 25.62600 45.08300
C  56.42700 24.56900 45.23900
C  57.80400 25.11700 45.74100
C  57.62900 26.67300 45.74900
C  56.17000 26.87200 45.32700
C  58.32400 24.38100 47.01700
C  58.58100 27.41600 44.75500
C  59.70100 28.15300 45.46700
N  53.21600 27.50500 44.72000
C  54.20000 28.48100 45.03800
C  53.46700 29.74800 45.05100
C  52.22200 29.47600 44.35600
C  52.16100 28.12700 44.16600
C  53.98900 31.01700 45.61600
C  51.00800 30.09300 43.80900
O  50.77500 31.30300 43.69300
C  50.06000 28.91400 43.24900
C  49.67700 29.14400 41.89600
O  50.45200 29.08700 40.93300
O  48.35100 29.44900 41.86600
C  47.81000 29.85800 40.55600
H  50.61700 22.12700 43.69700
H  56.95100 22.63500 45.32600
H  56.12000 28.97800 45.73400
H  48.69900 26.50000 42.67500
H  49.28100 23.61900 42.29700
H  47.83700 23.31000 44.07200
H  47.72500 25.02700 44.34000
H  48.98100 24.09200 45.21800
H  49.89700 24.65300 40.53900
H  50.52600 26.34200 40.58300
H  48.28700 27.16800 40.34100
H  47.87200 25.56000 39.85000
H  52.88900 19.00400 43.69100
H  51.59300 20.21100 43.29600
H  51.86700 19.71800 44.92200
H  57.31600 18.98900 45.40900
H  57.29100 20.69600 45.98100
H  57.53400 20.46500 44.33300
H  58.56800 24.90200 44.99400
H  57.71900 27.04600 46.76900
H  58.91200 25.03900 47.65800
H  58.92200 23.47800 46.89600
H  57.44300 24.10200 47.59500
H  58.03800 28.12000 44.12400
H  59.15300 26.69700 44.16800
H  60.58400 27.52800 45.33800
H  59.52200 28.19900 46.54200
H  59.87000 29.14900 45.05600
H  54.99400 30.85600 46.00600
H  53.39000 31.34800 46.46500
H  54.00800 31.76300 44.82300
H  49.25400 28.69900 43.95100
H  47.32900 29.02000 40.05300
H  48.61700 30.32700 39.99200
H  46.96700 30.53100 40.71600
Mg -11.90300 16.36800 42.37600
C  -8.85400 14.81800 41.59700
C  -10.66200 19.17200 40.61700
C  -15.04700 17.71500 42.17500
C  -13.17800 13.34200 43.24600
N  -10.02600 16.85800 41.21200
C  -8.94500 16.07700 41.08900
C  -7.84500 16.73100 40.22900
C  -8.36900 18.18700 40.09800
C  -9.79700 18.09700 40.71100
C  -7.57500 19.35800 40.81400
C  -7.61300 16.02200 38.86600
C  -6.30800 15.28400 38.68600
H  -5.38400 15.76900 37.55600
N  -12.70400 18.29000 41.82800
C  -12.02100 19.26700 41.02000
C  -12.90700 20.38700 40.89900
C  -14.16800 20.05600 41.55600
C  -14.03600 18.64100 41.84800
C  -12.37600 21.66700 40.36000
C  -15.31900 21.02500 41.58900
O  -15.25900 22.06500 40.97500
C  -16.50300 20.75800 42.31500
N  -13.88900 15.61300 42.49400
C  -14.99700 16.34800 42.43200
C  -16.26200 15.45900 42.63700
C  -15.63900 14.20700 43.32700
C  -14.17300 14.33700 42.94400
C  -17.42800 16.06000 43.48100
C  -16.30300 12.94300 42.89300
C  -16.62700 11.94300 44.08000
N  -11.17600 14.53000 42.63100
C  -11.78300 13.39500 42.95700
C  -10.81800 12.27200 43.05200
C  -9.68300 12.84300 42.53600
C  -9.92100 14.16800 42.29000
C  -11.17700 10.90600 43.50800
C  -8.37300 12.55900 42.16900
O  -7.76500 11.52700 42.20600
C  -7.68800 13.81800 41.60500
C  -6.54800 14.32400 42.51700
O  -6.62300 14.88200 43.63100
O  -5.34600 13.95900 42.01600
C  -4.16300 14.23700 42.80500
H  -10.30400 20.04100 40.06000
H  -16.00300 18.24100 42.13800
H  -13.66900 12.45200 43.64600
H  -6.92700 16.91100 40.78900
H  -8.52000 18.45900 39.05300
H  -7.78300 20.26300 40.24400
H  -6.51800 19.18300 40.61000
H  -7.71700 19.41500 41.89300
H  -7.69200 16.74000 38.04900
H  -8.45500 15.34900 38.70300
H  -6.49900 14.25100 38.39400
H  -5.81900 15.36300 39.65600
H  -13.14700 22.39000 40.09300
H  -11.92700 21.60300 39.36900
H  -11.64400 22.20600 40.96200
H  -17.10300 21.66600 42.38600
H  -16.27800 20.29500 43.27600
H  -16.98300 20.05500 41.63500
H  -16.57200 15.19800 41.62500
H  -15.66300 14.33400 44.40900
H  -16.98900 16.95400 43.92300
H  -17.80300 15.42400 44.28300
H  -18.22300 16.47400 42.86000
H  -15.85100 12.51700 41.99700
H  -17.26800 13.21500 42.46600
H  -16.45400 12.35800 45.07300
H  -15.83300 11.19700 44.08600
H  -17.62100 11.49500 44.10200
H  -10.31500 10.34700 43.87200
H  -11.80000 10.29700 42.85300
H  -11.74300 11.16400 44.40300
H  -7.29200 13.61800 40.60900
H  -4.14100 15.24100 43.22900
H  -3.33900 14.12100 42.10200
H  -4.08200 13.54900 43.64700

