158

Mg 26.01700 0.82000 29.19100
C  27.92200 0.58100 32.14000
C  23.25700 0.93200 31.16200
C  24.18700 1.16100 26.32500
C  28.81500 0.13900 27.26200
N  25.72700 0.93800 31.44700
C  26.63300 0.83100 32.49800
C  26.07800 1.15600 33.83600
C  24.52100 1.07600 33.51400
C  24.46000 0.92800 31.95600
C  23.75400 -0.08600 34.16200
C  26.59500 2.50200 34.41400
C  27.13800 2.55500 35.90000
H  26.42200 3.40000 36.88800
N  24.03400 0.98400 28.77100
C  23.03200 0.94600 29.74000
C  21.70700 0.99500 29.12600
C  22.04100 1.23800 27.70100
C  23.51400 1.19000 27.55800
C  20.42000 0.93600 29.92800
C  21.05800 1.25800 26.61000
O  21.38000 1.48600 25.39700
C  19.63400 1.01100 26.90200
N  26.46200 0.52000 27.09600
C  25.55100 0.88900 26.12000
C  26.09300 0.81300 24.72300
C  27.60700 0.41600 25.04500
C  27.64800 0.36300 26.52700
C  25.43500 -0.17200 23.73500
C  28.60100 1.41400 24.29300
C  29.53500 0.76300 23.28600
N  28.00900 0.45100 29.58400
C  29.03900 0.21900 28.68100
C  30.24600 0.09700 29.43200
C  29.85400 0.30300 30.80300
C  28.47500 0.45900 30.82800
C  31.60300 -0.15800 29.00900
C  30.34000 0.33600 32.15300
O  31.46700 0.19600 32.57800
C  29.12600 0.64200 33.03100
C  29.12000 -0.16200 34.24700
O  28.48200 -1.21200 34.38200
O  29.94100 0.45700 35.16700
C  29.96500 -0.21800 36.46600
H  22.33900 0.84500 31.74700
H  23.56300 1.44400 25.47400
H  29.76700 -0.10000 26.78300
H  26.26900 0.30900 34.49500
H  24.05400 2.01900 33.79800
H  23.53900 0.41800 35.10400
H  24.47100 -0.89300 34.31500
H  22.91100 -0.48900 33.60100
H  25.75000 3.18900 34.37500
H  27.42600 2.86300 33.80800
H  28.20000 2.79000 35.97200
H  27.00800 1.50700 36.17200
H  19.65900 1.51200 29.40000
H  20.54800 1.29200 30.95000
H  20.07900 -0.09900 29.92100
H  19.54500 0.11200 27.51200
H  19.13800 0.97300 25.93200
H  19.28100 1.85000 27.50200
H  26.02400 1.80900 24.28500
H  27.93700 -0.55100 24.66600
H  25.08000 0.50300 22.95600
H  24.57900 -0.67800 24.18200
H  26.14400 -0.90400 23.34800
H  29.22300 1.99200 24.97600
H  28.05500 2.23200 23.82400
H  30.59900 0.73100 23.52300
H  29.44000 1.26200 22.32200
H  29.12500 -0.23500 23.13200
H  31.97100 0.84100 28.77400
H  31.55700 -0.80900 28.13700
H  32.00800 -0.49100 29.96400
H  29.27000 1.69000 33.29400
H  29.77300 -1.28800 36.54200
H  29.15100 0.11800 37.10700
H  30.93400 -0.04800 36.93500
Mg -1.37300 34.64100 26.79800
C  -3.14500 33.06700 29.19900
C  -0.42600 37.06300 29.10700
C  -0.45600 36.70700 24.27600
C  -2.66900 32.28700 24.49700
N  -1.80000 35.05600 28.87500
C  -2.45300 34.14800 29.69500
C  -2.30000 34.54300 31.20600
C  -1.66000 35.92500 31.13500
C  -1.28300 36.00600 29.63900
C  -2.62400 37.14900 31.60000
C  -1.44200 33.50200 32.01000
C  -2.21700 32.73200 33.10800
H  -1.34400 32.62900 34.47200
N  -0.49500 36.55500 26.75300
C  -0.05000 37.34900 27.76700
C  0.64100 38.42400 27.26500
C  0.61300 38.45300 25.84200
C  -0.14000 37.16900 25.54000
C  1.38100 39.37600 28.25200
C  1.05700 39.45600 24.84300
O  0.99700 39.40900 23.62100
C  1.70400 40.65700 25.41100
N  -1.51900 34.52700 24.71000
C  -0.98500 35.44600 23.82600
C  -1.05600 34.96600 22.32600
C  -1.57600 33.42900 22.48100
C  -2.03200 33.41100 23.97200
C  -1.99900 35.98700 21.52100
C  -0.56600 32.29500 22.05500
C  0.50100 31.95600 23.02100
N  -2.54800 32.97700 26.82400
C  -3.02100 32.11600 25.80300
C  -3.83500 31.06600 26.34200
C  -3.90700 31.34100 27.72800
C  -3.18400 32.59800 27.92500
C  -4.60500 30.07000 25.54800
C  -4.41300 31.02400 28.97500
O  -5.04300 29.98000 29.27300
C  -3.99600 32.07200 29.94200
C  -5.17100 32.66300 30.68800
O  -5.91900 33.51200 30.26200
O  -5.30300 32.11600 31.91500
C  -6.53100 32.39800 32.65400
H  -0.07500 37.75400 29.87600
H  -0.06500 37.21000 23.38900
H  -3.18200 31.64100 23.78200
H  -3.29800 34.62000 31.63800
H  -0.79900 36.04400 31.79300
H  -3.67800 36.97700 31.81800
H  -2.58300 37.93300 30.84300
H  -2.19700 37.64900 32.46900
H  -0.52500 33.85900 32.47900
H  -1.01700 32.71800 31.38300
H  -2.43600 31.69200 32.86500
H  -3.13400 33.28900 33.29600
H  2.32000 39.66200 27.77700
H  1.58000 39.14800 29.30000
H  0.77300 40.27900 28.28300
H  1.64900 41.34800 24.57000
H  2.72600 40.33400 25.61300
H  1.15400 40.96700 26.30000
H  -0.09800 35.08300 21.82000
H  -2.43500 33.27900 21.82700
H  -2.90900 35.39400 21.43600
H  -1.57400 36.09300 20.52300
H  -2.21800 36.90600 22.06700
H  -0.11200 32.70300 21.15200
H  -1.13700 31.39000 21.84500
H  0.38000 32.50700 23.95400
H  1.43600 32.29000 22.57200
H  0.55000 30.88200 23.19700
H  -4.13000 29.76100 24.61700
H  -5.52800 30.55700 25.23500
H  -4.88100 29.24400 26.20300
H  -3.34300 31.70800 30.73500
H  -6.28400 32.94100 33.56600
H  -6.97700 31.53900 33.15500
H  -7.31300 32.78000 31.99700

