158

Mg 34.94000 3.53500 29.97300
C  32.57300 4.57600 32.21100
C  37.34400 3.84700 32.46600
C  37.25600 2.55100 27.74900
C  32.57300 3.60300 27.49200
N  34.94200 4.11500 32.06800
C  33.81700 4.36500 32.79200
C  34.26400 4.48300 34.28700
C  35.74800 4.75400 34.18600
C  36.06200 4.27000 32.79600
C  36.06200 6.20200 34.40600
C  33.72300 3.27900 35.18000
C  34.19200 3.39000 36.60400
H  34.35200 4.71300 37.35100
N  36.98300 3.28500 30.10000
C  37.76900 3.46100 31.16800
C  39.07600 3.12400 30.77900
C  39.14300 2.71200 29.40600
C  37.74000 2.84500 28.96500
C  40.23200 3.31000 31.69300
C  40.34200 2.11900 28.54200
O  40.18700 1.84500 27.36000
C  41.64900 1.96500 29.08400
N  34.96300 3.37300 27.87300
C  36.00400 2.83100 27.17500
C  35.68000 2.49300 25.66600
C  34.16500 2.72500 25.68200
C  33.85600 3.25900 27.06600
C  36.58300 3.26000 24.69600
C  33.51100 1.36700 25.34500
C  33.01900 0.53400 26.53200
N  33.01400 3.99700 29.83300
C  32.15600 3.99900 28.74600
C  30.84200 4.42000 29.13900
C  30.92900 4.64100 30.51600
C  32.28500 4.40300 30.85500
C  29.62200 4.61200 28.32100
C  30.19600 4.89300 31.71200
O  29.03800 5.14300 31.96700
C  31.27200 4.89900 32.92700
C  31.35600 6.17800 33.61400
O  32.20500 7.05100 33.42200
O  30.60000 6.19400 34.78700
C  31.03900 7.06800 35.89400
H  38.09800 3.93300 33.25100
H  37.83800 2.17900 26.90300
H  31.77900 3.55100 26.74400
H  33.63800 5.29200 34.66500
H  36.38400 4.15600 34.83900
H  36.16300 6.41100 35.47100
H  35.22000 6.77000 34.01200
H  36.96900 6.33400 33.81600
H  33.90100 2.28500 34.76900
H  32.65700 3.43300 35.34500
H  35.03200 2.72800 36.81100
H  33.38900 2.96600 37.20700
H  40.49200 2.31000 32.04100
H  40.17700 3.98400 32.54700
H  41.00100 3.73300 31.04600
H  41.74900 1.35100 29.97900
H  41.96800 3.00000 29.21100
H  42.27600 1.63700 28.25500
H  35.93400 1.43900 25.55700
H  33.85800 3.47500 24.95300
H  36.12200 4.02100 24.06700
H  37.01000 2.53600 24.00200
H  37.34600 3.78500 25.27100
H  34.01500 0.76300 24.59100
H  32.56200 1.69000 24.91700
H  31.98500 0.28900 26.29000
H  33.13300 0.97500 27.52200
H  33.63700 -0.36000 26.45600
H  29.69500 4.49000 27.24000
H  29.08100 5.49300 28.66700
H  29.00200 3.77000 28.62900
H  31.01900 4.17300 33.70000
H  30.32400 7.88200 36.01300
H  31.97200 7.61600 35.76400
H  31.05100 6.59400 36.87500
Mg 17.02000 51.72700 25.99100
C  18.89800 50.25300 28.46500
C  14.59500 52.59800 28.17100
C  15.22000 52.83900 23.36600
C  19.28700 50.32500 23.63000
N  16.73700 51.32000 28.12100
C  17.70300 50.80900 28.96000
C  17.29700 50.99400 30.39600
C  15.81200 51.28800 30.22800
C  15.63300 51.73500 28.74700
C  14.92000 50.11100 30.68000
C  18.11700 52.19800 31.12000
C  18.31100 52.24300 32.67400
H  17.27700 51.58700 33.63300
N  15.24600 52.66100 25.82600
C  14.44400 53.02300 26.86600
C  13.37000 53.85100 26.34900
C  13.59200 53.93000 24.93700
C  14.68400 53.13900 24.62500
C  12.14700 54.38600 27.18500
C  12.85300 54.69500 23.84900
O  13.42500 55.02300 22.77000
C  11.55900 55.40500 24.12000
N  17.14200 51.43100 23.86700
C  16.34900 52.08800 23.00900
C  16.72300 51.92500 21.47300
C  18.16600 51.23600 21.67200
C  18.17700 50.88900 23.13200
C  15.71100 50.94200 20.73900
C  19.22200 52.29000 21.27300
C  20.00400 51.88100 20.05600
N  18.71900 50.48100 26.01500
C  19.56000 50.11400 24.95600
C  20.72100 49.46300 25.60600
C  20.46900 49.43700 26.96000
C  19.23200 50.01300 27.16700
C  21.85500 48.82500 24.90800
C  20.98400 49.01500 28.20100
O  21.99400 48.41300 28.51000
C  20.01200 49.47900 29.28300
C  19.50000 48.23000 30.06100
O  19.12600 47.14200 29.72700
O  19.53800 48.66000 31.35600
C  19.23200 47.64200 32.36200
H  13.81900 52.87700 28.88600
H  14.77800 53.35800 22.51300
H  20.02100 50.09200 22.85600
H  17.40000 50.07800 30.97800
H  15.56100 52.17900 30.80400
H  13.91000 50.38700 30.37700
H  14.85800 49.93100 31.75300
H  15.16700 49.20900 30.12100
H  17.71300 53.12600 30.71600
H  19.12700 52.06300 30.73200
H  18.31000 53.30400 32.92400
H  19.29200 51.77700 32.76200
H  12.56600 55.00500 27.97800
H  11.55100 53.57000 27.59300
H  11.32700 54.80200 26.60000
H  11.86600 56.19200 24.80900
H  10.74600 54.79400 24.51300
H  11.22100 55.74300 23.14000
H  16.81500 52.81400 20.84900
H  18.21400 50.35000 21.03900
H  14.91900 50.65500 21.43000
H  16.23900 50.06200 20.37200
H  15.40700 51.47000 19.83500
H  20.00600 52.43700 22.01600
H  18.87800 53.28200 20.98200
H  20.44300 52.87100 19.92600
H  19.38200 51.48300 19.25500
H  20.68400 51.14400 20.48300
H  22.00200 49.25000 23.91500
H  21.59800 47.76700 24.84900
H  22.78600 48.97500 25.45300
H  20.50000 50.19700 29.94300
H  19.57900 48.02800 33.32100
H  19.65700 46.65200 32.19300
H  18.14600 47.65800 32.44800

