158

Mg 40.91400 7.93000 28.80400
C  42.86500 9.29400 31.24900
C  38.84100 6.57000 31.22200
C  39.17900 6.41800 26.35200
C  43.22800 8.85800 26.48300
N  40.99500 7.90100 30.95800
C  41.77900 8.65500 31.78200
C  41.23100 8.54500 33.32300
C  40.01400 7.60000 33.18400
C  39.90200 7.33000 31.67400
C  40.09300 6.19000 33.99300
C  40.90700 10.00900 33.80600
C  39.84100 10.14400 34.90800
H  40.29400 10.97400 36.21200
N  39.20100 6.65300 28.80400
C  38.47500 6.22000 29.86900
C  37.39600 5.45900 29.41800
C  37.35300 5.59200 27.96900
C  38.64700 6.28700 27.59400
C  36.47000 4.67700 30.36400
C  36.22600 5.10400 26.94700
O  36.27200 5.30200 25.75000
C  34.96400 4.59100 27.46800
N  41.11600 7.70400 26.68200
C  40.30500 7.06300 25.84200
C  40.81200 7.06500 24.45600
C  42.05600 8.08100 24.44000
C  42.15900 8.24100 25.96500
C  41.13200 5.60500 24.05600
C  41.69200 9.46800 23.79000
C  40.59900 10.34600 24.48400
N  42.70700 8.81000 28.80600
C  43.61000 9.08900 27.82300
C  44.85700 9.60800 28.39100
C  44.57000 9.79100 29.76800
C  43.28700 9.28100 29.93000
C  46.15500 9.94900 27.57900
C  45.03100 10.33300 30.99600
O  46.05400 10.93200 31.31500
C  43.98600 9.98200 32.08300
C  44.55600 9.29300 33.32600
O  44.67500 8.09000 33.52900
O  44.56500 10.26400 34.32100
C  44.93000 9.83700 35.61500
H  38.06800 6.28500 31.93700
H  38.50700 6.07800 25.56200
H  43.91600 9.21500 25.71400
H  42.10400 8.18400 33.86700
H  39.07400 8.01100 33.55300
H  40.55600 5.48300 33.30600
H  39.09900 5.83900 34.27100
H  40.73100 6.28200 34.87200
H  40.55100 10.71000 33.05000
H  41.80200 10.41200 34.28000
H  39.55800 9.20700 35.38900
H  38.96200 10.67300 34.54100
H  36.71900 4.65600 31.42500
H  36.41700 3.63200 30.05800
H  35.52500 5.19800 30.20900
H  34.35400 4.40500 26.58400
H  34.62800 5.44100 28.06300
H  35.09000 3.70700 28.09300
H  40.03800 7.45900 23.79900
H  43.03300 7.73900 24.09800
H  40.90400 4.94900 24.89700
H  42.14000 5.26500 23.82000
H  40.58300 5.45400 23.12600
H  41.33100 9.28600 22.77700
H  42.62300 10.03400 23.76600
H  39.83000 10.49700 23.72600
H  41.08100 11.21500 24.93000
H  40.01600 9.87700 25.27600
H  45.84000 10.50700 26.69800
H  46.44300 8.93700 27.29500
H  46.93500 10.50300 28.10100
H  43.50600 10.93800 32.28800
H  44.11000 10.00200 36.31400
H  45.75600 10.45300 35.97100
H  45.15500 8.77400 35.70700
Mg 25.53600 51.02300 26.39100
C  23.28200 52.09700 28.91600
C  27.57200 49.68200 28.81600
C  27.93200 50.76200 24.04700
C  23.61500 52.76500 24.15800
N  25.45600 51.13000 28.65400
C  24.40400 51.41800 29.48700
C  24.72300 51.03400 30.95000
C  26.12900 50.36900 30.82700
C  26.36300 50.36500 29.30300
C  27.21800 50.94300 31.80200
C  23.63900 50.13100 31.57600
C  23.76500 49.69400 33.08500
H  24.36800 50.66300 34.14400
N  27.36900 50.07500 26.38600
C  28.04500 49.58800 27.43900
C  29.31500 48.90500 26.93300
C  29.44800 49.34900 25.58900
C  28.25700 50.15800 25.30000
C  30.17500 48.06900 27.85800
C  30.60700 49.01300 24.59700
O  30.57600 49.35100 23.40500
C  31.72000 48.13800 24.99200
N  25.91500 51.96900 24.43500
C  26.85600 51.59600 23.56800
C  26.63000 52.17400 22.15600
C  25.12900 52.45400 22.22500
C  24.85300 52.37500 23.73000
C  27.52000 53.42000 21.93300
C  24.14200 51.50700 21.45700
C  24.10500 51.76100 19.86100
N  23.88700 52.23400 26.41100
C  23.10200 52.73300 25.42800
C  21.81800 53.10800 25.80500
C  21.89200 53.01000 27.19000
C  23.11000 52.36500 27.53500
C  20.70100 53.68000 24.98900
C  21.17300 53.26100 28.45000
O  20.03800 53.64000 28.62900
C  22.12900 52.74700 29.58400
C  22.59000 53.82500 30.46000
O  23.18200 54.87300 30.21900
O  22.21300 53.48700 31.74400
C  22.43400 54.41200 32.89000
H  28.17800 49.14500 29.54900
H  28.65200 50.40800 23.30700
H  22.95900 53.21800 23.41100
H  24.68100 51.98400 31.48200
H  25.96300 49.38200 31.25900
H  27.86200 51.60600 31.22400
H  27.89200 50.11000 32.00300
H  26.79500 51.57800 32.58100
H  23.89200 49.21100 31.04900
H  22.58000 50.28500 31.36500
H  24.33300 48.76300 33.08900
H  22.71800 49.58100 33.36700
H  29.90800 48.10900 28.91400
H  31.18700 48.47400 27.81900
H  30.21100 47.07100 27.42100
H  31.13100 47.22300 25.05700
H  32.16000 48.32700 25.97100
H  32.47900 48.09600 24.21100
H  26.87200 51.39400 21.43500
H  24.97200 53.45300 21.81900
H  27.78200 53.67000 22.96100
H  26.92900 54.27700 21.60900
H  28.43500 53.19300 21.38500
H  23.10400 51.45300 21.78400
H  24.64700 50.54900 21.58200
H  23.53700 50.98900 19.34200
H  25.08900 51.83300 19.39700
H  23.61400 52.72800 19.75300
H  20.84700 53.69700 23.90900
H  20.71800 54.70500 25.35800
H  19.73200 53.24500 25.23100
H  21.62900 51.96800 30.16000
H  23.37600 54.07800 33.32600
H  21.59200 54.31000 33.57400
H  22.40300 55.45200 32.56600

