158

Mg 47.06900 15.99100 27.82400
C  45.25400 15.27800 30.78200
C  48.97000 18.10700 29.83500
C  48.97200 16.67600 25.17600
C  44.99800 14.01000 25.95500
N  47.14600 16.51300 30.12600
C  46.33800 16.12600 31.13700
C  46.77300 16.67400 32.47100
C  47.75200 17.77000 32.10300
C  47.98900 17.47500 30.58200
C  47.39100 19.20000 32.51400
C  47.31500 15.60000 33.41500
C  47.10800 15.70800 34.92200
H  48.34400 15.58300 35.80500
N  48.64800 17.22000 27.53900
C  49.26400 18.00600 28.51700
C  50.45000 18.62900 27.92200
C  50.48800 18.30800 26.51500
C  49.26700 17.43200 26.33000
C  51.47200 19.46200 28.70800
C  51.37100 18.82800 25.41000
O  51.26100 18.47200 24.26200
C  52.55700 19.73400 25.73400
N  46.98000 15.46400 25.83000
C  47.96500 15.77000 24.93400
C  47.77800 14.96100 23.66100
C  46.45700 14.28500 23.82000
C  46.09500 14.52800 25.29400
C  47.81800 15.74900 22.34800
C  46.49800 12.75300 23.39800
C  45.99800 12.48200 21.89400
N  45.40300 14.92100 28.22700
C  44.61800 14.20300 27.30300
C  43.53200 13.63000 28.01300
C  43.71100 13.97000 29.38900
C  44.89200 14.83100 29.46700
C  42.43300 12.89000 27.25300
C  43.31700 13.75800 30.78700
O  42.44200 13.06400 31.31800
C  44.24700 14.63400 31.72600
C  43.41900 15.59500 32.44800
O  42.63500 16.33000 31.98600
O  43.74300 15.55100 33.77900
C  42.97600 16.34300 34.63500
H  49.53400 18.79900 30.46300
H  49.57900 16.80100 24.27700
H  44.32800 13.44500 25.30300
H  45.92500 17.15900 32.95300
H  48.64900 17.58000 32.69300
H  46.85000 19.37100 33.44500
H  46.99600 19.57000 31.56800
H  48.33200 19.73000 32.66000
H  48.36200 15.47900 33.13800
H  46.86300 14.65400 33.11600
H  46.39800 14.89900 35.09400
H  46.59400 16.62200 35.21900
H  51.71100 20.36500 28.14700
H  52.38800 18.96600 29.02800
H  51.07200 19.82100 29.65600
H  52.14300 20.71600 25.96400
H  53.24500 19.88300 24.90200
H  53.06300 19.35300 26.62100
H  48.59900 14.24400 23.66000
H  45.61600 14.69300 23.25800
H  48.62400 15.38300 21.71200
H  48.03600 16.79700 22.55500
H  46.91000 15.70000 21.74800
H  45.99600 12.08900 24.10200
H  47.55300 12.51300 23.52500
H  46.75600 11.83100 21.45700
H  45.87000 13.36000 21.26100
H  45.07500 11.90400 21.94900
H  42.13800 13.13000 26.23200
H  41.54800 13.33200 27.71100
H  42.38800 11.82900 27.49900
H  44.71400 13.98800 32.47000
H  43.34500 16.18600 35.64900
H  41.95300 15.99900 34.48100
H  43.04500 17.38600 34.32700
Mg 47.21500 35.02400 28.03300
C  45.48200 32.98800 30.22800
C  47.34900 37.52900 30.47900
C  48.21600 37.12900 25.63900
C  46.46100 32.67400 25.39400
N  46.54400 35.25900 30.07300
C  46.05300 34.16400 30.79500
C  46.24200 34.43600 32.31700
C  46.31400 36.01100 32.31100
C  46.68700 36.35300 30.85100
C  45.18700 36.87900 32.88900
C  47.50500 33.66900 32.82600
C  47.63000 33.52500 34.31700
H  46.67500 34.34100 35.23900
N  47.90600 36.95300 28.09100
C  47.82400 37.80200 29.21300
C  48.56900 39.06900 28.83400
C  48.76700 39.05400 27.42000
C  48.27100 37.69700 26.98700
C  49.08500 40.28300 29.84800
C  49.28300 40.10300 26.47500
O  49.31700 39.90800 25.28000
C  49.57900 41.53700 26.86400
N  47.41000 34.84200 25.82800
C  47.87000 35.86900 25.09200
C  47.85600 35.54700 23.62000
C  47.63800 34.03800 23.59600
C  47.01700 33.87200 24.98300
C  46.78100 36.37800 22.90500
C  48.88000 33.12200 23.43500
C  48.58900 31.75000 22.87300
N  46.09000 33.27200 27.81900
C  45.98500 32.41600 26.75000
C  45.42200 31.12300 27.22600
C  45.12600 31.33600 28.58200
C  45.51300 32.65300 28.85900
C  45.17200 29.84200 26.40300
C  44.51300 30.80200 29.78700
O  44.13000 29.65700 30.00700
C  44.49400 31.87200 30.80600
C  45.09300 31.31900 32.02600
O  46.13100 30.71600 32.12100
O  44.28800 31.65300 33.08800
C  44.67800 31.07400 34.44200
H  47.47300 38.32100 31.22100
H  48.45800 37.93600 24.94400
H  46.25100 31.94100 24.61200
H  45.34600 34.09700 32.83500
H  47.15600 36.23900 32.96300
H  44.35200 36.23800 33.17200
H  44.88000 37.53500 32.07500
H  45.56400 37.51400 33.69100
H  48.45700 34.07100 32.48000
H  47.60300 32.65800 32.43200
H  48.62600 33.80500 34.65800
H  47.71300 32.49100 34.65200
H  50.15800 40.47100 29.81600
H  48.97700 39.90700 30.86600
H  48.44900 41.12400 29.57400
H  50.35600 41.61800 27.62400
H  48.59100 41.87500 27.17500
H  49.92200 42.13000 26.01600
H  48.81100 35.77300 23.14600
H  46.90000 33.85800 22.81400
H  47.27700 36.84100 22.05200
H  46.40200 37.30100 23.34300
H  45.94300 35.83600 22.46500
H  49.36500 32.99400 24.40300
H  49.50200 33.58600 22.67000
H  47.56100 31.38700 22.87600
H  49.05000 30.96100 23.46700
H  48.98600 31.64900 21.86300
H  45.66000 29.89200 25.43000
H  44.10800 29.62100 26.31700
H  45.60300 28.98900 26.92800
H  43.49500 32.22900 31.05700
H  44.16000 31.57700 35.25900
H  45.75500 31.18500 34.57300
H  44.40900 30.03100 34.60800

