158

Mg 45.21700 5.12100 46.98400
C  42.98200 7.74100 46.71000
C  42.55300 2.89200 46.59600
C  47.41700 2.65400 46.33200
C  47.82400 7.43000 46.48400
N  43.03700 5.36200 46.45300
C  42.32100 6.49100 46.53100
C  40.78600 6.28500 46.46700
C  40.73300 4.76500 46.75000
C  42.20700 4.28000 46.65400
C  39.99600 4.39200 48.07800
C  40.20300 6.83800 45.13300
C  40.49100 6.13000 43.78100
H  41.00600 7.07500 42.69200
N  45.02600 3.02800 46.63500
C  43.84300 2.33300 46.53300
C  44.13100 0.90600 46.49000
C  45.59700 0.86100 46.39300
C  46.08200 2.19200 46.39600
C  43.11200 -0.23800 46.36000
C  46.45000 -0.40000 46.27800
O  45.85700 -1.47800 46.24800
C  47.99100 -0.50800 46.22700
N  47.27000 5.14300 46.19400
C  47.95300 3.90300 46.30100
C  49.52300 4.13600 46.31500
C  49.57400 5.67300 46.11200
C  48.12200 6.13400 46.27200
C  50.17500 3.60700 47.65300
C  50.18100 6.14000 44.77600
C  51.52500 5.75400 44.23200
N  45.49300 7.20500 46.86700
C  46.55100 8.03100 46.70200
C  46.10700 9.37400 46.88200
C  44.71000 9.34300 46.92700
C  44.41000 7.95200 46.77800
C  47.05300 10.56900 47.07100
C  43.51400 10.17500 47.04300
O  43.38100 11.36900 47.19100
C  42.32400 9.08400 47.01200
C  41.42000 9.18000 48.21300
O  41.70300 8.71400 49.28000
O  40.30800 9.90500 47.92100
C  39.46000 10.28500 49.01700
H  41.73000 2.18200 46.49300
H  48.25400 1.95900 46.23100
H  48.69500 8.08900 46.51200
H  40.33200 6.89800 47.24400
H  40.20900 4.30800 45.91000
H  39.04700 3.90500 47.85200
H  39.83300 5.28900 48.67500
H  40.71400 3.82600 48.67100
H  40.41000 7.90700 45.08700
H  39.14300 6.81500 45.38300
H  39.69600 5.58000 43.27800
H  41.30900 5.43200 43.96100
H  43.30500 -0.89700 45.51300
H  42.07500 0.09800 46.34600
H  43.19200 -0.82700 47.27400
H  48.47900 -0.05900 47.09200
H  48.23300 0.07000 45.33500
H  48.27300 -1.55900 46.15100
H  50.07800 3.57400 45.56400
H  50.31400 6.02600 46.83100
H  50.61800 4.36600 48.29800
H  51.00500 2.96300 47.36300
H  49.47100 3.12100 48.32900
H  50.10900 7.22500 44.85700
H  49.44400 5.87100 44.01900
H  51.28300 5.19600 43.32800
H  52.09000 5.14600 44.93900
H  52.16300 6.58300 43.92600
H  46.71600 11.36300 47.73800
H  47.39800 10.90000 46.09100
H  47.95300 10.22700 47.58300
H  41.78700 9.36300 46.10600
H  39.57400 9.63400 49.88400
H  38.40000 10.24400 48.76700
H  39.61800 11.33100 49.27900
Mg 16.07000 51.23700 26.02000
C  17.91800 50.02400 28.66000
C  13.70300 52.26000 28.20600
C  14.55500 52.79800 23.37300
C  18.52700 50.13200 23.83100
N  15.93000 51.32300 28.12100
C  16.82400 50.75100 29.01600
C  16.38700 51.08000 30.47900
C  14.85600 51.35400 30.27100
C  14.81100 51.68200 28.77800
C  13.88900 50.13200 30.56800
C  17.37100 52.18200 31.07700
C  17.55400 51.93900 32.65400
H  16.60100 52.63000 33.63900
N  14.37800 52.41000 25.79400
C  13.51300 52.67900 26.84800
C  12.48700 53.54600 26.34300
C  12.71600 53.70200 24.94400
C  13.90000 52.89700 24.61800
C  11.31900 54.12600 27.20800
C  11.90300 54.49200 23.90300
O  12.29800 54.57200 22.75200
C  10.64500 55.20200 24.24700
N  16.30100 51.17900 23.86600
C  15.68500 52.11300 23.03400
C  16.36300 52.07000 21.66100
C  17.69300 51.34900 21.81000
C  17.47400 50.77700 23.23900
C  15.49900 51.38800 20.58400
C  18.92000 52.31800 21.75900
C  20.16000 51.81400 20.95900
N  17.74200 50.09200 26.06700
C  18.65100 49.76900 25.15500
C  19.77700 49.07400 25.75200
C  19.50200 49.22100 27.12500
C  18.32100 49.82900 27.29900
C  21.08000 48.51500 25.21700
C  20.07200 48.87600 28.42300
O  21.05400 48.19600 28.70900
C  19.08000 49.44500 29.47100
C  18.75000 48.40600 30.47600
O  18.51300 47.20800 30.23700
O  18.95900 48.87400 31.76100
C  18.89200 47.88500 32.90400
H  12.83900 52.48000 28.83600
H  14.24500 53.42200 22.53200
H  19.36800 49.95600 23.15800
H  16.55200 50.19000 31.08500
H  14.60600 52.26200 30.82000
H  13.39900 50.46700 31.48300
H  14.36900 49.17300 30.76200
H  13.18900 50.01300 29.74200
H  16.69600 53.01400 30.87700
H  18.30700 52.37500 30.55300
H  18.58000 52.23300 32.87600
H  17.45200 50.86600 32.81500
H  10.41700 53.82900 26.67200
H  11.40400 55.21200 27.21700
H  11.32400 53.84500 28.26100
H  10.30200 55.76100 23.37600
H  10.91300 55.91800 25.02500
H  9.85600 54.55100 24.62200
H  16.48900 53.10200 21.33400
H  17.77900 50.52400 21.10300
H  16.04100 50.91100 19.76800
H  14.72400 52.05000 20.19700
H  14.94600 50.54900 21.00600
H  19.32200 52.58700 22.73600
H  18.68300 53.22100 21.19600
H  19.92800 51.71300 19.89800
H  20.56000 50.83400 21.21900
H  20.93400 52.56800 21.10100
H  21.25700 47.49000 25.54500
H  21.94800 49.12100 25.47700
H  21.03600 48.64800 24.13700
H  19.65300 50.25600 29.92000
H  19.12100 48.44700 33.80900
H  19.57000 47.05600 32.70100
H  17.93300 47.41300 33.11800

