158

Mg 0.97600 8.47500 26.94500
C  1.54400 10.96700 29.43400
C  1.35500 6.10100 29.25400
C  0.68500 6.25500 24.49200
C  1.28400 11.06100 24.57900
N  1.32600 8.55600 29.13100
C  1.34800 9.67900 29.94900
C  1.19500 9.30000 31.42200
C  1.46800 7.73500 31.34000
C  1.36500 7.44600 29.83000
C  2.76200 7.15900 31.95600
C  -0.20600 9.66400 31.89600
C  -0.59000 9.25600 33.34100
H  0.53600 8.82900 34.36100
N  0.87900 6.52500 26.92500
C  0.94600 5.69100 27.96700
C  0.69000 4.30000 27.56600
C  0.69500 4.30600 26.18100
C  0.77700 5.77600 25.77200
C  0.57700 3.24900 28.61100
C  0.63500 3.07900 25.28100
O  0.59700 3.20900 24.03000
C  0.62500 1.66200 25.95000
N  1.09400 8.63800 24.85400
C  0.80800 7.58900 24.04000
C  0.79600 7.98500 22.56900
C  0.61700 9.50300 22.61100
C  1.13400 9.74700 24.08700
C  2.03800 7.39900 21.84400
C  -0.75700 10.05900 22.32200
C  -0.86200 11.32300 21.41900
N  1.36100 10.59200 26.94400
C  1.48100 11.47700 25.89200
C  1.78300 12.79400 26.37700
C  1.75600 12.68900 27.75000
C  1.51900 11.32000 28.03300
C  1.96300 14.01300 25.60800
C  1.84400 13.43000 29.07300
O  1.99000 14.61800 29.24700
C  1.61800 12.26600 30.25200
C  2.79400 12.22200 31.15400
O  3.89100 11.70100 30.98500
O  2.43200 12.79600 32.38000
C  3.35100 12.69100 33.50300
H  1.46600 5.40400 30.08700
H  0.58600 5.52300 23.68900
H  1.26300 11.84500 23.81900
H  2.04400 9.72600 31.95700
H  0.58700 7.24900 31.76100
H  3.15000 6.35400 31.33200
H  2.50600 6.72700 32.92400
H  3.50500 7.92100 32.18900
H  -0.88000 9.08700 31.26300
H  -0.41700 10.72500 31.76200
H  -1.23600 8.37800 33.34000
H  -1.07600 10.13900 33.75500
H  1.23000 2.39100 28.45600
H  -0.42700 2.87900 28.81800
H  1.05800 3.50500 29.55500
H  1.55000 1.49000 26.50000
H  0.46400 0.98400 25.11200
H  -0.29300 1.61400 26.53500
H  -0.02600 7.50300 22.04000
H  1.32200 10.12300 22.05700
H  2.55100 6.68600 22.49000
H  2.78600 8.14400 21.57200
H  1.73400 6.93900 20.90400
H  -1.17400 10.42600 23.26000
H  -1.43700 9.30500 21.92500
H  0.12800 11.50200 20.99800
H  -1.18700 12.20800 21.96500
H  -1.58700 11.22300 20.61200
H  2.81300 13.80000 24.96000
H  2.30500 14.82100 26.25600
H  1.05800 14.28700 25.06500
H  0.77300 12.56200 30.87300
H  4.09000 11.90300 33.36000
H  2.76400 12.35200 34.35700
H  3.85200 13.64000 33.69100
Mg -2.64200 35.04200 25.77000
C  -4.43300 33.55200 28.51200
C  -1.59300 37.46400 27.95200
C  -0.96700 36.41400 23.20400
C  -4.29700 32.80400 23.66200
N  -3.27600 35.55800 27.95300
C  -3.68900 34.62400 28.92400
C  -3.36400 35.11800 30.34400
C  -2.62900 36.52900 30.05500
C  -2.53900 36.55400 28.53000
C  -3.31600 37.77700 30.69700
C  -2.52600 34.08200 31.16600
C  -2.07300 34.38200 32.62800
H  -2.85700 33.82200 33.84300
N  -1.47400 36.72700 25.59100
C  -1.09300 37.60400 26.60100
C  -0.12500 38.56200 25.96500
C  0.22600 38.15800 24.64400
C  -0.74200 37.04300 24.39500
C  0.49200 39.65500 26.62900
C  1.20100 38.69200 23.67500
O  1.35100 38.25200 22.53800
C  2.29900 39.62400 24.21300
N  -2.84000 34.76300 23.67300
C  -2.02100 35.48900 22.81200
C  -2.14200 34.88000 21.39100
C  -3.02300 33.63400 21.56000
C  -3.39600 33.71100 23.07000
C  -2.58900 35.83600 20.26400
C  -2.43600 32.32800 21.11600
C  -1.48500 31.68500 22.12800
N  -4.11500 33.51500 25.93100
C  -4.61500 32.68800 25.03200
C  -5.43200 31.74500 25.60400
C  -5.43700 32.00100 26.95800
C  -4.62500 33.12900 27.14200
C  -6.19500 30.64800 24.88400
C  -5.92900 31.64300 28.28400
O  -6.67700 30.71800 28.50600
C  -5.16300 32.49900 29.32200
C  -6.16000 33.11600 30.28000
O  -6.84600 34.08400 30.02300
O  -6.15200 32.47100 31.46800
C  -7.01100 33.11400 32.45600
H  -1.10800 38.06900 28.72100
H  -0.49600 36.82300 22.30700
H  -4.64500 31.99900 23.01100
H  -4.21100 35.23200 31.01900
H  -1.60200 36.38700 30.39300
H  -3.58500 38.57400 30.00400
H  -2.75200 38.27900 31.48200
H  -4.19200 37.61700 31.32700
H  -1.60900 33.93200 30.59700
H  -3.07500 33.14100 31.18800
H  -1.96500 35.46200 32.72100
H  -1.09100 33.92500 32.75500
H  0.04200 39.77900 27.61500
H  0.45900 40.59300 26.07600
H  1.50300 39.40700 26.95300
H  1.82200 40.49500 24.66100
H  2.64700 39.96400 23.23700
H  3.16400 39.26500 24.77100
H  -1.13900 34.61900 21.05300
H  -3.98500 33.80100 21.07600
H  -3.48200 35.40900 19.80800
H  -1.79000 35.79000 19.52300
H  -2.65200 36.84500 20.67100
H  -1.89900 32.54800 20.19300
H  -3.18500 31.56700 20.89800
H  -0.69300 31.46400 21.41200
H  -2.00800 30.81500 22.52400
H  -1.12600 32.32300 22.93600
H  -6.48100 29.79000 25.49300
H  -5.72400 30.32800 23.95500
H  -7.12600 31.16500 24.65100
H  -4.55800 31.77300 29.86500
H  -8.00300 33.27600 32.03500
H  -6.59200 34.04100 32.84700
H  -7.35600 32.53900 33.31600

