158

Mg 7.66100 3.28300 27.02300
C  8.59800 1.50600 29.95900
C  5.80800 5.46600 29.03200
C  6.53400 4.82200 24.28400
C  9.23300 0.93200 25.16500
N  7.31300 3.50000 29.13300
C  7.87400 2.69000 30.15400
C  7.64900 3.30200 31.57200
C  6.57600 4.40800 31.25100
C  6.52300 4.43800 29.70700
C  5.20300 4.12200 31.88400
C  8.92000 3.84800 32.22400
C  8.71500 4.63500 33.58200
H  9.47000 4.06400 34.77600
N  6.30300 4.81100 26.71100
C  5.70900 5.61100 27.66300
C  4.95000 6.65800 26.99700
C  5.12900 6.50800 25.63500
C  6.00200 5.34100 25.46700
C  3.95700 7.53200 27.83200
C  4.59400 7.44700 24.56800
O  4.74700 7.15600 23.36700
C  3.80200 8.65900 24.89300
N  7.88900 2.89000 25.00000
C  7.31400 3.70100 24.06000
C  7.69800 3.29500 22.63700
C  8.62800 2.03800 22.84600
C  8.59900 1.91000 24.41600
C  6.50600 3.10600 21.66600
C  9.99300 2.12400 22.24300
C  10.39800 0.87800 21.50100
N  8.69500 1.54300 27.42900
C  9.34700 0.71600 26.56800
C  9.98200 -0.38100 27.26900
C  9.70600 -0.11800 28.62800
C  8.96800 1.09000 28.67100
C  10.83200 -1.45600 26.58400
C  9.90900 -0.55400 29.96700
O  10.53300 -1.53100 30.40500
C  9.21600 0.46300 30.91200
C  8.25300 -0.26400 31.71600
O  7.31300 -0.89300 31.34600
O  8.38900 0.03700 33.14000
C  7.19400 -0.32100 34.00000
H  5.45900 6.23300 29.72600
H  6.16700 5.35900 23.40700
H  9.85100 0.25500 24.57100
H  7.21700 2.44700 32.09100
H  6.83000 5.41400 31.58400
H  5.24000 3.14100 32.35700
H  4.44200 4.09000 31.10500
H  5.05200 4.89400 32.63900
H  9.34100 4.50900 31.46600
H  9.57700 3.00900 32.45400
H  7.65700 4.65200 33.84600
H  8.94200 5.69600 33.48500
H  2.99700 7.33600 27.35500
H  4.16400 8.59500 27.71200
H  3.86200 7.29100 28.89100
H  2.83400 8.47800 25.36000
H  3.63400 9.10100 23.91100
H  4.35300 9.33700 25.54400
H  8.31200 4.10500 22.24500
H  8.10400 1.14900 22.49500
H  5.52100 3.43000 22.00300
H  6.34300 2.04500 21.47400
H  6.66100 3.73300 20.78800
H  10.79000 2.31300 22.96200
H  9.95500 2.98700 21.57800
H  10.48600 1.16500 20.45300
H  9.74300 0.00700 21.48000
H  11.35700 0.58200 21.92600
H  10.53400 -1.47400 25.53600
H  10.55100 -2.45900 26.90700
H  11.90600 -1.27700 26.62100
H  9.95500 0.89300 31.58800
H  6.87000 0.60800 34.46900
H  7.42000 -1.02500 34.80100
H  6.33600 -0.67000 33.42700
Mg 7.12400 53.31500 40.40700
C  6.46900 49.80100 40.15600
C  10.48200 52.65100 39.93000
C  7.57500 56.60200 40.21200
C  3.62800 53.73200 40.65900
N  8.36700 51.40500 40.13500
C  7.84400 50.11800 40.05200
C  8.94800 49.20100 39.65200
C  10.21300 49.98300 40.12500
C  9.68700 51.48900 40.02300
C  10.62900 49.65700 41.58200
C  8.96700 48.82300 38.11700
C  8.38500 49.80800 37.08500
H  7.55700 49.22200 35.91500
N  8.79500 54.46900 40.05900
C  10.09800 54.00000 39.86900
C  10.96100 55.15900 39.48400
C  10.19600 56.33400 39.65200
C  8.78800 55.81100 40.05300
C  12.37100 55.11300 39.10300
C  10.70800 57.76700 39.50800
O  11.90400 58.04500 39.28100
C  9.75500 58.96500 39.68300
N  5.78800 54.91500 40.45000
C  6.23600 56.20900 40.48100
C  5.05800 57.21200 40.62800
C  3.81500 56.24600 40.53600
C  4.45500 54.87600 40.56000
C  5.13300 58.13000 41.86000
C  3.00500 56.44300 39.19800
C  1.51400 56.23800 39.33600
N  5.36000 52.11400 40.49500
C  4.06500 52.37900 40.68900
C  3.27800 51.15200 40.82200
C  4.25900 50.08700 40.62100
C  5.43300 50.71000 40.47700
C  1.78000 51.04700 41.07900
C  4.41400 48.68500 40.56200
O  3.54400 47.85800 40.75000
C  5.85700 48.38200 40.16500
C  5.73300 47.69200 38.89200
O  5.25900 48.12600 37.86100
O  6.05800 46.37300 39.08500
C  5.95700 45.57300 37.82900
H  11.52500 52.40800 39.71900
H  7.70300 57.68300 40.29600
H  2.56700 53.85500 40.88200
H  8.81100 48.23500 40.13800
H  11.01300 49.71400 39.43600
H  10.17800 48.78200 42.05000
H  10.32100 50.45100 42.26200
H  11.71600 49.60100 41.62100
H  8.39000 47.91100 37.96200
H  9.99000 48.58200 37.82800
H  9.14100 50.34000 36.50800
H  7.77300 50.60400 37.51000
H  12.98300 55.68000 39.80500
H  12.58000 55.36000 38.06200
H  12.69500 54.07600 39.18600
H  10.38800 59.82100 39.44900
H  9.42400 59.09300 40.71400
H  8.93700 58.98000 38.96200
H  5.05600 57.85100 39.74500
H  3.24000 56.49500 41.42800
H  5.25300 59.20100 41.69600
H  6.01600 57.75400 42.37600
H  4.29100 57.87200 42.50200
H  3.46100 55.92200 38.35600
H  3.18100 57.48900 38.94800
H  1.10900 55.67600 38.49400
H  0.90300 57.10300 39.59500
H  1.45400 55.59000 40.20900
H  1.27500 51.97600 40.81600
H  1.61000 50.80500 42.12800
H  1.41900 50.25800 40.41900
H  6.28300 47.69400 40.89600
H  6.71000 46.01700 37.17900
H  4.94800 45.57700 37.41600
H  6.34800 44.57000 38.00000

