158

Mg 49.29000 47.20700 43.63000
C  45.98700 47.76100 42.83200
C  49.00000 44.11400 42.14000
C  52.60700 47.04200 43.80500
C  49.45100 50.55900 44.73200
N  47.70900 46.13400 42.54500
C  46.47800 46.55800 42.29100
C  45.63700 45.61100 41.32800
C  46.57700 44.36200 41.27300
C  47.82800 44.86700 42.01600
C  45.96700 43.03600 41.69400
C  45.32200 46.38400 39.97600
C  43.78100 46.34900 39.64700
H  43.30300 45.77800 38.35300
N  50.62700 45.66200 43.11700
C  50.32100 44.43900 42.59000
C  51.51700 43.64300 42.64900
C  52.61200 44.51000 43.08900
C  51.97800 45.79900 43.34900
C  51.55300 42.25300 42.03200
C  53.96400 44.14000 43.34100
O  54.27400 42.98600 43.10600
C  55.04000 44.98000 43.70200
N  50.87600 48.64900 44.15400
C  52.12500 48.21200 44.27100
C  53.02200 49.33900 44.89500
C  52.01900 50.52200 45.13000
C  50.69700 49.85900 44.68300
C  53.95200 48.92300 46.05800
C  52.31300 51.84000 44.51500
C  51.96200 53.07400 45.41800
N  48.01800 48.87700 43.86200
C  48.19400 50.14800 44.34600
C  46.95700 50.91500 44.30200
C  46.03300 49.97000 43.74200
C  46.76700 48.70100 43.52400
C  46.82800 52.37700 44.71400
C  44.65400 49.77000 43.44200
O  43.69000 50.51700 43.43900
C  44.56300 48.28700 42.83700
C  43.73100 47.43600 43.72600
O  43.67100 47.55300 44.94100
O  43.03000 46.54500 42.95200
C  42.04800 45.65700 43.69800
H  49.00900 43.07600 41.80100
H  53.60600 46.97400 44.24100
H  49.57300 51.60600 45.01500
H  44.76800 45.23800 41.86900
H  46.88500 44.14100 40.25100
H  44.88500 42.92000 41.75200
H  46.36700 42.67400 42.64200
H  46.22100 42.23200 41.00300
H  45.95100 46.01900 39.16500
H  45.46400 47.45300 40.13800
H  43.45600 47.38600 39.72800
H  43.24800 45.81800 40.43600
H  51.55900 41.49700 42.81800
H  52.24800 42.11700 41.20400
H  50.68200 41.93600 41.45800
H  55.02000 45.75500 42.93600
H  55.98100 44.43200 43.75200
H  54.83400 45.42200 44.67600
H  53.66300 49.56600 44.04300
H  51.78500 50.62300 46.19000
H  53.75200 47.85100 46.07500
H  53.76700 49.50300 46.96200
H  54.92100 49.19400 45.64100
H  51.78300 51.83300 43.56200
H  53.38700 51.92400 44.34700
H  51.13800 53.68600 45.04900
H  52.77700 53.79600 45.46500
H  51.77500 52.80200 46.45700
H  47.24700 52.89700 43.85300
H  47.37400 52.49000 45.65100
H  45.80600 52.73700 44.83600
H  44.13700 48.33500 41.83500
H  42.49200 45.12000 44.53600
H  41.85400 44.86400 42.97600
H  41.13000 46.14200 44.03100
Mg 17.18800 51.10500 26.58300
C  19.02200 49.49900 28.98100
C  14.97400 52.14400 29.01600
C  15.19800 52.29500 24.18900
C  19.24600 49.64800 24.11400
N  16.97400 50.76700 28.73500
C  17.89400 50.16100 29.51300
C  17.63900 50.48900 31.00000
C  16.18300 50.97100 30.96300
C  15.98600 51.30300 29.44900
C  15.13500 50.04100 31.50000
C  18.70200 51.49400 31.53900
C  19.16100 51.16600 32.92600
H  18.13600 50.54900 33.97800
N  15.38000 52.10200 26.59300
C  14.74000 52.56600 27.67400
C  13.79300 53.58300 27.30900
C  13.71700 53.60700 25.89900
C  14.71400 52.56500 25.45800
C  13.02300 54.50500 28.35000
C  12.92400 54.35300 24.84900
O  13.00300 54.14100 23.59800
C  11.99000 55.38500 25.40000
N  17.11300 50.76300 24.45500
C  16.35000 51.57200 23.70300
C  16.52300 51.33800 22.19700
C  17.94400 50.63600 22.20700
C  18.13600 50.36900 23.67600
C  15.35300 50.54800 21.53300
C  19.06000 51.50400 21.43500
C  19.84500 50.66700 20.37100
N  18.82200 49.85300 26.54900
C  19.54000 49.34300 25.47500
C  20.63800 48.54600 26.07000
C  20.47600 48.63600 27.41600
C  19.31500 49.37200 27.66600
C  21.82000 47.95400 25.27700
C  21.11200 48.25200 28.70600
O  22.08900 47.57900 29.00600
C  20.19500 48.83300 29.76800
C  19.83400 47.73700 30.73600
O  19.07200 46.84700 30.49500
O  20.45900 47.96800 31.98200
C  19.98300 47.10800 33.05600
H  14.47600 52.66600 29.83700
H  14.62000 52.67400 23.34400
H  19.98000 49.30900 23.38000
H  17.79700 49.52800 31.49000
H  16.14100 51.91700 31.50300
H  14.43300 50.53100 32.17500
H  15.62500 49.32100 32.15500
H  14.60800 49.53200 30.69300
H  18.16100 52.43700 31.62400
H  19.49700 51.77100 30.84700
H  19.56200 52.06000 33.40400
H  20.03900 50.52100 32.92500
H  13.02700 55.51400 27.93600
H  13.51000 54.45500 29.32300
H  11.99000 54.15900 28.39700
H  11.58400 55.97800 24.58000
H  12.65700 56.09300 25.89200
H  11.22700 55.01400 26.08400
H  16.59100 52.24700 21.60000
H  17.84500 49.68900 21.67700
H  15.82900 49.73700 20.98200
H  14.76700 51.14000 20.82900
H  14.81300 50.03800 22.33000
H  19.82000 51.90000 22.10900
H  18.55300 52.33400 20.94200
H  19.86400 49.59100 20.54500
H  20.91000 50.90000 20.36600
H  19.43700 50.91400 19.39100
H  22.28900 48.78700 24.75500
H  21.27700 47.27200 24.62300
H  22.49700 47.40600 25.93300
H  20.69000 49.65900 30.27700
H  20.13900 46.03100 32.99500
H  18.92900 47.38400 33.08700
H  20.46200 47.43700 33.97800

