158

Mg 16.77600 -2.36000 27.93800
C  16.02300 -0.28000 30.61600
C  18.33800 -4.52400 30.04400
C  17.87200 -3.97400 25.20800
C  15.45800 0.12500 25.78700
N  17.21100 -2.34700 30.08100
C  16.81200 -1.38500 31.00300
C  17.43000 -1.73500 32.45100
C  18.26000 -2.99000 32.15200
C  17.76700 -3.37500 30.66300
C  19.80300 -2.90900 32.21500
C  16.19000 -1.97100 33.49900
C  16.61000 -1.79700 35.00900
H  17.91200 -1.05100 35.37600
N  17.85000 -4.01700 27.66200
C  18.36400 -4.81300 28.72300
C  19.06700 -5.86500 28.09700
C  18.92000 -5.84300 26.71700
C  18.19500 -4.56400 26.48900
C  19.81400 -6.90500 28.84100
C  19.36600 -6.84900 25.64300
O  18.98500 -6.66100 24.45500
C  20.19000 -8.08900 25.90000
N  16.85900 -1.90300 25.81300
C  17.31100 -2.76700 24.93900
C  17.15200 -2.25500 23.52600
C  16.20100 -1.01100 23.68400
C  16.15300 -0.89400 25.17400
C  18.52000 -1.91000 22.87700
C  14.78700 -1.23700 23.02000
C  14.76500 -1.24000 21.48400
N  15.80600 -0.51600 28.06200
C  15.24500 0.31900 27.15100
C  14.46600 1.36800 27.83500
C  14.78200 1.20800 29.24400
C  15.65900 0.08100 29.27200
C  13.83500 2.58600 27.30900
C  14.57800 1.71000 30.56200
O  13.89100 2.66700 30.92400
C  15.38700 0.74300 31.55500
C  16.41000 1.64200 32.21500
O  17.47700 1.93900 31.74800
O  15.99300 1.95400 33.43800
C  16.72500 2.98200 34.14000
H  18.70300 -5.29200 30.72900
H  18.32900 -4.41500 24.32000
H  14.81400 0.79200 25.20900
H  18.15600 -0.96000 32.69600
H  17.79700 -3.73900 32.79500
H  20.08700 -1.89100 31.95100
H  20.27100 -3.60000 31.51400
H  20.10900 -3.13700 33.23600
H  15.92300 -3.02800 33.49400
H  15.26100 -1.45000 33.27000
H  16.84400 -2.76300 35.45800
H  15.75000 -1.30100 35.46000
H  20.75900 -7.05200 28.31800
H  19.27600 -7.85200 28.80900
H  20.12700 -6.49800 29.80300
H  19.71400 -8.64000 26.71200
H  21.22600 -7.77900 26.04100
H  19.98900 -8.68500 25.01000
H  16.56400 -2.82200 22.80500
H  16.66800 -0.09700 23.31800
H  18.85800 -0.89400 23.08300
H  18.54100 -2.00900 21.79100
H  19.31600 -2.54900 23.25800
H  14.17600 -0.37900 23.30000
H  14.31500 -2.13400 23.42200
H  15.74800 -1.25000 21.01400
H  14.34300 -0.27600 21.20000
H  14.12100 -2.05400 21.15000
H  12.77400 2.39700 27.14800
H  14.30300 2.89300 26.37400
H  13.98300 3.40800 28.00900
H  14.66400 0.33500 32.26000
H  16.78000 3.88300 33.52900
H  17.70000 2.55900 34.38500
H  16.24300 3.22400 35.08700
Mg 46.66400 34.71700 27.81700
C  45.20400 32.74500 30.40700
C  46.66600 37.36200 30.06000
C  47.48000 36.71400 25.29800
C  45.98900 32.18500 25.50300
N  45.99800 34.98600 29.95300
C  45.75200 33.95100 30.85700
C  45.80400 34.50300 32.30700
C  45.94600 36.06000 32.07300
C  46.23400 36.17000 30.60900
C  44.76100 36.90700 32.58000
C  47.09100 33.92600 33.05100
C  47.03400 33.64500 34.55300
H  45.98800 34.57600 35.36700
N  47.21100 36.68000 27.71400
C  47.09900 37.65800 28.74900
C  47.60700 38.97400 28.24700
C  47.87100 38.68100 26.83900
C  47.52000 37.30800 26.54800
C  47.96000 40.13200 29.17000
C  48.42000 39.65400 25.78400
O  48.60200 39.40300 24.59800
C  48.75900 41.07200 26.28800
N  46.63400 34.52100 25.70300
C  47.00800 35.48800 24.86700
C  46.99100 35.00400 23.42800
C  46.75000 33.47400 23.50300
C  46.42900 33.36700 25.02400
C  45.82700 35.73700 22.69200
C  47.89600 32.57800 22.94200
C  49.19100 32.49000 23.85300
N  45.77300 32.83600 27.90200
C  45.62100 31.98600 26.83200
C  45.09400 30.72800 27.35700
C  44.79600 31.03100 28.77900
C  45.24800 32.34300 29.05600
C  44.80400 29.42700 26.67500
C  44.23600 30.50400 30.03300
O  43.71800 29.42900 30.21300
C  44.35000 31.68600 31.08800
C  44.74700 31.30400 32.47800
O  45.78400 30.84700 32.88700
O  43.62400 31.57600 33.28000
C  43.88000 31.44900 34.74300
H  46.64800 38.17100 30.79300
H  47.65800 37.35100 24.42800
H  45.85500 31.33500 24.83000
H  44.78900 34.32800 32.66300
H  46.82500 36.39300 32.62400
H  45.22900 37.78900 33.01800
H  44.08500 36.38700 33.26000
H  44.15700 37.20400 31.72300
H  47.91300 34.64000 32.99100
H  47.28300 32.96700 32.57100
H  48.00400 33.91800 34.96700
H  46.86000 32.61400 34.86200
H  48.91400 40.60400 28.93700
H  47.93300 39.75800 30.19400
H  47.19100 40.90300 29.11800
H  49.55100 41.17100 27.03100
H  47.85000 41.50300 26.70800
H  49.11700 41.69100 25.46600
H  47.88200 35.15800 22.81900
H  45.89200 33.23600 22.87400
H  45.78300 36.80800 22.89200
H  44.85300 35.34100 22.98000
H  46.06900 35.70400 21.63000
H  48.19600 32.95300 21.96300
H  47.41500 31.60500 22.84800
H  50.04700 32.54800 23.18000
H  49.28000 31.46700 24.22000
H  49.13600 33.37100 24.49100
H  43.75400 29.17500 26.81900
H  45.47000 28.68600 27.11900
H  45.03400 29.62400 25.62800
H  43.40200 32.19500 31.26400
H  43.39200 30.55100 35.12400
H  43.37100 32.33200 35.12900
H  44.88800 31.43500 35.15800

