158

Mg 1.58700 8.56200 27.68800
C  2.00100 10.89100 30.37500
C  1.28700 6.02200 30.19900
C  0.94600 6.57600 25.27200
C  1.38400 11.29600 25.58100
N  1.84500 8.50800 30.01200
C  1.89900 9.57900 30.96800
C  1.68200 9.10100 32.37900
C  1.77400 7.51500 32.25500
C  1.57200 7.32000 30.73000
C  3.03200 6.81300 32.71100
C  0.29500 9.76600 32.87800
C  0.01700 9.60100 34.42900
H  1.05000 8.92700 35.23500
N  1.31100 6.56400 27.67900
C  1.17700 5.70700 28.82000
C  0.83200 4.35500 28.29100
C  0.74100 4.46300 26.89100
C  0.98400 5.91100 26.50900
C  0.71900 3.12000 29.18000
C  0.51300 3.29100 25.87300
O  0.67300 3.49200 24.65000
C  0.09900 2.00200 26.26400
N  1.30100 8.91200 25.68100
C  1.03500 7.87500 24.87300
C  1.04000 8.29600 23.38300
C  0.77900 9.84600 23.54500
C  1.18900 10.03500 24.98900
C  2.32400 7.89500 22.59100
C  -0.65300 10.29700 23.27900
C  -0.80600 11.45000 22.32900
N  1.88000 10.64800 27.85900
C  1.75500 11.62200 26.88500
C  2.05700 12.92300 27.41200
C  2.13700 12.67200 28.80700
C  2.01800 11.23500 29.02300
C  1.80000 14.22700 26.72200
C  2.32700 13.34100 30.02800
O  2.57700 14.48700 30.32000
C  2.05400 12.20700 31.13300
C  3.01900 12.21700 32.27700
O  4.21100 11.98500 32.27200
O  2.38500 12.52700 33.38300
C  3.19600 12.40600 34.62200
H  1.20900 5.21000 30.92500
H  0.83400 5.91900 24.40700
H  1.20700 12.21000 25.01200
H  2.63000 9.50700 32.73100
H  0.89100 7.04500 32.68800
H  2.96000 5.95400 33.37900
H  3.65600 7.42300 33.36500
H  3.67900 6.42800 31.92300
H  -0.58400 9.38100 32.36200
H  0.27500 10.84000 32.69000
H  -0.90200 9.01600 34.47100
H  -0.26800 10.60200 34.75200
H  1.10100 3.32600 30.18000
H  1.28000 2.21900 28.93600
H  -0.30600 2.74900 29.19300
H  0.97500 1.36900 26.40600
H  -0.40700 1.63500 25.37200
H  -0.63100 1.96800 27.07200
H  0.22800 7.85400 22.80500
H  1.46500 10.29900 22.82900
H  2.54600 8.71100 21.90500
H  2.16500 6.94500 22.08100
H  3.11300 7.76300 23.33200
H  -0.95500 10.60300 24.28100
H  -1.35400 9.53300 22.94300
H  -1.06400 11.09700 21.33000
H  0.08700 12.07300 22.30000
H  -1.69800 11.94800 22.71000
H  0.96800 14.24900 26.01800
H  2.72100 14.43800 26.17800
H  1.56000 14.92200 27.52600
H  1.05900 12.41600 31.52500
H  3.83600 13.28700 34.67600
H  3.83100 11.52900 34.74300
H  2.45400 12.46100 35.41900
Mg 36.01500 2.00000 29.93900
C  33.86000 3.14500 32.35100
C  38.56500 1.95300 32.49300
C  38.32200 1.13900 27.61700
C  33.59200 2.47800 27.54500
N  36.16400 2.44800 32.14400
C  35.10700 2.92400 32.88900
C  35.53600 3.05800 34.35700
C  37.07100 3.00500 34.20600
C  37.28400 2.40500 32.87300
C  37.86500 4.37100 34.39100
C  34.86700 2.04700 35.26600
C  34.45200 2.48100 36.65600
H  35.01800 3.77500 37.32100
N  38.08400 1.51500 30.02300
C  38.92200 1.56000 31.14200
C  40.21600 1.12600 30.68600
C  40.21200 0.79700 29.29400
C  38.84800 1.23400 28.91500
C  41.44700 1.20300 31.63400
C  41.29600 0.31400 28.38000
O  41.09500 0.17400 27.20100
C  42.77300 0.12700 28.92400
N  36.00600 2.00300 27.83000
C  37.09200 1.44300 27.10700
C  36.68600 1.15900 25.63300
C  35.18400 1.67000 25.61700
C  34.87700 2.01000 27.10800
C  37.61100 1.75800 24.54600
C  34.14500 0.52700 25.03100
C  33.04500 1.13300 24.12500
N  34.13300 2.69500 29.93800
C  33.23600 2.77900 28.84600
C  31.92300 3.07900 29.31900
C  32.09400 3.28700 30.73700
C  33.44100 2.99700 31.02200
C  30.66400 3.35200 28.38500
C  31.47900 3.77900 32.02600
O  30.42400 4.24100 32.26100
C  32.66100 3.57500 33.08000
C  32.78900 4.81200 33.85400
O  33.24600 5.88600 33.42400
O  32.16500 4.71900 35.08300
C  31.72800 5.96000 35.75700
H  39.29700 1.89600 33.30100
H  38.98500 0.93400 26.77300
H  32.83000 2.66400 26.78500
H  35.31100 4.06700 34.70200
H  37.52300 2.47000 35.04200
H  38.55500 4.22400 35.22200
H  37.31700 5.27700 34.64700
H  38.48700 4.54500 33.51200
H  35.54700 1.19500 35.24900
H  34.01700 1.62100 34.73500
H  34.81900 1.64200 37.24700
H  33.36600 2.40400 36.60800
H  41.96800 0.24600 31.66900
H  41.07100 1.40300 32.63700
H  42.03500 2.05700 31.29700
H  43.49800 -0.11900 28.14800
H  42.84400 -0.82200 29.45600
H  43.11000 1.01400 29.46100
H  36.63100 0.07200 25.58200
H  35.07800 2.57700 25.02200
H  38.40700 1.02800 24.39500
H  38.05100 2.66800 24.95400
H  37.09800 1.92400 23.59900
H  33.67200 -0.03100 25.83900
H  34.74000 -0.10400 24.37100
H  33.17700 0.77300 23.10500
H  33.12400 2.22000 24.15000
H  32.08600 0.79400 24.51700
H  30.35900 2.44800 27.85700
H  30.99000 4.18000 27.75500
H  29.85400 3.73000 29.00900
H  32.44200 2.71400 33.71200
H  30.69800 5.85000 36.09900
H  31.72400 6.88600 35.18200
H  32.31500 6.14700 36.65600

