158

Mg 47.06000 24.46900 27.48800
C  48.09800 26.71100 29.99100
C  46.29500 22.34800 30.00300
C  46.29500 22.25700 25.23800
C  48.57400 26.40600 25.21400
N  47.06700 24.54800 29.71500
C  47.46900 25.58700 30.50700
C  47.16100 25.30600 32.02800
C  46.76600 23.81300 31.95100
C  46.73600 23.55700 30.45800
C  47.78700 22.90800 32.61400
C  46.21700 26.42700 32.67600
C  45.60100 26.01300 33.94100
H  45.70600 26.90900 35.15800
N  46.35100 22.58700 27.55400
C  46.12600 21.84300 28.69000
C  45.55000 20.56500 28.33300
C  45.41900 20.57700 26.90800
C  46.04000 21.83900 26.51500
C  45.28600 19.47300 29.41900
C  44.79800 19.47400 25.99100
O  44.89600 19.51300 24.77500
C  44.11900 18.27100 26.54600
N  47.46700 24.38500 25.50300
C  46.85500 23.43900 24.74500
C  47.18500 23.64400 23.23400
C  47.82000 25.09800 23.25700
C  47.94400 25.34500 24.74800
C  48.08600 22.53200 22.59800
C  46.88400 26.17700 22.58600
C  47.10200 26.37200 21.01200
N  48.19500 26.18500 27.55200
C  48.67600 26.90500 26.50700
C  49.23600 28.14800 27.01200
C  49.04400 28.15700 28.38100
C  48.42300 26.94600 28.63800
C  49.55300 29.36800 26.09300
C  49.10900 28.91500 29.56500
O  49.49000 30.05600 29.75800
C  48.58100 27.94600 30.66800
C  49.51200 27.84900 31.76300
O  50.44400 27.09000 31.82400
O  49.02000 28.62300 32.80800
C  49.77400 28.52700 34.06700
H  45.85400 21.69000 30.75500
H  45.77900 21.74900 24.42100
H  49.02400 27.04900 24.45500
H  48.13200 25.36300 32.51900
H  45.75100 23.62200 32.29900
H  48.40700 23.40700 33.36000
H  48.48100 22.39400 31.95000
H  47.26200 22.13200 33.17100
H  45.41200 26.60700 31.96400
H  46.71900 27.34100 32.99500
H  45.86500 25.00000 34.24400
H  44.56500 26.05600 33.60400
H  44.39000 18.88300 29.23100
H  45.09700 19.86800 30.41800
H  46.16700 18.83600 29.50400
H  43.23800 18.60200 27.09600
H  44.80700 17.80000 27.24800
H  43.91400 17.54900 25.75600
H  46.26500 23.72800 22.65500
H  48.77000 25.20900 22.73500
H  48.31400 21.84500 23.41200
H  49.07900 22.89200 22.32700
H  47.54600 22.04100 21.78900
H  46.89900 27.16200 23.05500
H  45.85500 25.81900 22.60000
H  46.41200 25.59600 20.68100
H  48.17200 26.33400 20.80800
H  46.77900 27.32500 20.59400
H  49.89000 29.11000 25.08900
H  50.42100 29.85500 26.53700
H  48.59300 29.88000 26.04200
H  47.63500 28.42700 30.91600
H  49.67400 27.46000 34.27100
H  49.25800 28.97600 34.91600
H  50.77400 28.94400 33.94900
Mg 36.38900 48.76000 25.03100
C  35.81100 46.90400 28.08700
C  35.33000 51.60000 26.72900
C  36.05900 50.17300 22.13500
C  36.81900 45.58900 23.44800
N  35.61200 49.16700 27.17400
C  35.55300 48.28700 28.24900
C  35.42300 49.10100 29.58100
C  34.98100 50.52600 29.01600
C  35.38100 50.42500 27.54500
C  33.45200 50.73100 29.22300
C  36.67600 49.11500 30.44300
C  36.33600 48.93400 31.93800
H  34.97400 49.14000 32.56700
N  35.89900 50.73900 24.51400
C  35.51200 51.76700 25.32100
C  35.33700 52.98500 24.55300
C  35.60900 52.60200 23.20900
C  35.88200 51.13300 23.22200
C  34.92900 54.34700 25.09400
C  35.50200 53.50600 21.90200
O  35.86100 53.06400 20.80600
C  35.08700 54.92000 21.90800
N  36.31300 47.97300 23.08600
C  36.31700 48.81800 22.05100
C  36.53400 48.08500 20.72900
C  37.13600 46.69200 21.27600
C  36.72300 46.73800 22.71300
C  35.34400 48.01300 19.80300
C  38.64300 46.39300 21.12400
C  39.17200 46.38900 19.69700
N  36.25400 46.56800 25.58500
C  36.59200 45.46400 24.83300
C  36.78600 44.31700 25.70700
C  36.44200 44.84000 26.96400
C  36.09000 46.21800 26.82200
C  37.39900 43.03500 25.26700
C  36.23600 44.44300 28.41200
O  36.31600 43.34500 28.92700
C  35.95300 45.82600 29.18200
C  34.70100 45.70000 30.00000
O  33.64100 46.25300 29.80600
O  35.03900 44.99300 31.12400
C  33.95800 44.99300 32.07500
H  35.08100 52.50800 27.28100
H  35.97600 50.69600 21.18000
H  37.01200 44.64000 22.94300
H  34.67800 48.44900 30.03700
H  35.43500 51.35800 29.55400
H  33.07300 50.98900 28.23400
H  33.28000 51.61500 29.83700
H  32.88900 49.90200 29.65400
H  37.28200 50.01800 30.36400
H  37.39600 48.36900 30.10600
H  37.12300 49.47100 32.46700
H  36.55000 47.86700 32.00600
H  35.35400 54.51600 26.08300
H  33.84700 54.46400 25.02600
H  35.37900 55.05700 24.40100
H  34.08900 54.99900 22.33800
H  34.87900 55.21000 20.87800
H  35.72500 55.56800 22.51000
H  37.34600 48.60400 20.22100
H  36.47000 45.95700 20.82500
H  35.53600 48.62900 18.92400
H  34.49500 48.56500 20.20400
H  35.00300 47.01000 19.54500
H  38.85500 45.40200 21.52600
H  39.26000 47.04100 21.74700
H  38.33400 46.37100 19.00000
H  39.73900 45.48800 19.46400
H  39.84800 47.20100 19.43000
H  38.16700 42.82800 26.01300
H  37.89400 42.98300 24.29700
H  36.65500 42.27100 25.49200
H  36.79300 46.12600 29.80800
H  32.93200 45.14300 31.73900
H  34.11300 45.52800 33.01200
H  33.84600 43.95200 32.37500

