158

Mg 9.00600 4.13500 27.97500
C  10.31700 2.44300 30.70300
C  7.00400 6.03300 30.01000
C  7.57700 5.60700 25.25100
C  10.53000 1.79900 25.77200
N  8.75000 4.15500 30.10200
C  9.41000 3.47200 31.08200
C  8.97300 3.76200 32.46100
C  7.86700 4.87600 32.19400
C  7.84500 5.06200 30.66700
C  6.46900 4.60700 32.83200
C  10.11200 4.15000 33.40600
C  9.61600 4.78100 34.75000
H  10.73700 5.04100 35.79100
N  7.66100 5.68400 27.65800
C  6.95800 6.34100 28.65500
C  6.13100 7.42700 28.12900
C  6.30100 7.41100 26.64200
C  7.17100 6.16700 26.45500
C  5.30200 8.42100 28.87200
C  5.77700 8.32900 25.55000
O  5.99300 8.18700 24.34500
C  5.14700 9.46300 25.93500
N  9.02200 3.70100 25.76100
C  8.44900 4.50700 24.87700
C  8.51900 3.92100 23.43200
C  9.58900 2.76200 23.70600
C  9.73300 2.75500 25.21300
C  7.07500 3.42100 22.92100
C  10.89900 2.80700 22.87200
C  11.43800 1.59800 22.14800
N  10.22700 2.44800 28.15300
C  10.73200 1.61900 27.17600
C  11.58900 0.66900 27.91200
C  11.40700 0.87200 29.28200
C  10.62800 2.05300 29.33300
C  12.31100 -0.50800 27.26800
C  11.79600 0.48800 30.60500
O  12.46300 -0.52300 30.88600
C  11.05000 1.43500 31.58000
C  10.01000 0.68400 32.31400
O  8.94600 0.30400 31.88800
O  10.54600 0.47500 33.58000
C  9.47600 -0.06100 34.48000
H  6.51600 6.66900 30.75200
H  7.04100 5.97600 24.37400
H  11.03700 1.10600 25.09700
H  8.53500 2.82500 32.80200
H  8.28500 5.76100 32.67400
H  6.38500 5.33700 33.63700
H  6.45700 3.59700 33.24100
H  5.60100 4.64400 32.17400
H  10.78000 4.78800 32.82700
H  10.63800 3.22900 33.65700
H  8.81900 4.21000 35.22600
H  9.26100 5.79600 34.57300
H  5.62300 9.45700 28.76000
H  5.39800 8.16100 29.92600
H  4.23700 8.44000 28.64100
H  4.12000 9.24600 26.23000
H  4.96800 10.15400 25.11100
H  5.67300 9.94100 26.76100
H  9.03700 4.50600 22.67200
H  9.21900 1.73900 23.63500
H  7.00900 2.33800 23.02800
H  6.76800 3.78000 21.93900
H  6.36100 3.81900 23.64200
H  11.69600 3.17800 23.51600
H  10.81200 3.54600 22.07600
H  12.46500 1.58700 22.51300
H  11.38200 1.69400 21.06400
H  10.99300 0.70400 22.58500
H  12.12400 -0.59100 26.19800
H  12.03300 -1.45800 27.72500
H  13.39700 -0.48300 27.35600
H  11.80300 1.92600 32.19700
H  8.88300 0.84600 34.59800
H  9.89300 -0.30300 35.45700
H  8.90600 -0.92600 34.14300
Mg -5.10100 25.73000 26.98900
C  -4.00300 27.52800 29.64700
C  -6.80300 23.58100 28.94900
C  -5.90300 23.86400 24.18100
C  -3.24000 27.91800 24.87500
N  -5.28300 25.54200 29.04600
C  -4.73500 26.37900 29.99700
C  -5.21300 25.99400 31.36800
C  -5.82700 24.62100 31.15100
C  -6.07200 24.58200 29.60700
C  -4.99400 23.42100 31.64700
C  -6.29500 27.00200 31.87200
C  -6.59100 27.05000 33.33300
H  -6.10000 25.99000 34.33900
N  -6.12400 23.90800 26.61000
C  -6.91900 23.31800 27.53400
C  -7.74500 22.18600 26.92900
C  -7.39800 22.26000 25.54100
C  -6.45800 23.36000 25.38100
C  -8.77300 21.28000 27.66700
C  -7.83800 21.35800 24.47000
O  -7.44500 21.54700 23.31300
C  -8.78200 20.12900 24.76000
N  -4.43000 25.75900 24.89900
C  -4.96900 24.89900 23.92700
C  -4.45000 25.23600 22.53000
C  -3.78900 26.67300 22.73900
C  -3.77600 26.78100 24.27800
C  -3.42100 24.11300 22.05800
C  -4.59200 27.83000 22.02800
C  -3.71900 28.72700 21.13700
N  -3.87900 27.38600 27.24600
C  -3.22700 28.22100 26.26800
C  -2.60100 29.30600 26.94500
C  -2.87100 29.06900 28.29100
C  -3.67000 27.94000 28.39600
C  -1.78000 30.34200 26.29600
C  -2.71700 29.58700 29.60000
O  -2.08500 30.54600 30.03300
C  -3.43200 28.60800 30.58000
C  -2.47500 28.17600 31.65200
O  -1.41900 27.59300 31.44600
O  -3.03700 28.44300 32.85700
C  -2.12800 27.95700 33.90300
H  -7.40600 22.95600 29.61100
H  -6.11300 23.41200 23.20900
H  -2.56400 28.56000 24.30600
H  -4.38200 25.99000 32.07300
H  -6.74900 24.70400 31.72700
H  -3.99800 23.75600 31.93600
H  -4.92600 22.58200 30.95400
H  -5.53800 23.01600 32.50100
H  -7.21600 26.87400 31.30300
H  -5.94800 28.01000 31.64600
H  -7.67000 26.91800 33.24800
H  -6.34900 28.06200 33.65600
H  -9.69300 21.26400 27.08300
H  -8.93000 21.81200 28.60500
H  -8.47200 20.26000 27.90700
H  -8.53700 19.55200 25.65200
H  -8.68100 19.43300 23.92700
H  -9.79700 20.51900 24.68200
H  -5.25600 25.23000 21.79500
H  -2.76400 26.71000 22.37000
H  -3.73900 23.62800 21.13400
H  -3.23000 23.39900 22.85900
H  -2.40800 24.50800 21.98200
H  -5.12000 28.39200 22.79800
H  -5.38500 27.45900 21.37900
H  -2.68800 28.68200 21.48800
H  -4.13900 29.70900 20.91800
H  -3.70600 28.19700 20.18500
H  -2.23100 30.92600 25.49400
H  -0.90100 29.94700 25.78600
H  -1.52900 31.12200 27.01500
H  -4.23100 29.23300 30.97700
H  -2.28600 26.88100 33.97400
H  -2.38300 28.34700 34.88900
H  -1.08400 28.19900 33.70000

