158

Mg 1.48900 8.29300 25.70600
C  1.98100 9.63300 28.88200
C  1.90400 5.20800 27.15600
C  1.33100 6.90200 22.62900
C  2.28200 11.43400 24.19700
N  1.78500 7.47600 27.85000
C  1.84800 8.19200 28.99700
C  1.74700 7.31900 30.20500
C  1.90800 5.83800 29.60700
C  1.84400 6.18600 28.16300
C  3.21300 5.16900 30.10300
C  0.43100 7.54600 31.00400
C  0.46000 7.64900 32.52900
H  1.68500 7.10700 33.23500
N  1.45300 6.35100 25.03100
C  1.59000 5.23200 25.78300
C  1.40400 4.08100 24.93100
C  1.05400 4.52200 23.67900
C  1.32500 6.01300 23.68900
C  1.35600 2.63100 25.43500
C  0.73900 3.69800 22.44400
O  0.62100 4.20800 21.31400
C  0.45400 2.24300 22.67300
N  1.75100 9.11100 23.76700
C  1.61700 8.28500 22.65900
C  1.76900 9.10600 21.33000
C  1.68100 10.54700 21.88200
C  1.85800 10.36200 23.36500
C  3.02500 8.81100 20.57700
C  0.31800 11.33100 21.59600
C  0.17400 12.13800 20.24600
N  2.07800 10.18700 26.36000
C  2.32800 11.33800 25.65000
C  2.57300 12.39100 26.61700
C  2.48100 11.75200 27.90100
C  2.12000 10.41000 27.63300
C  2.72600 13.92600 26.25800
C  2.48900 12.03600 29.30900
O  2.81000 13.07200 29.86600
C  2.08000 10.71200 29.97200
C  3.11100 10.32600 31.02600
O  4.20300 9.79900 30.83200
O  2.68600 10.95100 32.21300
C  3.72800 11.05900 33.33000
H  2.13300 4.20300 27.51800
H  1.05400 6.46800 21.66600
H  2.41600 12.43100 23.77400
H  2.58100 7.59800 30.84900
H  1.12000 5.16400 29.94200
H  2.93000 4.28400 30.67300
H  3.85200 5.83200 30.68600
H  3.87400 4.87700 29.28600
H  -0.18900 6.69700 30.71700
H  -0.07700 8.42900 30.61500
H  -0.31500 7.12200 33.08500
H  0.39300 8.68400 32.86500
H  1.75200 1.92800 24.70200
H  0.35000 2.29600 25.68700
H  2.08600 2.65000 26.24400
H  1.45600 1.81500 22.69900
H  -0.12400 2.00300 21.78100
H  -0.18800 2.07100 23.53700
H  0.84800 8.98100 20.75900
H  2.49700 11.16100 21.50200
H  3.87700 9.42300 20.87200
H  2.99800 8.79300 19.48700
H  3.34000 7.79000 20.79000
H  0.26200 12.08000 22.38600
H  -0.42800 10.55400 21.76000
H  0.17900 13.20400 20.47400
H  -0.69700 11.72800 19.73500
H  1.02700 11.88200 19.61800
H  1.76100 14.33900 26.55100
H  3.06700 14.19600 25.25900
H  3.42700 14.41800 26.93300
H  1.12800 10.78000 30.49800
H  4.14500 12.05900 33.44700
H  4.67700 10.52400 33.29400
H  3.23000 10.79300 34.26300
Mg 40.54200 41.09000 27.18300
C  40.10000 43.53700 29.77100
C  41.96800 39.05300 29.66800
C  41.31300 38.88100 24.82500
C  39.89100 43.44600 24.81100
N  40.78000 41.20900 29.52000
C  40.40100 42.26900 30.25700
C  40.64200 41.90300 31.78600
C  41.33700 40.44400 31.76600
C  41.35200 40.19600 30.25400
C  42.67700 40.38900 32.54200
C  39.34700 41.99300 32.61600
C  39.27700 41.16200 33.95200
H  38.53800 41.75800 35.21500
N  41.55200 39.26700 27.24000
C  41.97400 38.57100 28.33000
C  42.47300 37.25200 27.93300
C  42.15000 37.12100 26.57700
C  41.60200 38.45400 26.16300
C  43.18800 36.33300 28.80800
C  42.25300 35.93500 25.65000
O  41.93800 36.01300 24.47500
C  42.88800 34.67500 26.13300
N  40.85600 41.23300 25.06300
C  40.93000 40.09900 24.32200
C  40.71400 40.41400 22.76400
C  40.18400 41.89800 22.81600
C  40.34800 42.20200 24.28400
C  41.93200 40.23700 21.82000
C  38.78000 42.14400 22.24700
C  37.64800 41.61600 23.09400
N  40.10700 43.14900 27.23800
C  39.84000 43.91300 26.17900
C  39.39800 45.21100 26.67000
C  39.54900 45.12300 28.07200
C  39.96500 43.85200 28.37700
C  38.97300 46.34100 25.76500
C  39.45700 45.86100 29.25500
O  38.99100 46.99000 29.46800
C  39.86100 44.87100 30.43000
C  41.04700 45.31000 31.10300
O  42.05700 45.67200 30.59100
O  40.85800 45.22600 32.44100
C  41.96500 45.57200 33.35100
H  42.54100 38.32500 30.24500
H  41.39300 38.16300 24.00500
H  39.67300 44.19100 24.04300
H  41.35100 42.63400 32.17400
H  40.66100 39.69300 32.17500
H  43.51700 39.99000 31.97500
H  42.41300 39.67100 33.31800
H  43.02900 41.29000 33.04600
H  38.61700 41.64300 31.88600
H  39.06600 43.02900 32.80700
H  40.25600 40.83500 34.30300
H  38.64500 40.28700 33.80200
H  42.42300 35.66000 29.19500
H  43.80600 36.85200 29.54100
H  43.96700 35.77500 28.28700
H  42.84600 33.90500 25.36200
H  42.39600 34.29900 27.03000
H  43.96800 34.81100 26.19400
H  39.97400 39.63000 22.60200
H  40.84200 42.65000 22.38000
H  42.04000 41.11800 21.18600
H  41.69700 39.37000 21.20200
H  42.82700 40.21400 22.44200
H  38.80800 41.72100 21.24300
H  38.73900 43.22100 22.08400
H  37.36000 42.37100 23.82500
H  37.95600 40.78000 23.72200
H  36.82500 41.26300 22.47200
H  39.03800 46.01500 24.72700
H  39.60300 47.21200 25.94800
H  37.97500 46.66600 26.05800
H  39.06900 44.92900 31.17600
H  41.99100 46.63800 33.57700
H  42.89600 45.34200 32.83300
H  41.79300 45.01600 34.27300

