158

Mg 43.90200 3.28200 47.03300
C  42.07200 6.21600 46.50600
C  41.06600 1.45600 46.54800
C  45.85100 0.51000 47.09100
C  46.87500 5.07300 46.94700
N  41.79100 3.89200 46.52000
C  41.27500 5.09700 46.43500
C  39.73700 5.04100 46.36700
C  39.47800 3.50600 46.63400
C  40.86500 2.87700 46.52400
C  38.91500 3.05700 48.01400
C  39.09500 5.36900 44.98900
C  39.49100 4.63700 43.77000
H  39.76800 5.49300 42.63600
N  43.49600 1.28500 46.83200
C  42.31000 0.77200 46.69400
C  42.38200 -0.63900 46.69800
C  43.76100 -1.04100 46.86200
C  44.45100 0.28700 46.94200
C  41.28000 -1.68200 46.59400
C  44.30500 -2.37700 46.88400
O  43.57000 -3.32500 46.82100
C  45.80900 -2.64700 46.79300
N  46.10700 2.78100 46.74900
C  46.56500 1.62400 47.03600
C  48.14900 1.57800 47.26200
C  48.44000 3.04700 47.05000
C  47.09300 3.66800 46.89700
C  48.68300 0.94200 48.54900
C  49.33700 3.14900 45.72200
C  50.18300 4.49900 45.47500
N  44.42300 5.23100 46.83100
C  45.68000 5.81100 46.89700
C  45.44800 7.24300 47.01600
C  44.12300 7.51500 46.86400
C  43.48400 6.17500 46.75600
C  46.53300 8.27000 47.02100
C  43.02400 8.49600 46.74500
O  43.06600 9.71600 46.88400
C  41.70700 7.66700 46.32700
C  40.68600 8.03500 47.29200
O  40.48300 7.68000 48.41000
O  39.78100 8.79700 46.59100
C  38.48300 9.02500 47.26300
H  40.14800 0.88600 46.39400
H  46.46800 -0.36400 47.30600
H  47.77400 5.61800 47.24500
H  39.25600 5.67100 47.11500
H  38.80100 3.15800 45.85300
H  39.21800 2.03400 48.23900
H  37.83300 3.18300 48.00800
H  39.31000 3.67500 48.82000
H  39.43400 6.39500 44.84500
H  38.02600 5.49200 45.16600
H  38.69600 3.97600 43.42400
H  40.40400 4.04400 43.82300
H  41.39800 -2.17800 45.63100
H  40.23900 -1.36000 46.59200
H  41.42800 -2.52100 47.27400
H  46.47200 -2.60100 47.65800
H  46.20100 -1.97100 46.03400
H  45.97600 -3.60600 46.30300
H  48.57100 1.02700 46.42200
H  49.08600 3.46000 47.82500
H  49.50300 1.58500 48.86900
H  49.10400 -0.04600 48.36400
H  47.95100 0.94700 49.35600
H  48.73600 2.97100 44.83000
H  50.08000 2.35200 45.73100
H  49.60500 5.39100 45.23200
H  50.86700 4.29200 44.65100
H  50.81500 4.73800 46.33000
H  47.46700 7.87200 47.42000
H  46.26500 9.02300 47.76300
H  46.56300 8.72800 46.03200
H  41.51300 7.83500 45.26700
H  38.38400 10.10200 47.12100
H  38.33100 8.82600 48.32400
H  37.77100 8.43300 46.68900
Mg -12.84200 38.16200 43.13600
C  -10.80400 35.39400 42.47200
C  -10.42900 40.17200 41.55600
C  -14.97400 40.69100 43.11400
C  -15.35700 35.86400 44.05300
N  -10.97200 37.77000 41.84700
C  -10.32000 36.60300 41.90600
C  -9.00000 36.67500 41.17600
C  -8.69700 38.24000 41.20400
C  -10.06600 38.76900 41.58100
C  -7.72100 38.62300 42.30700
C  -8.94000 36.12300 39.72700
C  -7.57500 35.54400 39.39400
H  -6.84500 36.09300 38.17800
N  -12.70900 40.18400 42.49300
C  -11.61300 40.79200 41.89300
C  -11.90100 42.12200 41.61000
C  -13.29700 42.27500 41.99300
C  -13.77200 41.04500 42.53000
C  -10.95000 43.08800 41.01700
C  -14.10300 43.57200 41.78300
O  -13.58600 44.59800 41.32500
C  -15.57000 43.77200 42.17900
N  -14.88700 38.27000 43.56200
C  -15.46200 39.47900 43.68500
C  -16.82600 39.27500 44.36900
C  -17.01700 37.73300 44.51300
C  -15.72100 37.21300 43.97600
C  -17.00300 40.01000 45.72300
C  -18.23200 37.16400 43.75400
C  -19.20100 36.20300 44.46900
N  -13.10200 36.11300 43.36300
C  -14.14200 35.31300 43.72200
C  -13.81100 33.90800 43.80000
C  -12.41700 33.92600 43.44800
C  -12.07800 35.24900 43.02700
C  -14.63200 32.67100 44.16600
C  -11.19600 33.12500 43.33600
O  -10.96900 31.95600 43.54700
C  -10.06700 34.10300 42.70700
C  -8.93200 34.18100 43.64000
O  -8.99700 34.70500 44.74900
O  -7.83400 33.61400 43.14600
C  -6.67700 33.90500 43.91600
H  -9.51100 40.67000 41.23600
H  -15.70300 41.44200 43.42700
H  -16.04100 35.13700 44.49600
H  -8.28600 36.10200 41.76800
H  -8.42700 38.75300 40.28200
H  -6.91500 37.90900 42.47700
H  -8.38200 38.64700 43.17300
H  -7.30600 39.57600 41.97900
H  -9.24300 36.86400 38.98700
H  -9.63300 35.31400 39.49700
H  -7.70700 34.46300 39.43000
H  -6.88900 35.84600 40.18600
H  -10.87900 42.86100 39.95300
H  -9.94300 43.04100 41.43200
H  -11.43200 44.04300 41.22300
H  -16.11000 42.90300 41.80300
H  -15.94000 44.72200 41.79300
H  -15.52000 43.87500 43.26300
H  -17.59600 39.56400 43.65300
H  -17.09200 37.45600 45.56500
H  -16.04500 40.35200 46.11500
H  -17.64700 39.36300 46.31900
H  -17.48500 40.97600 45.57700
H  -17.85200 36.56800 42.92500
H  -18.84600 37.92800 43.27600
H  -20.21500 36.56900 44.31300
H  -18.98500 36.22000 45.53800
H  -19.08700 35.16600 44.15100
H  -15.35700 32.57600 43.35800
H  -15.16800 32.77400 45.10900
H  -14.03200 31.76500 44.08700
H  -9.69700 33.73900 41.74800
H  -6.94400 33.81900 44.96900
H  -6.20600 34.85900 43.68000
H  -5.97500 33.07100 43.89700

