158

Mg 46.74300 17.21600 28.05600
C  44.85400 16.56000 30.96800
C  49.00900 18.87600 29.94600
C  48.34000 18.14700 25.24000
C  44.21000 15.74900 26.06200
N  46.93400 17.71100 30.19100
C  46.09700 17.21600 31.19700
C  46.46500 17.76100 32.55000
C  47.82400 18.58900 32.22300
C  47.91000 18.40600 30.72700
C  47.79100 20.06500 32.82000
C  46.64800 16.65800 33.65200
C  45.98600 16.92400 34.98800
H  45.88500 18.31500 35.57900
N  48.37600 18.41500 27.66900
C  49.23700 18.86000 28.59400
C  50.37600 19.46700 27.91300
C  50.17300 19.40400 26.53400
C  48.95600 18.63300 26.42000
C  51.57400 19.98500 28.72400
C  50.93400 20.02500 25.35800
O  50.67900 19.78300 24.17500
C  51.97300 21.05300 25.71400
N  46.26000 17.06700 25.99300
C  47.21400 17.43500 25.08200
C  46.66400 17.16500 23.62800
C  45.57600 16.19100 23.92100
C  45.37700 16.28600 25.43500
C  46.34300 18.38000 22.78000
C  45.73500 14.72500 23.52500
C  44.86000 14.14400 22.43900
N  44.92200 16.21500 28.39500
C  43.94400 15.75700 27.50800
C  42.87000 15.22100 28.26100
C  43.16500 15.49900 29.64400
C  44.39000 16.10600 29.64300
C  41.76300 14.41400 27.72300
C  42.70800 15.33000 31.02100
O  41.71400 14.77300 31.42700
C  43.75100 16.04500 31.87900
C  42.97800 17.19700 32.48500
O  42.37400 18.08800 31.82700
O  42.94200 17.09600 33.80800
C  42.10000 18.12000 34.51500
H  49.69000 19.44600 30.58100
H  48.71200 18.46900 24.26500
H  43.34400 15.39400 25.50000
H  45.76500 18.45100 33.02200
H  48.73300 18.11500 32.59200
H  48.56200 20.18800 33.58100
H  46.81300 20.28500 33.24800
H  48.10200 20.71800 32.00400
H  47.71600 16.50800 33.81000
H  46.10600 15.74500 33.40700
H  46.55700 16.24200 35.61900
H  44.98200 16.49800 35.00700
H  51.38100 20.95900 29.17400
H  52.51100 20.07300 28.17500
H  51.76400 19.35200 29.59100
H  52.15800 21.77100 24.91500
H  52.90300 20.52500 25.92600
H  51.70300 21.67900 26.56400
H  47.56200 16.77000 23.15200
H  44.59400 16.44700 23.52400
H  47.28900 18.60500 22.28800
H  45.91400 19.17000 23.39700
H  45.71600 18.21100 21.90500
H  45.60100 13.98200 24.31200
H  46.77400 14.57500 23.23000
H  44.39500 13.25200 22.86000
H  45.48600 13.81800 21.60900
H  43.99900 14.77100 22.20500
H  40.97300 14.98500 27.23400
H  41.19700 13.92500 28.51600
H  42.14900 13.73500 26.96300
H  44.02800 15.34400 32.66600
H  42.54000 19.05800 34.17600
H  42.27900 18.02700 35.58600
H  41.09200 17.85600 34.19400
Mg 26.98900 49.66500 26.16700
C  25.16200 50.80800 28.86900
C  29.34000 48.47200 28.37400
C  29.25900 49.42800 23.62900
C  24.80400 51.28900 23.97500
N  27.05600 49.50200 28.37200
C  26.26700 50.08100 29.25800
C  26.70600 49.90000 30.73000
C  28.18100 49.32200 30.47000
C  28.14400 48.93900 28.95600
C  29.34700 50.24400 31.00100
C  25.85300 48.83300 31.54200
C  25.36700 49.27500 32.91400
H  26.44200 49.76200 33.97500
N  28.96600 48.93800 26.01600
C  29.77200 48.45000 27.03900
C  31.06200 48.05600 26.54800
C  31.16300 48.47500 25.18400
C  29.71200 48.92700 24.85300
C  32.10000 47.43900 27.49600
C  32.31400 48.53800 24.18900
O  32.33000 49.07400 23.04000
C  33.65200 47.96700 24.66000
N  27.10000 50.38500 24.11700
C  28.08700 50.04200 23.27500
C  27.75600 50.48500 21.80200
C  26.30700 50.99400 21.91700
C  26.03100 50.93700 23.43200
C  28.72000 51.45600 21.09400
C  25.26300 50.28900 21.00200
C  24.39200 51.15400 19.99800
N  25.15700 50.57400 26.33900
C  24.40600 51.23800 25.36200
C  23.26600 51.87600 26.05000
C  23.56700 51.67800 27.45300
C  24.69600 50.92400 27.54500
C  22.16600 52.69600 25.45100
C  23.07300 51.91200 28.75300
O  22.00000 52.44000 29.06400
C  24.04000 51.35100 29.74900
C  24.35200 52.49900 30.67600
O  25.21800 53.34500 30.52100
O  23.48900 52.51500 31.73600
C  23.73100 53.39900 32.84100
H  30.03200 48.02500 29.09000
H  30.03300 49.22500 22.88600
H  24.12100 51.80300 23.29500
H  26.66000 50.90300 31.15300
H  28.39500 48.39800 31.00500
H  28.92400 50.85700 31.79700
H  29.63500 50.88100 30.16500
H  30.27300 49.75100 31.29500
H  26.20500 47.80200 31.50900
H  25.00000 48.81600 30.86300
H  24.81400 48.49400 33.43600
H  24.70200 50.13400 32.83300
H  31.77600 47.24600 28.51900
H  33.03000 47.99000 27.63900
H  32.47000 46.55200 26.98100
H  34.47100 48.10700 23.95500
H  33.50800 46.88900 24.72100
H  33.90700 48.38400 25.63500
H  27.72100 49.60700 21.15800
H  26.24500 52.03500 21.59800
H  29.58700 51.73200 21.69400
H  28.29800 52.42800 20.84000
H  29.09800 51.01300 20.17300
H  24.68200 49.65600 21.67300
H  25.77000 49.59300 20.33400
H  24.30600 50.69800 19.01100
H  24.79800 52.16000 19.89800
H  23.38100 51.21600 20.40000
H  21.26200 52.79400 26.05200
H  21.84700 52.07200 24.61600
H  22.59600 53.60900 25.03800
H  23.58200 50.52900 30.29800
H  24.63400 53.06300 33.35200
H  22.87500 53.43000 33.51600
H  23.88000 54.43400 32.53300

