158

Mg 26.11300 -0.91500 29.36600
C  27.74000 -0.76700 32.55200
C  23.19200 -0.81000 31.15900
C  24.49200 -1.16700 26.50500
C  29.17100 -1.63600 27.95600
N  25.57000 -0.74600 31.61200
C  26.42000 -0.69800 32.70900
C  25.65800 -0.52400 34.08300
C  24.15800 -0.59800 33.58600
C  24.25500 -0.70900 32.06400
C  23.19800 -1.73300 34.16100
C  26.05700 0.87900 34.76300
C  26.37200 0.85400 36.22400
H  26.22400 2.08100 37.08200
N  24.11000 -0.98200 28.88900
C  23.06600 -0.98900 29.75000
C  21.76800 -0.85100 28.98400
C  22.15100 -0.80800 27.59600
C  23.60000 -1.07100 27.62100
C  20.36900 -0.65800 29.50700
C  21.24200 -0.50600 26.41800
O  21.62900 -0.75000 25.25100
C  19.83100 0.08400 26.64300
N  26.78700 -1.29300 27.47700
C  25.87100 -1.31000 26.46200
C  26.58800 -1.62800 25.14200
C  28.08500 -1.83400 25.57400
C  28.06600 -1.60100 27.11200
C  26.06200 -2.75600 24.29300
C  29.13700 -0.94600 24.79700
C  29.27200 0.58900 25.14600
N  27.99400 -1.04000 30.03500
C  29.12600 -1.39400 29.32400
C  30.22300 -1.54100 30.20400
C  29.73100 -1.21400 31.47800
C  28.43200 -0.99800 31.33700
C  31.60000 -1.87700 29.84000
C  30.15000 -1.02000 32.90600
O  31.20400 -1.13200 33.49300
C  28.82000 -0.73500 33.63800
C  28.66600 -1.74300 34.71800
O  27.94900 -2.68400 34.55600
O  29.37900 -1.43600 35.86800
C  29.45800 -2.49600 36.89400
H  22.18300 -0.76800 31.57300
H  23.96200 -1.08300 25.55400
H  30.14600 -1.87900 27.52800
H  25.79000 -1.38800 34.73500
H  23.62200 0.33700 33.75100
H  23.56300 -2.03700 35.14200
H  23.18800 -2.58600 33.48300
H  22.15400 -1.45300 34.30200
H  25.26100 1.61700 34.66200
H  26.86000 1.37800 34.22100
H  27.38400 0.48800 36.39900
H  25.73600 0.07400 36.64200
H  20.07700 0.39000 29.57500
H  20.21100 -1.01500 30.52500
H  19.60800 -1.05600 28.83600
H  19.20900 -0.77700 26.88700
H  19.59700 0.65500 25.74500
H  19.83500 0.84200 27.42700
H  26.51100 -0.71400 24.55200
H  28.45000 -2.84400 25.38300
H  25.11000 -3.15200 24.64700
H  26.80400 -3.54500 24.17500
H  25.77800 -2.36200 23.31700
H  28.71200 -0.77600 23.80800
H  30.12200 -1.39300 24.65800
H  28.48300 0.91400 25.82500
H  29.25000 1.22400 24.26100
H  30.21100 0.77900 25.66600
H  31.69200 -2.38800 28.88100
H  31.89100 -2.62200 30.58100
H  32.36800 -1.11500 29.97100
H  28.84500 0.27100 34.05500
H  28.58800 -2.35500 37.53400
H  30.28700 -2.24100 37.55400
H  29.48000 -3.55100 36.62100
Mg 46.83000 24.32600 27.35800
C  47.82200 26.27800 30.02400
C  46.12800 21.87900 29.69500
C  46.26500 22.16900 24.78700
C  47.91800 26.67300 25.13000
N  46.96100 24.09900 29.60200
C  47.32800 25.07700 30.49400
C  46.93900 24.68100 31.94000
C  46.64000 23.14600 31.81600
C  46.53800 23.03500 30.26800
C  47.68900 22.33300 32.40700
C  45.89400 25.52300 32.65200
C  45.48900 25.01600 34.06000
H  46.02300 25.76200 35.29500
N  46.23800 22.30100 27.29800
C  46.02400 21.42300 28.35500
C  45.87900 20.14100 27.79700
C  45.90400 20.20300 26.39800
C  46.03900 21.60500 26.09400
C  45.64500 18.88500 28.78200
C  45.99100 19.05500 25.46600
O  46.05500 19.18900 24.24100
C  45.99400 17.57100 26.03200
N  46.97000 24.40900 25.26500
C  46.69800 23.39200 24.45000
C  46.95100 23.82300 22.96100
C  47.36200 25.23600 23.04100
C  47.37500 25.49300 24.53800
C  48.00100 22.89200 22.24900
C  46.31400 26.12000 22.29900
C  44.93200 26.21800 22.90700
N  47.67100 26.16800 27.47300
C  48.06000 27.05500 26.44600
C  48.64100 28.20700 27.05700
C  48.53500 27.98000 28.47800
C  47.96300 26.70000 28.67800
C  49.31200 29.32700 26.43300
C  48.83000 28.51400 29.78200
O  49.38000 29.52300 30.10700
C  48.22400 27.47900 30.81000
C  49.25100 27.15300 31.74900
O  50.05600 26.25100 31.79200
O  49.08400 27.95700 32.84400
C  49.79100 27.55500 34.09200
H  45.83800 21.12600 30.43000
H  46.14100 21.45100 23.97400
H  48.17600 27.40400 24.36000
H  47.89000 24.78400 32.46200
H  45.71700 22.80600 32.28600
H  48.10700 22.78400 33.30700
H  48.51300 22.16100 31.71400
H  47.25900 21.36000 32.64200
H  45.02200 25.64000 32.00800
H  46.32000 26.52400 32.72200
H  45.78800 23.97900 34.21300
H  44.41200 25.17100 34.12500
H  46.44300 18.14300 28.73700
H  44.69600 18.43200 28.49300
H  45.43100 19.13400 29.82100
H  45.04100 17.48700 26.55400
H  46.88400 17.33500 26.61400
H  45.93100 16.93500 25.14900
H  46.02500 23.79700 22.38700
H  48.34700 25.45000 22.62700
H  47.57500 22.51300 21.32000
H  48.34300 22.01800 22.80200
H  48.83700 23.52000 21.93900
H  46.29700 25.85100 21.24300
H  46.71900 27.12700 22.20100
H  44.23200 25.99900 22.10100
H  44.69500 27.25400 23.14900
H  44.75400 25.50400 23.71200
H  49.18600 30.20500 27.06600
H  48.76100 29.45700 25.50200
H  50.38200 29.18900 26.28000
H  47.41800 28.07900 31.23200
H  49.71800 26.46900 34.14800
H  49.19300 27.99800 34.89000
H  50.83700 27.86100 34.11200

