158

Mg -0.96900 17.81400 27.31800
C  -1.68900 15.66700 30.09800
C  -1.55200 20.45300 29.41300
C  -0.64100 19.79900 24.73500
C  -0.64400 14.95600 25.30200
N  -1.57800 18.01300 29.57100
C  -1.74000 17.05100 30.49600
C  -2.00400 17.68600 31.82700
C  -2.21200 19.15600 31.50400
C  -1.67200 19.22900 30.09200
C  -3.59400 19.73400 31.66900
C  -0.83300 17.53200 32.82000
C  -1.29100 16.81800 34.14800
H  -0.17800 16.57900 35.14300
N  -1.11100 19.82500 27.11400
C  -1.30300 20.78200 28.10200
C  -1.17400 22.15400 27.60000
C  -1.00800 21.99400 26.18800
C  -0.93700 20.54200 25.91700
C  -1.22300 23.39500 28.37700
C  -0.80700 23.03100 25.07300
O  -0.75400 22.76300 23.88200
C  -0.62300 24.46600 25.44300
N  -0.66700 17.40200 25.24700
C  -0.60600 18.44700 24.40600
C  -0.34300 17.92700 22.98100
C  -0.16000 16.39900 23.14200
C  -0.60000 16.20000 24.64200
C  -1.50900 18.40400 21.97300
C  1.31400 15.84600 22.93800
C  2.42000 16.31400 23.90600
N  -1.06200 15.77300 27.53900
C  -0.78800 14.76100 26.70200
C  -1.02900 13.52900 27.38200
C  -1.30700 13.79600 28.67900
C  -1.34600 15.24000 28.75500
C  -1.05300 12.16200 26.79600
C  -1.65300 13.18900 29.95100
O  -1.79300 12.02800 30.24100
C  -1.77800 14.38100 30.94700
C  -0.73800 14.17100 32.01300
O  0.39300 14.63800 31.98200
O  -1.33400 13.48100 32.99400
C  -0.55500 13.11700 34.15600
H  -1.79300 21.29900 30.06100
H  -0.53800 20.33800 23.79100
H  -0.47400 14.02500 24.75700
H  -2.89000 17.20900 32.24400
H  -1.58100 19.81200 32.10500
H  -3.98500 20.00700 30.68900
H  -3.52100 20.57800 32.35400
H  -4.31700 19.11800 32.20400
H  -0.44600 18.50300 33.12800
H  0.07500 17.08200 32.41900
H  -1.73500 15.86600 33.85600
H  -1.96300 17.44100 34.73700
H  -1.56200 23.25300 29.40300
H  -1.96500 24.04800 27.91600
H  -0.24700 23.87800 28.33400
H  -0.21000 24.94000 24.55300
H  0.10000 24.31700 26.24500
H  -1.50100 24.96100 25.85900
H  0.62600 18.25700 22.60600
H  -0.77900 15.85200 22.43100
H  -2.15900 17.62200 21.58100
H  -1.10100 19.12500 21.26400
H  -2.30500 18.88400 22.54200
H  1.66900 16.23600 21.98400
H  1.23600 14.75900 22.97500
H  1.91400 16.87300 24.69400
H  3.05200 17.09100 23.47600
H  3.00000 15.42200 24.14300
H  -0.50300 12.22000 25.85600
H  -2.07100 11.97800 26.45600
H  -0.77800 11.32900 27.44300
H  -2.75600 14.26000 31.41300
H  0.38300 13.67300 34.16600
H  -0.25600 12.06900 34.16300
H  -1.21000 13.43300 34.96800
Mg 1.47800 8.42000 27.06200
C  2.20700 10.24300 29.87300
C  1.32100 5.45800 28.91300
C  1.30200 6.57800 24.22100
C  2.19100 11.32000 25.11100
N  1.71800 7.87700 29.12100
C  1.85000 8.85000 30.13700
C  1.77100 8.27400 31.59600
C  1.74900 6.71900 31.24900
C  1.56200 6.65900 29.70500
C  2.99100 5.96100 31.82300
C  0.50500 8.72800 32.34700
C  0.42100 8.55900 33.89600
H  1.74000 7.95300 34.54800
N  1.22200 6.25900 26.59600
C  1.16900 5.24100 27.51400
C  0.89700 3.97600 26.76600
C  0.98700 4.29500 25.36100
C  1.17200 5.73000 25.35500
C  0.76800 2.67100 27.58800
C  1.00000 3.37900 24.16300
O  1.25300 3.83700 23.02300
C  0.69900 1.85700 24.46800
N  1.77400 8.87500 24.94900
C  1.49200 7.92500 24.02200
C  1.78900 8.50200 22.63800
C  1.94400 10.01300 22.85400
C  2.02900 10.06000 24.37300
C  2.98400 7.88400 21.91100
C  0.91700 10.93400 22.19800
C  -0.53600 10.68000 22.52300
N  1.96900 10.40000 27.34200
C  2.29000 11.45400 26.52600
C  2.57500 12.66800 27.27700
C  2.66300 12.19700 28.58700
C  2.21300 10.82400 28.57700
C  2.96000 13.99900 26.72700
C  2.86600 12.64200 29.91900
O  3.24900 13.76600 30.35200
C  2.45100 11.44600 30.90800
C  3.52500 11.27500 31.87700
O  4.60900 10.71000 31.77000
O  3.09900 11.87600 33.00400
C  3.85700 11.70200 34.20900
H  1.24400 4.55000 29.51600
H  1.14400 5.97300 23.32600
H  2.53100 12.09400 24.41900
H  2.69900 8.62600 32.04600
H  0.86700 6.36300 31.78100
H  3.49500 6.56500 32.57700
H  3.70500 5.70300 31.04100
H  2.60800 5.05800 32.29800
H  -0.33400 8.17900 31.92100
H  0.31600 9.78200 32.14200
H  -0.43900 8.00800 34.27400
H  0.33000 9.56800 34.29900
H  1.62100 2.00600 27.45300
H  0.02000 2.09300 27.04500
H  0.45600 2.77400 28.62700
H  -0.21700 1.79500 25.05500
H  1.52200 1.51500 25.09500
H  0.66500 1.46100 23.45300
H  0.95800 8.24300 21.98300
H  2.93200 10.34100 22.53200
H  3.42500 8.64900 21.27200
H  2.69800 7.09900 21.21000
H  3.68800 7.61900 22.70000
H  0.97400 10.83000 21.11500
H  1.17100 11.93100 22.55900
H  -1.04200 10.18000 21.69700
H  -1.03800 11.56400 22.91600
H  -0.60300 10.09100 23.43800
H  2.10800 14.55000 26.32900
H  3.65400 13.84500 25.90100
H  3.38700 14.72100 27.42300
H  1.45700 11.71100 31.26800
H  3.11700 11.37700 34.94000
H  4.31600 12.67900 34.36400
H  4.67700 10.98500 34.18000

