158

Mg 42.81700 4.51900 47.89900
C  40.57400 7.18200 47.33300
C  40.01500 2.33100 47.56100
C  44.84200 1.86300 47.84300
C  45.50100 6.64700 47.37800
N  40.64500 4.73100 47.50400
C  39.96400 5.90900 47.45100
C  38.46400 5.75900 47.44200
C  38.37600 4.23700 47.70300
C  39.75100 3.68000 47.59100
C  37.65900 3.82000 49.06500
C  37.67400 6.34600 46.20000
C  38.18400 6.01300 44.75200
H  38.47300 7.23400 43.93900
N  42.52100 2.34000 47.78100
C  41.28500 1.72700 47.68600
C  41.53400 0.28700 47.81200
C  42.94000 0.06700 47.75500
C  43.50600 1.43700 47.76400
C  40.49100 -0.82800 47.67700
C  43.78700 -1.23700 47.61100
O  43.22800 -2.34900 47.37100
C  45.31000 -1.36800 47.68900
N  44.88700 4.33500 47.68300
C  45.47000 3.13500 47.74000
C  47.02100 3.23200 47.67500
C  47.21200 4.85900 47.68800
C  45.79200 5.32800 47.54700
C  47.83900 2.55400 48.75900
C  48.21100 5.46500 46.61900
C  49.22100 4.64300 45.85100
N  43.06900 6.60600 47.55100
C  44.21100 7.27600 47.37400
C  43.90600 8.70200 47.12200
C  42.49000 8.72200 47.16700
C  42.06000 7.41600 47.38300
C  44.92000 9.74700 46.87400
C  41.23800 9.52000 47.09200
O  41.00900 10.74000 46.90600
C  39.98200 8.52200 47.18900
C  39.24200 8.98600 48.42800
O  39.41900 8.51200 49.57000
O  38.29300 9.90400 48.06300
C  37.53100 10.44200 49.16300
H  39.15500 1.66000 47.53700
H  45.60400 1.08400 47.90800
H  46.31800 7.36300 47.26700
H  38.14500 6.39300 48.27000
H  37.76000 3.75900 46.94000
H  38.36400 3.30100 49.71400
H  36.84300 3.12300 48.87800
H  37.29000 4.69100 49.60600
H  37.48100 7.40000 46.39900
H  36.71600 5.83900 46.32000
H  37.34100 5.50400 44.28500
H  39.04500 5.34600 44.72400
H  40.78600 -1.31000 46.74500
H  39.47900 -0.42500 47.63300
H  40.60200 -1.49800 48.52900
H  45.67600 -0.89200 48.59900
H  45.61500 -0.81600 46.80000
H  45.71600 -2.37700 47.76000
H  47.28200 2.74800 46.73400
H  47.51000 5.23500 48.66700
H  48.63800 1.97700 48.29400
H  47.27100 1.86600 49.38400
H  48.28700 3.35200 49.35100
H  48.87900 6.15100 47.14100
H  47.66100 5.94600 45.81100
H  50.23400 5.04600 45.82600
H  48.97400 4.64100 44.79000
H  49.33100 3.61200 46.18700
H  45.76200 9.69700 47.56500
H  44.45100 10.72900 46.80900
H  45.34100 9.71300 45.86900
H  39.44800 8.59300 46.24100
H  37.99800 10.43300 50.14800
H  36.57000 9.92700 49.15400
H  37.15400 11.41600 48.84800
Mg 46.45500 16.68200 28.32300
C  44.35900 15.99300 30.93000
C  48.61000 18.35900 30.44200
C  48.41400 17.40100 25.84400
C  44.25200 14.92200 26.14400
N  46.50900 17.12600 30.42400
C  45.56500 16.56100 31.34100
C  46.00300 16.85900 32.77200
C  47.38800 17.59000 32.55600
C  47.52000 17.74700 31.07000
C  47.56000 18.93200 33.27300
C  46.01300 15.64000 33.78700
C  45.41000 15.94800 35.13400
H  45.23800 17.42900 35.60200
N  48.28700 17.72800 28.15900
C  49.03000 18.37000 29.08800
C  50.19800 18.96300 28.56900
C  50.29500 18.58900 27.19700
C  48.95400 17.90000 26.98900
C  51.22000 19.85200 29.39900
C  51.44200 18.70500 26.19500
O  51.31200 18.30000 25.03400
C  52.72300 19.32200 26.56100
N  46.39000 16.16700 26.27000
C  47.25900 16.73200 25.45900
C  46.99800 16.31400 23.95500
C  45.70000 15.41000 24.01500
C  45.38500 15.50300 25.54200
C  46.77800 17.63200 23.08900
C  45.89500 13.85900 23.63000
C  45.07700 13.29700 22.42600
N  44.66200 15.66800 28.46500
C  43.83100 15.10700 27.49000
C  42.52300 14.73300 28.08000
C  42.71700 15.02700 29.43800
C  43.96600 15.59700 29.63600
C  41.28000 14.25100 27.37700
C  42.13900 15.03000 30.74100
O  40.97400 14.68100 31.03100
C  43.19900 15.52800 31.75300
C  42.53000 16.60900 32.60600
O  42.17900 17.71800 32.29500
O  42.33800 16.09100 33.82900
C  41.48800 16.93700 34.62700
H  49.38000 18.67300 31.15000
H  49.13100 17.66600 25.06500
H  43.49000 14.64600 25.41200
H  45.30500 17.59300 33.17500
H  48.17300 16.87300 32.79500
H  47.66900 19.77100 32.58600
H  48.46700 18.84600 33.87100
H  46.64600 19.07000 33.85100
H  47.03700 15.30600 33.95100
H  45.53600 14.78800 33.30400
H  46.07300 15.55000 35.90300
H  44.44800 15.44200 35.22200
H  50.80400 20.85300 29.51300
H  52.20800 19.92000 28.94500
H  51.39900 19.30500 30.32500
H  53.36300 19.31600 25.67900
H  53.06700 18.70100 27.38800
H  52.52700 20.36200 26.82400
H  47.82100 15.73000 23.54300
H  44.79700 15.68200 23.46900
H  45.72100 17.75000 22.85400
H  47.41000 17.37900 22.23700
H  47.14000 18.47300 23.67900
H  45.71500 13.13900 24.42900
H  46.96500 13.69700 23.50000
H  44.02500 13.48600 22.63900
H  45.25700 12.24600 22.20100
H  45.37100 13.89400 21.56200
H  41.22100 13.16400 27.43800
H  41.24700 14.58200 26.33900
H  40.35700 14.67700 27.77000
H  43.49400 14.64700 32.32200
H  40.55900 16.95300 34.05800
H  41.89000 17.90600 34.92300
H  41.24200 16.42700 35.55900

