158

Mg 45.75300 24.09500 28.37800
C  46.61300 26.30200 30.88200
C  44.62100 21.84800 30.71000
C  45.76000 21.66300 26.01000
C  47.80400 25.93800 26.07800
N  45.55400 24.12500 30.45100
C  45.97000 25.17200 31.28300
C  45.60200 24.87500 32.80100
C  45.05000 23.44300 32.64800
C  45.06800 23.08500 31.19000
C  45.73800 22.43400 33.56300
C  44.47100 25.82700 33.31500
C  43.98000 25.56100 34.74800
H  44.58800 26.43400 35.90100
N  45.10600 22.14200 28.30600
C  44.66500 21.34000 29.37600
C  44.26400 20.04700 28.85900
C  44.39400 20.09800 27.42200
C  45.07900 21.35400 27.19200
C  43.93100 18.88500 29.74200
C  43.80000 19.15200 26.32200
O  43.99300 19.27500 25.11300
C  42.90500 18.10900 26.76100
N  46.63100 23.87300 26.21700
C  46.33200 22.81800 25.48600
C  47.03800 22.83600 24.10800
C  47.69600 24.26000 24.13100
C  47.39800 24.75200 25.57800
C  47.96700 21.67900 23.70500
C  47.35100 25.26700 23.03300
C  46.09800 26.09900 23.20200
N  46.87800 25.87100 28.44400
C  47.58100 26.49500 27.43400
C  48.09600 27.69800 27.94200
C  47.75500 27.71200 29.28400
C  47.06100 26.49600 29.56900
C  48.86900 28.73600 27.18900
C  47.80800 28.48000 30.52200
O  48.28300 29.57000 30.85800
C  47.02400 27.55200 31.60100
C  48.09500 27.20100 32.65300
O  49.08700 26.55500 32.34600
O  47.77700 27.54100 33.97300
C  48.88300 27.47800 34.95600
H  44.20900 21.13400 31.42700
H  45.78500 20.85100 25.28000
H  48.53000 26.49400 25.48000
H  46.55100 25.01200 33.31900
H  43.97600 23.48600 32.82400
H  46.36600 21.69100 33.07100
H  45.03200 22.06200 34.30500
H  46.39200 22.97000 34.25100
H  43.70100 25.78300 32.54400
H  44.94000 26.81000 33.28500
H  44.22700 24.52800 34.99500
H  42.89400 25.64800 34.73900
H  44.74800 18.16600 29.68500
H  43.00700 18.40200 29.42400
H  43.87300 19.25300 30.76700
H  42.41400 17.46100 26.03500
H  42.10400 18.50300 27.38700
H  43.42500 17.46000 27.46400
H  46.23900 22.86800 23.36800
H  48.78000 24.21700 24.02700
H  48.97300 22.04500 23.49900
H  47.64800 21.23900 22.76000
H  47.95700 20.85000 24.41300
H  47.40200 24.71600 22.09400
H  48.24300 25.89200 22.98500
H  45.71700 25.99300 24.21800
H  45.34300 25.81400 22.47000
H  46.32700 27.15900 23.08900
H  49.05300 28.56700 26.12800
H  49.88500 28.67300 27.57800
H  48.39800 29.71200 27.30400
H  46.15200 28.03300 32.04400
H  49.01500 26.46800 35.34600
H  48.75300 28.18300 35.77700
H  49.78500 27.72000 34.39500
Mg 0.16900 44.05300 25.80700
C  2.51500 43.78900 28.38700
C  -2.30100 43.23400 27.89000
C  -1.74600 44.08000 23.10400
C  2.93600 44.31000 23.50600
N  0.15700 43.51400 27.90900
C  1.15800 43.61700 28.73900
C  0.66300 43.56800 30.19100
C  -0.85900 43.04700 30.03900
C  -1.04200 43.29400 28.52100
C  -1.05000 41.55300 30.56500
C  0.79000 44.94200 30.87900
C  0.49400 44.96600 32.40700
H  0.52800 43.61600 33.15600
N  -1.74800 43.69800 25.50300
C  -2.67500 43.37000 26.49700
C  -3.96000 43.07200 25.87900
C  -3.82600 43.38400 24.50000
C  -2.41300 43.76000 24.29400
C  -5.12900 42.58500 26.72800
C  -4.89300 43.33300 23.45400
O  -4.61900 43.67000 22.27900
C  -6.26100 42.89800 23.76400
N  0.56900 44.37400 23.61400
C  -0.46900 44.34900 22.73700
C  0.01500 44.91600 21.33200
C  1.48900 45.23400 21.60600
C  1.75500 44.63700 22.99600
C  -0.15600 43.93900 20.24600
C  1.96400 46.71300 21.53900
C  1.08400 47.63300 22.42200
N  2.27300 44.06400 25.88000
C  3.25200 44.16100 24.86500
C  4.58500 44.22400 25.49600
C  4.34800 44.11900 26.84100
C  2.95600 44.01000 27.06600
C  5.94400 44.33500 24.78200
C  4.94600 43.99900 28.10200
O  6.10700 43.94700 28.43300
C  3.82400 43.89300 29.16900
C  4.10900 42.77600 30.02300
O  4.22900 41.67100 29.63700
O  4.18900 43.10900 31.35900
C  4.45700 42.12700 32.34100
H  -3.13800 43.22100 28.59100
H  -2.31700 43.96900 22.18000
H  3.75900 44.50600 22.81600
H  1.29700 42.82700 30.67800
H  -1.51000 43.67100 30.65200
H  -1.36300 40.89600 29.75400
H  -1.84700 41.55900 31.30900
H  -0.10900 41.25400 31.02700
H  0.12200 45.58400 30.30500
H  1.79400 45.34900 30.75900
H  -0.43700 45.50600 32.57400
H  1.23400 45.50600 32.99700
H  -5.89400 43.35900 26.78900
H  -4.82600 42.36700 27.75200
H  -5.53800 41.65700 26.32900
H  -6.44800 41.89400 24.14500
H  -6.84300 42.94300 22.84300
H  -6.67300 43.49900 24.57600
H  -0.45700 45.86200 21.06800
H  2.18000 44.76700 20.90300
H  -1.22700 43.82700 20.07600
H  0.26400 42.96100 20.47800
H  0.23300 44.32600 19.30400
H  1.76100 46.99500 20.50600
H  3.01900 46.65500 21.80900
H  0.42200 47.02600 23.04000
H  0.51400 48.43400 21.95100
H  1.68200 48.30000 23.04300
H  5.89100 44.64200 23.73700
H  6.36900 43.34600 24.94900
H  6.57000 45.07200 25.28500
H  3.89700 44.78100 29.79800
H  4.09900 42.41700 33.32900
H  5.48900 41.78600 32.42400
H  3.75700 41.31400 32.14700

