158

Mg 45.29200 4.35800 47.64400
C  43.27200 7.11300 47.24400
C  42.48200 2.40100 46.89100
C  47.25500 1.71700 47.71400
C  48.12200 6.41600 47.42100
N  43.05100 4.75400 47.34600
C  42.50000 5.98400 47.15100
C  40.99200 5.79000 46.56100
C  40.81300 4.23500 46.69800
C  42.16000 3.74600 46.99700
C  39.73100 3.84900 47.82800
C  40.87500 6.40100 45.14700
C  39.69200 7.38500 44.92100
H  38.83700 7.07500 43.71500
N  44.92000 2.31700 47.36500
C  43.74200 1.73300 47.03300
C  44.00800 0.25200 46.88900
C  45.39800 0.02000 47.18300
C  45.90900 1.36600 47.48000
C  42.98800 -0.76900 46.42300
C  46.18200 -1.39200 47.08900
O  45.55200 -2.38300 46.78600
C  47.68200 -1.51600 47.37700
N  47.41100 4.05500 47.43800
C  47.93700 2.88800 47.72400
C  49.47300 2.89300 48.07700
C  49.63300 4.49900 48.23400
C  48.31800 5.05400 47.56800
C  49.82700 2.14000 49.33300
C  50.91800 4.99700 47.47600
C  52.26300 4.24100 47.53100
N  45.68600 6.30800 47.46000
C  46.86600 7.03500 47.39400
C  46.52500 8.50300 47.37100
C  45.16600 8.54500 47.30200
C  44.70500 7.21800 47.43200
C  47.39100 9.68200 47.10700
C  44.00100 9.46800 47.24000
O  43.94900 10.69600 47.11500
C  42.74500 8.55400 47.08500
C  41.64900 8.89700 48.00600
O  41.47700 8.45300 49.18300
O  40.61600 9.66100 47.45400
C  39.42900 9.83800 48.32200
H  41.62500 1.74400 46.72400
H  47.92600 0.85700 47.75400
H  48.99100 7.04000 47.63900
H  40.31600 6.23900 47.28800
H  40.36200 3.79000 45.81100
H  38.99800 4.65000 47.92200
H  40.20700 3.75800 48.80400
H  39.32300 2.91700 47.43700
H  40.87600 5.52600 44.49600
H  41.80800 6.92800 44.94700
H  40.01800 8.42400 44.97500
H  38.97700 7.31600 45.74100
H  43.49800 -1.11700 45.52500
H  42.07000 -0.35600 46.00600
H  42.87500 -1.63900 47.06900
H  47.97600 -2.55600 47.23100
H  47.99200 -1.29800 48.39900
H  48.13600 -0.90000 46.60100
H  49.95800 2.47100 47.19700
H  49.59500 4.72000 49.30100
H  50.11400 2.76700 50.17700
H  50.71700 1.56000 49.09200
H  49.05400 1.47100 49.71200
H  51.00400 5.99000 47.91800
H  50.70000 5.14600 46.41800
H  53.13100 4.89400 47.44100
H  52.33500 3.57500 46.67200
H  52.37600 3.71000 48.47600
H  47.83100 9.61700 46.11200
H  48.23200 9.70200 47.80000
H  46.82300 10.60800 47.20200
H  42.41800 8.68400 46.05300
H  38.85200 10.61200 47.81700
H  39.77500 10.16200 49.30400
H  38.83700 8.92800 48.41600
Mg -0.26600 43.88600 25.96800
C  2.06400 43.78500 28.80100
C  -2.75500 43.33200 28.21900
C  -2.31200 43.24400 23.36200
C  2.44900 44.23600 23.91000
N  -0.24000 43.36000 28.25800
C  0.76100 43.47400 29.15500
C  0.15100 43.41400 30.59100
C  -1.32000 43.08800 30.34200
C  -1.46900 43.31500 28.88000
C  -1.71800 41.59100 30.74800
C  0.41000 44.74300 31.37000
C  1.03000 44.71500 32.79800
H  0.69900 43.40900 33.61700
N  -2.36300 43.55700 25.84300
C  -3.21100 43.39200 26.90800
C  -4.54100 43.12400 26.34100
C  -4.47400 43.09500 24.90400
C  -3.05900 43.26000 24.66000
C  -5.74800 43.04000 27.26300
C  -5.53900 42.85300 23.85100
O  -5.33300 42.96400 22.64000
C  -6.85500 42.37000 24.36400
N  0.02400 43.64900 23.97300
C  -0.96100 43.30600 23.10400
C  -0.31600 43.14700 21.69800
C  0.98300 43.98600 21.80200
C  1.18800 43.96000 23.29100
C  -0.08800 41.72300 21.13400
C  0.87500 45.35900 21.08500
C  2.21100 46.04400 20.60500
N  1.83400 44.05800 26.17600
C  2.82600 44.35600 25.27600
C  4.08200 44.55000 26.00100
C  3.80900 44.40400 27.29000
C  2.43400 44.07800 27.39300
C  5.41500 44.85800 25.36600
C  4.46300 44.36600 28.63100
O  5.61400 44.44700 28.94500
C  3.28800 44.00300 29.63600
C  3.73100 42.77000 30.26900
O  3.22600 41.64900 30.00700
O  4.70600 42.96500 31.16900
C  5.21700 41.73700 31.82700
H  -3.57900 43.14100 28.90900
H  -2.85800 43.13500 22.42200
H  3.28900 44.55300 23.28900
H  0.75200 42.60700 31.01000
H  -1.93800 43.70500 30.99400
H  -2.44800 41.61100 31.55700
H  -0.91700 40.92800 31.07500
H  -2.19700 41.11600 29.89200
H  -0.55600 45.21500 31.54700
H  1.07600 45.41300 30.82600
H  0.61500 45.59400 33.29100
H  2.10200 44.85200 32.65900
H  -6.25000 42.07300 27.25400
H  -6.39500 43.77800 26.78900
H  -5.62900 43.41100 28.28100
H  -6.66600 41.38900 24.80100
H  -7.45000 42.21800 23.46300
H  -7.35300 43.15900 24.92700
H  -1.08000 43.63000 21.08800
H  1.84600 43.49200 21.35600
H  -0.79900 41.03600 21.59300
H  0.91100 41.36000 21.37800
H  -0.21300 41.82500 20.05600
H  0.34300 45.98500 21.80100
H  0.27300 45.28900 20.17900
H  2.30500 46.93200 21.23100
H  2.13500 46.28700 19.54500
H  3.06400 45.37200 20.69900
H  5.40300 45.78400 24.79000
H  5.71100 44.12100 24.61900
H  6.19800 44.88100 26.12400
H  3.29200 44.79900 30.38000
H  5.15600 40.88800 31.14500
H  4.45000 41.53700 32.57500
H  6.21500 41.83200 32.25500

