158

Mg 29.97000 59.00800 39.88900
C  27.41600 56.95900 38.55600
C  32.20000 56.40300 38.78200
C  32.67200 61.22600 40.01400
C  27.74300 61.65400 40.22600
N  29.87600 56.85800 38.89400
C  28.69900 56.30400 38.37400
C  29.00900 54.97200 37.59600
C  30.52000 54.74700 38.00900
C  30.85800 56.08400 38.57200
C  30.81800 53.45300 38.86700
C  28.78400 55.16900 36.06200
C  28.12300 53.95600 35.35100
H  26.92400 54.24900 34.41400
N  32.14500 58.74300 39.69400
C  32.81600 57.58600 39.28300
C  34.23100 57.77800 39.39900
C  34.45700 59.19200 39.74200
C  33.06900 59.81400 39.81800
C  35.21700 56.65700 39.15700
C  35.71600 59.82800 39.96600
O  36.81800 59.25100 39.78000
C  35.78700 61.26400 40.36700
N  30.15900 61.14000 40.09400
C  31.39700 61.79900 40.21000
C  31.28900 63.30200 40.27400
C  29.70900 63.33700 40.62900
C  29.11900 61.98100 40.26900
C  32.22000 63.88300 41.37900
C  28.99700 64.59300 40.03600
C  28.42900 65.63000 41.00100
N  27.97000 59.21400 39.69200
C  27.18900 60.32800 39.84200
C  25.85300 59.99000 39.60500
C  25.84100 58.65400 39.11900
C  27.22600 58.26500 39.06500
C  24.68100 60.86300 39.64900
C  25.03700 57.49300 38.63100
O  23.81000 57.37700 38.53600
C  26.05200 56.33900 38.29700
C  25.65500 55.18400 39.21600
O  25.55200 55.18200 40.41200
O  25.42300 54.06400 38.46000
C  24.87700 52.93500 39.23900
H  32.86100 55.60300 38.44000
H  33.46700 61.96900 39.92900
H  27.08300 62.49600 40.44700
H  28.36800 54.15300 37.92100
H  31.22900 54.59700 37.19600
H  29.84700 52.96300 38.94800
H  31.20400 53.72500 39.84900
H  31.62900 52.81900 38.50900
H  29.70900 55.33600 35.51100
H  28.18300 56.05300 35.84700
H  27.83800 53.22700 36.11000
H  28.98400 53.57800 34.80000
H  34.99900 55.66000 39.53800
H  36.18900 56.90900 39.58100
H  35.34700 56.47000 38.09100
H  36.79900 61.55400 40.64800
H  35.04500 61.47600 41.13600
H  35.53000 61.94100 39.55200
H  31.57600 63.57700 39.25900
H  29.55600 63.47200 41.70000
H  32.71000 63.06100 41.90100
H  31.70900 64.48300 42.13200
H  32.97500 64.54100 40.94700
H  28.27500 64.22100 39.30900
H  29.62600 65.11700 39.31800
H  28.56100 66.57700 40.47700
H  29.05600 65.57500 41.89100
H  27.45000 65.23700 41.27500
H  24.90400 61.84900 40.05600
H  23.85300 60.41700 40.20000
H  24.37200 60.97000 38.60900
H  25.88000 56.11500 37.24400
H  24.56700 52.19200 38.50400
H  23.90200 53.22000 39.63400
H  25.61400 52.59600 39.96700
Mg 6.93000 53.52900 41.52600
C  6.33900 50.17000 41.00000
C  9.94800 53.20600 40.07900
C  7.04300 56.84600 41.20600
C  3.74900 53.82300 42.91900
N  7.90100 51.88000 40.54100
C  7.58900 50.61500 40.52900
C  8.71600 49.70600 40.12300
C  9.95300 50.67700 40.33500
C  9.28200 51.98900 40.29400
C  10.83300 50.20000 41.57800
C  8.60700 49.10500 38.63800
C  8.39400 50.16400 37.56700
H  6.97200 50.43600 37.06000
N  8.36200 54.93900 40.84600
C  9.53500 54.57100 40.19900
C  10.23500 55.77600 39.80400
C  9.33700 56.97200 40.01100
C  8.16600 56.27100 40.66400
C  11.62900 55.78700 39.11200
C  9.56300 58.39700 39.53600
O  10.44700 58.69100 38.72100
C  8.62800 59.41500 40.00200
N  5.49000 55.14900 41.80700
C  5.87600 56.41300 41.71200
C  4.78900 57.36300 42.03700
C  3.74800 56.44900 42.67400
C  4.27100 55.03600 42.39500
C  5.17100 58.65500 42.85400
C  2.29200 56.50200 42.02900
C  1.13600 56.32100 43.01400
N  5.31900 52.22200 41.97500
C  4.08500 52.46300 42.52000
C  3.40000 51.21500 42.71500
C  4.16500 50.30800 41.97300
C  5.33100 50.95000 41.63400
C  1.98700 50.98100 43.34800
C  4.25200 48.91300 41.57600
O  3.51000 47.94100 41.66800
C  5.71800 48.77600 40.90600
C  5.45200 48.26400 39.51600
O  4.93100 48.94100 38.60700
O  5.78900 46.89200 39.47200
C  5.78400 46.26200 38.12900
H  10.91300 53.19200 39.57000
H  6.96000 57.91700 41.00900
H  2.81700 53.88700 43.48300
H  8.70900 48.84200 40.78800
H  10.62100 50.56500 39.48000
H  10.52600 49.29400 42.10000
H  10.68200 50.91400 42.38700
H  11.88700 50.25500 41.30700
H  7.82000 48.35800 38.73600
H  9.48300 48.52100 38.35400
H  9.00300 49.95200 36.68800
H  8.86900 51.09400 37.87900
H  12.20200 54.99200 39.58900
H  12.16000 56.70700 39.35800
H  11.45800 55.61500 38.05000
H  7.61600 59.39400 39.59800
H  9.16000 60.35700 39.87000
H  8.64800 59.44300 41.09100
H  4.42900 57.70500 41.06700
H  3.82600 56.47400 43.76100
H  4.60800 58.74500 43.78400
H  4.84300 59.50400 42.25300
H  6.24300 58.71100 43.04400
H  2.30200 55.73700 41.25300
H  2.18900 57.40800 41.43300
H  0.29600 55.69600 42.71000
H  0.72100 57.31500 43.18100
H  1.49900 55.95600 43.97500
H  1.25200 51.78500 43.37900
H  2.22000 50.87800 44.40800
H  1.59400 50.04900 42.94300
H  6.29900 48.06800 41.49600
H  6.71000 45.82700 37.75300
H  5.34300 46.87600 37.34400
H  5.05300 45.45600 38.20200

