158

Mg 17.50100 -1.97700 28.44300
C  16.35200 0.06900 31.07000
C  19.06300 -4.03300 30.80600
C  19.01800 -3.50200 25.90200
C  16.17000 0.34900 26.23100
N  17.67800 -2.02100 30.66800
C  17.23600 -0.98200 31.53300
C  17.50900 -1.31000 32.93100
C  18.40900 -2.57100 32.86600
C  18.49000 -2.87300 31.36200
C  19.73000 -2.43500 33.69100
C  16.26800 -1.55200 33.86700
C  16.27500 -0.80000 35.22000
H  17.69100 -0.55200 35.78700
N  18.81700 -3.59300 28.34600
C  19.32700 -4.31500 29.42100
C  20.20500 -5.32000 28.93000
C  20.13500 -5.19600 27.48800
C  19.29400 -4.08100 27.15500
C  20.97300 -6.29300 29.80200
C  20.87500 -6.06300 26.37200
O  20.60300 -5.95800 25.15300
C  22.02700 -7.09200 26.87200
N  17.23800 -1.85700 26.32400
C  18.14800 -2.48600 25.53700
C  18.29100 -1.85700 24.15500
C  17.14600 -0.79400 24.13200
C  16.74300 -0.77200 25.64700
C  19.69300 -1.42900 23.84900
C  15.88400 -0.94900 23.33400
C  15.65600 -0.04600 22.10700
N  16.32400 -0.27500 28.56200
C  15.82300 0.61200 27.54200
C  14.99500 1.67300 28.17300
C  15.27300 1.54400 29.54900
C  16.05300 0.37800 29.73500
C  14.15300 2.66500 27.54800
C  14.96600 2.09200 30.83400
O  14.24600 3.08400 31.10900
C  15.67000 1.16900 31.86700
C  16.54700 2.03700 32.66300
O  17.77300 2.07100 32.60200
O  15.69000 2.73700 33.54600
C  16.39500 3.77300 34.34400
H  19.52300 -4.70900 31.53000
H  19.66300 -3.84700 25.09100
H  16.02100 1.16900 25.52500
H  17.99400 -0.39300 33.26600
H  17.87700 -3.37200 33.38000
H  20.63200 -2.51800 33.08300
H  19.84000 -3.13700 34.51700
H  19.75200 -1.46200 34.18200
H  15.98500 -2.57900 34.09900
H  15.43500 -1.26500 33.22500
H  15.80700 -1.33600 36.04500
H  15.78900 0.14700 34.98500
H  22.02200 -6.09900 29.57700
H  20.66400 -7.33700 29.74600
H  20.88300 -5.96200 30.83700
H  22.65900 -7.39400 26.03600
H  21.42000 -7.94900 27.16400
H  22.60400 -6.50900 27.59000
H  18.01200 -2.60200 23.41000
H  17.53700 0.18500 23.85500
H  19.83500 -0.35100 23.92100
H  19.99400 -1.90000 22.91300
H  20.39000 -1.88700 24.55100
H  14.98300 -0.82500 23.93500
H  15.73400 -2.01300 23.15000
H  16.41100 0.73800 22.04400
H  14.67800 0.42200 22.22000
H  15.45200 -0.52400 21.14900
H  14.11600 2.53600 26.46600
H  14.42100 3.68100 27.83900
H  13.18700 2.43700 27.99800
H  14.80200 0.78500 32.40300
H  17.24700 3.40600 34.91600
H  15.77700 4.18300 35.14300
H  16.67400 4.63700 33.74000
Mg -4.46600 25.42300 25.47700
C  -3.26500 26.73700 28.58500
C  -6.53700 23.28500 27.37800
C  -5.79700 24.46000 22.71800
C  -2.29100 27.59200 23.83300
N  -4.79200 25.01900 27.66200
C  -4.23800 25.77800 28.73300
C  -4.85400 25.34500 30.04700
C  -5.70000 24.09100 29.64500
C  -5.61200 24.05100 28.12700
C  -5.40200 22.80900 30.46800
C  -5.72700 26.45400 30.67600
C  -5.52200 26.61400 32.28100
H  -5.21100 25.31200 33.12500
N  -5.88600 23.98800 25.08900
C  -6.68500 23.26500 26.00500
C  -7.63000 22.47500 25.18200
C  -7.40000 22.82100 23.87200
C  -6.36900 23.84700 23.88000
C  -8.56500 21.41900 25.72900
C  -7.94300 22.19400 22.50700
O  -7.61800 22.59000 21.38300
C  -8.83700 21.04400 22.47000
N  -4.02300 25.94200 23.54300
C  -4.69500 25.36100 22.54400
C  -4.24700 25.88400 21.12200
C  -3.13800 26.92700 21.52300
C  -3.14000 26.82700 23.05200
C  -3.61000 24.68100 20.30200
C  -3.23600 28.42800 21.05500
C  -3.31400 28.66300 19.48600
N  -3.05000 26.90400 26.05500
C  -2.18000 27.61900 25.23500
C  -1.41000 28.58300 26.06200
C  -1.80700 28.28300 27.38100
C  -2.74600 27.23300 27.35600
C  -0.41400 29.57900 25.62200
C  -1.65400 28.62600 28.78600
O  -1.01100 29.50200 29.32200
C  -2.57300 27.58500 29.62600
C  -1.69400 26.92500 30.72000
O  -1.13900 25.81800 30.67500
O  -1.62000 27.65200 31.83900
C  -0.78600 27.11100 32.93400
H  -7.22600 22.74900 28.03400
H  -6.21000 24.26600 21.72600
H  -1.71200 28.31800 23.25700
H  -4.06900 25.05500 30.74500
H  -6.75300 24.35800 29.73800
H  -6.18000 22.72300 31.22700
H  -4.42100 22.88900 30.93500
H  -5.36200 21.97500 29.76700
H  -6.76300 26.24900 30.40900
H  -5.36500 27.36200 30.19400
H  -6.41000 27.06100 32.72600
H  -4.67900 27.28500 32.44600
H  -7.97200 20.61900 26.17400
H  -9.41700 21.14200 25.10900
H  -9.02500 22.13100 26.41400
H  -8.84400 20.70500 21.43400
H  -9.84600 21.32800 22.77100
H  -8.46200 20.25900 23.12800
H  -5.06000 26.41600 20.62700
H  -2.12500 26.60300 21.28400
H  -3.70900 23.84200 20.99100
H  -2.56900 24.68700 19.98000
H  -4.29100 24.47100 19.47700
H  -2.42300 29.02500 21.46800
H  -4.09300 28.86200 21.57000
H  -2.60600 29.46400 19.27300
H  -4.31700 29.01400 19.24700
H  -3.05800 27.94300 18.70900
H  0.01100 29.42400 24.63000
H  0.36800 29.62800 26.38000
H  -0.87300 30.56800 25.64400
H  -3.26800 28.24200 30.14900
H  -0.98600 26.09300 33.26900
H  -1.08300 27.84500 33.68300
H  0.25600 27.23700 32.64100

