158

Mg 35.23700 1.02900 29.58500
C  33.23900 2.48900 32.06600
C  37.83200 0.97600 32.03700
C  37.18500 -0.23100 27.30300
C  32.60700 1.52400 27.27200
N  35.57100 1.94900 31.80500
C  34.51700 2.22500 32.60200
C  35.03300 2.31800 34.04600
C  36.59300 2.06700 33.93600
C  36.66900 1.59500 32.52200
C  37.61400 3.17600 34.28900
C  34.23800 1.45400 35.03700
C  34.13100 1.88200 36.53500
H  34.52900 3.26400 37.01900
N  37.34200 0.48600 29.62600
C  38.12600 0.39000 30.71400
C  39.40200 0.01700 30.21400
C  39.26100 -0.37000 28.87400
C  37.89100 -0.06100 28.55600
C  40.61500 0.06600 31.09800
C  40.26800 -0.73200 27.86000
O  40.00800 -0.84000 26.70500
C  41.64800 -1.01600 28.25800
N  34.98400 0.82200 27.55100
C  35.94600 0.18900 26.83600
C  35.42000 -0.02600 25.36500
C  34.03100 0.48600 25.38100
C  33.83600 0.90900 26.83800
C  36.33700 0.63000 24.29800
C  32.92600 -0.51600 24.95600
C  32.52000 -1.57500 26.01300
N  33.36700 1.90700 29.53300
C  32.37200 2.03000 28.59100
C  31.23600 2.69100 29.09700
C  31.52800 2.88500 30.50900
C  32.85200 2.40600 30.70200
C  29.89500 2.97000 28.34700
C  30.97000 3.27100 31.74100
O  29.83500 3.55900 32.11300
C  32.01600 2.97000 32.88000
C  32.18700 4.29900 33.61700
O  32.81900 5.23400 33.13700
O  31.38200 4.22400 34.74400
C  31.32300 5.46200 35.46200
H  38.55800 0.75800 32.82300
H  37.65600 -0.82500 26.51700
H  31.86100 1.64100 26.48300
H  34.75200 3.35400 34.23600
H  36.85100 1.20600 34.55300
H  38.60100 3.03200 33.85000
H  37.78700 3.14000 35.36500
H  37.12900 4.12900 34.07600
H  34.68200 0.45900 35.00300
H  33.28100 1.42700 34.51600
H  34.51800 1.18500 37.27900
H  33.07800 1.78500 36.79900
H  40.50100 0.74700 31.94100
H  41.42500 0.60000 30.60200
H  40.99200 -0.93100 31.32500
H  42.20500 -0.11400 28.51300
H  42.12700 -1.40000 27.35700
H  41.58600 -1.77100 29.04100
H  35.36000 -1.09200 25.14600
H  33.84500 1.35900 24.75600
H  36.65200 -0.14200 23.59600
H  37.24600 0.90100 24.83600
H  36.01500 1.52100 23.76000
H  33.37000 -0.97200 24.07100
H  32.04800 0.05000 24.64300
H  32.43000 -2.50600 25.45300
H  31.53500 -1.32700 26.40900
H  33.13100 -1.65200 26.91300
H  29.69700 2.29700 27.51200
H  29.82900 3.95000 27.87400
H  29.03300 2.79400 28.99100
H  31.68500 2.18400 33.55800
H  30.48100 6.07800 35.14400
H  32.22900 6.06400 35.39000
H  31.33000 5.22300 36.52500
Mg 25.82000 52.05200 26.06600
C  23.91600 52.60000 28.94200
C  28.62000 51.84600 28.25700
C  27.86300 52.01800 23.41700
C  23.16400 52.83700 24.13900
N  26.17400 52.24200 28.37200
C  25.25900 52.38600 29.31500
C  25.80500 52.20500 30.68200
C  27.28900 51.88300 30.46500
C  27.37900 52.00500 28.95900
C  28.17100 52.84000 31.28300
C  25.13300 50.98600 31.48900
C  25.58100 50.85700 32.97300
H  24.81200 51.74400 33.95500
N  27.90900 51.97400 25.84000
C  28.83700 51.81000 26.82800
C  30.14100 51.73900 26.21000
C  29.98300 51.67800 24.83400
C  28.52900 51.88200 24.62400
C  31.36700 51.76700 27.10500
C  30.94900 51.54400 23.67500
O  30.64600 51.65600 22.47100
C  32.39000 51.26700 23.92600
N  25.58700 52.54000 24.14300
C  26.52500 52.37200 23.15900
C  25.99200 52.69400 21.78800
C  24.45800 52.62000 22.06400
C  24.41100 52.68500 23.55100
C  26.59000 53.93100 21.01100
C  23.65300 51.44600 21.36900
C  23.65400 51.34400 19.80600
N  23.87900 52.48400 26.34900
C  22.87700 52.78700 25.49000
C  21.66900 53.10400 26.13900
C  22.05000 53.05500 27.55400
C  23.42800 52.73200 27.61100
C  20.32800 53.52600 25.49300
C  21.59300 53.23300 28.90700
O  20.46000 53.62000 29.19300
C  22.73400 52.88500 29.87800
C  23.04200 54.07200 30.65500
O  23.69100 55.04500 30.26600
O  22.44700 54.08200 31.85200
C  22.58200 55.39300 32.61200
H  29.47200 51.69700 28.92400
H  28.45800 52.01600 22.50200
H  22.31600 52.92200 23.45700
H  25.72200 53.17000 31.18000
H  27.64700 50.88000 30.69900
H  27.76800 53.15600 32.24400
H  28.38100 53.78700 30.78500
H  29.11100 52.29200 31.35400
H  25.20100 50.04000 30.95200
H  24.04600 51.05600 31.49400
H  26.62100 51.18400 32.94200
H  25.55200 49.80100 33.24200
H  32.23800 52.30000 26.72300
H  31.63500 50.72600 27.28400
H  31.16700 52.32500 28.02000
H  32.66200 52.32100 23.98900
H  32.86200 50.78500 23.07000
H  32.61200 50.79900 24.88500
H  26.22600 51.82700 21.17000
H  24.16400 53.58100 21.64200
H  27.34600 54.29200 21.70900
H  25.90800 54.75500 20.80200
H  27.10200 53.83600 20.05400
H  22.65100 51.38600 21.79500
H  24.07500 50.53200 21.78800
H  24.24400 50.47600 19.51100
H  23.96000 52.31900 19.42700
H  22.66600 51.18700 19.37500
H  19.65900 53.34900 26.33500
H  20.29000 52.81800 24.66500
H  20.31600 54.53600 25.08300
H  22.55700 52.07300 30.58400
H  22.36400 56.27400 32.00900
H  23.36800 55.55200 33.35000
H  21.68900 55.37800 33.23700

