158

Mg 29.99000 56.98900 41.13500
C  27.33600 55.16700 39.56900
C  32.14200 54.84400 39.45100
C  32.25400 59.23700 41.58900
C  27.37100 59.40900 41.80000
N  29.72900 55.31400 39.60500
C  28.60400 54.74200 39.15000
C  28.76700 53.57500 38.19000
C  30.34600 53.40500 38.21700
C  30.79900 54.53800 39.16100
C  30.81900 51.95800 38.77800
C  28.24300 53.98100 36.81500
C  27.45900 52.89000 36.01800
H  26.54300 53.50400 34.94200
N  31.96400 56.93400 40.83300
C  32.68000 55.96500 40.15700
C  34.08800 56.37800 40.22600
C  34.15000 57.65000 40.85100
C  32.76200 58.01800 41.14300
C  35.16400 55.58000 39.51300
C  35.47200 58.37100 41.22300
O  36.54900 57.97400 40.75700
C  35.54500 59.56600 42.13500
N  29.80400 59.04200 41.50800
C  30.93000 59.74600 41.74800
C  30.60400 61.16400 42.13300
C  29.06300 61.26600 42.30200
C  28.70100 59.88600 41.81700
C  31.41600 61.70600 43.32900
C  28.40500 62.52300 41.60000
C  27.24500 63.11300 42.40600
N  27.75700 57.22800 40.96600
C  26.96100 58.15000 41.34300
C  25.58200 57.70700 41.18200
C  25.67700 56.52600 40.51000
C  27.00800 56.30500 40.31100
C  24.27000 58.39500 41.50600
C  24.88300 55.44400 39.94500
O  23.67300 55.32100 39.84100
C  25.96700 54.51600 39.39600
C  25.80000 53.31000 40.22300
O  26.35200 53.01000 41.23700
O  24.82400 52.53700 39.67300
C  24.46300 51.23800 40.27100
H  32.78700 54.19400 38.85600
H  33.08600 59.88200 41.87900
H  26.50400 60.02600 42.04700
H  28.22800 52.70100 38.55800
H  30.97800 53.58200 37.34700
H  30.01700 51.23200 38.91300
H  31.47200 52.07500 39.64200
H  31.53100 51.66700 38.00600
H  29.18100 54.11000 36.27500
H  27.73900 54.93700 36.67500
H  26.88400 52.35600 36.77500
H  28.19900 52.27400 35.50700
H  35.28800 54.74700 40.20500
H  36.06800 56.12900 39.24900
H  34.70800 55.21300 38.59400
H  35.42300 60.46100 41.52400
H  36.52400 59.58700 42.61300
H  34.81500 59.46300 42.93700
H  30.93900 61.80800 41.32000
H  28.80300 61.32900 43.35800
H  32.09800 60.93300 43.68300
H  30.72100 62.15200 44.04100
H  32.06500 62.50600 42.97200
H  28.04000 62.09400 40.66700
H  29.20200 63.23400 41.38200
H  26.31200 63.01800 41.85200
H  27.38700 64.17700 42.59800
H  27.17300 62.46600 43.28100
H  23.51200 58.03800 40.80900
H  24.39000 59.45400 41.27600
H  24.01700 58.15700 42.53900
H  25.59700 54.25400 38.40500
H  24.36900 51.27000 41.35600
H  25.20700 50.45900 40.10400
H  23.54000 50.93600 39.77700
Mg 9.11700 47.74900 25.48500
C  6.90400 48.12800 28.12600
C  11.65300 48.57800 27.63400
C  11.24100 47.05100 22.99700
C  6.38300 47.41500 23.28400
N  9.26700 48.10400 27.63800
C  8.23300 48.12100 28.55800
C  8.69800 48.37400 29.97800
C  10.12600 49.00700 29.69100
C  10.41700 48.46000 28.24100
C  10.26800 50.61500 29.87900
C  8.75100 47.12000 30.88500
C  9.06400 47.48800 32.35200
H  9.24600 46.33000 33.33500
N  11.14100 47.77300 25.32700
C  12.02700 48.24600 26.30700
C  13.34300 48.16400 25.79300
C  13.25400 47.53500 24.49400
C  11.83000 47.42300 24.22900
C  14.59500 48.50800 26.58900
C  14.41900 47.21900 23.60400
O  14.31400 46.65400 22.49000
C  15.79700 47.41700 24.04700
N  8.84800 47.36700 23.44800
C  9.87800 46.99400 22.68700
C  9.41300 46.50100 21.30200
C  7.91300 46.51200 21.42800
C  7.67400 47.21400 22.81200
C  9.99700 47.39100 20.17300
C  7.39600 45.06700 21.30800
C  6.01300 44.97500 20.72900
N  7.06900 47.93800 25.54900
C  6.02200 47.81500 24.57900
C  4.76400 48.01200 25.24800
C  5.09000 48.17300 26.57900
C  6.44600 48.06300 26.78400
C  3.38600 47.86800 24.67100
C  4.48400 48.45300 27.85700
O  3.29300 48.58800 28.08600
C  5.63600 48.32600 28.96100
C  5.46500 47.27500 29.85900
O  5.47300 46.05100 29.54800
O  5.26500 47.68700 31.10500
C  5.29800 46.71900 32.19700
H  12.40700 49.00900 28.29500
H  11.90400 46.62100 22.24200
H  5.53900 47.28200 22.60400
H  8.06200 49.10400 30.47900
H  10.93300 48.59800 30.30000
H  9.26500 51.00700 30.05300
H  10.67600 51.17000 29.03400
H  10.98500 50.85800 30.66300
H  9.54700 46.47800 30.50800
H  7.87400 46.48900 30.74200
H  8.18400 48.06600 32.63500
H  9.92600 48.14900 32.44100
H  14.38700 48.79900 27.61800
H  15.09800 49.38500 26.18300
H  15.32200 47.69900 26.67300
H  16.14000 46.88100 24.93200
H  15.83500 48.48100 24.28200
H  16.40300 47.09000 23.20200
H  9.85300 45.52900 21.08000
H  7.57300 47.24800 20.69900
H  11.03500 47.69900 20.29700
H  9.30500 48.23100 20.11400
H  9.86800 46.90800 19.20400
H  7.25800 44.78900 22.35300
H  8.09600 44.43400 20.76300
H  5.25300 44.44500 21.30200
H  6.07700 44.51200 19.74400
H  5.53100 45.93600 20.55000
H  3.24300 48.73700 24.03000
H  2.74300 47.86800 25.55100
H  3.33600 46.97500 24.04700
H  5.76500 49.29200 29.44900
H  4.34300 46.61800 32.71300
H  5.97800 47.08900 32.96400
H  5.59700 45.68100 32.05500

