158

Mg 8.48200 3.39500 27.78500
C  9.96200 1.95100 30.72200
C  6.48200 5.09800 30.17400
C  7.06200 4.68700 25.28600
C  10.40300 1.33900 25.84500
N  8.13200 3.30200 30.29300
C  8.92200 2.73300 31.22100
C  8.44800 3.02700 32.63100
C  7.34200 4.10800 32.34000
C  7.28300 4.11400 30.85600
C  5.86100 3.71300 32.94500
C  9.55800 3.39100 33.60800
C  9.26900 4.53400 34.60400
H  9.97000 4.29800 35.96100
N  6.94200 4.66600 27.70500
C  6.27300 5.27300 28.78500
C  5.31500 6.27000 28.19100
C  5.57500 6.27800 26.80100
C  6.55600 5.14100 26.58000
C  4.29400 7.12700 28.96700
C  5.04900 7.15100 25.72400
O  5.49700 7.18300 24.54300
C  3.88100 7.98600 26.01600
N  8.59500 2.95400 25.74900
C  7.93500 3.70000 24.88600
C  8.34800 3.36400 23.45900
C  9.58600 2.47000 23.70500
C  9.49300 2.17200 25.19500
C  7.20400 2.56500 22.66500
C  10.88700 3.14100 23.32600
C  11.72300 3.92100 24.32400
N  9.81700 1.90700 28.12600
C  10.49500 1.11400 27.21400
C  11.43000 0.26600 27.83600
C  11.28300 0.57500 29.21700
C  10.28900 1.58800 29.37500
C  12.30700 -0.83900 27.26100
C  11.77900 0.21000 30.52200
O  12.72700 -0.50900 30.77400
C  10.91300 1.10500 31.53600
C  10.09000 0.16700 32.30200
O  9.17800 -0.45800 31.89600
O  10.49900 0.18200 33.61000
C  9.82200 -0.67100 34.58100
H  5.87100 5.78500 30.76400
H  6.64800 5.12800 24.37800
H  11.16400 0.86200 25.22400
H  8.10200 2.02200 32.87300
H  7.58100 5.11600 32.67900
H  5.18500 3.21900 32.24700
H  5.44600 4.66100 33.28700
H  5.91800 3.09000 33.83700
H  10.42800 3.53900 32.96900
H  9.65300 2.53500 34.27700
H  8.18900 4.64700 34.70100
H  9.69000 5.47400 34.24700
H  3.33800 6.60800 28.90000
H  4.30700 8.15000 28.59300
H  4.52200 7.24700 30.02700
H  3.58800 8.40200 25.05200
H  4.27600 8.81400 26.60500
H  3.11400 7.44800 26.57400
H  8.54000 4.20600 22.79400
H  9.66300 1.52800 23.16200
H  6.40800 2.59000 23.40900
H  7.31800 1.51400 22.39900
H  6.86200 3.17900 21.83200
H  10.69800 3.85400 22.52400
H  11.53700 2.39600 22.86600
H  11.15500 4.35800 25.14400
H  12.30100 4.71000 23.84400
H  12.38100 3.09500 24.59500
H  12.20600 -1.64700 27.98600
H  13.35500 -0.57600 27.39900
H  12.06300 -1.18400 26.25600
H  11.58900 1.64300 32.20100
H  9.53900 -0.01900 35.40700
H  10.48200 -1.34900 35.12200
H  8.93500 -1.08400 34.09900
Mg 24.13000 -5.88600 45.68100
C  26.40300 -3.58900 44.27500
C  21.70600 -4.57100 43.70300
C  22.37200 -8.82500 45.95700
C  26.95300 -7.57300 47.02800
N  24.07200 -4.32500 44.26200
C  25.08500 -3.55000 43.81500
C  24.65800 -2.59400 42.66800
C  23.08200 -2.63400 42.82200
C  22.85800 -3.89200 43.70500
C  22.31800 -1.35600 43.25300
C  25.22100 -3.11400 41.34100
C  26.10300 -2.14000 40.42900
H  25.85800 -1.99100 38.93700
N  22.22300 -6.56600 45.07800
C  21.39400 -5.85400 44.22900
C  20.17900 -6.61600 43.98000
C  20.27600 -7.79800 44.81200
C  21.67400 -7.77600 45.34100
C  19.15800 -6.11100 42.98800
C  19.19600 -8.83100 45.01200
O  18.12900 -8.73300 44.48900
C  19.31400 -9.81200 46.03400
N  24.65200 -7.93000 46.37000
C  23.72200 -8.91400 46.41200
C  24.34500 -10.24200 47.00000
C  25.82400 -9.88000 47.12500
C  25.82200 -8.34200 46.93800
C  23.69100 -10.83900 48.31300
C  26.69400 -10.57700 45.98400
C  26.83500 -12.14700 46.06400
N  26.26700 -5.47700 45.94300
C  27.19900 -6.29900 46.50900
C  28.48100 -5.54900 46.41000
C  28.25300 -4.58500 45.47800
C  26.88500 -4.55400 45.20100
C  29.76200 -5.85700 47.03800
C  28.81900 -3.52200 44.66900
O  29.99800 -3.13300 44.64400
C  27.64700 -2.77700 43.91100
C  27.54300 -1.29600 44.44300
O  26.56100 -0.74600 44.87100
O  28.79600 -0.63500 44.41300
C  29.02300 0.61000 45.24100
H  20.89100 -4.03500 43.21200
H  21.80600 -9.74600 46.11500
H  27.76100 -8.17200 47.45300
H  25.04400 -1.59800 42.88600
H  22.75700 -2.76700 41.78900
H  22.98400 -0.56200 43.59000
H  21.49600 -1.58800 43.93000
H  21.90900 -0.87200 42.36600
H  24.42400 -3.59600 40.77600
H  25.84700 -3.96300 41.61800
H  27.12900 -2.49700 40.34100
H  26.14400 -1.14500 40.87200
H  18.59600 -6.97700 42.63800
H  19.62400 -5.47600 42.23400
H  18.38400 -5.46500 43.40200
H  18.37200 -10.33700 46.18600
H  19.65200 -9.41600 46.99100
H  19.98200 -10.51600 45.53800
H  24.40500 -10.96100 46.18300
H  26.27600 -10.10500 48.09100
H  23.16700 -11.78300 48.16000
H  22.93900 -10.22000 48.80200
H  24.44500 -11.02900 49.07800
H  27.67800 -10.10900 45.98300
H  26.09600 -10.23600 45.13900
H  26.57500 -12.42100 47.08700
H  27.85200 -12.40800 45.77200
H  26.24200 -12.80000 45.42200
H  30.14400 -6.85300 46.81600
H  29.68800 -5.71400 48.11600
H  30.48200 -5.09200 46.74500
H  27.92600 -2.68400 42.86100
H  29.87500 0.44300 45.90000
H  28.19100 0.88400 45.89000
H  29.37600 1.49500 44.71100

