158

Mg -11.41400 37.94500 42.34900
C  -8.94000 35.52700 41.95100
C  -9.41000 40.19100 40.51400
C  -13.86000 40.13800 42.32300
C  -13.57800 35.53300 43.75300
N  -9.47100 37.83300 41.29400
C  -8.64200 36.73100 41.24000
C  -7.40500 37.03400 40.49000
C  -7.38400 38.62900 40.47900
C  -8.81600 38.91500 40.77800
C  -6.49200 39.25400 41.63700
C  -7.28500 36.46800 39.01100
C  -5.91500 35.68700 38.81000
H  -4.93300 36.09400 37.64500
N  -11.60500 39.92200 41.62200
C  -10.66300 40.69400 40.93500
C  -11.21800 41.98100 40.62900
C  -12.50300 42.04800 41.23800
C  -12.66300 40.68700 41.84000
C  -10.46700 43.06500 39.83900
C  -13.44700 43.26900 41.26300
O  -13.20100 44.33700 40.71700
C  -14.67000 43.22300 42.10000
N  -13.50000 37.78800 42.84000
C  -14.21600 38.89700 42.77200
C  -15.68800 38.58000 43.28100
C  -15.66300 37.02500 43.60200
C  -14.16300 36.72900 43.37900
C  -16.23800 39.46200 44.45700
C  -16.56800 36.08000 42.82400
C  -17.01700 34.79100 43.58700
N  -11.30600 35.94500 42.93400
C  -12.22900 35.10800 43.48900
C  -11.55600 33.80300 43.71200
C  -10.23800 33.93300 43.16300
C  -10.17300 35.23800 42.69400
C  -12.12500 32.62500 44.40400
C  -8.94300 33.30100 42.97800
O  -8.46200 32.23300 43.44500
C  -8.06400 34.32800 42.10400
C  -6.82100 34.59100 42.99900
O  -5.79300 33.91800 43.05000
O  -6.88100 35.76300 43.68600
C  -5.65000 36.21800 44.23300
H  -8.77100 40.92700 40.02100
H  -14.69200 40.76800 42.00200
H  -14.35600 34.92700 44.22000
H  -6.56300 36.74600 41.11800
H  -7.17500 39.00800 39.47800
H  -5.53300 39.53200 41.19800
H  -6.44000 38.69100 42.56800
H  -6.96600 40.19900 41.90300
H  -7.22300 37.35300 38.37800
H  -8.08700 35.79100 38.71600
H  -6.19700 34.66300 38.56900
H  -5.40200 35.46800 39.74600
H  -9.94000 43.73900 40.51400
H  -11.09400 43.73700 39.25200
H  -9.83600 42.61900 39.07000
H  -14.64800 42.56100 42.96500
H  -15.53300 43.31600 41.44100
H  -14.55800 44.21300 42.54200
H  -16.42300 38.61600 42.47700
H  -15.79000 36.75700 44.65000
H  -15.48600 39.94600 45.08100
H  -16.84900 38.90700 45.17000
H  -16.84000 40.27100 44.04600
H  -15.99700 35.80600 41.93600
H  -17.49600 36.51800 42.45700
H  -18.10600 34.73800 43.58600
H  -16.69300 34.82800 44.62700
H  -16.68100 33.86900 43.11300
H  -11.45000 31.78700 44.22900
H  -13.14100 32.39900 44.07900
H  -12.16100 32.81700 45.47600
H  -7.85200 33.90500 41.12200
H  -5.70400 37.29000 44.42400
H  -4.74800 36.18300 43.62300
H  -5.46300 35.62400 45.12800
Mg -5.12800 25.07400 26.30600
C  -3.59600 26.28000 29.23700
C  -7.13400 23.10400 28.31200
C  -6.23000 23.51000 23.53900
C  -2.87700 26.90700 24.41800
N  -5.35100 24.76000 28.55800
C  -4.63600 25.45300 29.54300
C  -5.17400 25.00300 30.91200
C  -6.23500 23.90000 30.56600
C  -6.25500 23.91100 29.07000
C  -5.90300 22.40200 31.07700
C  -5.82700 26.15400 31.71800
C  -5.95900 26.12700 33.23000
H  -5.19600 24.92800 33.96000
N  -6.48800 23.54700 25.96300
C  -7.28400 22.85700 26.89500
C  -8.05400 21.84000 26.22300
C  -7.77500 21.89900 24.86200
C  -6.76800 23.01800 24.71700
C  -8.93100 20.90700 26.95600
C  -8.35600 21.09400 23.76700
O  -8.15100 21.27300 22.58200
C  -9.27700 19.96900 24.15000
N  -4.61800 25.15900 24.28800
C  -5.28900 24.46800 23.28800
C  -4.62400 24.78800 21.89900
C  -3.83500 26.07500 22.25900
C  -3.73900 26.04700 23.75000
C  -3.79200 23.57700 21.36400
C  -4.50500 27.37100 21.75200
C  -3.40100 28.29500 21.07100
N  -3.64200 26.30000 26.68700
C  -2.76600 26.99000 25.83800
C  -1.82300 27.81500 26.53200
C  -2.16100 27.56400 27.85000
C  -3.21600 26.64000 27.94900
C  -0.75000 28.64200 25.72000
C  -1.78300 28.02700 29.15900
O  -0.94200 28.82600 29.51700
C  -2.71700 27.16100 30.16000
C  -1.89100 26.43200 31.15000
O  -1.23000 25.40900 30.99100
O  -1.97600 27.09900 32.35600
C  -1.27800 26.36000 33.46200
H  -7.68000 22.39600 28.94000
H  -6.44100 22.94200 22.63100
H  -2.20000 27.55800 23.86100
H  -4.30600 24.56500 31.40500
H  -7.20800 24.17000 30.97600
H  -5.26100 22.35900 31.95700
H  -5.37400 21.81600 30.32500
H  -6.82600 21.83900 31.21300
H  -6.86000 26.23200 31.37800
H  -5.34000 27.08400 31.42500
H  -6.99200 25.99200 33.55000
H  -5.62000 27.09600 33.59700
H  -8.55900 19.89000 26.83000
H  -9.94900 21.01700 26.58100
H  -8.83100 21.10800 28.02300
H  -8.76500 19.22000 24.75300
H  -9.44300 19.39400 23.23900
H  -10.26200 20.21100 24.55000
H  -5.39800 25.01900 21.16700
H  -2.82600 26.00000 21.85200
H  -2.79000 23.78200 20.98700
H  -4.27700 23.09500 20.51500
H  -3.66000 22.81400 22.13100
H  -5.00300 27.92700 22.54700
H  -5.29900 27.22300 21.02100
H  -2.79700 27.75400 20.34300
H  -2.65800 28.65900 21.78000
H  -3.87000 29.11000 20.51900
H  -0.18200 27.93200 25.12000
H  -0.02800 29.11300 26.38800
H  -1.12800 29.53200 25.21600
H  -3.25300 27.95800 30.67500
H  -0.81000 25.38700 33.31300
H  -1.87200 26.22300 34.36600
H  -0.50300 27.06400 33.76400

