158

Mg 47.92300 15.13800 27.95600
C  45.50800 14.95300 30.57300
C  49.66800 17.34000 29.81200
C  50.03600 15.46100 25.28600
C  45.49200 13.59700 25.84800
N  47.55200 16.13000 29.86300
C  46.58700 15.79100 30.82900
C  46.87000 16.36500 32.20900
C  47.95000 17.47200 31.79700
C  48.53600 16.84500 30.48300
C  47.39400 19.00800 31.63000
C  47.33700 15.20900 33.08700
C  47.03300 15.45400 34.61700
H  48.20800 15.24600 35.64100
N  49.67500 16.22900 27.60800
C  50.23500 17.05600 28.57900
C  51.49800 17.49300 28.12400
C  51.55800 17.08400 26.77300
C  50.39100 16.17100 26.49400
C  52.34700 18.42500 28.86000
C  52.68600 17.36100 25.80300
O  52.53600 16.95400 24.65500
C  53.92800 18.24900 26.06500
N  47.78200 14.65000 25.85900
C  48.84200 14.76700 25.01100
C  48.43100 14.29100 23.54500
C  47.04900 13.60100 23.78800
C  46.71300 14.06700 25.23200
C  48.25400 15.37800 22.52100
C  47.03500 12.06300 23.77900
C  45.86300 11.34000 23.11300
N  45.98600 14.28400 28.08400
C  45.12300 13.69900 27.19900
C  43.98500 13.12300 27.95400
C  44.17600 13.53100 29.22200
C  45.30200 14.33200 29.29200
C  42.83600 12.29500 27.47500
C  43.63000 13.50100 30.55500
O  42.72500 12.89200 30.93400
C  44.46300 14.40600 31.52400
C  43.58000 15.49000 32.00600
O  42.93700 16.30400 31.32900
O  43.41300 15.37600 33.35600
C  42.59700 16.42200 33.94300
H  50.08000 18.11800 30.45800
H  50.67500 15.52700 24.40300
H  44.66100 13.20500 25.25800
H  46.02000 16.86000 32.67900
H  48.80300 17.51800 32.47500
H  47.27900 19.17600 30.56000
H  48.18700 19.68600 31.94400
H  46.37100 19.16800 31.97300
H  48.42300 15.14500 33.02000
H  47.13600 14.26200 32.58700
H  46.25600 14.71400 34.81200
H  46.72600 16.49700 34.69600
H  52.27700 18.47200 29.94700
H  52.20900 19.45400 28.52900
H  53.38000 18.15200 28.64000
H  53.71600 19.24700 26.45000
H  54.47300 18.32700 25.12400
H  54.42600 17.67800 26.84900
H  49.19600 13.60300 23.18500
H  46.24200 13.96200 23.15000
H  48.59300 16.29900 22.99400
H  47.27900 15.49300 22.04700
H  48.91200 15.20200 21.67000
H  47.25600 11.69500 24.78100
H  47.89000 11.69700 23.21100
H  45.17100 11.97400 22.55800
H  45.21700 10.97100 23.91000
H  46.11900 10.53400 22.42500
H  43.15200 11.90500 26.50700
H  42.05400 13.05400 27.48800
H  42.62900 11.62300 28.30700
H  44.95600 13.89800 32.35300
H  43.15800 17.35500 33.87800
H  42.44900 16.32700 35.01900
H  41.64600 16.45100 33.41200
Mg 7.06600 57.13100 41.37700
C  6.32600 53.80000 41.12600
C  10.23200 56.48200 40.31600
C  7.74900 60.51800 41.09800
C  3.77300 57.83000 42.09800
N  8.06900 55.36900 40.65000
C  7.56900 54.08200 40.60800
C  8.54300 53.11400 39.91300
C  9.89000 53.85100 40.07300
C  9.37700 55.35800 40.39400
C  10.84100 53.24000 41.06400
C  8.11800 52.86100 38.44000
C  8.39600 51.45300 37.78200
H  9.41000 51.14500 36.71800
N  8.78300 58.32100 40.84900
C  10.02000 57.84000 40.55200
C  10.96700 58.96500 40.36200
C  10.23900 60.18900 40.61300
C  8.90100 59.72100 40.85900
C  12.41700 58.83900 40.11000
C  10.80400 61.60600 40.56400
O  12.01200 61.86700 40.36400
C  9.90600 62.89700 40.71700
N  5.90000 58.93700 41.39100
C  6.40900 60.17600 41.38400
C  5.34700 61.24600 41.72000
C  4.07100 60.39300 42.07600
C  4.58600 58.96200 41.81000
C  5.73600 62.28200 42.83000
C  2.85400 60.82600 41.21900
C  1.40100 60.77100 41.85600
N  5.29500 56.04500 41.57700
C  4.02600 56.46200 41.93100
C  3.31100 55.22500 42.33400
C  4.19100 54.16500 42.02100
C  5.28900 54.73800 41.54500
C  1.99900 55.10500 43.11700
C  4.35200 52.72200 41.97100
O  3.73400 51.74200 42.40400
C  5.72800 52.44500 41.24400
C  5.40900 51.76400 39.98800
O  4.69700 52.22000 39.11400
O  6.02400 50.51900 39.87400
C  5.54800 49.73100 38.74500
H  11.26600 56.28800 40.02300
H  7.83400 61.60100 40.98400
H  2.77300 57.99800 42.50100
H  8.50600 52.17200 40.45900
H  10.54300 53.77700 39.20300
H  10.23100 52.78400 41.84400
H  11.43100 53.98700 41.59300
H  11.53700 52.49800 40.67300
H  8.57900 53.65300 37.85100
H  7.03500 52.85100 38.31900
H  7.42900 51.17700 37.36100
H  8.51900 50.63300 38.49100
H  12.58100 59.06400 39.05600
H  12.96100 57.95000 40.43200
H  12.79600 59.63400 40.75300
H  9.44800 62.82900 41.70400
H  9.16100 63.09500 39.94700
H  10.51800 63.79500 40.62900
H  5.29900 61.70400 40.73200
H  3.78800 60.46400 43.12600
H  5.80800 63.31800 42.49900
H  6.70600 61.97400 43.22000
H  4.98500 62.14900 43.60800
H  2.79700 60.21800 40.31600
H  2.89500 61.86100 40.87800
H  0.94100 61.66700 41.44000
H  1.40200 60.77600 42.94600
H  0.83500 59.89600 41.53600
H  1.96000 55.70400 44.02700
H  1.72100 54.08300 43.37800
H  1.20900 55.51300 42.48700
H  6.33100 51.77200 41.85300
H  4.64200 49.19900 39.03600
H  6.22700 48.95600 38.38800
H  5.22400 50.14400 37.79100

