158

Mg 2.77700 -0.51000 43.32700
C  6.15000 -0.15400 42.21500
C  2.13400 2.51600 41.75700
C  -0.56400 -1.33000 43.22600
C  3.52800 -3.39000 44.69000
N  3.99900 0.91300 41.93100
C  5.36600 0.90100 41.71800
C  5.76200 2.06200 40.82500
C  4.66800 3.11000 41.23400
C  3.49700 2.13600 41.66300
C  5.02100 4.14000 42.32600
C  5.80900 1.69500 39.30800
C  6.98800 2.21600 38.40100
H  6.50800 2.49900 36.98200
N  0.97200 0.54500 42.71100
C  0.93400 1.76200 42.11200
C  -0.44900 2.06600 41.86500
C  -1.28500 0.96700 42.18600
C  -0.28100 -0.00800 42.77500
C  -0.78600 3.32800 41.31000
C  -2.77100 0.84300 41.95100
O  -3.45500 1.66800 41.27300
C  -3.55700 -0.32400 42.42300
N  1.62300 -2.06700 43.90000
C  0.28700 -2.13100 43.91500
C  -0.17000 -3.47100 44.56700
C  1.07600 -4.02000 45.29600
C  2.13100 -3.12700 44.61200
C  -1.36000 -3.15100 45.63400
C  1.29100 -5.58600 45.24500
C  1.34300 -6.20000 46.63000
N  4.49600 -1.68100 43.42200
C  4.64000 -2.83000 44.12600
C  6.04800 -3.19400 43.99200
C  6.71000 -2.23500 43.21700
C  5.70300 -1.29800 42.93400
C  6.80600 -4.34600 44.51600
C  7.96100 -1.73300 42.59700
O  9.12800 -2.12600 42.59000
C  7.60500 -0.38100 41.94400
C  8.57400 0.71800 42.42700
O  8.90500 0.96200 43.59200
O  9.01500 1.40700 41.35300
C  9.90900 2.58700 41.55400
H  2.07400 3.56800 41.47000
H  -1.55700 -1.75900 43.08000
H  3.85200 -4.20400 45.34200
H  6.71600 2.56200 40.98900
H  4.51000 3.67400 40.31400
H  4.18800 4.20700 43.02600
H  5.13500 5.18200 42.02600
H  5.92200 3.83000 42.85500
H  4.96800 2.13400 38.77100
H  5.63300 0.64100 39.09100
H  7.83300 1.53500 38.30800
H  7.28500 3.16200 38.85500
H  -0.60100 3.43400 40.24100
H  -0.20600 4.09900 41.81800
H  -1.80400 3.58300 41.60500
H  -4.61200 -0.05300 42.41400
H  -3.27800 -0.71200 43.40300
H  -3.33100 -1.11600 41.70900
H  -0.54800 -4.13200 43.78700
H  1.03600 -3.70600 46.33900
H  -1.05100 -3.41300 46.64600
H  -2.23500 -3.65500 45.22200
H  -1.70800 -2.11900 45.61300
H  2.19400 -5.89900 44.72100
H  0.51100 -6.14800 44.73200
H  0.83100 -7.16100 46.68800
H  1.12600 -5.52400 47.45600
H  2.38000 -6.48900 46.80200
H  7.20700 -4.87500 43.65200
H  6.14300 -4.94900 45.13600
H  7.57400 -4.00600 45.21100
H  7.80900 -0.39400 40.87400
H  9.57000 3.32300 40.82500
H  10.98200 2.43500 41.43800
H  9.75800 3.02200 42.54200
Mg -4.74900 24.86800 26.84900
C  -3.60300 26.89300 29.58800
C  -5.97300 22.60800 29.11500
C  -5.83800 23.02900 24.21400
C  -3.55700 27.33300 24.74600
N  -4.87200 24.85800 29.07600
C  -4.34500 25.75100 30.02500
C  -4.75600 25.26700 31.44600
C  -5.25900 23.80800 31.25500
C  -5.34600 23.73600 29.72500
C  -4.39800 22.69800 31.89000
C  -5.90800 26.24600 32.04000
C  -5.86400 26.51200 33.54500
H  -5.70200 25.18800 34.28600
N  -5.58700 23.00100 26.66400
C  -6.06800 22.30500 27.76300
C  -6.66100 21.02200 27.25100
C  -6.64900 21.16600 25.83000
C  -5.97600 22.40600 25.46400
C  -7.30800 19.96200 28.07800
C  -7.11400 20.19100 24.75300
O  -6.73000 20.30400 23.55900
C  -7.76600 18.87300 25.13800
N  -4.74700 25.17200 24.72200
C  -5.35200 24.30700 23.87300
C  -5.47500 24.90800 22.46900
C  -4.55600 26.21400 22.66600
C  -4.32000 26.29100 24.11200
C  -4.96800 23.99500 21.29600
C  -5.05500 27.56200 22.08200
C  -5.67000 27.43200 20.67200
N  -3.63600 26.61300 27.01800
C  -3.24900 27.56800 26.10300
C  -2.54500 28.66200 26.66800
C  -2.66700 28.43700 28.10100
C  -3.33200 27.17500 28.22600
C  -1.71400 29.77000 25.96000
C  -2.28600 28.97900 29.38800
O  -1.61700 29.94800 29.69800
C  -2.90900 27.98500 30.43200
C  -1.78500 27.39800 31.30600
O  -0.91400 26.56500 30.99600
O  -1.96300 27.78200 32.58200
C  -0.91800 27.24300 33.51400
H  -6.41000 21.85600 29.77600
H  -6.29700 22.60000 23.32000
H  -3.20000 28.07000 24.02400
H  -3.85700 25.35600 32.05600
H  -6.21900 23.73100 31.76600
H  -4.87700 22.64400 32.86700
H  -3.33400 22.88900 32.02500
H  -4.53800 21.76600 31.34300
H  -6.87200 25.79700 31.80200
H  -5.91300 27.23800 31.58700
H  -6.75300 27.04100 33.88900
H  -4.99700 27.14700 33.72800
H  -6.83800 18.98000 28.02600
H  -8.34000 19.83900 27.74900
H  -7.54100 20.28800 29.09200
H  -8.00800 18.36500 24.20500
H  -8.78500 19.14700 25.41500
H  -7.24500 18.33600 25.93000
H  -6.53700 25.08800 22.29900
H  -3.61600 26.00100 22.15600
H  -4.34700 24.63500 20.66900
H  -5.82900 23.65000 20.72500
H  -4.33200 23.15900 21.58600
H  -4.23800 28.26900 21.93600
H  -5.74400 28.13100 22.70700
H  -5.05800 27.88000 19.88900
H  -6.67200 27.85500 20.74500
H  -5.92700 26.44500 20.28700
H  -1.96500 30.70500 26.46200
H  -2.09900 29.84900 24.94300
H  -0.65300 29.55600 26.09000
H  -3.55500 28.52700 31.12300
H  0.05900 27.20500 33.03100
H  -1.05300 26.18300 33.73100
H  -0.76900 27.95400 34.32700

