158

Mg 2.88600 -1.90100 44.48600
C  6.05700 -0.55300 44.07100
C  1.51200 0.81100 43.06300
C  -0.17400 -3.49300 44.61300
C  4.37500 -4.96000 45.45200
N  3.71700 -0.12400 43.69500
C  5.02200 0.23300 43.62200
C  5.13400 1.67400 43.14900
C  3.64400 2.05600 42.80600
C  2.87300 0.85200 43.24100
C  3.13500 3.35000 43.52300
C  6.17300 2.05600 42.00400
C  5.82800 1.41000 40.61800
H  6.97400 0.65200 39.90000
N  0.91500 -1.35400 43.96900
C  0.57900 -0.19300 43.37300
C  -0.80700 -0.21900 43.14100
C  -1.34700 -1.40900 43.66300
C  -0.22600 -2.12900 44.17300
C  -1.49400 0.90800 42.47900
C  -2.76800 -1.78700 43.56800
O  -3.51800 -0.90900 43.24900
C  -3.35600 -3.07600 43.86600
N  2.20200 -3.94400 44.87200
C  0.90100 -4.35900 44.94500
C  0.77200 -5.83000 45.30800
C  2.17600 -6.33600 45.45700
C  2.97400 -5.02000 45.26000
C  -0.13500 -6.15000 46.55700
C  2.60800 -7.54200 44.54700
C  2.95800 -8.87600 45.29200
N  4.78500 -2.65900 44.89200
C  5.29100 -3.85600 45.29800
C  6.66000 -3.81700 45.60000
C  7.02800 -2.53300 45.02000
C  5.84500 -1.89000 44.58700
C  7.46500 -4.80200 46.39000
C  8.12400 -1.63500 44.83600
O  9.35300 -1.80400 45.03400
C  7.57100 -0.22400 44.24800
C  7.82900 0.82200 45.37400
O  7.64800 0.61500 46.56800
O  8.40600 1.94000 44.84100
C  8.60200 3.07000 45.77500
H  1.15200 1.80900 42.80500
H  -1.16900 -3.93500 44.53000
H  4.87800 -5.83800 45.86300
H  5.44900 2.30300 43.98200
H  3.57200 2.38900 41.77000
H  2.24400 3.20400 44.13300
H  2.84300 4.07600 42.76300
H  3.86600 3.81700 44.18200
H  7.19800 1.78800 42.26000
H  6.11600 3.11100 41.73600
H  5.45400 2.21700 39.98900
H  5.04000 0.66400 40.72300
H  -2.01600 0.58800 41.57700
H  -0.83000 1.73700 42.23400
H  -2.22700 1.30600 43.18100
H  -2.83900 -3.90600 43.38600
H  -4.39600 -2.93500 43.57200
H  -3.27100 -3.11400 44.95200
H  0.12200 -6.14900 44.49300
H  2.35600 -6.49500 46.52100
H  -1.17800 -5.95900 46.30600
H  0.05800 -5.45600 47.37500
H  0.04500 -7.18700 46.83900
H  3.42700 -7.16100 43.93700
H  1.70400 -7.67600 43.95300
H  2.53800 -9.79500 44.88300
H  2.59500 -8.78000 46.31500
H  4.03700 -9.02800 45.27500
H  8.44700 -4.56900 46.80200
H  7.56200 -5.67700 45.74700
H  6.76200 -5.20400 47.12000
H  8.10300 0.05800 43.34000
H  9.20500 2.68200 46.59700
H  7.68800 3.43700 46.24200
H  9.09700 3.94000 45.34200
Mg 9.58600 48.11200 26.38500
C  7.68600 47.86800 29.24700
C  12.33800 49.08200 28.22100
C  11.25200 48.54500 23.45900
C  6.73400 47.28800 24.50100
N  9.89000 48.47900 28.52600
C  9.04300 48.24700 29.52900
C  9.67600 48.51400 30.86800
C  11.12200 49.10400 30.51900
C  11.13600 48.89600 28.98300
C  11.44000 50.60200 30.98800
C  9.77300 47.40400 32.02000
C  10.56400 47.70800 33.24000
H  9.95300 47.45000 34.61400
N  11.53300 48.63400 25.86500
C  12.51600 48.96700 26.80700
C  13.72500 49.08400 26.11500
C  13.45800 48.99200 24.69400
C  12.00600 48.69100 24.60500
C  15.07300 49.39500 26.82300
C  14.44400 49.11500 23.50600
O  14.07700 49.26100 22.34100
C  15.92400 49.06100 23.72900
N  9.02100 48.18100 24.23000
C  9.93700 48.40100 23.25400
C  9.33100 48.22500 21.89300
C  7.95900 47.59700 22.22000
C  7.89500 47.58800 23.75500
C  9.30600 49.57400 21.16500
C  7.70200 46.18200 21.53700
C  7.84500 44.88600 22.39300
N  7.52200 47.88000 26.71400
C  6.54000 47.48100 25.85400
C  5.27600 47.21000 26.56900
C  5.69200 47.31200 27.94600
C  7.09600 47.66600 27.97000
C  3.91300 46.76600 26.10700
C  5.18800 47.26300 29.30400
O  4.05500 47.14100 29.80900
C  6.54600 47.52300 30.19900
C  6.74500 46.25600 30.97200
O  7.49400 45.35600 30.55100
O  6.09700 46.38500 32.18600
C  6.24000 45.07400 32.99800
H  13.11200 49.43500 28.90600
H  11.77600 48.58300 22.50200
H  5.81200 47.06400 23.96100
H  8.96200 49.29100 31.14200
H  11.98400 48.49700 30.79500
H  12.26500 50.65400 31.69900
H  10.61100 51.18000 31.39500
H  11.80000 51.26800 30.20400
H  9.97700 46.39200 31.67100
H  8.76900 47.27200 32.42500
H  10.90000 48.74500 33.21400
H  11.37500 46.98600 33.14400
H  15.57700 48.43000 26.76700
H  15.00300 49.61100 27.88900
H  15.62300 50.19100 26.32200
H  16.29700 49.77400 24.46500
H  16.37500 49.12300 22.73900
H  16.20500 48.04900 24.02100
H  9.94200 47.52700 21.32200
H  7.08100 48.16800 21.91900
H  8.27700 49.77600 20.86700
H  9.97800 49.58500 20.30700
H  9.53700 50.47800 21.72900
H  8.31200 46.12700 20.63500
H  6.66300 46.12600 21.21000
H  8.63600 44.30600 21.91800
H  6.89300 44.35800 22.34000
H  8.08300 45.10700 23.43300
H  3.89600 46.79900 25.01800
H  3.27100 47.53100 26.54400
H  3.71400 45.79000 26.55000
H  6.35700 48.30000 30.94100
H  5.29100 44.54200 32.94900
H  6.35500 45.23000 34.07100
H  6.89800 44.29700 32.60800

