158

Mg 25.20200 1.80900 30.11900
C  27.40100 1.71400 32.85800
C  22.59000 2.17400 32.36800
C  23.18700 1.81700 27.40200
C  27.87600 0.97600 27.93500
N  25.09300 2.13300 32.32300
C  26.10100 2.10400 33.21500
C  25.67800 2.48700 34.63700
C  24.14700 2.42900 34.52100
C  23.86700 2.20100 33.02500
C  23.39400 1.39800 35.46100
C  26.28500 3.78900 35.17600
C  26.92400 3.65800 36.56700
H  26.63600 4.71800 37.59000
N  23.12500 1.85500 29.88000
C  22.29500 2.02300 31.00900
C  20.96700 1.99400 30.36600
C  21.07100 1.86600 28.92500
C  22.50900 1.78800 28.72800
C  19.64600 2.13100 31.16300
C  19.98900 1.80500 27.83500
O  20.25600 1.54800 26.66600
C  18.56400 1.98100 28.15100
N  25.53800 1.33300 28.00900
C  24.52700 1.64600 27.03500
C  25.04100 1.54500 25.56700
C  26.60900 1.38400 25.83700
C  26.71800 1.27600 27.34600
C  24.38100 0.50100 24.64500
C  27.54000 2.50800 25.14900
C  27.61600 3.81100 25.98000
N  27.17500 1.42400 30.31500
C  28.11300 1.01500 29.38100
C  29.31800 0.57600 30.07800
C  29.16600 0.99500 31.43300
C  27.78300 1.46400 31.51500
C  30.53200 -0.01200 29.42300
C  29.76100 1.13300 32.68300
O  30.92000 1.05000 33.01500
C  28.67300 1.65900 33.66500
C  28.56300 0.70500 34.75500
O  27.86000 -0.35500 34.79900
O  29.30100 1.22400 35.81800
C  29.28800 0.52300 37.11300
H  21.77200 2.36800 33.06500
H  22.54100 1.77500 26.52200
H  28.71900 0.82500 27.25700
H  26.01200 1.65800 35.26200
H  23.64900 3.35700 34.79800
H  22.87100 0.59500 34.94100
H  22.62800 1.99800 35.95200
H  24.00200 0.99600 36.27200
H  25.47400 4.51400 35.11200
H  27.09000 4.01100 34.47600
H  28.00600 3.60500 36.44400
H  26.62300 2.67300 36.92400
H  19.03100 3.01800 31.01500
H  19.73700 1.96800 32.23700
H  19.01000 1.30300 30.85000
H  18.56000 2.93800 28.67400
H  18.32200 1.16300 28.82900
H  17.91500 1.94100 27.27600
H  24.89300 2.56200 25.20200
H  26.85400 0.40900 25.41800
H  23.96400 0.98900 23.76400
H  23.57000 -0.00900 25.16500
H  25.09400 -0.28400 24.39500
H  27.38800 2.54900 24.07000
H  28.57000 2.16700 25.25100
H  27.37900 4.62900 25.29900
H  28.63800 3.99400 26.31100
H  26.89100 3.86400 26.79200
H  30.85000 -0.84100 30.05500
H  31.36400 0.68400 29.31400
H  30.47300 -0.50600 28.45300
H  28.97000 2.61700 34.09400
H  28.47500 0.82800 37.77300
H  30.16700 0.83200 37.67900
H  29.54200 -0.53400 37.04500
Mg -11.85800 15.68100 41.93500
C  -8.60400 14.01300 41.88000
C  -10.37800 18.38700 40.57300
C  -14.83700 16.81600 41.43800
C  -13.19700 12.54500 42.92300
N  -9.83100 16.06300 41.18500
C  -8.70500 15.35700 41.43000
C  -7.46200 16.11400 40.83900
C  -7.98400 17.62300 40.90000
C  -9.51900 17.38000 40.88700
C  -7.57700 18.42200 42.18200
C  -7.11600 15.51000 39.34700
C  -5.67700 15.07600 39.24700
H  -4.93100 15.90400 38.24500
N  -12.51700 17.35600 41.10700
C  -11.75200 18.34300 40.57400
C  -12.64000 19.35200 40.10000
C  -13.97500 18.89500 40.23900
C  -13.82200 17.60500 40.99100
C  -12.13400 20.63100 39.42400
C  -15.13700 19.65900 39.74200
O  -14.98500 20.78200 39.23000
C  -16.50500 19.05400 39.75800
N  -13.69000 14.73800 42.03600
C  -14.81300 15.50700 41.98200
C  -16.14500 14.77700 42.35400
C  -15.63600 13.35800 42.71000
C  -14.08400 13.55200 42.53700
C  -16.88400 15.42000 43.58600
C  -16.15500 12.17800 41.73700
C  -16.20000 10.77800 42.32300
N  -11.03400 13.74600 42.46900
C  -11.76300 12.57600 42.80100
C  -10.77400 11.48700 43.06800
C  -9.54600 11.98600 42.73100
C  -9.72000 13.35200 42.31700
C  -11.09700 10.12800 43.66400
C  -8.13700 11.69300 42.55500
O  -7.57100 10.61300 42.77200
C  -7.47200 12.97900 42.07400
C  -6.49000 13.54500 43.05700
O  -6.62400 13.78900 44.23700
O  -5.30900 13.64800 42.43600
C  -4.22300 14.40100 43.05800
H  -9.80900 19.20800 40.13100
H  -15.84000 17.20600 41.25200
H  -13.71800 11.62300 43.18900
H  -6.62000 15.89700 41.49700
H  -7.75800 18.12300 39.95800
H  -6.58600 18.17500 42.56200
H  -8.28200 18.15400 42.96800
H  -7.61300 19.49900 42.01700
H  -7.42600 16.25900 38.61800
H  -7.73000 14.62800 39.16000
H  -5.71600 14.00200 39.06400
H  -5.03900 15.30300 40.10000
H  -12.43900 20.77100 38.38700
H  -11.04900 20.71000 39.35300
H  -12.50800 21.48800 39.98400
H  -17.14900 19.50900 39.00600
H  -16.95600 19.06900 40.74900
H  -16.36100 18.03200 39.40600
H  -16.89400 14.77500 41.56200
H  -15.80000 13.05800 43.74500
H  -17.92800 15.71000 43.46900
H  -16.30800 16.34200 43.67800
H  -16.81800 14.78300 44.46800
H  -15.55300 12.00500 40.84500
H  -17.09800 12.51900 41.31000
H  -16.98900 10.16900 41.88100
H  -16.30000 10.89700 43.40200
H  -15.23700 10.29700 42.15300
H  -11.64700 9.52200 42.94400
H  -11.80700 10.14400 44.49000
H  -10.14500 9.68400 43.95600
H  -6.93700 12.93100 41.12600
H  -3.51700 14.31100 42.23200
H  -3.77700 13.91300 43.92400
H  -4.55100 15.42300 43.25200

