158

Mg 0.49600 7.57300 26.10300
C  1.36200 9.46900 28.84700
C  0.65000 4.81900 28.25700
C  0.57000 5.52300 23.41300
C  1.31800 10.33800 23.97100
N  1.24900 7.19400 28.33700
C  1.03900 8.14800 29.22900
C  1.07100 7.60600 30.61800
C  1.10800 6.11200 30.38400
C  1.02700 6.01400 28.86300
C  2.33300 5.23700 30.83900
C  -0.16300 8.10600 31.39800
C  0.06900 8.17000 32.90500
H  1.28700 7.37300 33.51800
N  0.27300 5.52700 25.88000
C  0.28000 4.57600 26.88400
C  -0.12700 3.34300 26.30000
C  -0.11300 3.45700 24.89800
C  0.32800 4.85500 24.66100
C  -0.55100 2.18000 27.09000
C  -0.34200 2.36100 23.75400
O  -0.08500 2.53100 22.57500
C  -0.93700 1.15000 24.22200
N  0.97800 7.97600 23.96100
C  0.72200 6.94200 23.11500
C  0.59400 7.50800 21.67900
C  0.68300 9.05100 21.87700
C  1.03100 9.13100 23.31700
C  1.67500 7.02100 20.65500
C  -0.59700 9.81800 21.51300
C  -0.40000 11.01300 20.61200
N  1.12800 9.46800 26.32900
C  1.35300 10.51700 25.37200
C  1.63200 11.76500 26.09300
C  1.65300 11.30500 27.43500
C  1.35500 9.99200 27.54400
C  1.89100 13.17700 25.54200
C  1.78500 11.83100 28.79600
O  1.98000 12.95900 29.22100
C  1.59100 10.62600 29.79600
C  2.73000 10.46200 30.69900
O  3.80700 9.89000 30.46400
O  2.40300 11.11500 31.86500
C  3.44800 10.83400 32.89100
H  0.59800 4.03300 29.01300
H  0.31600 4.87000 22.57500
H  1.41500 11.27000 23.41100
H  2.00500 7.83000 31.13300
H  0.16700 5.69500 30.74400
H  2.79100 4.64900 30.04300
H  1.98200 4.61600 31.66300
H  3.16500 5.89600 31.08700
H  -0.96800 7.37700 31.30800
H  -0.47200 9.01100 30.87500
H  -0.84300 7.78000 33.35700
H  0.04800 9.18500 33.30200
H  -1.49800 1.73000 26.79400
H  -0.61100 2.48500 28.13500
H  0.30400 1.50300 27.09400
H  -1.11900 0.54400 23.33400
H  -1.93100 1.36400 24.61300
H  -0.26200 0.65600 24.92000
H  -0.39500 7.21600 21.32600
H  1.47100 9.45600 21.24300
H  1.37400 6.13000 20.10300
H  2.62200 6.92000 21.18400
H  1.85100 7.76000 19.87400
H  -0.93700 10.26700 22.44700
H  -1.39100 9.16300 21.15400
H  -0.80300 10.87400 19.60900
H  0.66300 11.25000 20.58000
H  -0.91900 11.92400 20.91200
H  2.92100 13.31900 25.21400
H  1.68200 13.96200 26.26900
H  1.25100 13.45600 24.70500
H  0.74800 10.99800 30.37800
H  2.98900 11.22300 33.80000
H  4.37000 11.34300 32.60900
H  3.47500 9.74400 32.90900
Mg 47.25400 15.27000 28.15900
C  45.09100 15.15700 30.84700
C  49.49600 17.07800 30.12000
C  49.01100 15.90900 25.34700
C  45.01500 13.40600 26.34800
N  47.19800 16.13400 30.23900
C  46.28300 15.78100 31.25200
C  46.74500 16.31100 32.66100
C  48.10000 17.07700 32.28500
C  48.27400 16.81200 30.79300
C  48.19300 18.64200 32.58100
C  46.90000 15.08900 33.59800
C  46.16900 15.16900 34.96500
H  45.96700 16.65700 35.43600
N  49.00100 16.29900 27.77300
C  49.83000 16.95300 28.72200
C  50.97900 17.27100 28.04600
C  50.85300 17.09400 26.67900
C  49.58800 16.41000 26.51400
C  52.06500 17.92200 28.71700
C  51.76900 17.47900 25.47000
O  51.46000 17.36000 24.29800
C  53.09000 18.10900 25.84800
N  47.13700 14.54500 26.15000
C  47.93100 15.04900 25.18800
C  47.52000 14.61200 23.71900
C  46.29300 13.73800 24.11300
C  46.08700 13.93800 25.61900
C  47.22200 15.79400 22.80100
C  46.30100 12.22100 23.72800
C  47.27600 11.50300 24.61900
N  45.45600 14.56300 28.46600
C  44.66400 13.73600 27.63000
C  43.39900 13.43200 28.22200
C  43.53300 13.99900 29.53500
C  44.85100 14.60700 29.60300
C  42.30400 12.59600 27.77500
C  42.84600 14.11300 30.82400
O  41.79000 13.58900 31.20200
C  43.85800 14.81700 31.76000
C  43.25000 16.08900 32.22600
O  43.41600 17.18100 31.66600
O  42.50000 15.97300 33.39600
C  41.88500 17.24000 33.67900
H  50.24200 17.58400 30.73800
H  49.45700 16.13700 24.37600
H  44.30600 12.78700 25.79400
H  45.96900 16.98400 33.02700
H  48.99100 16.66300 32.75600
H  49.18800 18.77300 33.00500
H  47.42100 18.89400 33.30800
H  48.07400 19.19100 31.64700
H  47.89100 14.93000 34.02300
H  46.51900 14.21800 33.06600
H  46.74800 14.74100 35.78400
H  45.21800 14.63700 34.99300
H  52.23000 18.96100 28.43200
H  53.01500 17.43100 28.50800
H  51.94600 17.97900 29.79900
H  53.64600 18.28800 24.92700
H  53.59600 17.30500 26.38100
H  53.00000 19.05600 26.38100
H  48.36800 14.04400 23.33400
H  45.46100 14.19800 23.58100
H  48.14900 16.11200 22.32300
H  46.85200 16.67500 23.32500
H  46.46200 15.54900 22.06000
H  46.49500 12.19900 22.65600
H  45.34200 11.71200 23.82400
H  48.03600 12.16300 25.03700
H  47.84800 10.77000 24.04900
H  46.66700 10.86800 25.26300
H  42.02800 12.74900 26.73200
H  41.41100 12.84600 28.34800
H  42.61900 11.56800 27.95700
H  43.95000 14.27900 32.70400
H  41.03500 17.16400 34.35700
H  41.53900 17.88400 32.87100
H  42.58900 17.84200 34.25400

