158

Mg 8.27700 3.94500 28.07900
C  9.58400 2.49600 30.90600
C  6.43900 6.13100 29.94000
C  7.16200 5.33500 25.23700
C  9.99800 1.55500 26.22400
N  8.11300 4.30200 30.18800
C  8.72300 3.61300 31.15900
C  8.39400 4.29900 32.52500
C  7.25600 5.30300 32.19600
C  7.21100 5.19500 30.64500
C  5.91500 5.14100 32.85700
C  9.62100 4.85700 33.17600
C  9.46700 5.81400 34.36000
H  10.35200 5.62400 35.57100
N  6.99400 5.52700 27.63200
C  6.35600 6.31600 28.56200
C  5.59700 7.37800 27.86600
C  5.74600 7.10300 26.44500
C  6.63000 5.94800 26.35500
C  4.96300 8.53200 28.60200
C  5.13200 7.76300 25.20800
O  5.26700 7.38500 24.02400
C  4.12400 8.88800 25.39900
N  8.51800 3.53400 26.01200
C  7.92300 4.19300 24.99000
C  8.34700 3.69200 23.60100
C  9.35300 2.60300 23.97800
C  9.27800 2.50800 25.50400
C  7.16700 3.31100 22.75800
C  10.81300 2.87400 23.46000
C  11.34200 1.82700 22.39400
N  9.45500 2.23600 28.40200
C  10.15700 1.42400 27.58800
C  10.99600 0.49100 28.35300
C  10.86300 0.94200 29.66400
C  9.90900 1.98300 29.61400
C  11.82300 -0.57700 27.75500
C  11.31400 0.73600 31.09300
O  12.22900 0.08200 31.62000
C  10.46600 1.72500 31.88100
C  9.67200 0.85600 32.79000
O  8.60700 0.29100 32.48700
O  10.29700 0.75900 33.97000
C  9.56500 -0.05200 34.89000
H  5.86900 6.80100 30.58800
H  7.07700 5.93100 24.32600
H  10.56700 0.83000 25.63800
H  7.99100 3.52700 33.18100
H  7.75900 6.23900 32.43900
H  5.05100 5.24300 32.20100
H  5.84100 6.03000 33.48400
H  5.75700 4.40800 33.64900
H  10.15000 5.53000 32.50100
H  10.30600 4.06500 33.48000
H  8.43300 5.70500 34.68700
H  9.69000 6.79100 33.93200
H  5.12300 8.46800 29.67900
H  3.87400 8.48100 28.63300
H  5.42900 9.48200 28.34100
H  3.36200 8.58300 26.11700
H  3.61600 9.05100 24.44800
H  4.60000 9.81900 25.70600
H  8.89800 4.48500 23.09400
H  9.00800 1.62600 23.63900
H  6.15500 3.62300 23.02100
H  7.11000 2.23500 22.59700
H  7.32400 3.64800 21.73400
H  11.49700 2.88500 24.30900
H  10.86300 3.93000 23.19200
H  11.22700 2.19800 21.37600
H  10.85500 0.86100 22.52800
H  12.41500 1.66600 22.49700
H  12.46700 -0.16700 26.97600
H  11.16200 -1.38200 27.43300
H  12.46000 -0.93200 28.56500
H  11.15300 2.36700 32.43100
H  9.20900 -1.01500 34.52500
H  8.63300 0.37200 35.26300
H  10.12300 -0.23500 35.80800
Mg -0.27600 44.42200 26.91600
C  2.03300 44.23200 29.42200
C  -2.81300 44.22000 29.22700
C  -2.59600 44.15300 24.38600
C  2.11400 44.66600 24.41900
N  -0.36200 44.28700 29.02600
C  0.70500 44.15300 29.87500
C  0.28600 44.02500 31.34000
C  -1.22100 43.71300 31.21700
C  -1.49500 44.20800 29.76800
C  -1.66100 42.32100 31.60700
C  0.51800 45.36200 32.06500
C  0.98300 45.23900 33.56200
H  0.61500 43.96800 34.42900
N  -2.41600 44.31500 26.80400
C  -3.23500 44.31400 27.89100
C  -4.61300 44.15200 27.46800
C  -4.56300 44.05300 26.01800
C  -3.15400 44.19800 25.68300
C  -5.65800 43.91400 28.46300
C  -5.72600 43.72800 25.11700
O  -5.59600 43.78200 23.89100
C  -7.12500 43.30900 25.70600
N  -0.19600 44.42700 24.64300
C  -1.31100 44.23400 23.87300
C  -0.95200 44.16700 22.40500
C  0.51800 44.55700 22.38400
C  0.87300 44.51300 23.86000
C  -1.26300 42.82800 21.71000
C  0.78100 45.86100 21.66400
C  2.06300 45.85800 20.70800
N  1.72300 44.45700 26.93100
C  2.60200 44.58900 25.82500
C  3.94800 44.57900 26.31700
C  3.79200 44.46200 27.71000
C  2.38400 44.39100 27.99300
C  5.11500 44.80300 25.45200
C  4.44000 44.34300 29.01700
O  5.60700 44.33500 29.26400
C  3.27300 44.23100 30.14100
C  3.52700 43.01700 30.99200
O  3.24500 41.87200 30.65600
O  3.97700 43.42600 32.22800
C  4.46700 42.37900 33.11200
H  -3.53700 44.06600 30.03000
H  -3.28200 44.01800 23.54700
H  2.97100 44.77300 23.75000
H  0.84100 43.22100 31.82300
H  -1.75800 44.26000 31.99100
H  -0.93600 41.75000 32.18700
H  -1.95500 41.77400 30.71100
H  -2.55000 42.37300 32.23600
H  -0.37400 45.98300 32.14700
H  1.27900 45.99100 31.60300
H  0.71900 46.11500 34.15600
H  2.07300 45.25300 33.54700
H  -6.60100 44.38900 28.19500
H  -5.53300 44.46100 29.39700
H  -5.80400 42.86000 28.70100
H  -7.91800 43.20800 24.96500
H  -7.43100 44.11000 26.37800
H  -6.97100 42.39500 26.27900
H  -1.55100 44.94800 21.93700
H  1.15900 43.74300 22.04800
H  -1.53900 42.07800 22.45200
H  -0.39600 42.43700 21.17600
H  -2.04100 43.09400 20.99400
H  0.95900 46.63400 22.41100
H  -0.07100 46.17700 21.06200
H  2.80600 46.47200 21.21700
H  1.86400 46.31400 19.73900
H  2.34500 44.81600 20.55800
H  4.86200 45.52300 24.67400
H  5.44500 43.83300 25.08200
H  5.76800 45.39000 26.09700
H  3.36800 45.14300 30.73000
H  4.55900 41.44000 32.56600
H  3.77400 42.32100 33.95100
H  5.43000 42.69200 33.51500

