158

Mg 24.03900 -4.62300 46.08400
C  26.18400 -2.22300 44.52300
C  21.54100 -3.29400 44.10100
C  22.22000 -7.25400 46.76400
C  26.83900 -5.95500 47.69600
N  23.88300 -3.00400 44.37700
C  24.92700 -2.17000 44.04000
C  24.38900 -1.01700 43.12100
C  22.82400 -1.26900 43.21100
C  22.70800 -2.60600 43.95700
C  22.01300 -0.09100 43.72300
C  25.00800 -1.24800 41.64800
C  25.02000 -0.04400 40.77200
H  24.39700 -0.30000 39.37000
N  22.17600 -5.20400 45.56400
C  21.26100 -4.51600 44.70000
C  20.02100 -5.30400 44.62300
C  20.17500 -6.46100 45.47800
C  21.51000 -6.29200 46.06600
C  18.91500 -4.79100 43.77100
C  19.09700 -7.55400 45.71100
O  18.07900 -7.45800 45.03900
C  19.21400 -8.55200 46.79100
N  24.43100 -6.27800 47.12300
C  23.52300 -7.30000 47.26500
C  24.10400 -8.56100 47.85900
C  25.41700 -7.96100 48.44300
C  25.58100 -6.62800 47.76000
C  23.26100 -9.34900 48.89600
C  26.59000 -8.98100 48.33700
C  27.65800 -8.92200 49.45100
N  26.15500 -4.20400 46.20700
C  27.13100 -4.79600 46.92100
C  28.42900 -4.17800 46.66200
C  28.07100 -3.10900 45.73000
C  26.68900 -3.14200 45.51200
C  29.69600 -4.72000 46.97900
C  28.62000 -1.98400 44.92200
O  29.76600 -1.63600 44.75100
C  27.46400 -1.36900 44.08600
C  27.24300 0.11400 44.40300
O  26.79400 0.55800 45.44700
O  27.54500 0.85500 43.35600
C  27.45800 2.32000 43.53300
H  20.67100 -2.76100 43.71300
H  21.67100 -8.18500 46.91900
H  27.66100 -6.44500 48.22000
H  24.66200 -0.06400 43.57300
H  22.44200 -1.53900 42.22700
H  22.72000 0.73800 43.75000
H  21.66600 -0.35400 44.72200
H  21.23200 0.05800 42.97800
H  24.43000 -1.97800 41.08200
H  26.02600 -1.63400 41.70800
H  25.99700 0.40500 40.59600
H  24.41500 0.68600 41.31000
H  19.08900 -5.24000 42.79200
H  18.87400 -3.70900 43.64500
H  17.92100 -5.18800 43.97800
H  18.34000 -9.20200 46.83200
H  19.33100 -8.17600 47.80700
H  20.01100 -9.26000 46.56300
H  24.40200 -9.24500 47.06400
H  25.13700 -7.74500 49.47400
H  22.60400 -10.18900 48.67400
H  22.70100 -8.55500 49.39000
H  23.95600 -9.68600 49.66500
H  27.12000 -8.74200 47.41500
H  26.26500 -10.01600 48.22500
H  27.95400 -9.91100 49.80100
H  27.28300 -8.36200 50.30700
H  28.41800 -8.34200 48.92700
H  30.49100 -4.05900 46.63400
H  29.76700 -5.76300 46.66900
H  29.74600 -4.62700 48.06400
H  27.67400 -1.68100 43.06300
H  27.93500 2.62700 44.46300
H  26.41000 2.59700 43.64800
H  28.02500 2.81100 42.74200
Mg 27.49400 49.94800 26.95900
C  25.41400 50.69200 29.75400
C  29.91700 49.15100 29.36300
C  29.32800 49.01700 24.53200
C  24.87100 50.94000 24.92600
N  27.60800 49.91000 29.35900
C  26.61300 50.19100 30.24900
C  27.02300 50.01900 31.71900
C  28.58500 49.74500 31.57000
C  28.73300 49.58100 29.99200
C  29.47600 50.84600 32.16100
C  26.20900 48.92600 32.40100
C  25.48400 49.38600 33.71600
H  25.73200 48.44100 34.94000
N  29.40600 49.21600 26.95200
C  30.24900 48.92100 27.98300
C  31.45200 48.36300 27.44500
C  31.35000 48.47000 26.06100
C  30.02300 48.88100 25.79300
C  32.56100 47.75900 28.36600
C  32.47600 48.21500 25.12300
O  32.40500 48.43800 23.91300
C  33.75600 47.79700 25.62400
N  27.19500 50.11300 25.01700
C  28.10800 49.56500 24.18100
C  27.53900 49.29500 22.72300
C  26.02600 49.78800 22.90700
C  25.98700 50.31400 24.39900
C  28.38000 49.98600 21.61100
C  24.92700 48.63100 22.65300
C  24.31200 48.64600 21.27900
N  25.59400 50.84700 27.21100
C  24.61400 51.08800 26.28100
C  23.49500 51.66300 26.94100
C  23.73800 51.44400 28.28100
C  25.01300 50.93300 28.38500
C  22.17900 52.16000 26.36700
C  23.10800 51.43700 29.61800
O  22.02100 51.80700 29.96600
C  24.23700 51.02300 30.66300
C  24.43800 52.20100 31.48400
O  25.22300 53.13300 31.27900
O  23.76000 52.08000 32.68300
C  23.84200 53.10100 33.79700
H  30.74200 49.00700 30.06300
H  29.90900 48.58700 23.71400
H  24.04600 51.15100 24.24200
H  26.89000 50.90100 32.34500
H  28.77900 48.73800 31.93900
H  28.90200 51.51600 32.80200
H  29.89900 51.40000 31.32300
H  30.35100 50.50900 32.71600
H  26.77700 48.04600 32.70200
H  25.35500 48.63900 31.78700
H  24.42100 49.25900 33.51300
H  25.68400 50.43100 33.95500
H  32.59000 46.67100 28.30700
H  32.30400 47.72700 29.42400
H  33.57100 48.15500 28.26300
H  34.11000 48.63800 26.22000
H  34.52900 47.66300 24.86700
H  33.59400 46.84700 26.13200
H  27.54200 48.21900 22.54600
H  25.83900 50.64400 22.25800
H  28.43400 49.30000 20.76500
H  29.41400 50.05500 21.94800
H  28.01600 50.98300 21.36000
H  24.14200 48.73100 23.40200
H  25.50400 47.71800 22.79800
H  23.23400 48.74000 21.40900
H  24.58200 47.74500 20.72900
H  24.52200 49.57200 20.74400
H  21.54400 51.42700 25.86900
H  22.33400 53.04200 25.74400
H  21.70000 52.32400 27.33200
H  23.83400 50.13700 31.15400
H  23.66200 54.11200 33.43100
H  24.79700 53.10600 34.32300
H  23.04900 53.03400 34.54200

