158

Mg 6.40400 53.52800 41.00300
C  5.99900 49.97200 41.14600
C  9.67400 52.86800 39.81800
C  6.86600 56.83500 40.46300
C  3.09000 53.96500 41.49700
N  7.54200 51.64400 40.36400
C  7.23700 50.29700 40.54100
C  8.36000 49.36000 40.12200
C  9.54900 50.34600 40.11500
C  8.84000 51.73900 40.05500
C  10.54900 50.37800 41.31500
C  8.08000 48.67300 38.75100
C  7.12100 49.27000 37.81500
H  7.56800 50.45700 36.98700
N  8.07600 54.66900 40.30700
C  9.30600 54.25900 39.88100
C  10.14700 55.39600 39.73700
C  9.36400 56.58900 39.79300
C  8.01100 56.07900 40.19500
C  11.64200 55.28800 39.59700
C  9.91100 58.04400 39.77700
O  11.10400 58.27400 39.49700
C  9.00300 59.24400 39.86900
N  5.16600 55.05500 40.86500
C  5.53800 56.37900 40.74400
C  4.41400 57.29200 40.99400
C  3.20200 56.39500 41.02800
C  3.87200 55.04000 41.09900
C  4.73500 58.22900 42.27100
C  2.16800 56.49400 39.83800
C  0.75000 56.67000 40.31400
N  4.84700 52.25600 41.37200
C  3.53000 52.61500 41.51000
C  2.82200 51.38400 41.91500
C  3.73700 50.35500 41.70400
C  4.93500 50.92400 41.37500
C  1.49500 51.25700 42.38700
C  3.94900 48.96200 41.79500
O  3.14200 48.03700 42.06000
C  5.48200 48.65000 41.47100
C  5.25600 47.70600 40.31200
O  4.62400 47.89400 39.24000
O  5.90500 46.57000 40.56900
C  5.84600 45.54300 39.51100
H  10.65800 52.76900 39.35500
H  6.78900 57.89400 40.21000
H  2.08600 54.17700 41.86900
H  8.59700 48.66400 40.92700
H  10.20600 50.17300 39.26300
H  11.47100 49.92100 40.95500
H  10.13900 49.67900 42.04500
H  10.67300 51.38600 41.71100
H  7.94500 47.59200 38.76900
H  9.03100 48.72000 38.21900
H  6.21100 49.65200 38.27800
H  6.88300 48.55500 37.02700
H  11.95500 55.52000 38.57800
H  11.99900 54.27600 39.78700
H  12.27100 56.02400 40.09800
H  9.56000 60.18000 39.90500
H  8.51400 59.18700 40.84200
H  8.32100 59.25700 39.01900
H  4.32900 57.94300 40.12300
H  2.76100 56.49200 42.02000
H  4.46000 59.24700 41.99600
H  5.75700 58.12700 42.63700
H  4.05800 57.94200 43.07500
H  2.26300 55.56400 39.27700
H  2.47700 57.29900 39.17100
H  0.44400 57.68600 40.56300
H  0.74300 56.00400 41.17700
H  0.11600 56.28100 39.51700
H  0.78500 51.77300 41.74000
H  1.43500 51.72200 43.37000
H  1.28100 50.18900 42.43200
H  5.97700 48.11300 42.28000
H  6.54600 44.78600 39.86400
H  6.37100 45.80600 38.59200
H  4.87000 45.07500 39.38200
Mg -1.95100 34.27800 26.27500
C  -4.09800 33.04600 28.91000
C  -0.61600 36.45300 28.36300
C  -0.36200 35.35400 23.57300
C  -4.06400 32.26500 24.14600
N  -2.29400 34.66900 28.41100
C  -3.13000 34.03100 29.32800
C  -2.77700 34.51100 30.69400
C  -1.71900 35.71000 30.49800
C  -1.52500 35.64400 28.98400
C  -2.12400 37.03300 31.05200
C  -2.22600 33.41900 31.71700
C  -3.07000 33.36300 32.90300
H  -3.06000 32.04900 33.77800
N  -0.73900 35.83900 25.97700
C  -0.21700 36.64500 26.94900
C  0.78600 37.44600 26.39400
C  0.85600 37.12700 24.97900
C  -0.15100 36.08300 24.76800
C  1.57200 38.50100 27.22700
C  1.77200 37.63700 23.85600
O  1.77900 37.33300 22.64700
C  2.83900 38.62300 24.28900
N  -2.28900 33.93000 24.18100
C  -1.37800 34.51300 23.30300
C  -1.38600 33.79500 21.94500
C  -2.53300 32.72700 22.09100
C  -2.94100 32.94000 23.59800
C  -1.48700 34.73400 20.70500
C  -2.02000 31.33600 21.75400
C  -2.96300 30.47000 20.99500
N  -3.62800 32.85100 26.46500
C  -4.34900 32.14600 25.48500
C  -5.43200 31.30700 26.15800
C  -5.33100 31.62200 27.50600
C  -4.27000 32.53000 27.62700
C  -6.34500 30.32900 25.51300
C  -5.83900 31.23100 28.81300
O  -6.71100 30.34100 29.08800
C  -5.09000 32.18700 29.77700
C  -6.18300 33.02600 30.37900
O  -6.90300 33.85600 29.86000
O  -6.25000 32.77800 31.77200
C  -7.31200 33.47500 32.58000
H  -0.05300 36.98200 29.13400
H  0.36200 35.62900 22.80400
H  -4.69800 31.53900 23.63400
H  -3.69300 34.95900 31.07900
H  -0.74800 35.59100 30.97900
H  -2.51000 37.70000 30.28200
H  -1.35000 37.49900 31.66200
H  -3.05200 36.97900 31.62100
H  -1.21600 33.74300 31.97000
H  -2.16800 32.47900 31.16700
H  -4.08600 33.61800 32.60200
H  -2.85500 34.13900 33.63800
H  1.44100 38.55900 28.30800
H  1.43000 39.50200 26.81900
H  2.62900 38.30900 27.04200
H  3.54700 38.08200 24.91700
H  2.40400 39.40400 24.91200
H  3.37800 39.07300 23.45600
H  -0.37300 33.39400 21.92300
H  -3.35000 32.97900 21.41400
H  -1.58500 35.77100 21.02700
H  -2.27000 34.61800 19.95600
H  -0.70800 34.68600 19.94300
H  -1.57500 30.97300 22.68100
H  -1.17600 31.52600 21.09100
H  -3.80600 31.03400 20.59700
H  -3.27300 29.60200 21.57600
H  -2.39900 30.02100 20.17700
H  -5.83200 29.39600 25.28000
H  -6.74800 30.82100 24.62800
H  -7.13800 30.03600 26.20200
H  -4.47600 31.64000 30.49200
H  -8.11000 32.73700 32.65500
H  -7.72300 34.41800 32.22000
H  -6.89000 33.67300 33.56500

