158

Mg 24.58100 -5.34600 45.51300
C  26.60100 -2.97500 43.80300
C  21.90200 -4.32300 43.28000
C  22.98500 -8.29500 46.04000
C  27.38700 -6.31900 47.31400
N  24.26600 -3.75100 43.82200
C  25.30800 -2.96700 43.23600
C  24.72900 -2.01800 42.15700
C  23.18300 -2.35900 42.24900
C  23.05300 -3.53000 43.26500
C  22.24900 -1.15600 42.64800
C  25.38000 -2.35300 40.74500
C  25.70700 -1.12400 39.95000
H  25.08400 -0.90400 38.60900
N  22.72900 -6.17600 44.78400
C  21.72400 -5.53600 43.93500
C  20.58200 -6.40400 43.85800
C  20.87300 -7.56400 44.65200
C  22.25000 -7.39700 45.16400
C  19.37900 -6.11900 43.17900
C  19.91900 -8.73400 44.91600
O  18.82300 -8.77500 44.33800
C  20.18800 -9.93400 45.78500
N  25.10900 -7.07900 46.47500
C  24.22800 -8.13700 46.61800
C  24.78100 -9.11500 47.61100
C  26.19800 -8.51000 47.96000
C  26.26500 -7.18100 47.25800
C  23.83800 -9.16600 48.91700
C  27.40900 -9.48900 47.56300
C  28.25200 -10.18400 48.66900
N  26.59100 -4.67200 45.72000
C  27.65400 -5.13200 46.54500
C  28.83800 -4.39000 46.30600
C  28.44900 -3.50500 45.26100
C  27.14800 -3.78000 44.86800
C  30.03900 -4.58800 47.04600
C  28.99000 -2.46000 44.33800
O  30.12500 -2.05000 44.21700
C  27.74900 -2.03000 43.39100
C  27.58800 -0.53600 43.58300
O  27.53800 0.11400 44.64300
O  27.69200 0.03500 42.29100
C  27.38900 1.43900 42.27200
H  21.08300 -4.03800 42.61600
H  22.48100 -9.22100 46.32500
H  28.24000 -6.71200 47.87000
H  24.75600 -0.93800 42.30600
H  22.76500 -2.79700 41.34200
H  21.36000 -1.27000 42.02700
H  22.77400 -0.21900 42.46500
H  21.92800 -1.20100 43.68800
H  24.73000 -2.87300 40.04100
H  26.27400 -2.96900 40.83200
H  26.78100 -0.96800 39.84700
H  25.51800 -0.18500 40.47000
H  19.30200 -6.84300 42.36800
H  19.52300 -5.09700 42.82900
H  18.48700 -6.16900 43.80400
H  21.08300 -10.48100 45.48700
H  19.25700 -10.49400 45.87100
H  20.42400 -9.58600 46.79100
H  24.87200 -10.14000 47.25000
H  26.30500 -8.20900 49.00300
H  23.61000 -10.19800 49.18100
H  22.88500 -8.66300 48.75400
H  24.39600 -8.82600 49.78900
H  28.09100 -9.01800 46.85600
H  26.87600 -10.31300 47.08900
H  29.25000 -9.75200 48.61200
H  28.39400 -11.26500 48.66400
H  27.75200 -9.89400 49.59300
H  30.82500 -3.91200 46.70800
H  30.42500 -5.60600 47.00700
H  29.81800 -4.41200 48.09900
H  28.02800 -2.19400 42.35000
H  28.26600 2.07300 42.40000
H  26.49000 1.72500 42.81900
H  26.98400 1.76300 41.31300
Mg 29.93000 59.65100 39.43800
C  27.42100 57.26500 38.43800
C  32.31300 57.29300 38.51800
C  32.20400 62.10300 39.76600
C  27.28300 62.08000 39.48900
N  29.87300 57.47600 38.61800
C  28.74800 56.70200 38.32100
C  29.12100 55.35000 37.71700
C  30.61300 55.28000 38.26900
C  30.98200 56.79200 38.41600
C  30.82300 54.38700 39.51800
C  28.94100 55.27700 36.12000
C  27.78000 54.41300 35.49500
H  26.90100 55.07800 34.46000
N  31.94500 59.71100 39.16700
C  32.78300 58.64100 38.72000
C  34.21700 59.13400 38.64100
C  34.19900 60.49900 39.21200
C  32.76300 60.86400 39.39000
C  35.30400 58.24200 38.25000
C  35.47600 61.30400 39.48700
O  36.61800 60.86700 39.24100
C  35.42900 62.68200 40.11200
N  29.72700 61.69800 39.72200
C  30.83700 62.48400 39.87200
C  30.41400 63.96700 40.08800
C  28.86400 63.90600 39.96200
C  28.60200 62.41800 39.80100
C  31.07200 64.79700 41.32400
C  28.29000 64.80500 38.83200
C  27.20300 65.80000 39.19300
N  27.74000 59.71100 39.22100
C  26.89600 60.77800 39.30500
C  25.56900 60.23900 39.06800
C  25.70300 58.92300 38.76800
C  27.04000 58.60500 38.79300
C  24.30300 61.02900 39.06300
C  24.98300 57.66600 38.42800
O  23.83200 57.38400 38.25800
C  26.04900 56.59600 38.11500
C  25.84300 55.38700 38.94700
O  25.92200 55.34600 40.18000
O  25.30000 54.33900 38.18100
C  24.84800 53.23100 38.94500
H  33.00400 56.49800 38.22800
H  32.82700 62.98600 39.92000
H  26.53500 62.87300 39.42500
H  28.47500 54.69900 38.30700
H  31.39900 54.94000 37.59500
H  30.54000 53.34800 39.35200
H  30.14500 54.66200 40.32600
H  31.83800 54.46000 39.91000
H  29.91200 54.86300 35.84800
H  28.87400 56.31000 35.77900
H  27.15900 54.02100 36.30000
H  28.17100 53.51800 35.01300
H  35.63300 58.46000 37.23400
H  34.93900 57.21900 38.34600
H  36.12400 58.13400 38.96100
H  34.71500 62.59300 40.93200
H  35.14100 63.46600 39.41200
H  36.41000 62.90600 40.53200
H  30.82500 64.45500 39.20400
H  28.41300 64.13800 40.92600
H  31.37600 64.03900 42.04600
H  30.23900 65.36800 41.73400
H  31.99500 65.30900 41.05100
H  27.90700 64.09500 38.09900
H  29.08400 65.29100 38.26500
H  27.57900 66.80600 39.00900
H  27.04700 65.83700 40.27200
H  26.26000 65.61800 38.67700
H  24.34200 61.71700 38.21800
H  24.11200 61.54600 40.00400
H  23.37100 60.48900 38.90000
H  26.08800 56.23500 37.08700
H  24.82000 52.32600 38.33700
H  23.85900 53.44400 39.35000
H  25.40800 52.87100 39.80800

