158

Mg 35.69400 0.99400 28.96300
C  33.63800 2.61200 31.39300
C  38.20200 1.08100 31.36300
C  37.85300 0.23400 26.55400
C  33.35800 2.09900 26.57200
N  35.83200 1.63200 31.09700
C  34.81300 2.10200 31.87300
C  35.21800 2.13900 33.41800
C  36.82700 1.99600 33.39200
C  36.99100 1.51000 31.85500
C  37.66500 3.24400 33.84500
C  34.51300 0.99500 34.16800
C  34.43600 1.20900 35.65900
H  35.06500 2.41600 36.34700
N  37.69200 0.54700 28.92700
C  38.55000 0.65900 30.02600
C  39.91300 0.32400 29.58900
C  39.85200 -0.03400 28.14500
C  38.42100 0.17800 27.83300
C  41.10500 0.27500 30.55500
C  40.91200 -0.44300 27.19000
O  40.65000 -0.66400 25.98200
C  42.30600 -0.80100 27.59800
N  35.59600 1.09500 26.85800
C  36.62000 0.66900 26.11700
C  36.22500 0.61000 24.63100
C  34.65800 0.90100 24.74900
C  34.51800 1.47900 26.13300
C  37.05600 1.47600 23.70100
C  33.77100 -0.37000 24.60300
C  32.95700 -0.38100 23.35100
N  33.84800 2.13200 28.96400
C  33.01400 2.38200 27.93300
C  31.83300 3.02200 28.42700
C  32.03200 3.07900 29.78700
C  33.29100 2.60500 30.05300
C  30.66700 3.42400 27.63500
C  31.44700 3.44300 31.07300
O  30.34300 3.89700 31.33700
C  32.44300 3.20100 32.16600
C  32.59000 4.49400 32.95000
O  33.17500 5.54700 32.60700
O  31.91900 4.32700 34.23100
C  31.52200 5.63100 34.85900
H  39.00600 1.23500 32.08600
H  38.49800 -0.06000 25.72400
H  32.61500 2.13800 25.77200
H  35.05400 3.14400 33.80700
H  36.94700 1.13600 34.05100
H  36.97300 3.97900 34.25600
H  38.17500 3.66900 32.98000
H  38.37700 3.10800 34.65800
H  34.92600 -0.00700 34.05500
H  33.48900 0.98600 33.79400
H  34.81100 0.29800 36.12500
H  33.39500 1.35900 35.94500
H  41.49800 -0.70700 30.81700
H  40.93200 0.80200 31.49300
H  41.94200 0.60400 29.94000
H  42.76900 -1.33400 26.76700
H  42.36300 -1.42700 28.48800
H  42.81800 0.16100 27.60100
H  36.28500 -0.41600 24.26700
H  34.35100 1.72000 24.09900
H  37.85300 1.99700 24.23200
H  36.43700 2.16200 23.12200
H  37.43200 0.81000 22.92400
H  33.00900 -0.30200 25.37900
H  34.40000 -1.25800 24.66900
H  33.18600 0.40900 22.63600
H  31.89800 -0.37000 23.60900
H  33.08700 -1.33600 22.84400
H  30.82700 4.38500 27.14500
H  29.72400 3.43900 28.18200
H  30.49100 2.75100 26.79500
H  32.04700 2.45300 32.85300
H  31.02500 6.30200 34.15800
H  32.46900 6.04500 35.20600
H  30.89200 5.44600 35.72900
Mg 49.29200 44.51700 43.83300
C  46.07300 45.02400 42.70300
C  49.14700 41.25900 43.22100
C  52.66400 44.51000 44.20900
C  49.46200 48.16800 44.21900
N  47.75500 43.29800 43.07600
C  46.52000 43.67400 42.68500
C  45.76300 42.45700 42.18600
C  46.60800 41.22300 42.75600
C  47.97600 41.91300 43.04200
C  46.00600 40.62500 44.11300
C  45.66200 42.36700 40.66700
C  44.34800 42.04400 39.98200
H  43.68000 42.97800 38.95500
N  50.74600 43.09400 43.56100
C  50.50400 41.76200 43.38400
C  51.72100 41.06500 43.38100
C  52.77200 42.01500 43.52500
C  52.05300 43.27400 43.87200
C  51.83000 39.57000 43.20600
C  54.33100 41.74400 43.41900
O  54.54000 40.54700 43.24800
C  55.49300 42.77200 43.36900
N  50.81700 46.12000 44.25100
C  52.14700 45.75800 44.30500
C  53.12600 46.99700 44.41000
C  52.09200 48.15300 44.42300
C  50.64800 47.47600 44.24700
C  54.16600 46.99700 45.63700
C  52.34100 49.22600 43.29500
C  52.44600 50.67700 43.81400
N  48.00700 46.23700 43.51500
C  48.20800 47.62500 43.78000
C  47.02100 48.44500 43.39700
C  46.11300 47.41100 42.92400
C  46.79300 46.07700 43.10700
C  46.98500 50.01500 43.45500
C  44.78900 47.22400 42.35800
O  43.97800 48.00700 41.95800
C  44.73100 45.62500 42.24400
C  43.61000 45.06900 43.09400
O  43.63700 45.07800 44.33600
O  42.55700 44.62900 42.30000
C  41.33100 44.44900 43.06800
H  49.02400 40.17400 43.18700
H  53.68900 44.33600 44.54100
H  49.51500 49.25700 44.28500
H  44.76500 42.61200 42.59800
H  46.65400 40.49500 41.94600
H  45.59800 41.35600 44.81100
H  46.80300 40.14600 44.68200
H  45.32000 39.82500 43.83300
H  46.36500 41.62900 40.28000
H  45.86700 43.35600 40.25800
H  43.57900 41.89000 40.74000
H  44.39000 41.09700 39.44400
H  52.54100 39.34000 42.41200
H  50.91700 39.03200 42.95000
H  52.27900 39.17800 44.11900
H  55.18500 43.63800 42.78300
H  56.31100 42.23800 42.88800
H  55.80700 42.95400 44.39700
H  53.67600 47.02900 43.47000
H  52.19800 48.67700 45.37300
H  54.36600 46.03300 46.10400
H  53.77000 47.76600 46.30000
H  55.13500 47.32200 45.25800
H  51.53000 49.23400 42.56700
H  53.28800 48.91600 42.85500
H  52.23300 50.72400 44.88200
H  51.80400 51.37700 43.27900
H  53.46700 51.00300 43.61800
H  46.93700 50.30000 44.50600
H  46.05600 50.35600 42.99700
H  47.84500 50.44600 42.94200
H  44.45400 45.39000 41.21600
H  40.63800 44.26200 42.24800
H  41.01200 45.31700 43.64500
H  41.28300 43.51400 43.62700

