158

Mg 23.78300 -5.87400 46.14600
C  25.99800 -3.51900 44.77400
C  21.33500 -4.74500 44.21900
C  21.92200 -8.46400 47.25700
C  26.70400 -7.44400 47.64000
N  23.70300 -4.30100 44.75000
C  24.71600 -3.50300 44.25400
C  24.07600 -2.43900 43.32700
C  22.54600 -2.68500 43.37200
C  22.55000 -4.02000 44.11700
C  21.69100 -1.48100 43.85500
C  24.79900 -2.46100 41.88600
C  25.28200 -1.04000 41.42900
H  25.22100 -0.73400 39.92700
N  21.85100 -6.43500 45.89500
C  21.01100 -5.86300 44.99000
C  19.73200 -6.47100 45.05600
C  19.87700 -7.60500 45.92200
C  21.28000 -7.52800 46.42100
C  18.61500 -6.02000 44.09200
C  18.68700 -8.50700 46.31000
O  17.58400 -8.33900 45.82200
C  18.82500 -9.60200 47.34700
N  24.15700 -7.64200 47.39800
C  23.21900 -8.56900 47.71600
C  23.72600 -9.63900 48.68300
C  25.28500 -9.40400 48.60800
C  25.45500 -8.06300 47.84900
C  23.12300 -9.56000 50.06600
C  26.12100 -10.50000 47.82700
C  27.38000 -11.04300 48.55100
N  25.95000 -5.50800 46.31200
C  26.90500 -6.20800 46.99200
C  28.17400 -5.48700 46.81900
C  27.84500 -4.30600 46.01400
C  26.44300 -4.43800 45.71800
C  29.45600 -5.83600 47.47200
C  28.38500 -3.17000 45.28800
O  29.46300 -2.50500 45.31200
C  27.17100 -2.58600 44.46100
C  27.00100 -1.24900 45.04300
O  26.81800 -0.93700 46.22000
O  27.21100 -0.24200 44.01700
C  27.12100 1.17000 44.37600
H  20.57900 -4.22200 43.63000
H  21.34800 -9.35500 47.52200
H  27.57900 -7.92400 48.08400
H  24.35000 -1.51800 43.84100
H  22.24400 -3.02600 42.38200
H  21.43000 -0.99700 42.91400
H  22.39400 -0.84300 44.39000
H  20.72900 -1.71400 44.31100
H  24.19400 -2.78800 41.04100
H  25.63600 -3.15800 41.86900
H  26.31000 -1.00100 41.78800
H  24.80700 -0.22200 41.97000
H  17.84100 -6.76900 43.92400
H  19.00200 -5.61900 43.15500
H  18.13700 -5.27500 44.72800
H  17.87900 -10.14500 47.34700
H  19.09900 -9.12300 48.28700
H  19.52800 -10.38800 47.07200
H  23.38200 -10.58700 48.27000
H  25.76500 -9.16600 49.55600
H  22.10800 -9.94400 49.96600
H  23.13500 -8.58100 50.54500
H  23.52600 -10.34000 50.71100
H  26.51300 -10.07300 46.90400
H  25.43700 -11.32000 47.60900
H  27.49700 -12.11500 48.39400
H  27.40400 -10.75100 49.60000
H  28.25200 -10.51500 48.16300
H  29.39300 -6.55300 48.29000
H  30.00000 -4.95200 47.80400
H  30.06600 -6.15000 46.62400
H  27.54400 -2.53500 43.43800
H  27.43500 1.40900 45.39200
H  26.17200 1.56300 44.01100
H  27.86200 1.54300 43.67000
Mg 30.55100 58.69600 41.03200
C  27.78800 56.89700 39.93600
C  32.55600 56.28800 39.65300
C  33.08500 60.99600 41.01800
C  28.31300 61.40500 41.77700
N  30.12000 56.88400 39.81100
C  28.96600 56.23500 39.65300
C  29.11200 54.76500 39.27700
C  30.64600 54.58400 39.34500
C  31.16700 55.98200 39.67400
C  31.17400 53.39700 40.17900
C  28.40300 54.26700 38.03300
C  28.20200 55.22000 36.80900
H  28.36100 54.82800 35.37800
N  32.53300 58.61900 40.55400
C  33.15300 57.56000 39.92700
C  34.57800 57.88400 39.83100
C  34.78100 59.20800 40.15200
C  33.46400 59.66500 40.59600
C  35.64000 56.94800 39.27800
C  36.13000 59.92400 40.08900
O  37.07600 59.38900 39.49600
C  36.40400 61.29700 40.65200
N  30.61000 60.81000 41.59400
C  31.81700 61.49200 41.52800
C  31.71600 62.98000 41.88000
C  30.18500 63.10400 42.21200
C  29.65700 61.74400 41.81500
C  32.65600 63.39900 43.03300
C  29.35700 64.29000 41.68100
C  29.08600 65.49200 42.69300
N  28.43000 59.06500 41.08200
C  27.64800 60.18500 41.37200
C  26.26800 59.91600 41.15100
C  26.32400 58.61300 40.59400
C  27.62300 58.16900 40.48000
C  25.18600 60.90800 41.35800
C  25.43500 57.54900 40.07600
O  24.23200 57.56700 39.92900
C  26.39200 56.36700 39.76300
C  26.10000 55.32100 40.78100
O  26.58800 55.16800 41.87600
O  25.14800 54.43700 40.26300
C  24.70500 53.22900 41.05300
H  33.24600 55.53600 39.26400
H  33.74900 61.85300 40.89000
H  27.59100 62.21400 41.90600
H  28.68100 54.33100 40.17900
H  31.07300 54.44700 38.35200
H  31.92200 53.72900 40.89800
H  31.55000 52.69100 39.43800
H  30.44700 52.89100 40.81400
H  27.43700 53.88700 38.36500
H  29.00700 53.48100 37.58000
H  28.92800 56.02200 36.94200
H  27.18000 55.57900 36.92600
H  35.68000 57.22400 38.22500
H  35.33700 55.90600 39.38800
H  36.57600 57.08800 39.81800
H  35.92900 61.54600 41.60200
H  36.14200 62.01600 39.87500
H  37.47900 61.36700 40.81400
H  31.80000 63.54000 40.94900
H  30.15700 63.07300 43.30200
H  33.16300 62.52200 43.43600
H  32.19000 63.90200 43.88000
H  33.32700 64.17300 42.66200
H  28.47400 63.91300 41.16500
H  29.93000 64.61200 40.81100
H  29.32000 65.24700 43.72900
H  28.00600 65.63800 42.66200
H  29.56600 66.40300 42.33600
H  25.40500 61.47400 42.26300
H  24.30600 60.29300 41.54800
H  25.04600 61.45500 40.42600
H  26.09600 56.08700 38.75100
H  24.26900 53.60500 41.97900
H  25.51900 52.57500 41.36600
H  24.00200 52.68100 40.42600

