158

Mg 8.72300 3.55600 27.07300
C  10.34100 2.16400 29.78500
C  6.90700 5.50400 29.33600
C  7.56600 5.14400 24.51400
C  10.39000 1.25100 25.03700
N  8.44900 3.60400 29.37800
C  9.32100 2.99900 30.21700
C  9.02700 3.51400 31.60600
C  7.84300 4.51800 31.46100
C  7.71800 4.56900 30.00400
C  6.46500 4.19800 32.08500
C  10.28500 4.18100 32.32400
C  9.86000 4.47300 33.83400
H  10.86600 4.17100 35.00200
N  7.33100 5.16600 26.93200
C  6.73800 5.85200 27.98300
C  5.86700 6.78100 27.37400
C  6.12400 6.83600 25.98000
C  7.07300 5.71400 25.74400
C  4.76400 7.47600 28.18800
C  5.50900 7.80400 24.92000
O  5.77600 7.73500 23.72700
C  4.61300 8.93100 25.46900
N  8.91500 3.25200 25.04700
C  8.38300 4.04200 24.16900
C  8.59700 3.63100 22.65700
C  9.59900 2.37900 22.87300
C  9.62700 2.28600 24.40100
C  7.31800 3.16900 21.85900
C  11.06900 2.61100 22.34900
C  11.75400 1.37700 21.71200
N  9.90000 1.84400 27.28300
C  10.54400 1.06400 26.42400
C  11.44400 0.10600 27.08500
C  11.40400 0.54600 28.36300
C  10.37400 1.60100 28.48400
C  12.21200 -1.01600 26.52400
C  11.95700 0.37600 29.68400
O  12.76300 -0.47500 30.02000
C  11.27800 1.38700 30.66600
C  10.66000 0.54800 31.66500
O  9.64500 -0.15600 31.44200
O  11.20400 0.83300 32.86900
C  10.47200 0.38000 34.06200
H  6.30300 6.10800 30.01700
H  7.11600 5.65100 23.65800
H  10.72800 0.40800 24.43000
H  8.65200 2.75900 32.29700
H  8.02500 5.51500 31.86200
H  5.79100 3.79600 31.32900
H  5.84100 5.00800 32.46200
H  6.58500 3.63100 33.00900
H  10.40500 5.12900 31.79900
H  11.19400 3.58700 32.22900
H  8.94200 3.96900 34.13800
H  9.64900 5.54100 33.88200
H  5.29500 8.40000 28.41800
H  4.58200 7.01900 29.16100
H  3.80700 7.65000 27.69600
H  3.54700 8.82100 25.66800
H  4.61800 9.69600 24.69200
H  5.21500 9.43300 26.22600
H  9.08200 4.53100 22.28000
H  9.14400 1.50800 22.40200
H  6.51700 3.28900 22.58900
H  7.30600 2.11300 21.59100
H  7.13000 3.78200 20.97700
H  11.70200 2.99400 23.14900
H  11.05700 3.43500 21.63500
H  12.72200 1.25800 22.20000
H  11.92700 1.55000 20.65000
H  11.15300 0.47000 21.78100
H  11.90800 -1.92100 27.05000
H  13.26700 -0.84000 26.73400
H  12.23400 -1.05400 25.43400
H  12.16300 1.89000 31.05600
H  11.04000 -0.24700 34.74900
H  9.64500 -0.26300 33.75900
H  10.08800 1.22000 34.64200
Mg 36.00900 49.60100 25.19200
C  36.52100 47.55000 27.91900
C  34.71900 51.99500 27.31200
C  35.19000 51.30900 22.44100
C  36.94800 47.02100 23.12800
N  35.50900 49.66500 27.44700
C  35.96200 48.78600 28.36100
C  35.98500 49.50300 29.73900
C  35.19700 50.81600 29.54500
C  35.16300 50.87900 28.01800
C  33.76000 50.79800 30.18100
C  37.40500 49.69400 30.31400
C  37.80100 49.48700 31.76800
H  36.65200 49.56400 32.75500
N  35.10000 51.35500 24.97400
C  34.70900 52.20200 25.91400
C  34.19100 53.46900 25.22400
C  34.31500 53.31200 23.81800
C  34.85600 51.96800 23.69000
C  33.78600 54.63400 26.04200
C  33.94000 54.32800 22.77500
O  34.07900 54.09800 21.57200
C  33.24100 55.59100 23.10900
N  36.10000 49.19900 23.04100
C  35.67000 50.08900 22.08600
C  35.99700 49.54100 20.69000
C  36.91800 48.31500 20.96200
C  36.69500 48.21300 22.49600
C  34.69000 49.24000 19.90400
C  38.41400 48.66300 20.72100
C  39.40500 47.50500 20.88300
N  36.61400 47.58400 25.40400
C  37.02400 46.68200 24.54200
C  37.38900 45.40300 25.11500
C  37.27200 45.73700 26.48900
C  36.72800 47.04200 26.62200
C  37.91800 44.12200 24.42100
C  37.52800 45.31500 27.86300
O  38.05200 44.28400 28.23100
C  37.04600 46.43900 28.82900
C  36.05900 45.86500 29.78700
O  34.84100 45.79100 29.61100
O  36.70300 45.69600 31.01300
C  35.78100 45.48800 32.21900
H  34.38100 52.79300 27.97700
H  34.89000 51.72100 21.47500
H  37.44100 46.23700 22.55000
H  35.53000 48.78100 30.41700
H  35.62600 51.76600 29.86300
H  33.01700 51.10600 29.44500
H  33.86500 51.54200 30.97000
H  33.35700 49.89200 30.63300
H  37.75400 50.71200 30.13900
H  37.96400 49.01700 29.66700
H  38.45700 50.26600 32.15600
H  38.32300 48.53200 31.71500
H  34.36700 55.50800 25.74900
H  33.99300 54.52500 27.10700
H  32.75600 54.98000 25.95200
H  33.19100 56.21400 22.21600
H  33.76500 56.21300 23.83600
H  32.23200 55.32000 23.42300
H  36.56000 50.26400 20.09900
H  36.68800 47.46600 20.31800
H  33.77400 49.54200 20.41100
H  34.64400 48.15300 19.84300
H  34.77300 49.74400 18.94100
H  38.61600 49.48600 21.40600
H  38.59400 49.06000 19.72200
H  38.82900 46.59500 21.05000
H  39.90300 47.58800 21.84900
H  40.03600 47.44800 19.99600
H  37.63700 43.32000 25.10400
H  38.98800 44.18300 24.22100
H  37.32800 43.97500 23.51700
H  37.88400 46.75200 29.45200
H  35.15600 44.59700 32.15500
H  35.10300 46.31500 32.43100
H  36.36700 45.32800 33.12400

