158

Mg 35.54300 3.17700 30.23300
C  32.90900 4.38200 32.33500
C  37.60800 3.46800 32.93800
C  38.07300 2.30900 28.22000
C  33.30900 3.01000 27.52300
N  35.27400 3.90400 32.40400
C  34.13900 4.27000 33.08300
C  34.36900 4.29500 34.60600
C  35.92900 4.40700 34.70200
C  36.30300 3.88500 33.28300
C  36.50600 5.83400 34.90200
C  33.73400 3.12400 35.35400
C  33.22700 3.45000 36.77900
H  33.82700 4.58700 37.55500
N  37.60300 2.89500 30.55200
C  38.25800 2.96200 31.75500
C  39.64600 2.49900 31.60400
C  39.86500 2.16800 30.22900
C  38.50500 2.49400 29.59000
C  40.73300 2.56200 32.69800
C  41.11600 1.62000 29.55800
O  41.22100 1.42600 28.35700
C  42.35000 1.33100 30.37500
N  35.74900 3.09300 28.09300
C  36.84300 2.54200 27.57100
C  36.58000 2.04800 26.11600
C  35.05800 2.05700 26.07500
C  34.68100 2.80600 27.25700
C  37.35300 3.04900 25.14300
C  34.41400 0.66200 25.90800
C  33.98300 0.31600 24.47200
N  33.59600 3.61100 29.92400
C  32.75200 3.46100 28.76800
C  31.50100 4.00800 29.01700
C  31.46600 4.27400 30.40100
C  32.74900 4.06200 30.94500
C  30.34800 3.96100 28.03100
C  30.61400 4.74100 31.56600
O  29.43900 5.07000 31.62000
C  31.52100 4.61600 32.81600
C  31.42700 5.77800 33.73800
O  32.09400 6.79400 33.70500
O  30.42700 5.53100 34.65800
C  30.38000 6.46300 35.83700
H  38.27500 3.47100 33.80300
H  38.74700 1.68300 27.63100
H  32.50200 2.91700 26.79300
H  33.80400 5.14100 34.99800
H  36.24200 3.81900 35.56500
H  37.08100 6.09800 34.01500
H  37.15800 5.89300 35.77400
H  35.72300 6.58300 35.01900
H  34.39100 2.27400 35.53300
H  32.90500 2.91800 34.67700
H  33.37700 2.63000 37.48100
H  32.14100 3.54600 36.74200
H  41.12800 1.57900 32.95200
H  40.35800 2.95100 33.64500
H  41.53800 3.27600 32.51800
H  43.14500 0.95800 29.73000
H  42.04900 0.52300 31.04200
H  42.78200 2.13800 30.96700
H  36.99200 1.04600 25.99200
H  34.80400 2.75100 25.27400
H  38.12900 3.56300 25.71000
H  36.78200 3.89000 24.75100
H  37.93700 2.48000 24.42000
H  33.54700 0.47900 26.54300
H  35.11200 -0.15000 26.11100
H  34.07400 1.19600 23.83500
H  32.92400 0.06000 24.44300
H  34.56100 -0.49900 24.03700
H  30.18200 2.96700 27.61500
H  30.64700 4.69400 27.28100
H  29.46100 4.21700 28.61000
H  31.17700 3.74400 33.37300
H  29.74600 7.32100 35.61300
H  31.38500 6.71800 36.17200
H  29.93700 5.96400 36.69900
Mg 35.90600 48.94800 25.31700
C  36.14400 47.23300 28.39600
C  34.42700 51.50200 26.91300
C  34.71200 50.03500 22.38400
C  37.01000 46.07000 23.59500
N  35.51400 49.38100 27.42100
C  35.69300 48.55900 28.52800
C  35.35900 49.25400 29.85900
C  34.75900 50.64100 29.33200
C  34.90900 50.50500 27.76200
C  33.29300 50.91100 29.69100
C  36.65700 49.40700 30.71000
C  36.51000 49.50200 32.26300
H  34.99800 49.48200 32.77700
N  34.98400 50.69300 24.71600
C  34.44200 51.65500 25.53100
C  33.80100 52.72900 24.75700
C  33.80800 52.20700 23.37500
C  34.51500 50.94800 23.42500
C  33.08900 53.86600 25.34800
C  33.13600 52.75200 22.14800
O  32.99000 52.16800 21.10500
C  32.50200 54.11100 22.23100
N  36.00100 48.20400 23.27400
C  35.36500 48.85300 22.31500
C  35.42100 48.06700 20.97900
C  36.24400 46.78800 21.38500
C  36.55500 47.08200 22.81300
C  34.10400 47.91800 20.17100
C  37.43300 46.59800 20.40500
C  38.77800 47.15800 20.81400
N  36.49000 47.01700 25.85500
C  36.89600 45.98000 25.04100
C  37.09200 44.85400 25.85300
C  36.85700 45.23600 27.19700
C  36.45900 46.59700 27.10300
C  37.51900 43.53600 25.39800
C  36.85900 44.83300 28.57500
O  37.07800 43.79600 29.16300
C  36.54400 46.15200 29.41900
C  35.48200 45.76900 30.32900
O  34.30200 45.76000 30.15800
O  35.99100 45.34100 31.57600
C  34.98500 45.21200 32.64000
H  34.04200 52.32500 27.51900
H  34.37700 50.42800 21.42100
H  37.19400 45.19600 22.96700
H  34.67100 48.57800 30.36500
H  35.38000 51.51300 29.53500
H  32.59200 51.17300 28.89800
H  33.24800 51.73700 30.40000
H  32.92700 50.02100 30.20300
H  37.12800 50.34100 30.40600
H  37.31700 48.56700 30.49000
H  36.91200 50.48700 32.49900
H  37.05900 48.64100 32.64500
H  33.73000 54.73800 25.21400
H  32.87700 53.75200 26.41100
H  32.10600 54.04100 24.91000
H  33.21900 54.79800 22.68000
H  31.54300 54.08100 22.74900
H  32.29800 54.44800 21.21500
H  35.99500 48.65000 20.25800
H  35.59000 45.91600 21.36700
H  33.92400 46.92300 19.76500
H  34.16300 48.57700 19.30500
H  33.23800 48.19100 20.77400
H  37.12300 46.97700 19.43100
H  37.56800 45.53200 20.22500
H  39.41900 46.39000 21.24600
H  38.61800 47.96900 21.52500
H  39.27000 47.69600 20.00300
H  38.54700 43.64500 25.05100
H  36.99000 43.03000 24.59200
H  37.62600 42.89400 26.27200
H  37.44200 46.36800 29.99900
H  35.69100 45.20000 33.47000
H  34.43400 44.27400 32.70800
H  34.25700 46.01900 32.56600

