158

Mg 25.87200 2.06100 29.51500
C  27.83900 1.69100 32.45000
C  23.18900 2.72100 31.58300
C  23.87600 1.81200 26.80400
C  28.51500 0.64800 27.77800
N  25.63500 2.27100 31.77700
C  26.55400 2.18000 32.72800
C  26.03000 2.62100 34.06600
C  24.47700 2.81400 33.76700
C  24.41100 2.60100 32.25000
C  23.47800 1.86600 34.46500
C  26.76100 3.87700 34.71500
C  27.53100 3.59400 35.99100
H  27.22600 4.52100 37.20700
N  23.87100 2.24900 29.25900
C  22.92400 2.58900 30.22100
C  21.63800 2.79600 29.58600
C  21.82800 2.59100 28.23100
C  23.23700 2.16600 28.05200
C  20.37600 3.15700 30.31800
C  20.81500 2.87600 27.15000
O  21.01900 2.68300 25.94600
C  19.50200 3.34300 27.50900
N  26.20000 1.51800 27.61500
C  25.18100 1.42500 26.64000
C  25.80900 1.16200 25.18700
C  27.29700 0.88900 25.59600
C  27.41500 1.12800 27.07700
C  25.09700 0.06500 24.38800
C  28.30300 1.73300 24.70500
C  29.61300 1.05000 24.12600
N  27.79100 1.36100 29.98400
C  28.69600 0.73200 29.16400
C  29.81500 0.31300 29.87500
C  29.57500 0.75900 31.19100
C  28.27600 1.28700 31.16500
C  30.92700 -0.40100 29.24900
C  30.04400 0.82400 32.56200
O  31.11300 0.51100 33.04600
C  28.93700 1.38900 33.43000
C  28.65600 0.37600 34.48700
O  27.99100 -0.65500 34.34200
O  29.30800 0.72000 35.63600
C  29.21600 -0.25500 36.75300
H  22.33000 3.02300 32.18600
H  23.21700 1.77000 25.93400
H  29.32200 0.15600 27.23100
H  26.06600 1.72600 34.68700
H  24.22300 3.82400 34.08900
H  23.18200 0.93200 33.98900
H  22.55700 2.43300 34.60200
H  23.97100 1.52200 35.37500
H  26.06600 4.65400 35.03200
H  27.50200 4.28000 34.02500
H  28.60900 3.74500 35.93400
H  27.34000 2.60300 36.40300
H  20.07000 4.20300 30.29100
H  20.57900 3.02400 31.38100
H  19.49200 2.56300 30.08600
H  18.96800 2.63300 28.13900
H  18.91300 3.45600 26.59900
H  19.73900 4.22000 28.11200
H  25.77000 2.14100 24.71000
H  27.49100 -0.18200 25.54300
H  24.37600 -0.48900 24.98800
H  25.74000 -0.55400 23.76300
H  24.45500 0.67400 23.75200
H  28.64300 2.63500 25.21500
H  27.71700 2.15400 23.88800
H  29.88000 0.28800 24.85700
H  30.41800 1.78400 24.15300
H  29.42300 0.74800 23.09600
H  31.34800 0.25300 28.48500
H  30.49200 -1.36900 29.00000
H  31.75200 -0.64200 29.91900
H  29.41700 2.22600 33.93600
H  29.94500 -0.14100 37.55500
H  29.36700 -1.24300 36.31800
H  28.19400 -0.19600 37.12700
Mg -5.56400 25.41700 26.33600
C  -4.31800 26.84000 29.20000
C  -7.40200 23.25600 28.17000
C  -6.63000 23.96200 23.42300
C  -3.23600 27.34200 24.52000
N  -5.73200 25.01300 28.39800
C  -5.26600 25.81500 29.46400
C  -5.98100 25.46300 30.79700
C  -6.62000 24.08900 30.45500
C  -6.61200 24.14200 28.93800
C  -5.83800 22.91900 31.07300
C  -7.01900 26.49900 31.32600
C  -7.24300 26.38400 32.85400
H  -6.88800 25.15100 33.71200
N  -6.88000 23.82000 25.90800
C  -7.56300 23.08200 26.79200
C  -8.38400 22.17700 26.03800
C  -8.10500 22.38100 24.61800
C  -7.12800 23.38000 24.58300
C  -9.30900 21.21200 26.79400
C  -8.73700 21.67400 23.45900
O  -8.38400 22.01000 22.30600
C  -9.58400 20.44300 23.64900
N  -4.99800 25.50900 24.28900
C  -5.63800 24.94900 23.23400
C  -4.96500 25.34000 21.85000
C  -4.03400 26.55400 22.23300
C  -4.10700 26.47500 23.79800
C  -4.33400 24.12100 21.18400
C  -4.44400 27.88400 21.60600
C  -3.59400 28.42100 20.47000
N  -4.11700 26.85300 26.69100
C  -3.22000 27.51300 25.91700
C  -2.56000 28.56100 26.62700
C  -2.96100 28.32100 27.94000
C  -3.88600 27.24200 27.95100
C  -1.66100 29.66700 26.00600
C  -2.86700 28.71600 29.30000
O  -2.22400 29.62000 29.92800
C  -3.73200 27.81000 30.19600
C  -2.85200 27.27400 31.27700
O  -1.89800 26.53300 31.02900
O  -3.12300 27.80900 32.45000
C  -2.36500 27.42700 33.62900
H  -8.19300 22.74100 28.71800
H  -6.86300 23.66400 22.39800
H  -2.59700 28.00400 23.93200
H  -5.14900 25.43500 31.50000
H  -7.64700 23.98800 30.80500
H  -4.79900 23.13600 31.32000
H  -5.77500 22.16500 30.28700
H  -6.29800 22.42400 31.92800
H  -8.01200 26.34500 30.90300
H  -6.72900 27.48100 30.95100
H  -8.30900 26.40500 33.08200
H  -6.82300 27.24900 33.36800
H  -8.86700 21.03500 27.77400
H  -9.55700 20.25600 26.33400
H  -10.23300 21.76100 26.97700
H  -8.99100 19.83800 24.33400
H  -9.58600 19.88200 22.71400
H  -10.58800 20.64800 24.02000
H  -5.72800 25.76900 21.20000
H  -2.99300 26.50800 21.91300
H  -3.24400 24.11800 21.20900
H  -4.61600 24.07700 20.13200
H  -4.71500 23.14100 21.47100
H  -4.42500 28.58900 22.43700
H  -5.48700 27.88300 21.29100
H  -4.37600 28.57300 19.72700
H  -2.84900 27.70400 20.12500
H  -3.11500 29.39600 20.57300
H  -1.14000 30.17400 26.81800
H  -2.15900 30.48100 25.48000
H  -0.78500 29.30500 25.46600
H  -4.41000 28.57800 30.56900
H  -2.94600 27.03200 34.46200
H  -1.80400 28.28300 34.00300
H  -1.56300 26.74200 33.35200

