158

Mg -1.08100 33.98500 27.32500
C  -3.21300 32.55300 29.73900
C  0.18800 35.99600 29.77500
C  0.38500 35.87200 24.90900
C  -3.15600 32.68300 24.85900
N  -1.28900 34.08000 29.51800
C  -2.15700 33.32400 30.28700
C  -2.15400 33.78500 31.73900
C  -1.08600 34.92000 31.72500
C  -0.71100 35.02400 30.28500
C  -1.57700 36.27900 32.24900
C  -1.74000 32.50200 32.61700
C  -2.60400 32.35000 33.86400
H  -1.97900 32.13300 35.25900
N  0.15800 35.59600 27.33400
C  0.65400 36.22300 28.40900
C  1.78800 37.03800 27.97200
C  1.77700 37.11700 26.56800
C  0.74100 36.20400 26.21400
C  2.69200 37.63800 28.99300
C  2.65600 37.95300 25.62300
O  2.50700 38.06800 24.36300
C  3.80200 38.70400 26.21200
N  -1.61600 34.52400 25.11500
C  -0.61800 35.08000 24.38200
C  -0.91600 34.95100 22.87500
C  -2.09800 33.96300 22.85100
C  -2.33200 33.68300 24.34000
C  -1.35800 36.26900 22.07400
C  -1.93000 32.61700 22.04100
C  -1.35500 31.36800 22.69900
N  -2.59900 32.59500 27.28400
C  -3.36200 32.22300 26.19800
C  -4.42100 31.32900 26.63000
C  -4.39000 31.36600 28.02200
C  -3.30700 32.23400 28.34700
C  -5.30900 30.54600 25.70300
C  -5.01100 30.93200 29.29300
O  -5.97700 30.21200 29.54900
C  -4.25400 31.67500 30.48900
C  -5.21200 32.49700 31.25100
O  -5.89500 33.31400 30.69700
O  -5.42500 32.09800 32.58600
C  -6.58500 32.74800 33.16800
H  0.65900 36.55600 30.58600
H  1.18400 36.14100 24.21500
H  -3.73600 32.23800 24.04800
H  -3.09800 34.13800 32.15400
H  -0.27100 34.84000 32.44500
H  -0.79700 36.84400 32.75800
H  -2.43500 36.26300 32.92200
H  -1.83900 36.92000 31.40700
H  -0.69500 32.58100 32.91900
H  -1.72900 31.60800 31.99300
H  -3.11400 31.41300 33.64200
H  -3.45100 33.03500 33.89800
H  3.68700 37.70900 28.55400
H  2.84600 37.09500 29.92500
H  2.39800 38.64000 29.30600
H  4.47900 37.96400 26.63900
H  3.31100 39.34300 26.94500
H  4.30300 39.36800 25.50800
H  0.00500 34.55000 22.45000
H  -3.00800 34.43100 22.47700
H  -0.49900 36.56100 21.46900
H  -1.47700 36.98500 22.88700
H  -2.29700 36.16700 21.52900
H  -1.30500 33.00800 21.23800
H  -2.92000 32.44100 21.62200
H  -2.20000 30.73700 22.97300
H  -0.65600 31.83200 23.39500
H  -0.69800 30.85000 22.00100
H  -4.67400 29.99100 25.01200
H  -6.03900 31.14800 25.16300
H  -5.83000 29.69800 26.14800
H  -3.79900 30.86400 31.05700
H  -6.47000 33.82100 33.02000
H  -6.66500 32.39900 34.19700
H  -7.56800 32.44300 32.80700
Mg -12.39100 17.58900 41.29200
C  -9.02700 16.36200 40.76200
C  -11.20700 20.83700 40.58600
C  -15.48600 18.60400 40.66300
C  -13.43800 14.17000 41.18200
N  -10.37900 18.39700 40.72500
C  -9.10800 17.76700 40.59800
C  -7.91900 18.82400 40.32800
C  -8.74900 20.18700 40.35700
C  -10.25900 19.79400 40.59000
C  -8.23600 21.33800 41.34800
C  -7.15000 18.62600 39.01000
C  -5.75100 18.06800 39.21400
H  -5.40200 16.93000 38.16400
N  -13.18700 19.43700 40.71900
C  -12.59700 20.65000 40.52400
C  -13.55500 21.64000 40.01800
C  -14.85500 20.98600 40.03600
C  -14.56800 19.62200 40.46800
C  -13.22900 23.02100 39.59700
C  -16.17500 21.60900 39.59200
O  -16.18300 22.77200 39.15500
C  -17.52300 21.01100 39.81200
N  -14.21500 16.51000 40.97000
C  -15.34700 17.21600 40.83800
C  -16.54300 16.27200 40.77800
C  -15.90800 14.87100 41.23600
C  -14.44000 15.16500 41.04500
C  -17.85600 16.62600 41.53300
C  -16.54700 13.67100 40.40500
C  -17.57800 12.76300 41.15800
N  -11.46600 15.61600 41.16000
C  -12.06900 14.32400 41.11800
C  -11.02100 13.36800 40.95800
C  -9.82600 14.17600 40.92200
C  -10.14500 15.53000 41.01000
C  -11.15300 11.89300 40.88000
C  -8.38400 13.99100 40.67600
O  -7.75500 12.95300 40.53700
C  -7.78900 15.45300 40.54900
C  -6.67100 15.60100 41.61900
O  -6.78100 16.27800 42.63500
O  -5.58700 14.84400 41.28200
C  -4.64900 14.67400 42.42600
H  -10.73900 21.80500 40.39100
H  -16.54000 18.81700 40.47300
H  -13.80200 13.14100 41.22100
H  -7.24000 18.68100 41.16800
H  -8.87100 20.61000 39.36000
H  -7.23900 21.23100 41.77600
H  -9.02000 21.33000 42.10500
H  -8.29100 22.24300 40.74400
H  -7.05900 19.60500 38.54100
H  -7.74300 17.95200 38.39100
H  -5.56600 17.66300 40.20900
H  -5.06800 18.87200 38.94100
H  -13.51300 23.27100 38.57500
H  -12.16500 23.22100 39.72100
H  -13.76200 23.66300 40.29800
H  -17.63600 20.04900 39.31200
H  -18.25500 21.67100 39.34700
H  -17.67600 20.92900 40.88900
H  -16.79200 16.00500 39.75100
H  -15.99800 14.63000 42.29500
H  -18.49100 17.12900 40.80400
H  -17.80100 17.20200 42.45700
H  -18.35700 15.67700 41.72600
H  -15.69100 13.03100 40.19200
H  -17.14000 13.86100 39.51000
H  -17.35600 12.37700 42.15300
H  -17.65200 11.93800 40.44900
H  -18.54000 13.27400 41.18000
H  -11.07400 11.52200 41.90100
H  -10.45000 11.27700 40.32000
H  -12.13800 11.60000 40.51600
H  -7.38400 15.62700 39.55200
H  -4.13100 15.62300 42.57000
H  -3.96300 13.82900 42.47300
H  -5.18900 14.50800 43.35800

