158

Mg 48.65400 46.77200 42.44500
C  45.41000 46.82800 41.16600
C  48.97600 43.49900 41.06900
C  51.92100 46.84600 42.95900
C  48.48000 50.21000 42.94300
N  47.44500 45.47600 41.12500
C  46.11800 45.65400 40.82600
C  45.52500 44.45900 40.13100
C  46.49100 43.30900 40.37600
C  47.74700 44.12800 40.90700
C  45.98200 42.23700 41.38500
C  45.34200 44.83700 38.65800
C  43.90700 44.56900 38.05400
H  43.96600 43.66800 36.76600
N  50.24100 45.39300 42.11100
C  50.17300 44.09600 41.57100
C  51.52000 43.49000 41.46200
C  52.46500 44.42100 42.04700
C  51.55600 45.62300 42.33900
C  51.76200 42.05000 40.90400
C  53.93900 44.21500 42.21000
O  54.46800 43.11900 41.93000
C  54.80600 45.31700 42.72200
N  50.02700 48.39400 42.95900
C  51.31100 48.08000 43.20100
C  52.05100 49.30200 43.75300
C  51.03500 50.48800 43.34200
C  49.74800 49.69600 43.15800
C  52.36700 49.03400 45.22300
C  51.40600 51.28100 42.05000
C  52.68800 52.24300 42.24400
N  47.18000 48.19000 42.33700
C  47.27700 49.55000 42.62000
C  45.89400 50.04500 42.46300
C  45.13500 49.01700 41.91300
C  45.98600 47.91700 41.81100
C  45.57100 51.39500 42.99200
C  43.78900 48.66600 41.49900
O  42.73500 49.35800 41.39600
C  43.90900 47.16900 41.09500
C  43.15100 46.38600 42.07300
O  43.61700 45.88100 43.06500
O  41.84400 46.15500 41.55700
C  41.02600 45.14800 42.19100
H  49.06400 42.47000 40.71600
H  52.96900 46.83800 43.26700
H  48.33400 51.29000 42.88100
H  44.53400 44.18800 40.49700
H  46.70900 42.81700 39.42800
H  46.11500 42.62200 42.39600
H  46.61400 41.38300 41.14300
H  44.96400 41.99500 41.08000
H  46.01400 44.25900 38.02300
H  45.58300 45.88800 38.50200
H  43.44300 45.54600 37.91900
H  43.24700 44.03800 38.74000
H  52.45500 41.49800 41.53900
H  52.19100 42.15500 39.90700
H  50.85200 41.45200 40.86600
H  54.50900 46.23800 42.22000
H  55.84900 45.06000 42.53500
H  54.72100 45.50100 43.79200
H  52.90200 49.45800 43.09100
H  50.93500 51.13200 44.21500
H  51.90200 49.67600 45.97100
H  53.42800 49.19900 45.40700
H  52.02700 48.01200 45.39000
H  50.62400 52.01000 41.83900
H  51.45200 50.64300 41.16800
H  53.35900 52.06700 41.40400
H  53.04700 52.13000 43.26700
H  52.39400 53.28000 42.08600
H  46.22000 51.74500 43.79400
H  44.55800 51.53800 43.36800
H  45.75100 52.09800 42.17900
H  43.33600 47.03000 40.17800
H  40.41500 45.63200 42.95200
H  41.57100 44.43600 42.81200
H  40.41800 44.78600 41.36200
Mg 36.54700 48.79400 25.25700
C  36.49400 46.83900 28.18800
C  34.59400 51.04500 26.76800
C  36.17600 50.33900 22.23600
C  38.15200 46.12200 23.62900
N  35.58800 48.90700 27.22800
C  35.83300 48.07300 28.30800
C  35.48900 48.73300 29.66300
C  34.72200 50.02200 29.21000
C  34.97500 49.99400 27.63600
C  33.17100 50.02400 29.53500
C  36.70400 48.83000 30.64500
C  36.69600 48.07400 31.99800
H  35.36000 47.95400 32.66900
N  35.48200 50.46400 24.55200
C  34.73800 51.26200 25.36900
C  34.20700 52.38200 24.59700
C  34.67600 52.32000 23.26000
C  35.50700 51.00600 23.27000
C  33.38800 53.44600 25.30200
C  34.46600 53.18100 22.10400
O  35.21900 52.96500 21.13100
C  33.53200 54.37700 22.11100
N  37.08500 48.30200 23.24500
C  36.84400 49.12800 22.17400
C  37.50200 48.59600 20.88300
C  38.22100 47.32300 21.41900
C  37.89600 47.32900 22.86000
C  36.56500 48.37400 19.58700
C  39.79000 47.27700 21.30300
C  40.35300 46.90000 19.93100
N  37.29500 46.92800 25.77700
C  37.87700 45.95100 25.00500
C  38.15300 44.73600 25.85400
C  37.61600 45.07000 27.12900
C  37.14200 46.39400 26.99900
C  38.68700 43.39800 25.36800
C  37.42700 44.56200 28.45700
O  37.76000 43.51400 28.98900
C  36.73500 45.72500 29.27100
C  35.42600 45.17600 29.77400
O  34.44100 45.26800 29.09800
O  35.53900 44.49700 30.93500
C  34.28200 43.83700 31.37900
H  34.02200 51.76500 27.35800
H  36.12800 50.93100 21.31900
H  38.55200 45.17000 23.27300
H  34.82000 48.06600 30.20700
H  35.23200 50.89700 29.61200
H  32.84700 49.16900 30.12800
H  32.45700 50.07600 28.71300
H  33.04300 50.93800 30.11500
H  37.01500 49.84700 30.88300
H  37.44800 48.38300 29.98600
H  37.21100 48.75500 32.67500
H  37.29100 47.16500 31.90100
H  32.32700 53.23300 25.43500
H  33.49700 54.35900 24.71700
H  33.84300 53.70000 26.25900
H  32.52000 53.97900 22.17700
H  33.44700 54.76500 21.09600
H  33.75200 55.26300 22.70700
H  38.38100 49.15700 20.56500
H  37.79400 46.45900 20.91100
H  35.57100 48.79100 19.74800
H  36.43300 47.30800 19.40700
H  36.93000 48.94500 18.73300
H  40.15700 46.63700 22.10500
H  40.26400 48.22300 21.56300
H  41.02900 47.70000 19.62900
H  39.64100 46.72300 19.12500
H  40.90600 45.97300 20.08700
H  39.41700 43.56600 24.57700
H  37.91800 42.65700 25.14900
H  39.31400 42.95700 26.14300
H  37.40900 46.08500 30.05000
H  33.94400 43.09900 30.65100
H  33.47500 44.56400 31.47100
H  34.39400 43.45500 32.39400

