158

Mg 35.79200 2.39500 30.64400
C  33.20400 3.17400 33.00600
C  38.00300 2.50900 33.34700
C  38.30900 2.08800 28.46800
C  33.47100 2.98700 28.07900
N  35.57100 2.82900 32.87200
C  34.39200 3.02200 33.61100
C  34.63200 3.12000 35.13600
C  36.16400 3.10200 35.27100
C  36.67900 2.84900 33.76600
C  36.68000 4.48100 35.81300
C  33.92300 2.01200 36.08900
C  33.47900 2.45500 37.50300
H  34.24700 3.50900 38.28400
N  37.83800 2.20900 30.83700
C  38.51200 2.31800 32.02100
C  39.85000 1.85200 31.72700
C  40.03400 1.73000 30.35400
C  38.72400 2.10600 29.82200
C  40.82600 1.46900 32.74700
C  41.25600 1.37800 29.52000
O  41.25600 1.10100 28.33500
C  42.55900 1.39900 30.19700
N  35.87200 2.62200 28.55500
C  36.99500 2.26000 27.88300
C  36.73700 2.25000 26.46200
C  35.16200 2.38000 26.33400
C  34.77700 2.68500 27.75800
C  37.45700 3.34700 25.62100
C  34.61300 0.98800 25.87200
C  34.90000 0.47800 24.42300
N  33.79200 2.90900 30.47900
C  32.97800 3.10700 29.38800
C  31.66000 3.33400 29.78400
C  31.69100 3.29100 31.16400
C  33.00800 3.14700 31.54800
C  30.43600 3.46400 28.87600
C  30.89100 3.52000 32.38900
O  29.68400 3.83100 32.45800
C  31.81200 3.36500 33.66200
C  31.69100 4.62700 34.53200
O  31.86800 5.75900 34.13900
O  31.06100 4.36100 35.74400
C  30.85500 5.51100 36.70900
H  38.70700 2.42700 34.17700
H  38.96700 1.73200 27.67300
H  32.79600 3.11000 27.22900
H  34.27700 4.13000 35.34200
H  36.54400 2.30800 35.91300
H  36.80500 5.12500 34.94200
H  37.57600 4.26000 36.39300
H  35.98400 4.97200 36.49400
H  34.61400 1.18300 36.24200
H  33.00700 1.67200 35.60600
H  33.39500 1.59000 38.16100
H  32.47900 2.86900 37.37400
H  41.10900 0.41800 32.68900
H  40.43000 1.62100 33.75100
H  41.70100 2.10500 32.61200
H  42.65400 0.57600 30.90500
H  42.54800 2.36500 30.70000
H  43.28600 1.40600 29.38400
H  37.12500 1.33200 26.02100
H  34.68200 3.09400 25.66600
H  38.20100 3.90100 26.19400
H  36.79800 4.08400 25.16200
H  37.98000 2.89300 24.78000
H  33.53200 1.00000 26.01000
H  35.03200 0.28200 26.58900
H  33.96200 0.48100 23.86800
H  35.25400 -0.55100 24.48100
H  35.72600 0.98800 23.92700
H  29.60000 2.96400 29.36400
H  30.54600 3.00000 27.89600
H  30.17600 4.50900 28.71100
H  31.54600 2.46700 34.22000
H  30.35000 6.37400 36.27500
H  31.79500 5.81100 37.17100
H  30.13900 5.15900 37.45200
Mg -4.63500 25.51100 25.75600
C  -3.59300 26.83000 28.83200
C  -6.65200 23.27600 27.62000
C  -5.35300 23.87800 22.91300
C  -2.24900 27.36600 24.14000
N  -5.01400 25.08700 27.98600
C  -4.57200 25.84500 29.06600
C  -5.16600 25.50500 30.42200
C  -6.04100 24.26500 29.94700
C  -5.91100 24.21600 28.40200
C  -5.52300 22.93000 30.61500
C  -6.06900 26.62400 30.99300
C  -6.25900 26.65700 32.50400
H  -5.73800 25.62700 33.42800
N  -6.05000 23.91300 25.26500
C  -6.78400 23.18400 26.20300
C  -7.60400 22.32600 25.53000
C  -7.24500 22.40600 24.10900
C  -6.19200 23.41700 24.00200
C  -8.65800 21.39300 26.14500
C  -7.68800 21.59100 22.90500
O  -7.14700 21.64800 21.76400
C  -8.77300 20.62300 22.95000
N  -3.85700 25.57200 23.82500
C  -4.32200 24.79400 22.81500
C  -3.50500 24.97500 21.54200
C  -2.49500 26.19900 21.95100
C  -2.80200 26.29900 23.44900
C  -2.99800 23.80200 20.78800
C  -2.58800 27.51700 21.10400
C  -3.72300 28.51800 21.49800
N  -3.26600 26.92700 26.31800
C  -2.41100 27.67600 25.52700
C  -1.71800 28.61100 26.35000
C  -2.10200 28.25700 27.68100
C  -3.02600 27.25500 27.61100
C  -0.73500 29.62800 25.93700
C  -1.84900 28.53600 29.08100
O  -1.09100 29.34700 29.56800
C  -2.86600 27.67300 29.88100
C  -2.05400 26.74300 30.81800
O  -1.21300 25.87500 30.48300
O  -2.32300 27.18500 32.11300
C  -1.50200 26.58700 33.11200
H  -7.27800 22.64800 28.25700
H  -5.70400 23.45800 21.96800
H  -1.43000 27.87800 23.63000
H  -4.35500 25.33100 31.12800
H  -7.09800 24.39700 30.17800
H  -4.80800 23.21100 31.38900
H  -4.95400 22.41900 29.83900
H  -6.37900 22.37900 31.00300
H  -7.05600 26.55700 30.53700
H  -5.59500 27.57600 30.75400
H  -7.32400 26.70100 32.72900
H  -5.87900 27.63400 32.80000
H  -9.68800 21.55000 25.82400
H  -8.66800 21.37500 27.23500
H  -8.51300 20.34200 25.89500
H  -9.05400 20.21500 21.97900
H  -9.68800 21.09600 23.30600
H  -8.48700 19.79500 23.59900
H  -4.29200 25.44200 20.95000
H  -1.46100 25.87600 21.83200
H  -3.05200 22.91200 21.41600
H  -2.00700 24.00000 20.38000
H  -3.64500 23.68600 19.91900
H  -2.74700 27.30200 20.04800
H  -1.70400 28.14900 21.19100
H  -3.15900 29.30800 21.99500
H  -4.52300 28.06300 22.08200
H  -4.21400 28.89100 20.59900
H  -1.20000 30.40400 25.33000
H  0.11500 29.14100 25.45800
H  -0.34600 30.15300 26.81000
H  -3.44700 28.31900 30.53900
H  -0.62100 27.22900 33.10400
H  -1.30600 25.54900 32.84000
H  -1.92800 26.69500 34.10900

