158

Mg -1.34400 16.96800 25.91200
C  -1.93100 14.84000 28.76500
C  -1.79600 19.72400 28.02000
C  -1.25200 18.83700 23.26300
C  -1.57300 14.09300 23.97800
N  -1.93800 17.30900 28.12800
C  -2.10500 16.24100 29.11600
C  -2.44900 16.93500 30.47500
C  -2.33900 18.48600 30.23100
C  -1.92300 18.50200 28.72300
C  -3.56100 19.38200 30.59800
C  -1.72700 16.45100 31.76300
C  -1.97300 17.20400 33.08000
H  -1.90200 16.31400 34.27900
N  -1.42700 19.04300 25.63500
C  -1.66900 19.98800 26.60500
C  -1.61300 21.27500 25.96000
C  -1.42200 21.07200 24.60300
C  -1.28800 19.61000 24.45900
C  -1.80300 22.54100 26.79500
C  -1.52100 22.13000 23.52200
O  -1.30300 21.88400 22.31900
C  -1.91500 23.56700 23.90800
N  -1.27300 16.46900 23.86500
C  -1.20800 17.48300 22.92300
C  -1.44900 16.93800 21.46800
C  -1.70300 15.39900 21.74400
C  -1.55300 15.29600 23.28300
C  -2.67400 17.65400 20.69900
C  -0.68100 14.50500 21.00400
C  0.80500 14.64500 21.49000
N  -1.45500 14.89500 26.22100
C  -1.43900 13.84800 25.32400
C  -1.53000 12.66300 26.06900
C  -1.61700 12.97800 27.39500
C  -1.75300 14.34300 27.45800
C  -1.63500 11.25000 25.44000
C  -1.72600 12.45300 28.72400
O  -1.66900 11.26900 29.07900
C  -1.89200 13.61800 29.66400
C  -0.79900 13.59900 30.60400
O  0.31100 14.06400 30.50100
O  -1.22400 12.77500 31.62400
C  -0.38800 12.67900 32.85700
H  -1.76500 20.61300 28.65200
H  -1.31100 19.56400 22.45000
H  -1.87700 13.17000 23.48100
H  -3.50000 16.69500 30.63700
H  -1.43600 18.93600 30.64300
H  -4.10600 18.82500 31.36100
H  -4.18500 19.47400 29.70900
H  -3.32700 20.43200 30.77300
H  -0.69300 16.30700 31.44800
H  -2.20400 15.49700 31.98900
H  -2.96000 17.66300 33.11900
H  -1.18500 17.95500 33.14200
H  -2.77400 22.98100 26.56900
H  -0.97400 23.19500 26.52600
H  -1.85300 22.33700 27.86500
H  -1.80800 24.18400 23.01600
H  -1.24600 23.99000 24.65800
H  -2.91100 23.54700 24.35000
H  -0.55200 17.01400 20.85300
H  -2.72300 15.03400 21.62700
H  -3.26900 16.98600 20.07600
H  -2.36700 18.52200 20.11600
H  -3.34700 17.92500 21.51300
H  -0.70200 14.97900 20.02300
H  -0.99100 13.46400 21.10100
H  0.99000 15.26400 22.36800
H  1.36800 15.07200 20.66000
H  1.17800 13.63200 21.64200
H  -0.93300 11.28000 24.60700
H  -2.66600 10.98700 25.20200
H  -1.26500 10.49700 26.13500
H  -2.89200 13.51200 30.08500
H  -1.03200 12.67400 33.73600
H  0.28400 13.53300 32.93600
H  0.15400 11.73400 32.83100
Mg 35.85800 1.77000 29.08600
C  33.75400 2.87800 31.41300
C  38.48600 2.20500 31.27300
C  38.12400 0.85900 26.63800
C  33.44300 2.04100 26.61700
N  36.07900 2.54600 31.13300
C  35.01000 2.70200 31.97600
C  35.43400 2.81500 33.37700
C  37.02100 2.78100 33.33900
C  37.24600 2.32000 31.85400
C  37.77600 4.06100 33.78900
C  34.81000 1.71200 34.27600
C  34.28600 2.17900 35.69400
H  35.07300 3.12700 36.63100
N  37.94100 1.51200 28.98200
C  38.80200 1.83100 30.00000
C  40.18700 1.70300 29.50600
C  40.08100 1.10000 28.20700
C  38.65100 1.11000 27.86700
C  41.42800 2.13400 30.20500
C  41.26000 0.45400 27.42100
O  41.02300 -0.09700 26.36200
C  42.70400 0.40000 27.88100
N  35.67900 1.23100 26.92900
C  36.81100 0.96600 26.15600
C  36.42100 0.86500 24.62900
C  34.85500 0.98500 24.77400
C  34.57900 1.44400 26.16500
C  37.06100 2.04300 23.88700
C  34.21800 -0.41600 24.50400
C  33.80700 -1.34600 25.77300
N  33.94200 2.30300 29.00400
C  33.12400 2.45700 27.96200
C  31.81800 2.91300 28.41300
C  32.04200 3.10400 29.80500
C  33.36000 2.70100 30.06200
C  30.60500 3.32700 27.62400
C  31.54100 3.63100 30.99600
O  30.43100 4.10700 31.16300
C  32.54500 3.44600 32.07700
C  32.72900 4.71000 32.80200
O  33.59600 5.50800 32.61200
O  31.73800 4.80500 33.79400
C  31.87900 5.97800 34.69600
H  39.29300 2.34800 31.99400
H  38.67500 0.46600 25.78100
H  32.72300 2.17200 25.80600
H  35.14600 3.81500 33.70100
H  37.45000 1.97000 33.92600
H  37.20300 4.62700 34.52400
H  37.96300 4.68700 32.91700
H  38.77100 3.88400 34.19800
H  35.56400 0.93900 34.42300
H  33.96100 1.25600 33.76700
H  34.02100 1.22100 36.14100
H  33.31500 2.60300 35.43600
H  41.87700 1.38300 30.85500
H  41.17500 2.93100 30.90300
H  42.17300 2.66600 29.61300
H  43.13700 1.39800 27.81900
H  43.29500 -0.22500 27.21100
H  42.75000 0.02100 28.90200
H  36.87600 0.00400 24.13800
H  34.45000 1.67300 24.03200
H  36.31800 2.83300 23.76900
H  37.16700 1.66100 22.87200
H  37.97400 2.44600 24.32500
H  34.91700 -0.96400 23.87200
H  33.38600 -0.18600 23.83800
H  34.21100 -2.32700 25.52600
H  32.72600 -1.36700 25.91500
H  34.23100 -0.98300 26.71000
H  30.53900 4.37100 27.93000
H  29.77600 2.72800 27.99900
H  30.74900 3.11400 26.56500
H  32.09700 2.69100 32.72300
H  32.43800 5.58200 35.54400
H  30.90500 6.38100 34.97400
H  32.51200 6.74200 34.24500

