158

Mg 25.87200 2.06100 29.51500
C  27.83900 1.69100 32.45000
C  23.18900 2.72100 31.58300
C  23.87600 1.81200 26.80400
C  28.51500 0.64800 27.77800
N  25.63500 2.27100 31.77700
C  26.55400 2.18000 32.72800
C  26.03000 2.62100 34.06600
C  24.47700 2.81400 33.76700
C  24.41100 2.60100 32.25000
C  23.47800 1.86600 34.46500
C  26.76100 3.87700 34.71500
C  27.53100 3.59400 35.99100
H  27.22600 4.52100 37.20700
N  23.87100 2.24900 29.25900
C  22.92400 2.58900 30.22100
C  21.63800 2.79600 29.58600
C  21.82800 2.59100 28.23100
C  23.23700 2.16600 28.05200
C  20.37600 3.15700 30.31800
C  20.81500 2.87600 27.15000
O  21.01900 2.68300 25.94600
C  19.50200 3.34300 27.50900
N  26.20000 1.51800 27.61500
C  25.18100 1.42500 26.64000
C  25.80900 1.16200 25.18700
C  27.29700 0.88900 25.59600
C  27.41500 1.12800 27.07700
C  25.09700 0.06500 24.38800
C  28.30300 1.73300 24.70500
C  29.61300 1.05000 24.12600
N  27.79100 1.36100 29.98400
C  28.69600 0.73200 29.16400
C  29.81500 0.31300 29.87500
C  29.57500 0.75900 31.19100
C  28.27600 1.28700 31.16500
C  30.92700 -0.40100 29.24900
C  30.04400 0.82400 32.56200
O  31.11300 0.51100 33.04600
C  28.93700 1.38900 33.43000
C  28.65600 0.37600 34.48700
O  27.99100 -0.65500 34.34200
O  29.30800 0.72000 35.63600
C  29.21600 -0.25500 36.75300
H  22.33000 3.02300 32.18600
H  23.21700 1.77000 25.93400
H  29.32200 0.15600 27.23100
H  26.06600 1.72600 34.68700
H  24.22300 3.82400 34.08900
H  23.18200 0.93200 33.98900
H  22.55700 2.43300 34.60200
H  23.97100 1.52200 35.37500
H  26.06600 4.65400 35.03200
H  27.50200 4.28000 34.02500
H  28.60900 3.74500 35.93400
H  27.34000 2.60300 36.40300
H  20.07000 4.20300 30.29100
H  20.57900 3.02400 31.38100
H  19.49200 2.56300 30.08600
H  18.96800 2.63300 28.13900
H  18.91300 3.45600 26.59900
H  19.73900 4.22000 28.11200
H  25.77000 2.14100 24.71000
H  27.49100 -0.18200 25.54300
H  24.37600 -0.48900 24.98800
H  25.74000 -0.55400 23.76300
H  24.45500 0.67400 23.75200
H  28.64300 2.63500 25.21500
H  27.71700 2.15400 23.88800
H  29.88000 0.28800 24.85700
H  30.41800 1.78400 24.15300
H  29.42300 0.74800 23.09600
H  31.34800 0.25300 28.48500
H  30.49200 -1.36900 29.00000
H  31.75200 -0.64200 29.91900
H  29.41700 2.22600 33.93600
H  29.94500 -0.14100 37.55500
H  29.36700 -1.24300 36.31800
H  28.19400 -0.19600 37.12700
Mg 45.20200 5.80800 48.52800
C  42.75100 8.28300 48.08400
C  42.58600 3.43500 47.75000
C  47.45600 3.22100 48.13900
C  47.71100 8.09800 48.12200
N  43.02900 5.84300 47.75200
C  42.26500 6.95600 47.88100
C  40.71500 6.62100 47.77200
C  40.71700 5.10200 47.48900
C  42.17500 4.77100 47.77900
C  39.64200 4.47700 48.46800
C  39.88400 7.49100 46.72900
C  40.52800 7.73600 45.32700
H  39.79800 7.05000 44.18000
N  45.01200 3.58800 48.18100
C  43.88100 2.86300 47.93400
C  44.23300 1.47000 47.69500
C  45.63200 1.38000 47.84500
C  46.11300 2.80200 48.06100
C  43.19900 0.39900 47.64300
C  46.44000 0.04900 47.78000
O  45.92100 -0.96400 47.37000
C  47.81600 -0.06600 48.27400
N  47.25100 5.68900 48.17000
C  47.92400 4.46600 48.09400
C  49.53400 4.78200 48.01800
C  49.48900 6.32300 48.19100
C  48.12900 6.72600 48.12000
C  50.43700 4.06100 49.03100
C  50.35400 7.11300 47.21500
C  51.14000 8.33200 47.81500
N  45.26300 7.74800 48.32800
C  46.33300 8.65200 48.18500
C  45.78400 9.98300 48.22100
C  44.38600 9.91400 48.19400
C  44.13000 8.49900 48.15300
C  46.70200 11.18700 48.32400
C  43.18600 10.71700 48.30000
O  43.00800 11.91900 48.39700
C  42.05900 9.65500 48.07600
C  41.11300 9.71000 49.22400
O  41.04500 9.01400 50.23900
O  40.25400 10.71400 48.96400
C  39.20400 11.07700 49.96400
H  41.88400 2.62000 47.56400
H  48.24100 2.54100 47.80000
H  48.59400 8.73500 48.03300
H  40.38300 6.92200 48.76500
H  40.41300 4.82700 46.47900
H  40.03500 4.35900 49.47800
H  39.18500 3.53600 48.16300
H  38.76300 5.11100 48.58100
H  39.57000 8.42800 47.18900
H  38.88900 7.05800 46.62600
H  41.46100 7.18200 45.42300
H  40.66200 8.81400 45.23900
H  42.16000 0.70400 47.76800
H  43.37900 -0.24200 48.50600
H  43.40300 -0.24200 46.78600
H  48.18400 -1.09200 48.29200
H  47.86300 0.45500 49.23000
H  48.37600 0.42400 47.47800
H  49.72800 4.53300 46.97500
H  49.89400 6.55000 49.17700
H  50.79600 3.10000 48.66200
H  49.92100 3.92800 49.98100
H  51.35800 4.62900 49.16000
H  49.80400 7.47700 46.34800
H  51.17100 6.43600 46.96300
H  52.21800 8.17700 47.78600
H  50.89100 8.61700 48.83700
H  50.83200 9.07900 47.08300
H  46.03500 11.99200 48.01600
H  47.59200 11.17200 47.69500
H  46.95400 11.24100 49.38300
H  41.45300 9.81600 47.18400
H  39.18400 10.41700 50.83200
H  38.23100 11.07600 49.47300
H  39.43200 12.07500 50.33700

