158

Mg 46.02400 16.59200 28.21600
C  44.00800 16.13200 30.99700
C  47.95500 18.71900 30.10500
C  47.91000 16.96200 25.56000
C  43.59400 14.91000 26.28300
N  46.04400 17.24400 30.35500
C  45.14100 16.90400 31.32200
C  45.55000 17.38900 32.66500
C  46.65400 18.40900 32.31100
C  46.80900 18.26000 30.78000
C  46.37600 19.85000 32.67300
C  45.98900 16.25900 33.60100
C  45.66100 16.35600 35.08100
H  45.79500 17.82000 35.67800
N  47.81400 17.59400 27.88400
C  48.44500 18.39200 28.77100
C  49.80900 18.59600 28.34200
C  49.84100 17.92100 27.01400
C  48.49200 17.42300 26.79700
C  50.93800 19.11000 29.30100
C  50.95600 17.71300 26.01500
O  50.87200 16.92600 25.07200
C  52.35000 18.26200 26.33400
N  45.64400 16.27600 26.14100
C  46.66800 16.38700 25.30900
C  46.25000 16.09400 23.85900
C  44.89500 15.31000 24.09800
C  44.72300 15.41500 25.61000
C  46.11600 17.34800 22.99400
C  44.85900 13.75600 23.71500
C  43.56800 13.32000 23.08100
N  44.12300 15.76400 28.55600
C  43.35700 15.04400 27.65400
C  42.18400 14.54900 28.37600
C  42.38800 14.94000 29.70700
C  43.61500 15.61200 29.79700
C  41.04000 13.82300 27.84600
C  41.83400 14.94400 31.04500
O  40.83500 14.46600 31.49300
C  42.93900 15.69300 31.90600
C  42.24900 16.75200 32.70000
O  41.63900 17.65100 32.20700
O  42.40100 16.58200 34.05200
C  41.77500 17.57100 34.89700
H  48.58500 19.27400 30.80500
H  48.54100 16.99400 24.66900
H  42.91800 14.32800 25.65400
H  44.70100 17.91200 33.10700
H  47.58700 18.05000 32.74600
H  47.37100 20.13100 33.01700
H  45.58900 19.93900 33.42200
H  46.15800 20.49700 31.82300
H  47.04400 16.15500 33.35000
H  45.49700 15.35100 33.25100
H  46.32400 15.71200 35.65900
H  44.67300 15.96000 35.31300
H  50.97600 20.19100 29.16900
H  51.97700 18.88200 29.06300
H  50.63600 18.85100 30.31600
H  52.93000 18.13300 25.42000
H  52.79100 17.70700 27.16200
H  52.29900 19.29900 26.66600
H  47.01000 15.40000 23.50000
H  43.91800 15.64800 23.75100
H  45.05300 17.56100 23.11400
H  46.40300 17.27800 21.94500
H  46.70500 18.20500 23.31900
H  45.00500 13.11100 24.58100
H  45.66000 13.42600 23.05400
H  43.78700 12.76700 22.16700
H  42.85200 14.13600 22.98600
H  43.06700 12.49700 23.59000
H  41.18300 13.64600 26.78000
H  40.06800 14.30300 27.96400
H  41.02400 12.88900 28.40800
H  43.40000 14.95200 32.56000
H  41.94600 17.26300 35.92900
H  40.70200 17.66600 34.72800
H  42.25200 18.54500 34.79400
Mg -10.05900 38.28000 40.81400
C  -7.99800 35.46800 40.08600
C  -7.69300 40.23200 39.22900
C  -12.34900 40.81200 40.94500
C  -12.62600 35.96100 41.65000
N  -8.09300 37.85700 39.73900
C  -7.39800 36.70500 39.61600
C  -6.07300 36.87900 38.86900
C  -5.87400 38.41500 38.87100
C  -7.31600 38.86100 39.24000
C  -4.75000 39.04000 39.74000
C  -6.16300 36.28400 37.44300
C  -4.82100 35.56400 36.98600
H  -4.26900 35.79500 35.61200
N  -9.99600 40.23400 40.31800
C  -8.87100 40.91200 39.73600
C  -9.17100 42.29800 39.49300
C  -10.54800 42.43600 39.96500
C  -11.01800 41.14500 40.43800
C  -8.26200 43.34200 38.72400
C  -11.21600 43.82800 40.06000
O  -10.64500 44.77300 39.60600
C  -12.48400 44.02600 40.81900
N  -12.21300 38.34900 41.19700
C  -12.90800 39.53800 41.18500
C  -14.36700 39.27300 41.69500
C  -14.41300 37.72100 41.92200
C  -13.00000 37.32800 41.55800
C  -14.79800 40.07900 42.98900
C  -15.47300 36.99800 41.07900
C  -16.94000 37.34200 41.43800
N  -10.36600 36.13200 40.89000
C  -11.37800 35.38700 41.30300
C  -10.93800 34.05700 41.48400
C  -9.67700 33.96700 40.95400
C  -9.31000 35.31600 40.61300
C  -11.90300 32.92900 41.97100
C  -8.55000 33.19800 40.53500
O  -8.35800 32.03000 40.60300
C  -7.45400 34.11300 39.87500
C  -6.16700 33.91800 40.53600
O  -5.23600 33.34600 39.97600
O  -6.22000 34.22400 41.89000
C  -5.06600 33.83900 42.68500
H  -7.09200 40.95200 38.67000
H  -13.10400 41.60000 40.98400
H  -13.30700 35.25700 42.13400
H  -5.43300 36.42400 39.62500
H  -5.62000 38.61600 37.83000
H  -5.24000 39.48200 40.60800
H  -4.18000 39.68400 39.06900
H  -4.14100 38.36400 40.34000
H  -6.47700 37.03000 36.71300
H  -7.05300 35.66000 37.52800
H  -4.91000 34.48500 37.11300
H  -4.01600 35.79800 37.68200
H  -7.76300 43.94700 39.48100
H  -8.94300 43.92500 38.10300
H  -7.61100 42.81900 38.02400
H  -12.38100 43.66400 41.84200
H  -13.30900 43.51900 40.31900
H  -12.59900 45.10900 40.78000
H  -15.00100 39.63600 40.88600
H  -14.58600 37.45200 42.96500
H  -14.66600 41.15400 42.87100
H  -13.96400 39.96200 43.68300
H  -15.72800 39.75700 43.45700
H  -15.40900 35.91000 41.05600
H  -15.14200 37.32700 40.09400
H  -17.55200 37.47700 40.54600
H  -17.11000 38.16300 42.13600
H  -17.35300 36.49800 41.99000
H  -12.91200 33.07400 41.58400
H  -11.89500 32.82000 43.05500
H  -11.66900 31.95000 41.55200
H  -7.38000 33.70800 38.86600
H  -5.41100 33.96300 43.71100
H  -4.23200 34.53000 42.56800
H  -4.73200 32.80300 42.61800

