158

Mg 35.80600 1.62200 29.94800
C  33.63300 2.91500 32.23400
C  38.23700 1.35900 32.29600
C  38.06500 0.69800 27.47400
C  33.39400 2.10200 27.42000
N  35.90400 2.14400 31.96100
C  34.84700 2.58700 32.71900
C  35.26400 2.64100 34.24000
C  36.77200 2.31800 34.19400
C  37.01300 1.82100 32.70700
C  37.82000 3.41100 34.66200
C  34.32700 1.63400 35.09000
C  33.87800 2.06500 36.46600
H  34.69700 3.09500 37.22500
N  37.87800 1.15800 29.94900
C  38.72300 0.98100 31.02700
C  39.99500 0.50300 30.67200
C  39.91800 0.26300 29.20500
C  38.60000 0.72600 28.83400
C  41.21000 0.35400 31.58200
C  40.88500 -0.39500 28.19800
O  40.74300 -0.40600 26.96600
C  42.12300 -0.98800 28.75200
N  35.76400 1.57900 27.74900
C  36.78700 1.13000 26.98800
C  36.55700 1.31800 25.53000
C  35.02000 1.56600 25.42800
C  34.67300 1.74100 26.97000
C  37.46400 2.34500 24.81300
C  34.21900 0.53300 24.68800
C  34.27500 -0.83800 25.32100
N  33.82500 2.19400 29.84900
C  32.97700 2.39300 28.76000
C  31.73200 2.97200 29.22100
C  31.93200 3.00600 30.62300
C  33.25100 2.73700 30.89300
C  30.53400 3.23300 28.45400
C  31.24400 3.46000 31.76700
O  30.08300 3.78200 31.95300
C  32.38800 3.45200 32.95400
C  32.54800 4.76500 33.65200
O  33.22600 5.66300 33.24000
O  32.12700 4.64900 34.91600
C  32.01400 5.92000 35.63500
H  39.06500 1.41900 33.00600
H  38.59100 0.39800 26.56500
H  32.53800 2.19800 26.74900
H  35.03600 3.66300 34.54400
H  36.93100 1.54200 34.94300
H  37.21000 4.19200 35.11700
H  38.29600 3.96500 33.85300
H  38.55600 3.09800 35.40300
H  34.96200 0.77200 35.29400
H  33.51300 1.24700 34.47700
H  33.90800 1.19400 37.12100
H  32.82400 2.32200 36.36300
H  41.91100 1.15800 31.35700
H  41.71700 -0.60500 31.48000
H  40.95700 0.49000 32.63400
H  42.66700 -1.47300 27.94100
H  41.80300 -1.77000 29.44000
H  42.78700 -0.20400 29.11800
H  36.75400 0.41100 24.95900
H  34.78600 2.56100 25.04900
H  37.85000 3.01100 25.58500
H  36.98700 2.88900 23.99800
H  38.33200 1.83900 24.39100
H  34.49400 0.59400 23.63500
H  33.21800 0.95800 24.62000
H  33.27200 -1.02200 25.70600
H  34.94000 -0.84400 26.18400
H  34.42700 -1.67500 24.64000
H  29.75000 3.37200 29.19900
H  30.23200 2.43000 27.78200
H  30.53700 4.20500 27.96000
H  31.95800 2.72200 33.64000
H  32.19900 5.75900 36.69700
H  31.02400 6.36000 35.51300
H  32.65900 6.70500 35.24000
Mg -6.43900 26.04700 25.68700
C  -4.80700 27.33000 28.44600
C  -8.00600 23.80600 27.84300
C  -7.19100 24.08800 23.00300
C  -4.54900 28.18800 23.55600
N  -6.24400 25.48100 27.87100
C  -5.58700 26.28800 28.76600
C  -6.12800 25.91800 30.21500
C  -6.91800 24.64200 29.94700
C  -7.11500 24.64400 28.47900
C  -6.41000 23.30900 30.59000
C  -6.99100 27.00100 30.95900
C  -7.08300 27.07800 32.52900
H  -6.34400 26.07300 33.43200
N  -7.62700 24.30900 25.35400
C  -8.23100 23.61100 26.38600
C  -9.01600 22.57800 25.84900
C  -8.73400 22.56200 24.42800
C  -7.81000 23.68300 24.16500
C  -9.89900 21.72700 26.70300
C  -9.16300 21.53500 23.35700
O  -8.66900 21.54600 22.22200
C  -10.20300 20.57400 23.68500
N  -5.83500 26.03800 23.62100
C  -6.32500 25.15200 22.72600
C  -6.07900 25.64200 21.27800
C  -5.33000 27.03200 21.40300
C  -5.25000 27.13300 22.96500
C  -5.30800 24.64800 20.41500
C  -6.06100 28.31600 20.70000
C  -7.00200 29.16100 21.59000
N  -5.05400 27.57900 25.94800
C  -4.38600 28.37600 24.97800
C  -3.48200 29.22700 25.68100
C  -3.58200 28.87300 27.03300
C  -4.54300 27.83600 27.12900
C  -2.61700 30.30800 25.14300
C  -3.09400 29.13200 28.41700
O  -2.33300 30.05600 28.82500
C  -3.92700 28.18500 29.35700
C  -2.92700 27.46500 30.24800
O  -2.44900 26.37800 29.99000
O  -2.85900 28.16900 31.34500
C  -2.49300 27.35000 32.51400
H  -8.48800 23.08500 28.50800
H  -7.54000 23.59400 22.09400
H  -4.05500 28.89100 22.88100
H  -5.29800 25.68700 30.88200
H  -7.87400 24.65100 30.47100
H  -6.34400 22.59900 29.76600
H  -7.10500 23.02900 31.38200
H  -5.43300 23.53000 31.02000
H  -8.04000 26.87300 30.69400
H  -6.83400 27.96700 30.47800
H  -8.12200 26.87500 32.79200
H  -6.94100 28.08300 32.92800
H  -9.58200 20.68600 26.63600
H  -10.93000 21.92300 26.40800
H  -10.04200 21.98700 27.75100
H  -10.55000 19.90800 22.89600
H  -11.10600 21.05100 24.06700
H  -9.73800 19.81000 24.30900
H  -7.09100 25.82100 20.91300
H  -4.34000 26.94400 20.95500
H  -5.79000 24.68500 19.43800
H  -5.46500 23.67300 20.87600
H  -4.22800 24.78500 20.47000
H  -6.69000 27.94000 19.89200
H  -5.32000 28.97500 20.24800
H  -6.58900 30.16600 21.67500
H  -7.28700 28.69100 22.53100
H  -7.93400 29.24200 21.03100
H  -1.64400 30.45000 25.61400
H  -3.18200 31.23500 25.23900
H  -2.53700 30.25600 24.05700
H  -4.59000 28.87300 29.88100
H  -2.79400 27.86600 33.42600
H  -1.40300 27.36700 32.53800
H  -3.00700 26.38800 32.50500

