158

Mg 47.47200 24.88700 27.85100
C  47.89100 27.31400 30.34900
C  46.87100 22.59100 30.29200
C  46.81700 22.74300 25.43200
C  48.11500 27.54500 25.44400
N  47.13000 25.02200 30.02500
C  47.40900 26.08600 30.81600
C  47.07600 25.74800 32.30200
C  46.88000 24.17900 32.28000
C  47.03900 23.87100 30.71900
C  47.83100 23.20900 33.11200
C  45.95400 26.67600 32.92400
C  45.28500 26.26200 34.18500
H  45.39900 27.18300 35.40100
N  46.97400 22.87500 27.88400
C  46.83200 22.11600 28.99300
C  46.49000 20.72400 28.48400
C  46.36100 20.76000 27.03500
C  46.66500 22.17600 26.70400
C  46.09300 19.54800 29.41800
C  45.90500 19.61800 26.09700
O  45.95100 19.77200 24.89200
C  45.63800 18.13300 26.65800
N  47.44600 25.09200 25.74900
C  47.20200 24.00900 24.98300
C  47.32700 24.42100 23.45100
C  47.55200 25.99500 23.49600
C  47.69900 26.27000 24.99500
C  48.43200 23.66400 22.70400
C  46.40800 26.87700 22.89100
C  46.20200 26.61300 21.42200
N  48.07100 26.93900 27.86900
C  48.37700 27.83600 26.80100
C  48.57900 29.18600 27.36400
C  48.49900 28.96800 28.80300
C  48.18100 27.62100 29.00500
C  48.92800 30.41400 26.51000
C  48.51400 29.63700 30.05300
O  48.82600 30.79100 30.32600
C  48.08300 28.65300 31.14300
C  48.94700 28.62500 32.33100
O  50.06900 28.17100 32.38100
O  48.24800 29.16700 33.36100
C  48.96900 29.03900 34.63100
H  46.67800 21.81300 31.03300
H  46.47000 21.99000 24.72100
H  48.17700 28.34200 24.70000
H  47.95800 25.85700 32.93500
H  45.83300 23.91800 32.43200
H  48.40500 22.55100 32.45900
H  47.14500 22.67100 33.76600
H  48.39800 23.83200 33.80400
H  45.10700 26.80800 32.25100
H  46.46600 27.60000 33.19200
H  45.69500 25.26700 34.35500
H  44.22900 26.15800 33.93900
H  46.84500 18.76200 29.34900
H  45.11100 19.14900 29.16700
H  46.06300 19.80400 30.47700
H  44.57500 18.12800 26.90000
H  46.31600 17.85000 27.46300
H  45.89400 17.54800 25.77400
H  46.40100 24.27200 22.89600
H  48.47500 26.36500 23.04900
H  49.10800 24.37000 22.22000
H  48.01700 23.09500 21.87200
H  49.02000 23.02900 23.36700
H  46.65000 27.91600 23.11600
H  45.38400 26.79700 23.25500
H  45.37800 25.93400 21.20700
H  47.14500 26.22500 21.03600
H  45.99100 27.55500 20.91500
H  47.99300 30.95100 26.34400
H  49.17700 30.19800 25.47100
H  49.59200 31.06500 27.07900
H  47.15200 29.09300 31.50200
H  48.41200 29.74200 35.25100
H  49.89100 29.61400 34.53500
H  49.04700 28.09500 35.17000
Mg 5.57800 54.15600 40.87900
C  5.74900 50.65600 40.97900
C  8.71100 54.18600 39.52300
C  5.19100 57.40600 40.55900
C  2.30400 53.86500 42.17500
N  7.05800 52.57000 40.28000
C  6.96000 51.20400 40.47700
C  8.17100 50.49500 39.90400
C  9.25100 51.67600 39.80000
C  8.26700 52.87600 39.80400
C  10.20100 51.71600 41.09600
C  7.95000 49.71300 38.57100
C  7.04800 50.25600 37.39400
H  6.35100 49.22800 36.46900
N  6.68000 55.56200 40.10200
C  7.96300 55.39200 39.61000
C  8.62200 56.61500 39.36500
C  7.66300 57.68900 39.59300
C  6.44300 56.96900 40.14300
C  10.06400 56.86200 38.88600
C  7.82200 59.20700 39.27500
O  8.82500 59.64000 38.77700
C  6.76100 60.27800 39.44800
N  3.84700 55.48700 41.20500
C  3.98200 56.76500 41.00200
C  2.75300 57.53000 41.58600
C  1.71700 56.35200 41.87500
C  2.68400 55.16700 41.84600
C  2.89700 58.47500 42.80800
C  0.45700 56.36400 40.99600
C  -0.84700 56.48200 41.80200
N  4.31200 52.63300 41.40800
C  3.00200 52.61800 41.95200
C  2.57200 51.30000 42.27800
C  3.67600 50.57200 41.90100
C  4.66600 51.35400 41.38600
C  1.34600 50.84600 43.04800
C  4.17400 49.20300 41.97600
O  3.58500 48.20300 42.40200
C  5.49100 49.15800 41.35700
C  5.42200 48.24900 40.30100
O  4.82200 48.44000 39.24000
O  6.14500 47.19400 40.59300
C  6.15900 46.12400 39.61600
H  9.72400 54.24300 39.12100
H  5.12000 58.49300 40.48500
H  1.28900 53.69000 42.53800
H  8.57300 49.75400 40.59400
H  9.90800 51.64600 38.93100
H  10.25700 50.77600 41.64500
H  9.83800 52.51600 41.74200
H  11.23000 51.92300 40.80400
H  7.74900 48.65400 38.73300
H  8.89600 49.66500 38.03100
H  7.66700 50.95400 36.83000
H  6.26600 50.83400 37.88600
H  10.15700 56.98000 37.80600
H  10.82800 56.20200 39.29600
H  10.22000 57.85900 39.29800
H  5.86500 59.83300 39.01500
H  7.21800 61.14400 38.97000
H  6.61400 60.46200 40.51200
H  2.39800 58.19200 40.79600
H  1.29500 56.48300 42.87100
H  2.07400 59.18100 42.69900
H  3.87400 58.93200 42.96600
H  2.50400 58.01700 43.71600
H  0.44900 55.42400 40.44500
H  0.61500 57.16900 40.27900
H  -0.76900 56.86400 42.82000
H  -1.25500 55.47200 41.76800
H  -1.48400 57.04400 41.11900
H  0.54100 51.57400 43.14500
H  1.64400 50.74100 44.09100
H  0.90200 49.95200 42.61000
H  6.26700 48.87700 42.07000
H  5.17200 45.65900 39.62200
H  6.93800 45.39600 39.84300
H  6.42800 46.40300 38.59800

