158

Mg -1.98400 17.72400 27.74600
C  -3.04300 15.74500 30.39200
C  -3.04300 20.49700 29.44900
C  -1.81100 19.46400 24.81800
C  -1.82400 14.75600 25.76700
N  -2.79800 18.13200 29.69300
C  -3.18000 17.11700 30.65000
C  -3.66200 17.88400 31.90900
C  -3.76000 19.42300 31.56400
C  -3.16700 19.35600 30.19900
C  -5.14600 19.94300 31.76200
C  -2.71300 17.71100 33.11400
C  -3.34800 17.65300 34.50500
H  -2.44400 17.29900 35.63700
N  -2.11400 19.72400 27.32500
C  -2.56200 20.70400 28.16100
C  -2.53700 21.96200 27.47400
C  -2.02300 21.72300 26.17000
C  -1.98900 20.23300 26.04600
C  -2.91300 23.33100 28.16600
C  -1.61600 22.63900 24.99800
O  -1.17100 22.21200 23.91900
C  -1.74800 24.08000 25.14000
N  -1.84800 17.15800 25.63900
C  -1.68500 18.10500 24.64300
C  -1.48100 17.46300 23.21500
C  -1.36700 15.97900 23.61600
C  -1.63900 15.98700 25.14100
C  -2.62100 17.76200 22.23700
C  -0.09300 15.25800 23.23500
C  1.15100 15.77400 23.94100
N  -2.24400 15.58800 28.01800
C  -2.09900 14.52700 27.13000
C  -2.32200 13.30500 27.79600
C  -2.66800 13.73400 29.08800
C  -2.50900 15.11800 29.22400
C  -2.30100 12.01800 27.18600
C  -3.07300 13.21300 30.40600
O  -3.23800 12.10500 30.84600
C  -3.31600 14.52500 31.26700
C  -2.55900 14.35100 32.54300
O  -1.35900 14.57100 32.77600
O  -3.51600 14.02100 33.50600
C  -3.00800 13.84400 34.88600
H  -3.47000 21.39600 29.89800
H  -1.78200 20.04200 23.89200
H  -1.79700 13.95500 25.02600
H  -4.59300 17.44300 32.26400
H  -3.19600 20.08600 32.22100
H  -5.52900 20.00100 30.74300
H  -5.07200 20.92900 32.22000
H  -5.81400 19.36100 32.39700
H  -2.01800 18.54900 33.16700
H  -2.00800 16.90900 32.90000
H  -4.05000 16.82000 34.53200
H  -3.82300 18.60100 34.75800
H  -2.25700 24.13800 27.83700
H  -2.76400 23.19400 29.23700
H  -3.91500 23.58700 27.82000
H  -2.78600 24.36300 25.31300
H  -1.45300 24.54800 24.20000
H  -1.14600 24.54100 25.92300
H  -0.54800 17.77600 22.74600
H  -2.15700 15.42600 23.10700
H  -2.97500 18.71300 22.63500
H  -3.47300 17.08200 22.19900
H  -2.24000 17.92600 21.22900
H  0.23400 15.30900 22.19700
H  -0.28800 14.20200 23.42300
H  1.05300 16.76200 24.39200
H  1.95800 15.94700 23.22900
H  1.41500 14.97600 24.63500
H  -1.94700 12.16000 26.16500
H  -3.36000 11.78000 27.28500
H  -1.67100 11.39600 27.82300
H  -4.38100 14.47500 31.49400
H  -2.31300 14.67500 35.00800
H  -2.57400 12.85700 35.04200
H  -3.77100 14.04000 35.64000
Mg 48.21300 25.86800 27.84600
C  48.92400 28.06600 30.25800
C  47.11600 23.44700 30.14500
C  47.58200 23.58900 25.27900
C  49.50100 28.06700 25.44300
N  47.88100 25.79400 29.87600
C  48.29600 26.79800 30.68300
C  48.00900 26.51900 32.18300
C  47.75400 24.96700 32.12700
C  47.55600 24.70900 30.63800
C  48.67300 24.01400 32.90600
C  46.78600 27.42100 32.67700
C  46.16500 27.00400 33.99500
H  46.04000 28.05600 35.14200
N  47.44400 23.83100 27.74500
C  47.09000 23.03900 28.77700
C  46.55700 21.72000 28.31600
C  46.74200 21.77800 26.93200
C  47.26700 23.13800 26.56200
C  45.88400 20.71400 29.19000
C  46.43700 20.60800 25.95600
O  46.65100 20.63900 24.79400
C  45.97500 19.35000 26.46600
N  48.59600 25.84600 25.65500
C  48.09600 24.84200 24.84600
C  48.09100 25.28600 23.39200
C  48.85800 26.57200 23.39600
C  49.04200 26.87400 24.91900
C  48.60500 24.24500 22.37500
C  48.21400 27.74500 22.61900
C  48.89800 28.28500 21.38400
N  49.09900 27.66600 27.81200
C  49.59500 28.44800 26.77700
C  50.10700 29.70900 27.31500
C  49.80100 29.65100 28.70000
C  49.25600 28.37300 28.93300
C  50.66400 30.96800 26.60200
C  49.91300 30.34500 29.98200
O  50.27000 31.50900 30.17100
C  49.34800 29.35600 31.06500
C  50.38200 29.03800 32.14500
O  51.44300 28.47300 32.02800
O  49.92600 29.61200 33.34200
C  50.74600 29.36500 34.54000
H  46.79100 22.72400 30.89600
H  47.30700 22.95600 24.43300
H  49.77100 28.84800 24.73000
H  48.88900 26.77600 32.77300
H  46.80200 24.73800 32.60600
H  49.03900 23.18300 32.30300
H  48.21500 23.60200 33.80500
H  49.52700 24.56400 33.30400
H  46.03400 27.49400 31.89200
H  47.24100 28.39300 32.86900
H  46.70100 26.15000 34.40900
H  45.19600 26.57700 33.73600
H  46.56000 19.86200 29.25700
H  44.98100 20.38100 28.67900
H  45.63200 21.07100 30.18900
H  45.90500 18.57900 25.69900
H  45.00300 19.43300 26.95200
H  46.76300 18.99800 27.13200
H  47.11300 25.48600 22.95400
H  49.85100 26.52500 22.94900
H  49.05800 23.39400 22.88500
H  49.37300 24.63200 21.70600
H  47.76800 23.74800 21.88500
H  48.07400 28.59600 23.28600
H  47.24800 27.42700 22.22800
H  49.63400 27.65500 20.88300
H  49.33300 29.18200 21.82500
H  48.17400 28.53100 20.60700
H  50.13100 31.91600 26.68400
H  50.56100 30.80200 25.52900
H  51.69900 31.23200 26.81400
H  48.44800 29.82300 31.46500
H  51.04800 30.36200 34.86100
H  51.61500 28.71800 34.41700
H  50.11200 28.88900 35.28700

