158

Mg 48.66200 35.04500 26.29200
C  46.85400 33.42400 28.83900
C  48.81600 37.80000 28.34700
C  50.51700 36.47400 24.04800
C  48.23500 32.29200 24.29900
N  47.88000 35.59900 28.31400
C  47.37400 34.71300 29.24300
C  47.33800 35.30100 30.68900
C  47.63400 36.83300 30.42400
C  48.16600 36.71100 28.94700
C  46.50100 37.87400 30.71900
C  48.49400 34.77000 31.58400
C  47.95200 34.37400 32.96500
H  46.77800 35.20100 33.59800
N  49.46000 36.95600 26.13800
C  49.41400 37.96200 27.03300
C  50.09800 39.12400 26.47300
C  50.63600 38.68300 25.22400
C  50.20500 37.33200 25.05200
C  50.22100 40.41500 27.24300
C  51.56200 39.45900 24.24700
O  52.04900 39.06800 23.17200
C  52.15100 40.66600 24.74300
N  49.13900 34.55400 24.35300
C  50.04300 35.25600 23.64100
C  50.29600 34.55900 22.32500
C  49.63900 33.15100 22.48700
C  49.00400 33.32500 23.81300
C  49.72100 35.44800 21.11700
C  50.55600 31.90900 22.28800
C  50.10300 30.77000 21.36400
N  47.61800 33.18900 26.44900
C  47.53900 32.19200 25.51600
C  46.79600 31.08300 26.12100
C  46.49600 31.52000 27.41500
C  47.04700 32.78700 27.54900
C  46.34900 29.78900 25.34500
C  45.81200 31.13200 28.64600
O  45.23000 30.06300 28.98100
C  45.97200 32.41900 29.61300
C  46.55700 31.82900 30.90000
O  47.73300 31.52700 31.03700
O  45.60100 31.57400 31.89100
C  46.09600 30.88800 33.09700
H  48.90600 38.67500 28.99400
H  51.31900 36.71500 23.34700
H  48.31100 31.40400 23.66800
H  46.33700 35.12700 31.08300
H  48.50800 37.26700 30.91200
H  46.35300 38.27900 29.71800
H  46.93400 38.58200 31.42600
H  45.62700 37.40000 31.16500
H  49.32100 35.47300 31.68900
H  48.97800 33.98300 31.00500
H  48.74100 34.31400 33.71400
H  47.52500 33.37700 33.07700
H  51.26200 40.71400 27.36100
H  49.75400 40.36000 28.22700
H  49.71500 41.25400 26.76400
H  51.34800 41.33600 25.04800
H  52.68100 41.25500 23.99400
H  52.75800 40.37200 25.59900
H  51.38300 34.58100 22.40300
H  48.83900 33.08400 21.74900
H  49.16400 36.30600 21.49300
H  48.94900 35.03400 20.46800
H  50.55600 35.96700 20.64600
H  50.62000 31.38100 23.23900
H  51.57300 32.10600 21.94800
H  50.85500 30.15000 20.87600
H  49.53000 31.26800 20.58200
H  49.33900 30.18600 21.87800
H  46.37400 29.82300 24.25600
H  45.33400 29.51100 25.62600
H  46.99300 28.96700 25.65700
H  44.95700 32.74300 29.84200
H  45.73200 29.86200 33.06100
H  45.51200 31.29400 33.92300
H  47.17600 30.89000 33.24900
Mg 16.75900 52.74500 26.56000
C  18.56400 51.48700 29.27200
C  14.11000 53.31600 28.69800
C  15.01000 53.96000 23.98000
C  19.25800 51.60300 24.44000
N  16.40700 52.52200 28.76800
C  17.30900 52.09100 29.64900
C  16.71200 52.38200 31.10100
C  15.22800 52.66700 30.83200
C  15.25700 52.82100 29.33800
C  14.23000 51.61600 31.41500
C  17.51300 53.57600 31.73100
C  18.27800 53.28900 33.01000
H  17.48500 52.60200 34.14800
N  14.84000 53.50300 26.38200
C  13.91600 53.74600 27.40000
C  12.80000 54.45100 26.86200
C  13.01400 54.69500 25.50800
C  14.33900 54.09400 25.23300
C  11.55400 54.66900 27.69600
C  12.15600 55.31000 24.47200
O  12.49600 55.44700 23.31900
C  10.90800 55.97600 24.92800
N  17.10600 52.74600 24.54900
C  16.20400 53.27500 23.73200
C  16.79600 53.49400 22.35200
C  18.21900 52.78100 22.35200
C  18.20900 52.33100 23.86200
C  15.96300 52.97300 21.14000
C  19.39500 53.62300 21.98200
C  20.50000 53.02700 21.03300
N  18.62100 51.71100 26.73800
C  19.50300 51.28900 25.77500
C  20.63600 50.61600 26.35500
C  20.31200 50.67000 27.77900
C  19.08900 51.29600 27.90700
C  21.79500 49.99400 25.59900
C  20.76300 50.30900 29.08400
O  21.76800 49.70400 29.41400
C  19.70500 50.85500 30.08200
C  19.25000 49.70100 30.94100
O  18.63400 48.69400 30.54500
O  19.59100 49.95900 32.23300
C  19.00400 48.96900 33.18200
H  13.28700 53.55100 29.37600
H  14.41600 54.26900 23.11700
H  20.05600 51.38900 23.72600
H  16.85800 51.43000 31.61100
H  14.96600 53.64800 31.22800
H  14.75300 50.89900 32.04700
H  13.67800 51.05400 30.66200
H  13.53700 52.02900 32.14900
H  16.85800 54.44700 31.74500
H  18.29400 53.84000 31.01800
H  18.47500 54.25200 33.48100
H  19.22700 52.82100 32.74900
H  10.91800 53.78700 27.62700
H  10.96900 55.56600 27.49700
H  11.80700 54.89000 28.73300
H  10.34900 56.35100 24.07100
H  11.24800 56.74800 25.61800
H  10.34300 55.10400 25.26100
H  16.88900 54.55900 22.13700
H  18.28100 51.84700 21.79300
H  16.61200 52.33200 20.54200
H  15.74300 53.84900 20.53000
H  14.98800 52.55100 21.38400
H  19.85400 54.04000 22.87800
H  19.08100 54.52000 21.44800
H  20.53700 53.47800 20.04200
H  20.46200 51.93800 21.03300
H  21.46300 53.17100 21.52300
H  21.72200 48.93300 25.83800
H  22.71000 50.43100 25.99900
H  21.77600 50.16100 24.52300
H  20.14500 51.60600 30.73700
H  17.91500 49.01500 33.15600
H  19.38400 49.03900 34.20200
H  19.34700 47.95300 32.98800

