158

Mg 36.31400 1.74700 30.15200
C  34.22900 2.85000 32.92100
C  38.90700 1.52600 32.27900
C  38.10700 0.81900 27.54200
C  33.33800 2.08700 28.17600
N  36.42900 1.91300 32.40700
C  35.52800 2.39000 33.32600
C  36.17300 2.46800 34.70100
C  37.75800 2.31700 34.39000
C  37.70000 1.91100 32.91400
C  38.62500 3.52600 34.84800
C  35.52400 1.58300 35.74300
C  35.21200 2.29100 37.12000
H  36.29200 3.15900 37.75500
N  38.25900 1.17300 29.95400
C  39.18900 1.14700 30.93600
C  40.42200 0.62700 30.44100
C  40.24400 0.46000 29.03800
C  38.82600 0.78900 28.78800
C  41.59200 0.32600 31.37900
C  41.28000 0.05400 27.89900
O  41.00500 -0.09200 26.71800
C  42.71000 -0.21100 28.37200
N  35.85700 1.79900 28.11500
C  36.76600 1.20900 27.23000
C  36.10700 0.88500 25.87400
C  34.56100 0.97400 26.18300
C  34.59300 1.73700 27.56500
C  36.59600 1.74000 24.69000
C  33.67000 -0.34800 26.18300
C  32.24400 -0.07900 25.73500
N  34.24400 2.42100 30.39800
C  33.17500 2.53500 29.53500
C  31.98800 2.99600 30.20100
C  32.39000 3.19000 31.50500
C  33.74500 2.77200 31.56500
C  30.71000 3.35100 29.58100
C  31.89900 3.64300 32.74900
O  30.78800 4.03000 33.03500
C  33.06200 3.39000 33.76100
C  33.32400 4.71800 34.45000
O  34.18000 5.50400 34.14900
O  32.38700 4.89300 35.50100
C  32.37500 6.25400 36.02500
H  39.80900 1.56700 32.89300
H  38.63000 0.54400 26.62300
H  32.49000 1.99100 27.49500
H  36.00800 3.50100 35.00800
H  38.12300 1.47000 34.97200
H  39.36500 3.21600 35.58500
H  37.94000 4.28400 35.22700
H  39.23000 3.91500 34.02800
H  36.08100 0.64800 35.68300
H  34.60200 1.19300 35.31200
H  35.04200 1.52600 37.87700
H  34.26200 2.80700 36.98200
H  42.27600 -0.42600 30.98400
H  41.46700 0.11400 32.44100
H  42.14700 1.24900 31.21200
H  42.74200 -0.98600 29.13800
H  43.03500 0.70700 28.86100
H  43.34300 -0.39400 27.50400
H  36.30500 -0.14700 25.58300
H  34.09100 1.59500 25.42000
H  37.28900 2.50100 25.05000
H  35.74300 2.12600 24.13200
H  37.19600 1.07400 24.07100
H  33.47500 -0.82900 27.14200
H  34.25000 -1.03100 25.56200
H  31.90000 0.93200 25.51700
H  31.54100 -0.53300 26.43400
H  32.06100 -0.57800 24.78200
H  30.08100 2.54200 29.20900
H  30.77600 4.11600 28.80700
H  30.03600 3.73200 30.34800
H  32.56000 2.68100 34.42000
H  32.25300 6.98800 35.22700
H  33.34700 6.31200 36.51600
H  31.61400 6.32700 36.80100
Mg 47.39500 15.65700 27.94900
C  45.17500 15.77600 30.75400
C  49.72300 17.38600 29.88000
C  49.02300 16.14200 25.22300
C  44.58000 14.47900 26.06600
N  47.39300 16.61500 30.08400
C  46.48800 16.41900 31.05300
C  46.99800 16.76100 32.42800
C  48.36700 17.42200 32.06500
C  48.51200 17.12500 30.58800
C  48.31400 18.98700 32.28700
C  47.15700 15.62700 33.51900
C  46.61200 15.85300 34.98500
H  46.37500 17.32200 35.45100
N  49.17600 16.57800 27.58500
C  50.00700 17.18600 28.53400
C  51.17500 17.57300 27.81600
C  51.03300 17.25400 26.42600
C  49.77000 16.55600 26.39300
C  52.38600 18.22500 28.49500
C  51.95100 17.62400 25.26500
O  51.71700 17.24700 24.15400
C  53.12000 18.54500 25.55100
N  46.81400 15.30100 25.91400
C  47.79400 15.58700 24.99700
C  47.23800 15.23400 23.56400
C  45.94100 14.46000 23.83100
C  45.73000 14.72700 25.35000
C  47.14600 16.45100 22.59300
C  46.07900 12.99600 23.47700
C  46.69600 12.16100 24.60200
N  45.33300 15.27000 28.23100
C  44.37700 14.67100 27.41600
C  43.21600 14.34900 28.19600
C  43.52600 14.69100 29.49100
C  44.75700 15.39000 29.50300
C  41.86000 13.79700 27.66500
C  43.03300 14.65100 30.83500
O  42.00300 14.20500 31.36300
C  44.07500 15.34200 31.75300
C  43.57200 16.49000 32.46400
O  43.56500 17.63300 32.02900
O  43.06800 16.06400 33.61600
C  42.28800 17.04600 34.49600
H  50.47300 17.89100 30.49300
H  49.40200 16.28800 24.20900
H  43.76400 14.01300 25.51000
H  46.27900 17.45400 32.86500
H  49.28800 17.06800 32.52900
H  47.55200 19.29800 33.00100
H  48.22500 19.48900 31.32300
H  49.23800 19.35600 32.73200
H  48.20200 15.56700 33.82300
H  46.69600 14.70200 33.17000
H  47.33800 15.54000 35.73500
H  45.67400 15.31600 35.12800
H  53.33600 17.72800 28.29800
H  52.22900 18.26400 29.57300
H  52.43300 19.28800 28.25800
H  52.85700 19.50000 26.00700
H  53.47600 18.71000 24.53400
H  53.94200 17.95800 25.96000
H  47.97600 14.57500 23.10700
H  44.97300 14.81500 23.47600
H  46.24300 16.42300 21.98300
H  48.06800 16.34400 22.02100
H  47.16800 17.34600 23.21400
H  46.55700 12.85700 22.50700
H  45.10600 12.57800 23.22100
H  47.51800 12.54300 25.20800
H  47.21600 11.37200 24.06000
H  45.85100 11.76000 25.16300
H  41.55900 13.01200 28.35900
H  41.89100 13.34400 26.67500
H  41.13300 14.60900 27.66600
H  44.55600 14.62700 32.42100
H  41.25300 17.01500 34.15400
H  42.65800 18.07100 34.47100
H  42.19200 16.74500 35.53900

