158

Mg 25.93800 -6.13500 47.19200
C  27.34300 -3.14700 46.05200
C  23.27300 -5.52200 44.97500
C  24.83900 -9.21100 47.88000
C  29.05000 -6.75600 48.84700
N  25.46800 -4.52200 45.60300
C  26.11700 -3.39700 45.31900
C  25.44900 -2.50600 44.21500
C  23.99600 -3.20900 44.24800
C  24.29600 -4.52200 44.92200
C  22.85200 -2.40600 44.89600
C  26.19700 -2.78300 42.87600
C  26.71700 -1.64900 41.96000
H  25.87000 -1.35600 40.72300
N  24.30900 -7.26800 46.47200
C  23.30200 -6.80900 45.68300
C  22.22600 -7.73200 45.73200
C  22.63200 -8.77200 46.52900
C  23.99200 -8.47600 46.98900
C  20.82400 -7.47000 45.06900
C  21.60300 -9.94900 46.77700
O  20.51400 -10.09400 46.34000
C  22.06300 -11.00800 47.63300
N  26.76800 -7.65900 48.30100
C  26.11000 -8.90100 48.41800
C  26.90600 -9.94500 49.26100
C  28.24600 -9.11400 49.61500
C  28.05600 -7.78200 48.78200
C  26.19900 -10.54700 50.50400
C  29.57400 -9.85500 49.12700
C  30.77300 -9.84000 50.20000
N  27.84100 -5.15800 47.40700
C  28.95800 -5.49500 48.12200
C  29.86300 -4.38400 48.13900
C  29.24500 -3.44900 47.36700
C  28.02600 -3.98600 46.92600
C  31.19100 -4.53900 48.74500
C  29.33200 -2.10800 46.96800
O  30.16400 -1.22400 47.21900
C  28.15600 -1.85000 45.89200
C  27.43200 -0.57100 46.22200
O  27.34200 0.37600 45.46900
O  26.86600 -0.65500 47.44700
C  25.92100 0.36300 47.83600
H  22.39600 -5.43000 44.33000
H  24.46700 -10.21600 48.08800
H  29.98600 -7.03200 49.33700
H  25.35800 -1.44700 44.45700
H  23.52400 -3.42500 43.28900
H  22.42600 -2.88800 45.77600
H  22.07600 -2.41300 44.13100
H  23.23800 -1.42500 45.17100
H  25.48800 -3.38600 42.30800
H  27.02100 -3.46200 43.09600
H  27.72400 -1.82100 41.58100
H  26.92800 -0.67700 42.40700
H  20.13800 -7.41700 45.91500
H  20.64100 -8.29400 44.38000
H  20.92400 -6.56100 44.47700
H  23.04100 -11.24700 47.21600
H  21.41400 -11.87200 47.49000
H  22.23400 -10.86500 48.70000
H  27.11600 -10.74000 48.54600
H  28.27400 -8.84200 50.67000
H  26.18700 -11.63400 50.57300
H  25.12900 -10.34700 50.46500
H  26.49600 -10.03100 51.41700
H  29.86600 -9.41300 48.17400
H  29.32400 -10.87600 48.83800
H  31.68100 -10.09100 49.65200
H  30.62800 -10.61500 50.95300
H  30.94100 -8.85800 50.64200
H  31.93600 -4.76900 47.98300
H  31.23700 -5.26700 49.55400
H  31.51100 -3.53500 49.02200
H  28.54900 -1.71100 44.88400
H  26.12400 0.52900 48.89400
H  24.90200 -0.01700 47.91100
H  25.96300 1.26700 47.22800
Mg 47.27800 16.03600 28.02600
C  45.34600 15.76500 31.00000
C  49.82300 17.52600 30.11100
C  49.03100 16.94200 25.28200
C  44.77400 14.84000 26.24700
N  47.53600 16.57400 30.27500
C  46.56400 16.35900 31.31300
C  47.12600 16.76600 32.72200
C  48.50700 17.39000 32.32300
C  48.61000 17.18100 30.78500
C  48.65400 18.96700 32.63500
C  47.37000 15.58700 33.63100
C  46.99200 15.78100 35.12500
H  46.80600 17.15400 35.72800
N  49.18200 16.97500 27.70100
C  50.08100 17.45700 28.70400
C  51.29200 17.77500 28.06200
C  51.04700 17.77400 26.65100
C  49.69400 17.28200 26.46300
C  52.63100 17.87900 28.88100
C  51.95100 18.30800 25.50500
O  51.71000 18.25200 24.32000
C  53.28200 18.96800 25.92300
N  46.98700 15.83500 26.10300
C  47.82100 16.25000 25.09800
C  47.16800 16.19200 23.75200
C  45.96100 15.33500 24.03000
C  45.82700 15.38900 25.56600
C  46.93700 17.56000 23.02100
C  46.20500 13.86000 23.59600
C  45.89500 13.50200 22.12600
N  45.52500 15.25300 28.47700
C  44.53200 14.82200 27.60400
C  43.47600 14.29100 28.35500
C  43.69500 14.68800 29.67300
C  44.97800 15.27800 29.69500
C  42.24100 13.60100 27.92200
C  43.11700 14.77000 31.00400
O  42.08000 14.36000 31.52800
C  44.16100 15.52200 31.92100
C  43.49500 16.64800 32.59500
O  43.49900 17.82700 32.21000
O  42.95000 16.19700 33.77100
C  42.18000 17.19800 34.51600
H  50.71600 17.83400 30.65900
H  49.49400 17.20300 24.32800
H  44.08000 14.38600 25.53600
H  46.36200 17.43600 33.11400
H  49.36700 16.90900 32.78800
H  49.58400 19.06600 33.19500
H  47.80600 19.42200 33.14900
H  48.73400 19.52000 31.69900
H  48.38700 15.19700 33.59300
H  46.89500 14.68300 33.25100
H  47.71500 15.27800 35.76700
H  46.00700 15.33300 35.25800
H  53.49700 17.73400 28.23500
H  52.65300 17.11700 29.66000
H  52.57100 18.86400 29.34300
H  53.28300 19.71200 26.72000
H  53.72200 19.29800 24.98200
H  53.84900 18.05200 26.09000
H  47.81000 15.63200 23.07200
H  45.03300 15.67400 23.56700
H  45.85300 17.67000 23.00900
H  47.43800 17.52900 22.05400
H  47.36000 18.37000 23.61600
H  45.60400 13.20200 24.22400
H  47.25100 13.60700 23.76900
H  46.75200 12.94200 21.75100
H  45.87300 14.36300 21.45700
H  45.06100 12.80600 22.03900
H  41.95500 13.00300 28.78800
H  42.32100 12.99900 27.01600
H  41.39300 14.22700 27.64600
H  44.49400 14.84400 32.70700
H  41.64700 16.60400 35.25900
H  41.45300 17.70600 33.88200
H  42.76900 17.99400 34.97200

