158

Mg -2.63300 17.24500 27.10100
C  -3.14100 15.04100 29.76000
C  -3.06300 19.84700 29.18500
C  -2.53800 19.20200 24.37100
C  -2.79600 14.36600 24.94500
N  -3.25300 17.40400 29.27600
C  -3.28900 16.41000 30.15100
C  -3.38100 16.93400 31.62600
C  -3.52300 18.46700 31.35300
C  -3.30400 18.65700 29.84100
C  -4.76500 19.22700 31.79400
C  -2.22900 16.63400 32.61000
C  -2.66600 16.13800 33.98200
H  -1.74300 16.16000 35.25600
N  -2.61000 19.24500 26.83900
C  -2.86700 20.11400 27.84100
C  -2.59900 21.41300 27.22800
C  -2.46100 21.32600 25.85300
C  -2.51400 19.89300 25.60300
C  -2.79300 22.68400 27.95200
C  -2.24300 22.33700 24.69400
O  -2.20700 22.01500 23.47500
C  -2.09900 23.81400 25.02400
N  -2.91300 16.83600 24.94300
C  -2.70300 17.85500 24.05400
C  -2.60900 17.34500 22.58000
C  -2.56400 15.74800 22.77300
C  -2.79300 15.62000 24.31400
C  -3.65700 17.86800 21.54100
C  -1.42100 14.99700 22.18800
C  -0.08600 15.31000 22.86100
N  -2.98400 15.15800 27.23400
C  -2.92500 14.11500 26.32500
C  -2.95900 12.84700 26.92300
C  -3.03300 13.18100 28.26700
C  -3.07200 14.53800 28.41100
C  -2.92200 11.59000 26.27400
C  -3.22500 12.59300 29.50400
O  -3.34700 11.45100 29.89200
C  -3.18400 13.80700 30.55900
C  -1.89400 13.57600 31.29900
O  -0.74200 13.64000 30.85800
O  -2.14800 13.22600 32.63300
C  -0.93600 12.92400 33.42400
H  -3.11100 20.71800 29.84100
H  -2.35200 19.66300 23.39900
H  -2.81500 13.53700 24.23500
H  -4.31000 16.48000 31.97100
H  -2.66300 18.96800 31.79800
H  -5.45100 19.44100 30.97500
H  -4.45100 20.14900 32.28200
H  -5.37900 18.58200 32.42400
H  -1.48500 17.43100 32.63200
H  -1.74300 15.82800 32.06100
H  -3.10500 15.14300 33.89900
H  -3.43100 16.77100 34.43000
H  -3.24400 23.52700 27.42800
H  -1.81300 22.89400 28.37900
H  -3.34400 22.46800 28.86700
H  -1.58300 24.34500 24.22300
H  -1.54200 23.91100 25.95600
H  -3.09800 24.17900 25.26000
H  -1.60000 17.59900 22.25700
H  -3.47600 15.34400 22.33200
H  -4.10000 18.78100 21.93800
H  -4.53300 17.22100 21.50700
H  -3.24600 18.02600 20.54400
H  -1.29800 15.30300 21.14900
H  -1.58500 13.92000 22.24000
H  -0.14400 15.67100 23.88700
H  0.56800 16.01400 22.34600
H  0.53700 14.41800 22.79700
H  -2.45900 11.50100 25.29100
H  -3.98600 11.45400 26.08100
H  -2.57400 10.82400 26.96600
H  -4.01900 13.79200 31.25900
H  -0.81900 11.85800 33.23400
H  -1.09900 13.02000 34.49700
H  0.00800 13.40100 33.16100
Mg 43.35900 41.99500 26.71000
C  42.52300 44.41400 29.17400
C  44.03000 39.83200 29.26800
C  44.41200 39.99700 24.37200
C  43.00000 44.63900 24.37400
N  43.33100 42.12500 28.93700
C  42.88000 43.17300 29.72500
C  42.74300 42.71300 31.19400
C  43.50600 41.35500 31.17400
C  43.56000 41.06800 29.66900
C  44.90500 41.50800 31.89600
C  41.18900 42.64500 31.66800
C  40.85400 43.53800 32.84200
H  39.95800 43.12800 33.97500
N  44.06700 40.08300 26.79400
C  44.31200 39.33600 27.88900
C  44.66100 38.02200 27.50400
C  44.82700 38.04500 26.09900
C  44.41500 39.39700 25.67700
C  44.94500 36.91500 28.50600
C  45.30000 36.91700 25.17600
O  45.35900 37.06200 24.00400
C  45.83400 35.60700 25.80600
N  43.59100 42.29700 24.65100
C  44.01300 41.21400 23.84400
C  43.98600 41.58500 22.32400
C  43.71000 43.16600 22.44100
C  43.34800 43.37800 23.92700
C  45.18900 41.22300 21.41600
C  42.59400 43.53600 21.49100
C  42.85800 44.75800 20.62700
N  42.88500 44.13500 26.73600
C  42.81100 45.03500 25.67100
C  42.41500 46.33300 26.27100
C  42.22600 46.09800 27.65500
C  42.60300 44.79000 27.88500
C  42.15000 47.57300 25.61200
C  41.80400 46.69400 28.91000
O  41.35900 47.81800 29.23500
C  42.01500 45.62000 29.98800
C  43.00000 46.14300 30.91700
O  44.13100 46.45700 30.57400
O  42.47900 46.32700 32.13800
C  43.32900 47.05500 33.11800
H  44.24100 39.16400 30.10600
H  44.84000 39.37200 23.58500
H  42.84500 45.37900 23.58600
H  43.24700 43.44500 31.82500
H  42.93500 40.59200 31.70200
H  44.93300 40.80000 32.72500
H  44.96300 42.54600 32.22400
H  45.79300 41.38500 31.27600
H  40.97700 41.61000 31.93900
H  40.52000 42.73300 30.81300
H  40.54400 44.46100 32.35200
H  41.78500 43.79800 33.34500
H  46.00600 36.68800 28.40500
H  44.33600 36.02600 28.34300
H  44.85000 37.17000 29.56200
H  46.09700 34.94400 24.98200
H  44.99500 35.07800 26.25900
H  46.71500 35.80200 26.41700
H  43.12800 41.02100 21.95800
H  44.67400 43.66600 22.34200
H  46.13400 41.08800 21.94300
H  45.31800 42.13300 20.83100
H  44.85500 40.43500 20.74100
H  41.67800 43.65400 22.06900
H  42.24300 42.69300 20.89600
H  43.87000 45.16100 20.65500
H  42.30800 45.56600 21.11100
H  42.67000 44.62100 19.56200
H  41.10100 47.58000 25.31600
H  42.74800 47.48700 24.70500
H  42.38100 48.44600 26.22300
H  41.10000 45.28300 30.47500
H  43.33100 46.54200 34.07900
H  42.91500 48.06100 33.18900
H  44.38700 47.20600 32.90300

