158

Mg 24.36500 -5.56100 46.30500
C  26.45700 -3.35900 44.61400
C  21.85600 -4.56600 44.16000
C  22.57100 -8.17900 47.29500
C  27.12700 -6.71100 47.98600
N  24.20900 -4.18500 44.49800
C  25.18500 -3.36200 44.06600
C  24.60400 -2.34900 43.00400
C  23.00800 -2.68500 42.94400
C  23.00800 -3.90400 43.94800
C  22.08800 -1.44400 43.47200
C  25.29300 -2.50500 41.64400
C  26.08100 -1.32700 41.17900
H  25.75900 -0.87500 39.73600
N  22.50000 -6.29900 45.78700
C  21.63600 -5.71800 44.86000
C  20.39400 -6.40100 44.85100
C  20.57600 -7.46800 45.79500
C  21.91100 -7.37300 46.36300
C  19.16900 -6.06000 43.96000
C  19.49200 -8.50200 46.07400
O  18.38200 -8.29200 45.66200
C  19.81600 -9.75900 46.81800
N  24.79700 -7.26900 47.41600
C  23.85200 -8.13200 47.77300
C  24.37200 -9.28300 48.59000
C  25.80100 -8.76700 48.95800
C  25.96500 -7.50000 48.06200
C  23.65200 -9.58900 49.97500
C  27.01200 -9.81200 48.80300
C  27.58800 -10.30200 50.17900
N  26.37700 -5.05500 46.53400
C  27.38400 -5.62900 47.22400
C  28.57200 -4.86000 47.05100
C  28.20000 -3.96600 46.03800
C  26.91200 -4.18000 45.65300
C  29.94800 -5.18300 47.55000
C  28.78100 -2.97300 45.15200
O  29.94200 -2.58100 45.15500
C  27.68600 -2.46400 44.18100
C  27.51800 -1.02800 44.48800
O  26.91400 -0.59600 45.46500
O  28.14300 -0.22100 43.57600
C  28.30500 1.23600 43.72900
H  21.11600 -4.19900 43.44600
H  22.02400 -9.02300 47.72100
H  27.99200 -7.14200 48.49200
H  24.73600 -1.32200 43.34300
H  22.57000 -2.85800 41.96100
H  21.78900 -0.93600 42.55500
H  22.63900 -0.68200 44.02400
H  21.26800 -1.66300 44.15500
H  24.53100 -2.93100 40.99100
H  25.97400 -3.35600 41.66900
H  27.15800 -1.49200 41.16800
H  26.05800 -0.46900 41.85200
H  18.47300 -6.89200 43.84800
H  19.49800 -5.78300 42.95800
H  18.72900 -5.14200 44.34800
H  18.99200 -10.34300 46.40900
H  19.90000 -9.55300 47.88500
H  20.76000 -10.17200 46.46300
H  24.26000 -10.22300 48.05000
H  25.73200 -8.28000 49.93000
H  23.25100 -8.62300 50.28200
H  24.34600 -9.84700 50.77500
H  22.90700 -10.38300 50.02700
H  27.81400 -9.32200 48.25100
H  26.66200 -10.61300 48.15200
H  28.33200 -11.02900 49.85500
H  26.80600 -10.65400 50.85300
H  27.96100 -9.30100 50.39600
H  30.27200 -6.10700 47.07100
H  29.87800 -5.29300 48.63300
H  30.65100 -4.45400 47.14900
H  28.15200 -2.55300 43.20000
H  28.78200 1.33300 44.70500
H  27.34100 1.73100 43.61300
H  28.98000 1.56400 42.93900
Mg 49.15500 35.46700 27.69900
C  46.73000 34.00100 29.88900
C  49.42400 38.01000 29.86300
C  50.89800 37.06600 25.38800
C  48.52400 32.87400 25.41300
N  48.20000 35.86900 29.72700
C  47.26100 35.22400 30.42000
C  46.99900 35.90600 31.74800
C  47.57000 37.27800 31.55500
C  48.41300 37.12400 30.24000
C  46.56900 38.51300 31.31100
C  47.55700 35.15200 33.04800
C  49.08100 34.64500 32.92100
H  50.12000 35.44100 33.84400
N  50.20400 37.21900 27.73000
C  50.22100 38.08900 28.71400
C  51.14300 39.18300 28.43800
C  51.47100 39.04700 27.05500
C  50.82800 37.71500 26.66400
C  51.47900 40.20300 29.52300
C  52.26700 39.90400 26.18200
O  52.45100 39.62000 25.01900
C  52.84900 41.12500 26.76400
N  49.69000 35.03100 25.61500
C  50.37400 35.87300 24.84000
C  50.52900 35.34100 23.41200
C  49.96200 33.87700 23.55400
C  49.40100 33.88000 24.94500
C  49.82200 36.24500 22.40200
C  51.03100 32.71400 23.51700
C  51.39900 32.59500 22.03600
N  48.00700 33.77300 27.62100
C  47.88500 32.80000 26.68500
C  47.02900 31.79900 27.15000
C  46.51000 32.24100 28.36800
C  47.12500 33.47300 28.63200
C  46.73000 30.51200 26.44700
C  45.57400 31.85000 29.45200
O  44.79800 30.90800 29.65300
C  45.76900 33.02800 30.49400
C  46.23400 32.38800 31.68700
O  47.26800 31.76300 31.74000
O  45.33000 32.43100 32.76400
C  45.85500 31.88100 34.03500
H  49.35700 38.85900 30.54700
H  51.43100 37.46800 24.52400
H  48.39200 31.98400 24.79600
H  45.91600 35.89700 31.87000
H  48.20700 37.49600 32.41200
H  46.74900 39.21500 32.12400
H  45.56200 38.16000 31.53600
H  46.61300 39.05300 30.36500
H  46.89300 34.34800 33.36500
H  47.43800 35.87000 33.86000
H  49.56500 34.61900 31.94500
H  49.09100 33.66500 33.39800
H  52.55200 40.39000 29.54900
H  51.12100 40.03300 30.53900
H  51.11700 41.20000 29.27200
H  52.05200 41.63000 27.31100
H  53.24600 41.76500 25.97600
H  53.67600 40.85400 27.42000
H  51.58000 35.44100 23.14300
H  49.24100 33.63100 22.77400
H  49.22100 37.00600 22.89900
H  49.18600 35.74100 21.67300
H  50.51400 36.78700 21.75800
H  50.65200 31.83500 24.03800
H  51.90600 33.11400 24.03000
H  52.29400 33.17500 21.80900
H  50.64500 33.03000 21.38000
H  51.46400 31.52700 21.82800
H  46.17800 30.74400 25.53600
H  46.07000 29.88800 27.04900
H  47.56800 29.88800 26.13600
H  44.77800 33.44400 30.67500
H  46.90600 32.12600 34.18800
H  45.62900 30.82600 34.18800
H  45.28300 32.37400 34.82000

