158

Mg -2.40400 34.22200 27.74500
C  -4.20300 32.37600 30.02300
C  -0.86100 35.84500 30.38500
C  -0.90500 36.12300 25.45800
C  -4.29400 32.74800 25.14500
N  -2.61700 34.21500 29.94200
C  -3.34500 33.32300 30.63800
C  -2.96900 33.24700 32.10200
C  -2.01700 34.47500 32.20800
C  -1.84900 34.92700 30.72800
C  -2.49000 35.63900 33.06600
C  -2.36200 31.89100 32.68800
C  -3.08400 31.13900 33.91800
H  -2.32100 31.18300 35.27600
N  -1.09200 35.73200 27.87500
C  -0.53600 36.28500 29.06300
C  0.36600 37.36700 28.70800
C  0.37600 37.40200 27.30400
C  -0.56300 36.40500 26.79900
C  1.13300 38.13900 29.80400
C  1.27900 38.26000 26.43000
O  1.26200 38.12500 25.23600
C  2.23000 39.08400 27.04500
N  -2.74500 34.44100 25.67300
C  -1.98000 35.35200 24.95200
C  -2.28400 35.31500 23.45000
C  -3.30500 34.14100 23.33600
C  -3.45800 33.75600 24.80300
C  -2.88200 36.67600 22.96200
C  -2.90000 32.96200 22.37900
C  -1.98400 31.86300 22.84600
N  -3.92300 32.85000 27.61900
C  -4.52700 32.26600 26.48800
C  -5.39100 31.14000 26.94300
C  -5.34100 31.16100 28.35700
C  -4.45200 32.31900 28.66600
C  -6.22300 30.19800 26.04900
C  -5.66900 30.55300 29.62400
O  -6.33600 29.53200 29.92300
C  -5.04500 31.34400 30.72000
C  -6.09200 31.83800 31.66300
O  -6.81600 32.75600 31.49200
O  -6.19000 30.98800 32.79000
C  -7.21600 31.36300 33.72400
H  -0.41400 36.37800 31.22700
H  -0.53600 36.74700 24.64100
H  -4.78000 32.18200 24.34700
H  -3.94500 33.47300 32.53300
H  -1.05000 34.11100 32.55700
H  -1.74100 36.30300 33.49800
H  -3.02200 35.18700 33.90200
H  -3.15500 36.26100 32.46700
H  -1.36300 32.16800 33.02400
H  -2.25500 31.09900 31.94700
H  -3.17500 30.11100 33.56900
H  -4.04300 31.61500 34.12400
H  2.16100 37.78600 29.72800
H  0.80800 38.05500 30.84100
H  0.99300 39.16800 29.47200
H  2.74000 38.57600 27.86400
H  1.86400 40.01500 27.47900
H  3.04000 39.14200 26.31800
H  -1.38800 35.14400 22.85400
H  -4.26400 34.50500 22.96700
H  -2.59600 37.49800 23.61800
H  -3.97100 36.64400 23.01100
H  -2.51400 36.90500 21.96200
H  -2.39100 33.47300 21.56200
H  -3.77600 32.53000 21.89600
H  -1.14400 31.60700 22.19900
H  -2.53000 30.92100 22.88100
H  -1.53100 32.05900 23.81700
H  -5.74700 30.00500 25.08700
H  -7.22700 30.52000 25.77300
H  -6.31200 29.24100 26.56300
H  -4.44800 30.71700 31.38200
H  -8.01500 31.88300 33.19700
H  -6.79800 31.91600 34.56600
H  -7.68500 30.50900 34.21300
Mg -6.47500 25.53200 26.02400
C  -4.64900 26.34600 28.83700
C  -8.32900 23.41900 27.86400
C  -7.34900 23.89600 23.09400
C  -4.01700 27.30100 24.11700
N  -6.40900 24.97800 28.06600
C  -5.78000 25.52300 29.04300
C  -6.24600 25.03900 30.39900
C  -7.31200 23.91800 30.12300
C  -7.35200 24.07400 28.58800
C  -6.78200 22.53000 30.38200
C  -6.89600 26.22200 31.16600
C  -6.96200 26.21500 32.65700
H  -6.35500 25.12300 33.49000
N  -7.72300 23.92000 25.56500
C  -8.43800 23.22000 26.49900
C  -9.25100 22.23800 25.75000
C  -9.03600 22.40300 24.38800
C  -7.94000 23.44000 24.32800
C  -10.00800 21.16000 26.46500
C  -9.54800 21.59700 23.14100
O  -9.06000 21.86600 22.03100
C  -10.50700 20.39900 23.25300
N  -5.64700 25.44400 23.92000
C  -6.30200 24.80300 22.93100
C  -5.74600 25.23100 21.60100
C  -4.71600 26.28500 21.92400
C  -4.76200 26.42400 23.42800
C  -5.12500 23.89300 20.92200
C  -4.85700 27.76100 21.22100
C  -3.69100 28.26600 20.30100
N  -4.78700 26.82200 26.37500
C  -3.96300 27.48100 25.53300
C  -3.04800 28.23000 26.32700
C  -3.18300 27.80600 27.65100
C  -4.25100 26.94700 27.58500
C  -1.94800 29.16300 25.74700
C  -2.69300 27.87400 29.03200
O  -1.71500 28.45900 29.58500
C  -3.67100 26.98400 29.86000
C  -2.84100 26.08100 30.72500
O  -2.33800 24.98800 30.41300
O  -2.75900 26.63200 31.94900
C  -1.93800 26.00000 32.97600
H  -9.06300 22.85500 28.44300
H  -7.73300 23.67100 22.09700
H  -3.41200 28.02200 23.56400
H  -5.43300 24.71400 31.04900
H  -8.30100 24.11700 30.53700
H  -5.88600 22.53700 31.00300
H  -6.49200 22.18800 29.38800
H  -7.44600 21.88600 30.95900
H  -7.94900 26.09500 30.91300
H  -6.59400 27.18100 30.74600
H  -8.02600 26.12700 32.87600
H  -6.59100 27.16400 33.04300
H  -10.92500 21.13100 25.87700
H  -10.27800 21.36200 27.50100
H  -9.53600 20.19400 26.28400
H  -10.10500 19.46000 23.63300
H  -10.75500 20.09200 22.23700
H  -11.31600 20.82700 23.84500
H  -6.54200 25.55100 20.92900
H  -3.76300 25.84500 21.63100
H  -5.73100 23.64300 20.05100
H  -5.27500 23.05700 21.60600
H  -4.09400 23.97800 20.57900
H  -5.01400 28.48200 22.02300
H  -5.79800 27.76800 20.67100
H  -4.17500 28.33900 19.32700
H  -3.01600 27.46600 19.99800
H  -3.16800 29.17800 20.59100
H  -2.26900 29.59900 24.80100
H  -1.03700 28.60700 25.52400
H  -1.77600 29.96600 26.46400
H  -4.18700 27.66900 30.53200
H  -0.92400 26.36800 32.82000
H  -1.95700 24.91300 32.90200
H  -2.21900 26.25800 33.99700

