158

Mg 36.57500 49.54500 25.19000
C  36.54000 47.49400 27.99600
C  35.03100 51.94600 26.98100
C  36.11300 50.99400 22.27700
C  37.61300 46.50800 23.31900
N  35.73600 49.60300 27.20400
C  36.01300 48.76900 28.25000
C  35.77800 49.47300 29.52700
C  35.04100 50.85300 29.21200
C  35.28800 50.82400 27.70600
C  33.52800 50.81900 29.60500
C  37.05600 49.50300 30.45200
C  36.87100 49.09500 31.87900
H  35.48500 49.27300 32.50200
N  35.86100 51.29600 24.67800
C  35.31400 52.18200 25.56800
C  34.98800 53.38700 24.85400
C  35.28300 53.13100 23.43800
C  35.80900 51.74500 23.40800
C  34.34200 54.60500 25.52200
C  34.95500 54.02700 22.22700
O  35.27200 53.80900 21.03200
C  34.03600 55.25600 22.48900
N  37.10400 48.89600 23.12300
C  36.75400 49.74100 22.14000
C  36.90400 49.10400 20.73200
C  37.69500 47.80900 21.13200
C  37.46600 47.73400 22.63500
C  35.67200 48.81200 19.96200
C  39.17600 47.84300 20.66800
C  40.27800 48.31800 21.74000
N  36.91700 47.39500 25.48800
C  37.44800 46.36000 24.72900
C  37.69100 45.17000 25.52400
C  37.33500 45.59400 26.85200
C  36.88400 46.93800 26.73500
C  38.21700 43.92700 25.00400
C  37.42500 45.23700 28.17300
O  37.84200 44.18700 28.59900
C  36.94100 46.45600 29.05500
C  35.78100 45.99200 29.85800
O  34.61300 45.89300 29.40300
O  36.14500 45.53800 31.06200
C  35.02100 45.00300 31.77800
H  34.69700 52.86300 27.47200
H  35.88400 51.45300 21.31300
H  37.88500 45.65300 22.69800
H  35.07400 48.77000 29.97300
H  35.54300 51.64400 29.77000
H  33.43400 50.17100 30.47600
H  32.89400 50.42500 28.81000
H  33.23300 51.84100 29.84200
H  37.50900 50.49500 30.46700
H  37.85300 48.89000 30.03000
H  37.71000 49.49100 32.45200
H  37.04600 48.02600 32.00200
H  34.70300 55.51700 25.04600
H  34.49800 54.62800 26.60100
H  33.25800 54.71500 25.48900
H  33.06900 55.13000 22.97500
H  33.81600 55.55600 21.46500
H  34.52300 56.10200 22.97400
H  37.55700 49.80000 20.20400
H  37.26300 46.93500 20.64500
H  35.70800 49.51900 19.13400
H  34.77700 49.04500 20.53900
H  35.56900 47.78400 19.61300
H  39.23800 48.41900 19.74400
H  39.47500 46.86600 20.28800
H  40.67100 47.56300 22.42000
H  39.98600 49.24000 22.24300
H  41.14000 48.59400 21.13300
H  37.94600 43.83800 23.95200
H  37.79000 43.08800 25.55300
H  39.29800 44.06100 25.04300
H  37.67300 46.78900 29.79000
H  35.41900 44.72900 32.75500
H  34.65400 44.11600 31.26200
H  34.21700 45.69400 32.03300
Mg 16.96200 51.72900 26.00600
C  18.58100 50.08300 28.69500
C  14.64900 52.85100 28.12600
C  15.38800 52.82700 23.34100
C  19.46700 50.41000 23.84600
N  16.72500 51.56400 28.10800
C  17.53200 50.94300 29.07700
C  17.10100 51.35700 30.43000
C  15.69500 52.05500 30.24500
C  15.67500 52.23900 28.70900
C  14.40900 51.34200 30.83300
C  18.22500 52.11500 31.26000
C  18.71300 51.47200 32.51100
H  17.95200 51.64600 33.82800
N  15.21400 52.72100 25.78700
C  14.37300 53.09700 26.74800
C  13.26800 53.82300 26.20900
C  13.51800 53.84800 24.77900
C  14.77400 53.09800 24.52700
C  12.13300 54.21500 26.96400
C  12.71200 54.44800 23.69000
O  12.93500 54.23300 22.54000
C  11.53400 55.39800 24.09100
N  17.31800 51.60500 23.92700
C  16.54500 52.13900 23.03500
C  16.99800 51.83100 21.59600
C  18.51100 51.61600 21.94400
C  18.41500 51.11000 23.33700
C  16.31200 50.54100 21.07200
C  19.40100 52.82700 21.72700
C  20.19300 52.77400 20.45300
N  18.67700 50.54200 26.19300
C  19.56200 50.08000 25.20100
C  20.55900 49.21700 25.85000
C  20.26500 49.35900 27.23000
C  19.03800 50.00800 27.37900
C  21.67100 48.40600 25.25500
C  20.76000 48.94600 28.55800
O  21.71300 48.22300 28.88200
C  19.61400 49.42900 29.53800
C  19.08500 48.35100 30.28300
O  18.16400 47.59400 30.01700
O  19.95800 48.33200 31.39100
C  19.83800 47.20000 32.17700
H  13.96200 53.26000 28.87000
H  14.97300 53.15600 22.38600
H  20.28000 50.01300 23.23400
H  16.74900 50.50400 31.01000
H  15.59400 53.01000 30.76000
H  13.71400 52.08500 31.22400
H  14.72200 50.51900 31.47500
H  13.95200 50.89700 29.94900
H  17.86900 53.10800 31.53100
H  19.10700 52.33300 30.65700
H  19.64800 51.99600 32.71000
H  18.89800 50.39700 32.50900
H  11.27800 53.73900 26.48400
H  12.03000 55.29700 26.88100
H  12.07800 53.91400 28.01000
H  11.10700 55.82200 23.18200
H  11.86900 56.16200 24.79300
H  10.72200 54.87600 24.59700
H  16.74800 52.58900 20.85400
H  18.92000 50.79300 21.35900
H  15.40000 50.37200 21.64400
H  17.01700 49.71300 21.15200
H  16.00600 50.60800 20.02900
H  20.01100 52.90300 22.62700
H  18.69200 53.65400 21.77500
H  21.16500 53.25800 20.55600
H  19.68200 53.35800 19.68800
H  20.46800 51.77100 20.12600
H  21.87800 47.61200 25.97200
H  22.56400 49.00000 25.06100
H  21.27400 47.88800 24.38100
H  20.09400 50.24000 30.08600
H  19.58500 47.49200 33.19600
H  20.75900 46.61800 32.21300
H  19.08300 46.45100 31.94300

