158

Mg 40.92500 7.66100 28.74900
C  42.59100 8.94200 31.55300
C  38.45700 6.15000 30.80100
C  39.23100 6.60100 26.00100
C  43.62700 8.60100 26.74300
N  40.65300 7.50100 30.92700
C  41.38500 8.22000 31.84600
C  40.73700 8.05000 33.17400
C  39.55400 6.96300 32.97400
C  39.55800 6.79700 31.45300
C  39.92100 5.50000 33.56400
C  40.19000 9.39800 33.81000
C  40.89300 9.85400 35.12700
H  40.27600 10.71900 36.17700
N  39.12600 6.56000 28.42400
C  38.23800 6.06200 29.44200
C  37.02900 5.41000 28.76800
C  37.19200 5.74500 27.39700
C  38.52200 6.37700 27.21700
C  36.01700 4.60800 29.53500
C  36.23500 5.40900 26.36500
O  36.36100 5.71300 25.19800
C  34.90300 4.86800 26.75000
N  41.29500 7.71200 26.69700
C  40.46700 7.14800 25.71300
C  41.17700 7.02600 24.30700
C  42.56600 7.70900 24.55700
C  42.53700 8.01600 26.09400
C  41.22400 5.53500 23.76300
C  42.87600 8.96400 23.66100
C  42.00100 10.17500 24.09200
N  42.71300 8.58300 29.05900
C  43.69500 8.89100 28.18100
C  44.82000 9.50000 28.89800
C  44.33200 9.59200 30.18400
C  43.10000 8.98300 30.24000
C  46.11800 9.96600 28.34200
C  44.68800 10.07300 31.54200
O  45.67200 10.62600 31.89200
C  43.50300 9.69100 32.53600
C  44.04900 8.95700 33.63600
O  44.00100 7.74300 33.69500
O  44.41800 9.89300 34.57100
C  44.82200 9.22100 35.80000
H  37.68600 5.82700 31.50400
H  38.68100 6.25100 25.12400
H  44.48800 8.85600 26.12200
H  41.42200 7.42500 33.74700
H  38.61800 7.26100 33.44600
H  40.20300 4.89600 32.70100
H  39.03900 5.10500 34.06900
H  40.61700 5.60400 34.39500
H  39.12500 9.25100 33.98500
H  40.33100 10.22200 33.11000
H  41.76700 10.43500 34.83500
H  41.29700 8.95700 35.59600
H  36.42900 4.56700 30.54400
H  35.84800 3.67500 28.99900
H  35.05100 5.10800 29.59600
H  34.35300 5.62800 27.30400
H  34.97400 3.92800 27.29700
H  34.30600 4.68300 25.85700
H  40.60700 7.51400 23.51600
H  43.26400 6.89100 24.37600
H  42.20100 5.07500 23.91400
H  41.01600 5.39000 22.70300
H  40.43400 4.94600 24.22900
H  42.73200 8.73100 22.60700
H  43.91900 9.21500 23.85800
H  42.62800 11.03100 24.34100
H  41.21900 9.92400 24.80900
H  41.59100 10.43900 23.11700
H  46.04600 10.91700 27.81400
H  46.58000 9.20000 27.71800
H  46.76900 10.01400 29.21500
H  42.91400 10.58900 32.72200
H  43.93700 8.75000 36.22800
H  45.13500 9.93500 36.56100
H  45.54700 8.40800 35.74400
Mg -10.00500 40.06300 43.15200
C  -8.69300 37.11500 42.12500
C  -7.87800 41.74100 41.02200
C  -11.91500 42.95400 43.40000
C  -12.67400 38.33500 44.61800
N  -8.60500 39.45400 41.56600
C  -8.09600 38.18900 41.41500
C  -6.98400 38.08800 40.42200
C  -6.66600 39.62500 40.15000
C  -7.72900 40.35700 40.97700
C  -5.18400 40.09700 40.56100
C  -7.49500 37.33800 39.16200
C  -6.65600 36.18600 38.58000
H  -5.56400 36.62000 37.58500
N  -9.80100 42.17000 42.48200
C  -8.78100 42.62900 41.63200
C  -9.01000 44.02900 41.40200
C  -10.20300 44.43400 42.07900
C  -10.72100 43.14400 42.74700
C  -8.21200 44.90200 40.41900
C  -10.83700 45.83700 41.93700
O  -10.25300 46.66700 41.22800
C  -12.06600 46.33000 42.66400
N  -12.02800 40.65600 43.85000
C  -12.53400 41.83100 43.92100
C  -14.02000 41.71700 44.46700
C  -14.20100 40.27100 44.81100
C  -12.87600 39.68000 44.41200
C  -14.30300 42.65900 45.70100
C  -15.39100 39.56600 44.08600
C  -16.23800 38.56000 44.91800
N  -10.49100 38.05600 43.54400
C  -11.58000 37.50700 44.13500
C  -11.42300 36.05200 44.20300
C  -10.16200 35.83000 43.40500
C  -9.75000 37.11700 43.00700
C  -12.39500 35.04300 44.76100
C  -9.24800 34.82200 42.82500
O  -9.25100 33.62700 42.85700
C  -8.11100 35.63900 42.16100
C  -6.89200 35.56900 43.04000
O  -6.52600 36.23100 43.99600
O  -6.28600 34.36300 42.78500
C  -4.98100 34.18400 43.40600
H  -7.07200 42.37200 40.64200
H  -12.59300 43.80800 43.34000
H  -13.45800 37.81300 45.17100
H  -6.14400 37.52200 40.82700
H  -6.81000 39.86500 39.09600
H  -5.32100 40.34900 41.61200
H  -4.76200 40.98300 40.08800
H  -4.50600 39.25200 40.44100
H  -7.61100 38.01500 38.31600
H  -8.47700 36.90700 39.35900
H  -7.14900 35.27100 38.25200
H  -5.98000 35.88100 39.37900
H  -8.72400 45.14800 39.48800
H  -7.29900 44.41100 40.08100
H  -7.79800 45.78100 40.91300
H  -12.28900 47.38400 42.49400
H  -11.89700 46.20400 43.73300
H  -12.92700 45.80700 42.24800
H  -14.59600 42.05100 43.60400
H  -14.25400 40.04100 45.87500
H  -14.85100 42.09500 46.45600
H  -14.97300 43.47700 45.43800
H  -13.40200 43.15300 46.06300
H  -14.98700 39.08600 43.19400
H  -16.11800 40.36300 43.93200
H  -15.59600 38.02900 45.62100
H  -16.75200 37.81700 44.30700
H  -17.06400 39.05600 45.42700
H  -12.30000 34.94300 45.84200
H  -12.40200 34.11900 44.18200
H  -13.42700 35.36900 44.63100
H  -7.96400 35.38700 41.11100
H  -5.03400 33.44300 44.20400
H  -4.61300 35.13600 43.78800
H  -4.39000 33.82500 42.56300

