158

Mg -2.10400 17.56400 26.94400
C  -2.69000 15.00200 29.32700
C  -2.25900 19.86200 29.26300
C  -1.79900 19.78100 24.51400
C  -2.75400 14.97200 24.51700
N  -2.49400 17.40500 28.95500
C  -2.50500 16.36600 29.83800
C  -2.38100 16.77500 31.31000
C  -2.72700 18.26600 31.16900
C  -2.54400 18.55900 29.64200
C  -3.96900 18.86500 31.85700
C  -1.10700 16.40200 32.04900
C  -0.95000 17.09200 33.43400
H  -0.89400 16.27200 34.75600
N  -1.89700 19.59100 26.90000
C  -1.89600 20.35100 28.01500
C  -1.48000 21.70600 27.67300
C  -1.22400 21.65100 26.27300
C  -1.64000 20.27400 25.83500
C  -1.35700 22.84800 28.69700
C  -0.68700 22.67800 25.30700
O  -0.49900 22.43600 24.13300
C  -0.12900 23.95000 25.69000
N  -2.28700 17.38700 24.86400
C  -2.07000 18.48600 24.10900
C  -2.35000 18.27700 22.66300
C  -2.57700 16.71300 22.54200
C  -2.60000 16.31600 24.04700
C  -3.56400 19.10800 22.11400
C  -1.47700 15.91500 21.76800
C  -0.16100 15.59900 22.44400
N  -2.47300 15.39500 26.84400
C  -2.72200 14.50200 25.79100
C  -2.97400 13.21500 26.23300
C  -2.91300 13.32900 27.69200
C  -2.65400 14.66300 27.96900
C  -3.44900 12.05700 25.33800
C  -3.07900 12.57200 28.94600
O  -3.44200 11.44800 29.22700
C  -2.93900 13.65400 30.07000
C  -1.91500 13.15300 31.04200
O  -0.71300 13.24800 30.88200
O  -2.53300 12.53500 32.10100
C  -1.68700 12.09900 33.24100
H  -2.27900 20.65600 30.01100
H  -1.64300 20.54800 23.75300
H  -2.84400 14.26000 23.69400
H  -3.08600 16.26200 31.96300
H  -1.86600 18.74100 31.64000
H  -3.59500 19.51400 32.64900
H  -4.67300 18.14700 32.27600
H  -4.49800 19.47400 31.12500
H  -0.38300 16.58200 31.25500
H  -1.13500 15.33300 32.26000
H  -1.69300 17.88100 33.54900
H  -0.01500 17.64400 33.34000
H  -0.47900 23.45800 28.48500
H  -1.53500 22.51600 29.72000
H  -2.32800 23.31700 28.53900
H  -0.41200 24.37500 26.65200
H  -0.46600 24.57100 24.85900
H  0.95800 23.94800 25.76800
H  -1.40300 18.58200 22.21800
H  -3.54900 16.49600 22.09900
H  -4.53800 18.61800 22.09300
H  -3.31000 19.52300 21.13900
H  -3.62300 19.93000 22.82700
H  -1.47800 16.44600 20.81600
H  -1.85300 14.91300 21.56400
H  0.18800 14.64700 22.04400
H  -0.35300 15.43100 23.50400
H  0.45200 16.47800 22.24800
H  -4.39600 12.39900 24.92100
H  -3.60800 11.20600 26.00000
H  -2.81800 11.86500 24.47100
H  -3.81900 13.73800 30.70700
H  -2.12600 11.22800 33.72800
H  -1.48600 13.03200 33.76700
H  -0.76300 11.73700 32.79100
Mg 24.83100 1.42200 29.74500
C  27.10700 1.37400 32.38900
C  22.22700 1.18200 32.04600
C  22.62600 1.07700 27.36000
C  27.47500 0.91800 27.58300
N  24.71500 1.09100 31.93600
C  25.74400 1.45000 32.80800
C  25.22000 1.69300 34.24100
C  23.69300 1.34600 34.09100
C  23.51600 1.17600 32.63000
C  23.23000 0.13700 35.02600
C  25.60400 3.13500 34.77000
C  26.16200 3.14800 36.21100
H  25.42300 3.96900 37.26900
N  22.72500 1.24500 29.66000
C  21.82100 1.22800 30.65400
C  20.49400 1.11300 30.15700
C  20.55400 0.97200 28.79300
C  21.99000 1.10300 28.55200
C  19.27700 1.12800 31.10900
C  19.48900 0.63700 27.69600
O  19.73900 0.43900 26.53600
C  18.14600 0.38600 28.09700
N  25.07600 0.97700 27.76500
C  23.99300 1.01200 26.91100
C  24.37600 1.20100 25.43300
C  25.88000 1.26000 25.51900
C  26.20900 0.92700 26.99300
C  23.76300 0.16000 24.52700
C  26.59300 2.58500 25.01200
C  26.63700 3.71000 25.89800
N  26.88800 1.21300 29.82800
C  27.81100 0.89100 28.89800
C  29.12000 0.77600 29.56700
C  28.89500 1.00200 30.88900
C  27.52800 1.26500 30.99400
C  30.38400 0.46100 28.96000
C  29.52800 1.14200 32.16900
O  30.70600 1.13000 32.52200
C  28.34300 1.38200 33.21200
C  28.35500 0.27500 34.22700
O  28.21700 -0.94100 34.05700
O  28.58000 0.82400 35.45300
C  28.50300 0.05900 36.72200
H  21.43300 0.95300 32.75900
H  21.94500 1.03700 26.50700
H  28.30100 0.80000 26.87900
H  25.70700 1.00000 34.92700
H  23.06000 2.19600 34.34700
H  23.45600 -0.83500 34.58800
H  22.19900 0.31600 35.33100
H  23.82900 0.15100 35.93700
H  24.76900 3.83100 34.70300
H  26.36900 3.51400 34.09200
H  27.11200 3.67700 36.13900
H  26.42400 2.16100 36.59000
H  19.48600 1.59000 32.07400
H  19.02100 0.08100 31.27400
H  18.53000 1.73600 30.60000
H  17.71900 1.31700 28.47000
H  18.20400 -0.42300 28.82500
H  17.70400 0.12800 27.13500
H  23.99200 2.20100 25.23100
H  26.34400 0.47200 24.92700
H  23.48600 -0.71400 25.11700
H  24.34200 -0.12200 23.64800
H  22.81100 0.51400 24.13200
H  26.16600 2.86100 24.04700
H  27.59900 2.30700 24.69900
H  25.82600 3.80800 26.62000
H  26.52600 4.58500 25.25700
H  27.59500 3.80600 26.40800
H  30.91600 1.38300 28.72800
H  30.33300 -0.03800 27.99200
H  30.85600 -0.21900 29.67000
H  28.53200 2.30200 33.76600
H  28.43400 -1.01500 36.55500
H  27.68200 0.35000 37.37700
H  29.39000 0.32900 37.29500

