158

Mg 1.82000 -2.12200 44.63000
C  5.18600 -1.67200 44.46600
C  1.41300 0.42100 42.33200
C  -1.41600 -2.77800 44.65700
C  2.50600 -5.12100 46.49400
N  3.17100 -0.69600 43.58800
C  4.49100 -0.72800 43.73800
C  5.17000 0.16400 42.70900
C  3.95700 0.99300 42.04000
C  2.76600 0.23400 42.71700
C  3.89300 2.50600 42.36700
C  5.92400 -0.68400 41.56900
C  7.37000 -0.20600 41.37900
H  7.87200 0.23300 39.98200
N  0.19900 -1.19500 43.70500
C  0.19800 -0.20500 42.80600
C  -1.15400 0.13600 42.42800
C  -2.00700 -0.74500 43.13900
C  -1.06100 -1.66500 43.89200
C  -1.57200 1.27900 41.52700
C  -3.48600 -0.79600 42.98700
O  -4.09600 -0.06300 42.16400
C  -4.35900 -1.64800 43.92600
N  0.68300 -3.70600 45.42400
C  -0.72500 -3.69800 45.38200
C  -1.30300 -4.96700 46.16100
C  0.03100 -5.57100 46.77700
C  1.15200 -4.75900 46.24800
C  -2.32300 -4.46600 47.20600
C  0.15200 -7.03400 46.51000
C  0.55400 -7.84200 47.74300
N  3.47200 -3.18500 45.40300
C  3.61800 -4.36000 46.11700
C  4.97600 -4.62900 46.35000
C  5.71000 -3.56800 45.75400
C  4.73600 -2.77600 45.19000
C  5.56000 -5.81900 47.10100
C  6.96800 -2.95500 45.54500
O  8.12800 -3.31900 45.82100
C  6.67600 -1.70800 44.67300
C  7.15600 -0.45900 45.39500
O  6.63000 -0.01500 46.39100
O  8.22600 0.07500 44.81500
C  8.59700 1.46000 45.17800
H  1.23400 1.15900 41.54800
H  -2.48300 -3.00700 44.61200
H  2.72100 -6.00200 47.10200
H  5.76000 0.92700 43.21800
H  3.99300 0.94900 40.95200
H  4.47300 2.75700 43.25500
H  2.88600 2.73700 42.71600
H  4.23300 3.09700 41.51700
H  5.41000 -0.52300 40.62100
H  5.88300 -1.76200 41.72200
H  7.87300 -1.10600 41.73100
H  7.54300 0.60500 42.08600
H  -2.13700 0.87400 40.68900
H  -0.70300 1.79700 41.12000
H  -2.31400 1.90100 42.02800
H  -3.94200 -1.57400 44.93000
H  -4.37700 -2.68100 43.57800
H  -5.38300 -1.28100 43.99100
H  -1.79400 -5.68600 45.50500
H  -0.00500 -5.25100 47.81900
H  -2.79600 -3.52800 46.91700
H  -1.90000 -4.48400 48.21100
H  -3.08800 -5.22500 47.04000
H  0.86200 -7.27800 45.71900
H  -0.74400 -7.52900 46.13500
H  -0.02000 -8.76800 47.79100
H  0.53400 -7.22900 48.64500
H  1.57100 -8.21800 47.63300
H  6.57500 -5.59900 47.43100
H  5.46900 -6.69300 46.45700
H  5.07000 -6.00600 48.05700
H  7.22400 -1.97600 43.76900
H  8.06200 2.13700 44.51300
H  9.65000 1.69600 45.03000
H  8.36800 1.67100 46.22300
Mg 48.82200 45.14000 43.00900
C  45.48300 45.51300 41.89000
C  48.48500 41.70500 42.79200
C  52.18500 44.84200 43.44300
C  49.17900 48.73400 42.88300
N  47.17900 43.84800 42.29600
C  45.89500 44.12200 41.92000
C  45.01200 42.85400 41.66200
C  46.02400 41.74400 42.12500
C  47.31700 42.50000 42.44500
C  45.44000 40.91700 43.32900
C  44.58000 42.60100 40.15500
C  45.54500 43.04800 39.08100
H  45.48000 42.18300 37.84500
N  50.17400 43.50400 43.01800
C  49.84100 42.18700 43.00200
C  51.03400 41.45700 42.89100
C  52.16200 42.25400 43.17100
C  51.53900 43.59000 43.25200
C  51.02600 39.99600 42.48900
C  53.54600 41.82000 43.23600
O  53.87200 40.62900 43.23300
C  54.78700 42.75700 43.23000
N  50.44400 46.55700 42.95900
C  51.66800 46.19200 43.39200
C  52.62600 47.40600 43.59500
C  51.71800 48.61000 43.39100
C  50.37700 47.88100 43.02800
C  53.49400 47.49900 44.89300
C  52.14700 49.58300 42.21300
C  52.07000 50.99200 42.58500
N  47.54800 46.89200 42.64000
C  47.84200 48.26500 42.65600
C  46.53600 48.97600 42.35700
C  45.68700 47.92000 42.10700
C  46.26200 46.69400 42.26000
C  46.33500 50.51200 42.24600
C  44.31700 47.66600 41.67200
O  43.41600 48.47100 41.49300
C  44.13100 46.05800 41.43500
C  42.96700 45.48700 42.25100
O  42.29400 44.51100 41.92700
O  42.67400 46.17900 43.38600
C  41.68000 45.57700 44.28600
H  48.39700 40.62200 42.90000
H  53.20700 44.79000 43.82600
H  49.19100 49.82200 42.97200
H  44.08800 42.90700 42.23800
H  46.11300 41.01500 41.32000
H  45.63500 39.92000 42.93400
H  44.40000 41.18300 43.51900
H  46.05900 41.04300 44.21700
H  43.62600 43.12800 40.17900
H  44.36000 41.54700 39.98300
H  46.56600 43.13000 39.45500
H  45.27700 44.08100 38.86000
H  51.27600 39.97000 41.42800
H  50.07100 39.50300 42.67200
H  51.62000 39.31700 43.10100
H  54.49200 43.62000 42.63400
H  55.72600 42.32900 42.87900
H  54.90600 43.03300 44.27800
H  53.38200 47.37700 42.81000
H  51.62800 49.15100 44.33300
H  53.13200 48.23500 45.61000
H  54.49900 47.73200 44.54000
H  53.53600 46.49800 45.32200
H  51.61500 49.38600 41.28200
H  53.19000 49.36300 41.98600
H  51.46300 51.18200 43.47000
H  51.70200 51.55500 41.72800
H  53.10100 51.30800 42.74200
H  46.47500 50.83400 41.21400
H  46.95100 51.16900 42.86100
H  45.31200 50.72100 42.55900
H  44.00200 45.78700 40.38700
H  40.69200 45.74300 43.85600
H  41.74400 46.02000 45.28000
H  41.78200 44.49200 44.30000

