158

Mg 3.54600 -0.05600 44.43100
C  6.91900 0.12800 43.96700
C  3.21400 2.72800 42.25300
C  0.16700 -0.62700 43.96200
C  3.81500 -2.97100 46.17000
N  4.95000 1.20000 43.18200
C  6.31900 1.09300 43.14200
C  6.98600 2.09200 42.25300
C  5.76300 3.07600 42.03400
C  4.54200 2.29900 42.54800
C  5.87600 4.47100 42.80000
C  7.64500 1.44400 40.96900
C  8.29700 2.45100 39.99500
H  7.62200 2.72700 38.73800
N  1.93300 1.03900 43.44600
C  2.01200 2.13200 42.62800
C  0.69300 2.48800 42.03800
C  -0.18800 1.53100 42.50200
C  0.63300 0.61800 43.38700
C  0.47800 3.71500 41.20400
C  -1.65700 1.45000 42.18600
O  -2.18900 2.23600 41.41000
C  -2.57800 0.33800 42.74000
N  2.17200 -1.59500 44.98900
C  0.81800 -1.52200 44.71700
C  0.16900 -2.86600 45.18300
C  1.25900 -3.55500 45.96200
C  2.51600 -2.68000 45.70900
C  -1.14200 -2.61000 46.10400
C  1.58500 -5.07000 45.66700
C  0.37400 -5.91500 45.22300
N  5.00400 -1.18100 45.05800
C  4.98900 -2.34800 45.81700
C  6.37200 -2.70200 46.06000
C  7.14700 -1.71300 45.41600
C  6.27000 -0.83600 44.76100
C  6.76700 -3.89700 46.83100
C  8.50300 -1.23900 45.07500
O  9.59400 -1.66600 45.43600
C  8.43400 -0.07400 44.11800
C  9.02300 1.13500 44.84200
O  8.73400 1.56300 45.91600
O  9.86200 1.66500 43.91600
C  10.31000 3.00000 44.29500
H  3.29200 3.67300 41.71100
H  -0.88400 -0.91100 43.87500
H  3.86300 -3.83600 46.83500
H  7.81000 2.55700 42.79500
H  5.64800 3.31800 40.97800
H  6.69600 4.51200 43.51700
H  4.96300 4.65600 43.36500
H  6.05000 5.24900 42.05600
H  6.84400 0.86200 40.51200
H  8.51000 0.83200 41.22300
H  9.34000 2.20400 39.79700
H  8.32700 3.44500 40.44100
H  1.03800 3.59400 40.27700
H  0.97400 4.62700 41.53600
H  -0.53500 3.94500 40.87500
H  -3.60500 0.36800 42.37600
H  -2.63200 0.38600 43.82800
H  -2.24300 -0.67100 42.50000
H  -0.07100 -3.36100 44.24200
H  1.08000 -3.51200 47.03600
H  -1.84500 -3.35000 45.72100
H  -1.49000 -1.58100 46.18600
H  -0.95800 -2.92800 47.13100
H  2.04200 -5.54100 46.53700
H  2.35300 -5.05700 44.89400
H  0.61000 -6.53800 44.36100
H  -0.57400 -5.39300 45.09600
H  0.22300 -6.66300 46.00200
H  7.69200 -3.78900 47.39700
H  6.99300 -4.78300 46.23700
H  5.99100 -4.25600 47.50700
H  8.94800 -0.44600 43.23100
H  10.57400 3.47600 43.35100
H  11.16100 3.11400 44.96700
H  9.58600 3.68500 44.73800
Mg 29.90400 58.55500 40.20300
C  27.36600 56.28000 39.46500
C  32.23600 55.99600 39.67100
C  32.13500 60.90000 40.07400
C  27.37800 61.14900 39.63200
N  29.80900 56.43300 39.59300
C  28.67800 55.68600 39.33200
C  29.02400 54.34900 38.75300
C  30.49300 54.18300 39.29900
C  30.91100 55.64700 39.59400
C  30.75500 53.23400 40.57800
C  28.86600 54.28300 37.19400
C  27.74000 53.33900 36.73100
H  26.81600 54.07200 35.73900
N  31.94200 58.49800 39.95300
C  32.73900 57.31300 39.81200
C  34.17700 57.74900 39.82200
C  34.18500 59.21300 40.07200
C  32.73700 59.58100 40.02800
C  35.24200 56.67000 39.62900
C  35.45400 60.09400 40.35000
O  36.55800 59.56200 40.33100
C  35.30400 61.65900 40.61300
N  29.73400 60.68800 39.93400
C  30.81200 61.43200 39.97900
C  30.62300 62.95400 39.97100
C  29.08200 63.00300 39.74100
C  28.69400 61.53700 39.72700
C  31.06400 63.76500 41.25800
C  28.70600 63.83500 38.49600
C  27.78500 65.00900 38.60900
N  27.75700 58.75000 40.04800
C  26.95000 59.81000 39.73100
C  25.63800 59.32000 39.52800
C  25.70500 57.96800 39.53100
C  27.05400 57.64400 39.70600
C  24.47800 60.28500 39.33200
C  24.95100 56.81200 39.41000
O  23.71700 56.65600 39.25200
C  26.00200 55.62700 39.30300
C  25.68900 54.57100 40.23700
O  25.82800 54.64900 41.43900
O  24.97900 53.54400 39.64500
C  24.45800 52.51500 40.52600
H  33.00100 55.21600 39.66600
H  32.88800 61.69100 40.07500
H  26.60400 61.91400 39.54500
H  28.40200 53.66200 39.32600
H  31.02400 53.83400 38.41400
H  31.42900 52.43100 40.28100
H  29.77600 52.82600 40.83100
H  31.04400 53.92000 41.37300
H  29.79300 53.93200 36.74000
H  28.70200 55.31500 36.88500
H  27.12400 52.93200 37.53300
H  28.27700 52.49000 36.30700
H  34.89600 55.98600 38.85400
H  35.21800 56.18500 40.60500
H  36.25200 57.01500 39.41100
H  36.25400 62.09100 40.92900
H  34.65500 61.74600 41.48400
H  34.93900 62.24500 39.76900
H  31.19800 63.25100 39.09400
H  28.65800 63.43900 40.64700
H  30.23600 64.41000 41.55300
H  31.94700 64.39100 41.13000
H  31.36800 63.00400 41.97700
H  28.20400 63.12700 37.83700
H  29.60200 64.21300 38.00300
H  26.77000 64.69100 38.37000
H  28.11100 65.87900 38.03900
H  27.67400 65.26400 39.66200
H  24.55000 60.75900 38.35400
H  24.51100 60.93400 40.20700
H  23.63100 59.60800 39.43600
H  25.81400 55.39000 38.25500
H  23.44400 52.73700 40.86100
H  25.03300 52.34000 41.43500
H  24.37600 51.56700 39.99300

