158

Mg 49.08700 35.60000 27.79300
C  47.14000 33.89600 30.20900
C  49.65100 38.17700 30.14600
C  50.88400 36.98600 25.46500
C  47.88800 33.15300 25.49300
N  48.51200 35.95100 29.87200
C  47.75000 35.09700 30.65800
C  47.92000 35.60400 32.11100
C  48.21500 37.16000 31.90200
C  48.95300 37.04200 30.57200
C  46.89900 37.95700 31.89000
C  49.04600 34.74100 32.79900
C  48.81500 34.35800 34.27500
H  47.97500 35.26900 35.12600
N  50.01100 37.39600 27.84800
C  50.25000 38.28000 28.85900
C  51.06700 39.39900 28.37700
C  51.44900 39.05000 27.04700
C  50.77200 37.74800 26.72000
C  51.37800 40.59400 29.25200
C  52.43000 39.74800 26.11600
O  52.77200 39.30100 25.05500
C  53.11600 41.01000 26.55500
N  49.24100 35.26000 25.82100
C  50.19200 35.88200 25.06300
C  50.37700 35.26300 23.70600
C  49.62700 33.91300 23.86900
C  48.87100 34.07800 25.15600
C  49.91600 36.15600 22.52300
C  50.35800 32.56900 23.89100
C  50.04400 31.59800 22.82400
N  47.93300 33.76300 27.81500
C  47.51100 32.95500 26.77900
C  46.70000 31.86500 27.36600
C  46.43300 32.22900 28.63100
C  47.18800 33.41000 28.86600
C  46.13300 30.62100 26.67100
C  45.64600 31.91000 29.80200
O  44.96000 30.91700 30.07800
C  46.01500 33.08500 30.83500
C  46.45500 32.45600 32.10800
O  47.46200 31.75600 32.29500
O  45.43300 32.61000 33.03800
C  45.69400 31.96500 34.33500
H  49.77100 39.01800 30.83200
H  51.57300 37.34500 24.69800
H  47.68200 32.41100 24.71800
H  46.94400 35.42800 32.56300
H  48.92200 37.57900 32.61900
H  46.88400 38.53000 32.81600
H  45.96000 37.40300 31.90600
H  46.88100 38.61500 31.02200
H  49.88300 35.42400 32.65800
H  49.23700 33.87300 32.16800
H  49.71900 34.37200 34.88500
H  48.33400 33.38000 34.24000
H  52.31800 40.42200 29.77500
H  50.65500 40.89600 30.01000
H  51.44300 41.48900 28.63200
H  53.49400 40.98200 27.57700
H  52.36400 41.79700 26.50100
H  54.00200 41.33800 26.01100
H  51.42000 34.94600 23.69300
H  48.84000 33.84300 23.11800
H  50.74300 36.27000 21.82300
H  49.56500 37.14700 22.81100
H  49.06500 35.73900 21.98300
H  50.28700 32.07400 24.86000
H  51.41400 32.81300 23.78100
H  51.01100 31.50100 22.33000
H  49.29800 31.97000 22.12100
H  49.67600 30.63200 23.16900
H  46.94200 30.18600 26.08300
H  45.54900 30.87300 25.78600
H  45.64600 29.84200 27.25800
H  45.11000 33.68500 30.92600
H  45.84400 30.90300 34.14100
H  44.90800 32.19000 35.05600
H  46.64000 32.38200 34.68100
Mg 0.84600 42.38000 25.21700
C  2.08900 43.05000 28.47300
C  -2.13100 41.38700 26.68800
C  -0.12500 41.65000 22.20500
C  4.20200 42.91700 24.08300
N  0.11200 42.23900 27.26500
C  0.72300 42.69800 28.45200
C  -0.11400 42.42000 29.66400
C  -1.49000 41.84500 29.06400
C  -1.16400 41.85700 27.55900
C  -1.92800 40.41400 29.53800
C  -0.25600 43.67800 30.48000
C  0.25200 43.70600 31.92400
H  -0.70400 43.10200 32.95600
N  -0.88200 41.66200 24.51200
C  -1.98100 41.23400 25.28300
C  -2.92900 40.66000 24.36000
C  -2.39100 40.85300 23.01600
C  -1.09900 41.42200 23.21500
C  -4.23400 40.20300 24.76900
C  -3.01700 40.55700 21.55700
O  -2.46700 40.90100 20.51400
C  -4.29000 39.81200 21.45600
N  1.89200 42.38700 23.51000
C  1.26100 41.93000 22.35400
C  2.20100 41.75700 21.12400
C  3.57400 42.19700 21.73400
C  3.20400 42.57400 23.17300
C  2.04400 40.20500 20.63600
C  4.29200 43.30100 21.06600
C  3.69600 44.74400 21.28900
N  2.77800 43.02900 26.05800
C  4.01700 43.16700 25.48900
C  4.99800 43.49200 26.45200
C  4.24600 43.41600 27.60000
C  2.94200 43.15800 27.36300
C  6.47600 43.58100 26.26600
C  4.40000 43.41700 28.96900
O  5.46000 43.53400 29.54300
C  3.00200 43.16000 29.70000
C  3.18800 41.92200 30.51400
O  2.84900 40.75200 30.26500
O  3.88600 42.20700 31.62800
C  3.87800 41.13300 32.57900
H  -3.04900 41.00200 27.13800
H  -0.39300 41.36300 21.18600
H  5.15400 43.08600 23.57600
H  0.42100 41.70200 30.28500
H  -2.34500 42.51500 29.15800
H  -2.20700 39.75500 28.71500
H  -2.77700 40.45500 30.22000
H  -1.16400 40.06400 30.23200
H  -1.30600 43.95500 30.57200
H  0.39400 44.44400 30.05800
H  0.55600 44.71200 32.21400
H  1.17000 43.15000 32.11700
H  -4.31200 40.24100 25.85500
H  -4.26600 39.13000 24.57900
H  -5.02000 40.81800 24.33000
H  -4.27600 39.52500 20.40400
H  -5.08000 40.51700 21.71500
H  -4.25000 38.94700 22.11800
H  1.89400 42.52800 20.41700
H  4.07200 41.22900 21.68500
H  2.97600 39.63900 20.66700
H  1.83300 40.16000 19.56800
H  1.31500 39.74500 21.30400
H  4.21900 43.16600 19.98700
H  5.36100 43.39300 21.25900
H  3.24700 45.07800 20.35400
H  4.51300 45.37900 21.63100
H  2.94500 44.69300 22.07800
H  6.66600 44.10000 25.32600
H  6.83100 42.57900 26.02400
H  6.92300 44.06500 27.13400
H  2.86700 44.04100 30.32700
H  4.46200 41.50500 33.42100
H  4.38600 40.31400 32.07100
H  2.83500 40.99000 32.86500

