158

Mg 24.71800 1.49300 29.53800
C  26.44800 1.14900 32.53600
C  21.83300 1.99300 31.37800
C  23.00500 1.36000 26.69400
C  27.75900 0.63500 27.78600
N  24.19800 1.56300 31.70700
C  25.11900 1.56400 32.69600
C  24.44300 1.87700 34.05400
C  22.94000 2.11200 33.70700
C  22.94200 1.77400 32.18400
C  22.02600 1.19800 34.45700
C  25.00300 3.11500 34.80700
C  25.46500 2.89300 36.20700
H  25.40900 4.03900 37.14100
N  22.70800 1.76100 29.12300
C  21.68800 1.97700 29.98000
C  20.47800 2.03100 29.27900
C  20.78200 1.91000 27.87500
C  22.24400 1.74900 27.84500
C  19.21300 2.33700 29.96400
C  19.79700 1.94100 26.71000
O  20.16100 1.68200 25.52800
C  18.40800 2.16300 26.81200
N  25.36700 1.21200 27.54700
C  24.41000 1.16800 26.54200
C  24.99500 0.66700 25.27300
C  26.48400 0.82100 25.56200
C  26.58700 0.92000 27.02000
C  24.46900 -0.73600 24.99100
C  27.16500 2.01700 24.76800
C  26.48300 3.40400 24.94000
N  26.74600 1.03000 29.99600
C  27.84100 0.76100 29.18900
C  28.98700 0.60100 30.05300
C  28.49200 0.78000 31.34000
C  27.11400 1.04800 31.28600
C  30.37000 0.25000 29.65900
C  28.90200 0.77500 32.67100
O  30.00900 0.66700 33.16400
C  27.61200 0.99600 33.50100
C  27.46100 -0.18200 34.42300
O  26.70700 -1.14900 34.35000
O  28.43600 -0.10300 35.39500
C  28.43400 -1.02800 36.50700
H  21.02900 2.30700 32.04700
H  22.44000 1.13600 25.78700
H  28.67400 0.45100 27.21900
H  24.59300 0.98000 34.65300
H  22.67000 3.13800 33.95600
H  21.57700 0.54500 33.70800
H  21.25600 1.73700 35.00800
H  22.63300 0.57800 35.11700
H  24.32900 3.97100 34.76200
H  25.87000 3.38600 34.20400
H  26.45600 2.44000 36.24600
H  24.89200 2.08900 36.66800
H  19.12100 2.46700 31.04200
H  18.56300 1.54300 29.59500
H  18.80700 3.25500 29.54000
H  18.26100 2.88300 27.61600
H  18.00300 1.18300 27.06600
H  17.88000 2.56200 25.94700
H  24.78800 1.32300 24.42700
H  27.00400 -0.09100 25.26900
H  23.74700 -0.54600 24.19600
H  24.02500 -1.18600 25.87900
H  25.16200 -1.42600 24.51000
H  27.18400 1.72400 23.71800
H  28.19700 2.22600 25.04800
H  25.75900 3.46600 25.75200
H  25.97500 3.68100 24.01600
H  27.25300 4.12600 25.21300
H  30.56500 0.47300 28.61000
H  30.62400 -0.80100 29.79100
H  31.03800 0.78800 30.33300
H  27.74600 1.84100 34.17600
H  27.59700 -0.68800 37.11700
H  29.28200 -1.04800 37.19200
H  28.25800 -2.06000 36.20400
Mg 45.02300 5.90300 48.02400
C  42.75200 8.58500 47.17700
C  42.47000 3.66100 46.91900
C  47.17600 3.41100 48.13300
C  47.59900 8.18900 47.97000
N  42.83500 6.14400 47.21000
C  42.13800 7.33800 47.02400
C  40.63100 7.00700 46.69600
C  40.63000 5.41100 46.63300
C  42.03900 5.02100 46.89500
C  39.71200 4.75900 47.70500
C  40.00000 7.69000 45.49300
C  40.84800 8.16000 44.39100
H  40.38200 7.95700 42.96300
N  44.81400 3.81700 47.81200
C  43.78100 3.12500 47.30100
C  44.08500 1.75900 47.38400
C  45.41800 1.59000 47.88300
C  45.88300 2.96500 47.97600
C  43.11900 0.69900 46.90600
C  46.12700 0.23200 48.10500
O  45.57500 -0.82600 47.84600
C  47.59700 0.15800 48.64000
N  47.21600 5.75500 47.65500
C  47.80600 4.63000 48.03000
C  49.26400 4.82400 48.13900
C  49.39500 6.35800 48.36000
C  47.97700 6.82700 47.94400
C  50.02300 3.98900 49.17900
C  50.53600 7.13200 47.52000
C  51.45700 8.11300 48.26900
N  45.16700 7.90300 47.77000
C  46.29300 8.73300 47.83200
C  45.96100 10.13900 47.67100
C  44.55800 10.11100 47.55000
C  44.14000 8.75500 47.48800
C  46.97800 11.28600 47.71000
C  43.40000 10.99500 47.41800
O  43.38100 12.23300 47.34700
C  42.16600 10.03900 47.18700
C  41.12800 10.27500 48.30900
O  41.06800 9.59100 49.34700
O  40.17000 11.20000 47.93700
C  39.04400 11.24700 48.86700
H  41.62400 2.99200 46.74900
H  47.91300 2.64900 48.39600
H  48.42100 8.85500 48.23700
H  40.10600 7.41000 47.56200
H  40.43000 5.22800 45.57800
H  39.03400 5.45600 48.19700
H  40.34500 4.32200 48.47800
H  39.05500 4.04200 47.21300
H  39.53300 8.53400 46.00000
H  39.28800 7.02000 45.01100
H  41.88100 7.89700 44.61900
H  40.64500 9.22900 44.45700
H  42.16500 1.11200 46.57700
H  42.94400 0.06400 47.77400
H  43.56700 0.02500 46.17500
H  47.60400 -0.81200 49.13600
H  47.84300 0.93400 49.36500
H  48.29100 0.13100 47.80000
H  49.59200 4.48600 47.15600
H  49.58900 6.49800 49.42300
H  50.40300 3.15200 48.59300
H  49.27500 3.56500 49.84800
H  50.84200 4.52600 49.65700
H  50.04600 7.66100 46.70300
H  51.00900 6.32100 46.96600
H  52.46300 7.69700 48.20500
H  51.21900 7.99400 49.32600
H  51.47900 9.18400 48.06700
H  46.44200 12.22700 47.58700
H  47.56200 11.09400 46.81100
H  47.73900 11.26800 48.49000
H  41.69400 10.24600 46.22700
H  38.43100 12.14100 48.75400
H  39.36300 11.21600 49.90900
H  38.52700 10.33800 48.56100

