158

Mg 50.44300 46.04700 42.30700
C  47.36800 46.75400 40.59200
C  50.40400 42.89800 40.92800
C  53.74200 45.67000 43.12800
C  50.85800 49.54800 42.69800
N  48.94400 44.92200 40.99800
C  47.78500 45.41700 40.45000
C  47.03600 44.29600 39.61600
C  47.96600 43.05700 39.93000
C  49.21400 43.65300 40.68300
C  47.37500 41.95300 40.76800
C  46.81000 44.57900 38.14200
C  45.40900 44.70200 37.57400
H  44.83400 43.73800 36.55100
N  51.92300 44.50000 42.06100
C  51.64500 43.21600 41.57300
C  52.77800 42.38300 41.88700
C  53.80200 43.08400 42.62200
C  53.16900 44.49900 42.67000
C  52.82000 40.86400 41.49800
C  55.10300 42.59900 43.21800
O  55.50100 41.45900 43.05300
C  55.80200 43.43100 44.16600
N  52.17300 47.46000 42.68800
C  53.35200 47.05400 43.11600
C  54.28500 48.21300 43.53800
C  53.33100 49.41700 43.51000
C  52.03900 48.79000 42.94500
C  55.10200 48.04500 44.89600
C  53.84900 50.74600 42.80600
C  53.40200 52.03700 43.46400
N  49.28400 47.77700 42.05800
C  49.54100 49.11900 42.30000
C  48.41900 49.95200 41.98500
C  47.53600 49.06200 41.33000
C  48.13100 47.74400 41.29600
C  48.28100 51.46100 42.11700
C  46.27900 48.89200 40.63200
O  45.42300 49.79100 40.46700
C  46.10100 47.42100 40.11500
C  44.85500 46.85100 40.60900
O  44.78200 46.16800 41.62700
O  43.82000 47.18500 39.72300
C  42.62700 46.35200 40.05400
H  50.37500 41.85400 40.60900
H  54.77000 45.60500 43.49000
H  50.90100 50.60900 42.95100
H  46.08400 44.13900 40.12200
H  48.28800 42.69000 38.95600
H  48.00700 41.55600 41.56300
H  47.10400 41.11300 40.12800
H  46.48900 42.40400 41.21600
H  47.37400 43.80300 37.62400
H  47.46100 45.44700 38.04400
H  45.30800 45.71800 37.19400
H  44.61800 44.64400 38.32100
H  53.76500 40.54700 41.05600
H  52.02400 40.66600 40.78100
H  52.68400 40.23800 42.38000
H  55.28300 44.02000 44.92300
H  56.38800 44.09100 43.52700
H  56.48000 42.75500 44.68800
H  54.94300 48.31700 42.67500
H  53.02900 49.67100 44.52600
H  54.74600 47.18800 45.46700
H  55.10800 48.97400 45.46600
H  56.10300 47.75000 44.58300
H  53.44400 50.72000 41.79400
H  54.93700 50.68200 42.80600
H  52.47500 52.29400 42.95200
H  54.14600 52.82900 43.38600
H  53.09300 51.72900 44.46300
H  48.65600 51.80000 43.08300
H  47.23600 51.69100 41.91300
H  48.78100 51.99400 41.30900
H  46.13300 47.53500 39.03200
H  41.91500 46.49500 39.24100
H  42.05700 46.65000 40.93400
H  42.70200 45.26900 39.96300
Mg 5.43600 54.15900 40.10500
C  4.61700 50.65800 40.13700
C  8.56600 53.21100 39.05700
C  6.04400 57.31800 39.43300
C  2.05600 54.93400 40.54600
N  6.37300 52.12500 39.45400
C  5.88300 50.87900 39.57000
C  6.95900 49.82700 39.22000
C  8.24500 50.72700 39.38400
C  7.69900 52.15500 39.32500
C  9.20300 50.61300 40.66300
C  6.79300 49.13300 37.87800
C  6.27500 49.84500 36.64600
H  7.12900 50.95200 36.05900
N  7.08200 55.09100 39.23100
C  8.30900 54.60700 39.03200
C  9.23500 55.68200 38.82400
C  8.55500 56.93000 38.79500
C  7.15600 56.49700 39.14800
C  10.76300 55.34700 38.64100
C  9.17200 58.33000 38.59000
O  10.38500 58.49800 38.44700
C  8.26800 59.54200 38.29800
N  4.24300 55.80300 39.94500
C  4.80800 57.06000 39.84700
C  3.76100 58.17700 40.14900
C  2.43800 57.37300 40.28400
C  2.96100 55.94200 40.23100
C  4.01200 59.04200 41.39900
C  1.37600 57.64700 39.23200
C  -0.01700 58.03200 39.86400
N  3.69700 53.04100 40.42800
C  2.41600 53.52400 40.70800
C  1.63200 52.34900 41.04200
C  2.41500 51.18900 40.91500
C  3.65400 51.69900 40.44500
C  0.18100 52.34400 41.36700
C  2.48400 49.81500 41.05000
O  1.61500 49.00300 41.38500
C  3.98200 49.37200 40.64700
C  3.90300 48.33000 39.65500
O  3.86800 48.50400 38.46000
O  4.16500 47.05700 40.14800
C  4.13600 45.88100 39.20700
H  9.59000 52.95400 38.78000
H  6.18900 58.40000 39.39600
H  1.08900 55.16900 40.99700
H  6.96900 49.10200 40.03400
H  8.93500 50.50300 38.57100
H  8.92900 49.72700 41.23600
H  9.04900 51.45600 41.33700
H  10.25200 50.55200 40.37200
H  6.28500 48.20900 38.15400
H  7.77000 48.87100 37.47200
H  5.27300 50.21500 36.86700
H  6.15300 49.06700 35.89200
H  11.17300 56.06700 37.93300
H  10.83600 54.41000 38.08900
H  11.43000 55.20000 39.49000
H  8.76200 60.35500 37.76700
H  7.95600 60.03500 39.21900
H  7.35700 59.25300 37.77400
H  3.76300 58.88700 39.32200
H  2.03900 57.50700 41.29000
H  4.57700 58.37200 42.04800
H  3.06500 59.35900 41.83400
H  4.50700 59.98000 41.14900
H  1.37200 56.87000 38.46800
H  1.69300 58.50600 38.64000
H  0.00400 58.00000 40.95300
H  -0.86700 57.39200 39.62600
H  -0.20000 59.08500 39.65400
H  -0.44000 53.19900 41.09900
H  0.23400 52.32500 42.45600
H  -0.26700 51.42100 41.00000
H  4.47600 48.90000 41.49600
H  3.16800 45.39100 39.09800
H  4.60800 44.98600 39.61200
H  4.47900 46.13200 38.20300

