158

Mg 17.27800 -2.25200 28.28700
C  16.20300 -0.20800 30.83800
C  19.20000 -3.99100 30.40500
C  18.80000 -3.62800 25.64600
C  15.41800 -0.17100 26.00200
N  17.62400 -2.02700 30.37800
C  17.08500 -1.18200 31.25300
C  17.58100 -1.39400 32.71600
C  18.58300 -2.61000 32.47500
C  18.48700 -2.92700 30.98800
C  20.05300 -2.37100 32.90900
C  16.48800 -1.72600 33.76900
C  16.49200 -0.96800 35.07000
H  17.77300 -0.29000 35.60400
N  18.85300 -3.65800 28.09700
C  19.38000 -4.32500 29.09900
C  20.29300 -5.25200 28.58900
C  20.19500 -5.24400 27.18300
C  19.25000 -4.13100 26.86000
C  21.14800 -6.25600 29.40500
C  20.79100 -6.10100 26.07100
O  20.73000 -5.76300 24.88500
C  21.61800 -7.33300 26.44900
N  17.07000 -2.07300 26.13300
C  17.92900 -2.65100 25.26900
C  17.92600 -2.02400 23.84900
C  16.68000 -1.08900 23.98700
C  16.32500 -1.04200 25.49600
C  19.18500 -1.19000 23.33500
C  15.45600 -1.30900 23.00200
C  15.64400 -0.35700 21.75400
N  16.00100 -0.62200 28.37300
C  15.21400 0.02100 27.36000
C  14.48800 1.13100 28.03000
C  14.79500 1.09200 29.41200
C  15.75800 0.03300 29.52500
C  13.55500 1.99700 27.34600
C  14.52900 1.63500 30.76400
O  13.73700 2.51800 31.13100
C  15.52000 0.85800 31.65400
C  16.52400 1.85200 32.14700
O  17.52500 2.17700 31.53800
O  15.99200 2.51800 33.23700
C  16.83100 3.63200 33.63200
H  19.82700 -4.46400 31.16400
H  19.31900 -3.94800 24.74000
H  14.87000 0.42700 25.27000
H  18.11200 -0.50400 33.05200
H  18.19600 -3.50400 32.96400
H  20.65100 -2.30000 32.00100
H  20.25700 -3.20800 33.57800
H  20.18800 -1.51600 33.57100
H  16.48800 -2.79800 33.96600
H  15.49700 -1.59900 33.33400
H  16.18800 -1.53700 35.94900
H  15.78100 -0.15700 34.91000
H  20.69200 -7.19600 29.09400
H  21.03700 -6.14900 30.48400
H  22.18900 -6.23000 29.08300
H  21.05500 -7.93100 27.16500
H  22.44400 -6.89800 27.01100
H  22.07300 -7.82700 25.59000
H  17.65300 -2.88800 23.24300
H  16.95900 -0.07500 23.69900
H  18.96800 -0.18900 22.96300
H  19.55300 -1.69400 22.44100
H  19.92500 -1.22700 24.13400
H  14.51100 -0.99700 23.44600
H  15.32700 -2.33500 22.65700
H  16.54800 0.24800 21.81500
H  14.83100 0.36500 21.67600
H  15.60800 -1.03000 20.89800
H  12.53300 1.71700 27.60300
H  13.53600 1.86100 26.26500
H  13.79400 3.04700 27.51200
H  14.95300 0.41300 32.47200
H  16.62700 4.52500 33.04100
H  17.90000 3.47300 33.77600
H  16.28700 3.77300 34.56500
Mg -12.37500 39.73700 42.40300
C  -10.86300 36.82100 41.27200
C  -9.79400 41.56400 40.91000
C  -14.26800 42.58500 42.92200
C  -15.23900 37.93400 43.30800
N  -10.62300 39.23100 40.95300
C  -10.08700 37.96300 40.86800
C  -8.68900 37.99900 40.31300
C  -8.34400 39.58700 40.24100
C  -9.66400 40.15200 40.84200
C  -7.00600 39.95400 40.95000
C  -8.65400 37.22300 38.94100
C  -7.41400 36.32700 39.02200
H  -7.02600 35.66300 37.75900
N  -12.04900 41.77200 41.98500
C  -10.91100 42.34600 41.40500
C  -11.05400 43.82400 41.43800
C  -12.27100 44.09100 42.16800
C  -12.98000 42.76900 42.36500
C  -10.08800 44.81100 40.79600
C  -12.83700 45.52700 42.61800
O  -12.20400 46.56100 42.36900
C  -14.13800 45.68800 43.37800
N  -14.57000 40.18900 42.87600
C  -14.97900 41.40000 43.21100
C  -16.39300 41.38400 43.82200
C  -16.76700 39.90700 43.66100
C  -15.40200 39.31100 43.34600
C  -16.45400 41.82800 45.34300
C  -17.80600 39.54300 42.57200
C  -18.83500 38.48900 43.00200
N  -12.94400 37.72700 42.41000
C  -14.11400 37.20700 42.82400
C  -14.00100 35.73800 42.62700
C  -12.68200 35.54400 42.14000
C  -12.15400 36.81100 41.89100
C  -15.09200 34.79300 43.11500
C  -11.68200 34.56100 41.78600
O  -11.61300 33.38600 41.99100
C  -10.44100 35.37300 41.24000
C  -9.28900 35.06400 42.08900
O  -9.08600 35.45700 43.22800
O  -8.49800 34.11700 41.40500
C  -7.33900 33.59800 42.18500
H  -8.92300 42.18700 40.69700
H  -14.95500 43.36800 43.24800
H  -16.02400 37.35300 43.79500
H  -8.06700 37.51800 41.06800
H  -8.12800 39.88100 39.21500
H  -6.50800 40.68000 40.30700
H  -6.38000 39.07400 41.10000
H  -7.23000 40.41400 41.91300
H  -8.53100 37.90100 38.09600
H  -9.53500 36.59800 38.79500
H  -7.63100 35.57100 39.77600
H  -6.59900 36.95300 39.38600
H  -10.32200 45.00900 39.75000
H  -9.04700 44.49100 40.76700
H  -10.17300 45.81500 41.21100
H  -14.19200 44.93500 44.16500
H  -14.92500 45.43000 42.66900
H  -14.28600 46.65500 43.85800
H  -17.09200 42.03400 43.29600
H  -17.16100 39.46700 44.57700
H  -16.32900 41.07700 46.12300
H  -17.42200 42.26500 45.58900
H  -15.75200 42.57600 45.71200
H  -17.33800 39.12000 41.68300
H  -18.22700 40.42500 42.09100
H  -18.44600 37.47900 42.87700
H  -19.79200 38.58700 42.48900
H  -18.98600 38.41800 44.07900
H  -14.78100 34.30800 44.04000
H  -15.11500 33.97500 42.39400
H  -16.08500 35.18000 43.34300
H  -10.33000 35.03600 40.20900
H  -6.60900 33.31700 41.42600
H  -7.62900 32.71300 42.75200
H  -6.88800 34.47400 42.65000

