158

Mg 44.60900 3.61900 47.07800
C  42.58500 6.23500 46.51700
C  41.69500 1.47700 47.11900
C  46.53800 0.87200 47.05100
C  47.34400 5.70100 46.62900
N  42.36100 3.77600 46.76700
C  41.81600 5.05900 46.55100
C  40.30900 4.95400 46.56100
C  40.02100 3.42300 46.95000
C  41.40000 2.86600 47.05500
C  39.06500 3.15900 48.17100
C  39.60000 5.39700 45.21700
C  40.32000 5.56400 43.88400
H  39.93400 6.65200 42.93100
N  44.18300 1.47300 47.10200
C  42.94500 0.82600 47.17900
C  43.16200 -0.62200 47.07100
C  44.57300 -0.84700 47.02300
C  45.18000 0.53900 47.05600
C  42.07200 -1.62200 46.94300
C  45.19600 -2.24500 46.88200
O  44.53500 -3.26800 46.71400
C  46.71400 -2.40700 46.89000
N  46.58900 3.25500 46.68500
C  47.19300 2.09200 46.84100
C  48.74300 2.08900 46.93000
C  48.95600 3.60700 46.75000
C  47.55300 4.24800 46.68100
C  49.38100 1.54500 48.18400
C  49.74800 4.00500 45.55300
C  51.03700 4.79700 45.65200
N  44.90900 5.64700 46.75000
C  46.10200 6.33800 46.65900
C  45.78200 7.70400 46.47800
C  44.39600 7.77900 46.52800
C  43.93100 6.47200 46.52300
C  46.77800 8.83300 46.40200
C  43.22200 8.63000 46.42500
O  43.10700 9.84200 46.38100
C  41.98900 7.68900 46.51900
C  41.03800 7.98100 47.60000
O  41.29900 7.97600 48.79500
O  39.86500 8.24400 46.98500
C  38.92500 8.90300 47.92600
H  40.84000 0.82300 46.93000
H  47.34700 0.13900 47.08400
H  48.20200 6.35400 46.80200
H  39.93600 5.57300 47.37700
H  39.58400 2.84600 46.13500
H  38.55500 2.24500 47.86600
H  38.25300 3.88600 48.19200
H  39.54900 3.07900 49.14400
H  38.89400 6.21700 45.34600
H  38.90100 4.60500 44.94800
H  40.14000 4.66700 43.29100
H  41.39000 5.35400 43.90000
H  41.11600 -1.15200 47.17200
H  42.18100 -2.50200 47.57700
H  41.96900 -1.90600 45.89600
H  46.93000 -3.46100 47.06800
H  47.14000 -1.90500 47.75900
H  47.05800 -2.03400 45.92500
H  49.09900 1.50200 46.08300
H  49.47500 3.97900 47.63300
H  50.06300 2.23600 48.67800
H  49.90800 0.63500 47.89700
H  48.68700 1.33700 48.99900
H  49.02100 4.67300 45.09100
H  49.85900 3.17800 44.85100
H  51.85100 4.32300 45.10400
H  51.38900 4.97700 46.66800
H  50.81900 5.78600 45.24700
H  47.52900 8.70200 45.62300
H  47.35400 8.77500 47.32500
H  46.32100 9.79600 46.17400
H  41.44400 7.84900 45.58900
H  37.98000 9.12500 47.43000
H  39.30400 9.88400 48.21200
H  38.84600 8.35700 48.86700
Mg -12.69700 37.65300 42.18800
C  -10.22500 35.28800 41.54400
C  -10.66900 40.10200 40.99300
C  -15.24200 39.70700 42.66100
C  -14.67300 34.95300 43.46500
N  -10.67600 37.70100 41.12300
C  -9.83000 36.61100 41.13500
C  -8.44300 37.04700 40.54900
C  -8.50200 38.62900 40.84100
C  -9.99600 38.85600 40.94400
C  -7.76800 39.07800 42.16000
C  -8.37300 36.55100 39.01500
C  -7.23400 35.53100 38.69700
H  -6.35400 35.93800 37.56200
N  -13.00000 39.59200 41.78100
C  -12.05300 40.46700 41.30900
C  -12.62600 41.83900 41.29000
C  -13.86700 41.72000 41.90300
C  -14.13300 40.31200 42.14900
C  -11.91800 43.05000 40.81400
C  -14.80500 42.97900 42.13100
O  -14.45500 44.09300 41.73300
C  -16.06500 42.85100 42.83200
N  -14.91900 37.36700 42.73100
C  -15.67200 38.39200 42.92700
C  -16.95600 38.01600 43.71000
C  -16.78800 36.41000 43.74700
C  -15.35500 36.17100 43.34300
C  -17.24900 38.61800 45.11200
C  -17.81200 35.58500 42.85800
C  -17.32300 35.14800 41.42000
N  -12.58200 35.56500 42.33800
C  -13.44000 34.63600 42.93100
C  -12.77700 33.36600 42.94800
C  -11.53100 33.51200 42.39100
C  -11.43200 34.89500 42.04000
C  -13.33100 32.04800 43.44600
C  -10.30700 32.89600 41.97300
O  -9.88300 31.72500 42.14900
C  -9.38100 34.04800 41.47800
C  -8.03600 34.03600 42.26300
O  -6.93000 33.86000 41.76300
O  -8.30900 34.13300 43.60400
C  -7.26200 34.15700 44.56900
H  -10.08600 40.92100 40.56800
H  -15.98900 40.46900 42.89000
H  -15.32100 34.20800 43.93300
H  -7.65800 36.58800 41.14900
H  -8.10800 39.19000 39.99300
H  -8.50700 39.18400 42.95400
H  -7.26400 40.02000 41.94200
H  -6.98500 38.36900 42.42900
H  -8.28000 37.38400 38.31900
H  -9.28900 36.06200 38.68300
H  -7.55800 34.50700 38.51300
H  -6.58000 35.44000 39.56500
H  -12.13800 43.83400 41.53900
H  -12.38600 43.36600 39.88100
H  -10.83300 42.95500 40.78400
H  -16.40100 43.86200 43.06300
H  -15.97200 42.31200 43.77500
H  -16.80300 42.29100 42.25700
H  -17.79000 38.31500 43.07500
H  -16.87800 36.04300 44.77000
H  -17.96000 39.42800 44.94900
H  -16.34100 38.96900 45.60400
H  -17.69500 37.76500 45.62200
H  -18.72700 36.15000 42.67900
H  -18.19500 34.72300 43.40300
H  -17.66000 34.11200 41.38100
H  -16.24000 35.24400 41.34600
H  -17.90000 35.49900 40.56400
H  -14.35100 31.94500 43.07600
H  -13.15000 31.96100 44.51700
H  -12.79500 31.20800 43.00300
H  -9.12000 33.78700 40.45200
H  -6.40800 33.49000 44.44800
H  -7.79800 34.11400 45.51700
H  -6.96800 35.18600 44.77700

