158

Mg 8.84800 3.09500 28.48700
C  10.24300 1.94600 31.47900
C  6.83200 5.33100 30.43100
C  7.19800 4.02300 25.70700
C  10.37400 0.46900 26.77200
N  8.58000 3.48700 30.72700
C  9.32000 2.92100 31.72100
C  8.99800 3.51100 33.11600
C  7.69100 4.43500 32.77300
C  7.69300 4.47100 31.25400
C  6.25700 3.94900 33.31700
C  10.14500 4.10400 33.83400
C  10.37000 3.69300 35.36400
H  9.20800 3.28600 36.31800
N  7.28100 4.51600 28.12300
C  6.59600 5.35000 29.02900
C  5.69600 6.27200 28.32900
C  5.84900 5.92700 26.94300
C  6.87600 4.77300 26.85600
C  4.66500 7.17200 28.99100
C  5.10400 6.42900 25.74100
O  5.32400 6.09900 24.57500
C  4.08000 7.39300 25.91900
N  8.90600 2.48400 26.50700
C  8.06100 2.92500 25.56600
C  8.12700 1.99700 24.26200
C  9.46200 1.21300 24.51900
C  9.66300 1.37700 26.02600
C  6.87600 1.09100 24.09800
C  10.68200 1.70400 23.76900
C  10.62500 1.35900 22.28200
N  10.04400 1.54600 28.98200
C  10.59700 0.51000 28.21900
C  11.33900 -0.38200 28.99600
C  11.31300 0.18300 30.31000
C  10.48300 1.36300 30.22000
C  12.15400 -1.51900 28.40500
C  11.68500 -0.06800 31.69900
O  12.44000 -0.93900 32.16200
C  11.06800 1.12400 32.44600
C  10.37600 0.47400 33.54300
O  9.27800 -0.00300 33.39200
O  11.17300 0.20900 34.58100
C  10.52300 -0.37600 35.72200
H  6.30200 6.09000 31.01000
H  6.69700 4.23500 24.76000
H  10.78000 -0.32000 26.13600
H  8.61200 2.67100 33.69400
H  7.85800 5.44800 33.14000
H  5.49600 4.25800 32.60100
H  6.08200 4.40500 34.29100
H  6.37100 2.87100 33.43900
H  10.07200 5.18100 33.67800
H  11.05800 3.71700 33.38100
H  10.79500 4.51900 35.93400
H  11.22100 3.01700 35.28000
H  3.60900 6.90400 28.96000
H  4.89400 8.16200 28.59700
H  4.86400 7.26000 30.05900
H  3.68800 7.56100 24.91600
H  4.54400 8.28400 26.34100
H  3.26500 6.99300 26.52200
H  8.13900 2.71300 23.44000
H  9.31400 0.14100 24.39600
H  6.38900 0.96800 25.06500
H  7.19600 0.14100 23.66900
H  6.11100 1.42300 23.39600
H  11.52200 1.20800 24.25500
H  10.86600 2.75000 24.01400
H  10.82800 2.22600 21.65300
H  9.71300 0.81200 22.04700
H  11.38300 0.58400 22.16300
H  12.21400 -1.26400 27.34700
H  11.56100 -2.43100 28.34300
H  13.04200 -1.63500 29.02600
H  11.98800 1.64400 32.71200
H  9.67000 0.23200 36.02400
H  11.21100 -0.36500 36.56800
H  10.35600 -1.42700 35.48800
Mg 35.23500 1.44300 28.80500
C  33.09900 2.34800 31.44200
C  37.73000 1.02200 31.09500
C  37.12600 0.58900 26.26500
C  32.44200 1.63600 26.66900
N  35.29000 1.57400 31.09100
C  34.36300 2.07500 31.91000
C  34.86700 2.01200 33.38400
C  36.46700 1.79200 33.10400
C  36.49200 1.38700 31.69200
C  37.35100 3.13000 33.26300
C  34.11100 0.98900 34.31900
C  33.66200 1.63000 35.62900
H  34.65500 2.48600 36.51700
N  37.14300 0.86300 28.67700
C  38.07400 0.73200 29.69100
C  39.35400 0.43000 29.15400
C  39.17600 0.26400 27.72000
C  37.77500 0.57900 27.49900
C  40.64300 0.29100 29.99100
C  40.18100 -0.20100 26.68500
O  39.87200 -0.41900 25.48000
C  41.59100 -0.35500 27.04100
N  34.73900 0.94800 26.74800
C  35.77400 0.83000 25.91100
C  35.27300 0.81900 24.41300
C  33.74900 1.12900 24.57400
C  33.63500 1.19100 26.10200
C  36.02300 1.84300 23.44100
C  32.79600 0.05900 23.94100
C  31.94600 0.49600 22.74500
N  33.26200 2.01700 28.92900
C  32.27300 1.98400 28.02400
C  30.91700 2.28200 28.61300
C  31.25600 2.36600 29.96500
C  32.63200 2.24500 30.12600
C  29.70600 2.35200 27.84400
C  30.72800 2.64900 31.23200
O  29.61500 2.86900 31.52700
C  31.88400 2.72500 32.22400
C  31.92000 4.02400 32.97100
O  32.58500 4.96600 32.67000
O  31.04800 3.98900 34.09900
C  31.15200 5.12300 35.03100
H  38.52800 0.75000 31.78900
H  37.76700 0.41600 25.39700
H  31.51900 1.73500 26.09400
H  34.76500 3.02400 33.77600
H  36.76500 0.94000 33.71600
H  37.82800 3.44700 32.33600
H  38.16100 2.96400 33.97400
H  36.64500 3.89700 33.58300
H  34.77500 0.16300 34.57100
H  33.31000 0.64900 33.66200
H  33.30400 0.78400 36.21600
H  32.82700 2.28700 35.38800
H  41.45800 0.89500 29.59400
H  40.99600 -0.73400 30.10400
H  40.42500 0.56600 31.02300
H  41.52400 -0.99100 27.92300
H  42.00900 0.60400 27.34700
H  42.23200 -0.79200 26.27600
H  35.44100 -0.22700 24.15800
H  33.64700 2.12700 24.14800
H  35.40900 2.14400 22.59200
H  36.99500 1.52500 23.06400
H  36.24800 2.76900 23.97000
H  32.11100 -0.25500 24.72900
H  33.32400 -0.82800 23.59000
H  30.87100 0.58300 22.90500
H  32.07500 -0.14500 21.87200
H  32.35000 1.43500 22.36700
H  28.77600 2.13800 28.37100
H  29.66400 1.76000 26.93000
H  29.61200 3.32900 27.36900
H  31.59500 1.97300 32.95800
H  32.00200 4.96300 35.69400
H  30.24800 5.25300 35.62700
H  31.39700 5.97300 34.39400

