158

Mg 10.46100 48.17900 26.19200
C  8.36600 47.80000 29.00900
C  12.78600 49.41200 28.01700
C  12.06900 48.66500 23.25400
C  7.47500 47.32800 24.30500
N  10.39900 48.71000 28.25700
C  9.60000 48.24300 29.28000
C  10.19800 48.64200 30.66300
C  11.44000 49.42700 30.24100
C  11.56500 49.16100 28.73200
C  11.60600 50.94600 30.60100
C  10.54800 47.45300 31.62400
C  9.96900 47.48100 33.07100
H  10.49200 46.44900 34.14300
N  12.21000 48.89800 25.74500
C  13.16000 49.25200 26.65100
C  14.49100 49.22800 26.05100
C  14.25500 49.08400 24.69300
C  12.79900 48.81800 24.47400
C  15.71500 49.56400 26.82600
C  15.23100 49.03900 23.55900
O  14.89600 48.88800 22.40800
C  16.67800 49.30600 23.82200
N  9.92600 47.98500 24.05400
C  10.73900 48.33400 23.02800
C  10.01400 48.32000 21.68600
C  8.69200 47.58300 22.04200
C  8.63800 47.70900 23.58900
C  9.85300 49.74000 21.19100
C  8.49100 46.15500 21.37400
C  9.30100 45.05000 22.00000
N  8.36600 47.53000 26.46700
C  7.37900 47.20200 25.66700
C  6.14600 46.92200 26.43200
C  6.49000 47.15100 27.71300
C  7.82900 47.52400 27.69400
C  4.77100 46.56300 25.91300
C  5.94100 47.06600 29.07700
O  4.89300 46.61700 29.55300
C  7.21100 47.49200 29.96000
C  7.45700 46.27500 30.77400
O  7.96500 45.20400 30.37800
O  7.02400 46.51300 32.00500
C  7.00900 45.33000 32.85500
H  13.58400 49.63200 28.72900
H  12.61800 48.88400 22.33600
H  6.68600 46.93300 23.66200
H  9.64100 49.44200 31.14900
H  12.40700 49.07600 30.60100
H  12.33800 51.00500 31.40600
H  10.75600 51.52200 30.96900
H  11.95100 51.44000 29.69300
H  11.63000 47.32900 31.56100
H  10.09700 46.60100 31.11500
H  8.88200 47.55400 33.07400
H  10.29500 48.41200 33.53500
H  16.20400 50.43500 26.39200
H  16.30800 48.64900 26.84400
H  15.36500 49.84700 27.81800
H  16.92700 50.36700 23.80300
H  17.14500 48.58000 23.15700
H  17.00100 49.04200 24.83000
H  10.37300 47.58800 20.96200
H  7.78500 48.10300 21.73600
H  8.82300 50.09100 21.25300
H  9.85600 49.78900 20.10200
H  10.64700 50.39500 21.55000
H  8.64000 46.15100 20.29400
H  7.42300 45.97300 21.48700
H  9.76400 45.41000 22.91900
H  10.04400 44.71000 21.27800
H  8.62600 44.27500 22.36200
H  4.88700 45.64300 25.34000
H  4.31800 47.41300 25.40400
H  4.16000 46.25700 26.76200
H  6.91800 48.30300 30.62700
H  6.73000 45.62300 33.86800
H  8.01400 44.91200 32.90000
H  6.24000 44.63300 32.52300
Mg -0.37200 33.61200 27.06500
C  -2.44000 31.95800 29.44700
C  0.95000 35.43100 29.65400
C  0.72700 35.84400 24.84600
C  -2.29100 32.04800 24.59400
N  -0.75200 33.73600 29.24900
C  -1.50100 32.85000 30.03400
C  -1.37600 33.14500 31.52400
C  -0.32300 34.34600 31.57900
C  -0.04200 34.54100 30.03800
C  -0.65100 35.72400 32.35600
C  -0.93800 31.92800 32.37000
C  -1.81500 31.54800 33.55700
H  -1.15100 31.88700 34.93500
N  0.89200 35.32000 27.20700
C  1.39200 35.82500 28.40000
C  2.22200 37.02700 27.92700
C  2.22900 37.01100 26.48800
C  1.23400 36.04900 26.11300
C  2.67400 38.07600 28.88500
C  3.03700 37.88000 25.58300
O  2.88900 37.90500 24.35000
C  4.11700 38.71700 26.07200
N  -0.58500 33.89700 25.05200
C  -0.13700 34.92600 24.40900
C  -0.52000 34.89400 22.92900
C  -1.20800 33.50700 22.80000
C  -1.31900 33.02200 24.23700
C  -1.31900 36.05300 22.35800
C  -0.58200 32.49000 21.82900
C  0.39700 31.40200 22.47100
N  -2.00000 32.16700 26.96300
C  -2.62800 31.61900 25.90100
C  -3.53500 30.58400 26.34400
C  -3.51400 30.68800 27.71000
C  -2.55500 31.67500 28.06400
C  -4.36000 29.70100 25.33500
C  -4.20900 30.21800 28.87300
O  -5.15700 29.49100 29.07600
C  -3.38000 30.91000 30.06600
C  -4.43500 31.63600 30.80600
O  -4.88800 32.73000 30.40400
O  -4.84600 30.91200 31.86300
C  -5.87100 31.59200 32.67400
H  1.44800 35.87500 30.51800
H  1.03900 36.59300 24.11500
H  -2.85100 31.53600 23.80900
H  -2.35000 33.48300 31.87600
H  0.62800 34.05600 32.02700
H  0.08700 35.90200 33.13700
H  -1.52100 35.51700 32.97900
H  -0.67400 36.66700 31.80900
H  0.09300 32.19400 32.60200
H  -0.88700 31.01900 31.76900
H  -1.82000 30.46800 33.41200
H  -2.83100 31.93100 33.47100
H  3.74500 38.03700 29.08600
H  2.14200 37.87000 29.81300
H  2.47100 39.07800 28.50900
H  4.75100 39.26000 25.37200
H  4.70900 37.95100 26.57300
H  3.74900 39.43900 26.80200
H  0.45900 34.70400 22.49000
H  -2.18900 33.66700 22.35200
H  -0.76500 36.56400 21.57100
H  -1.46600 36.83400 23.10400
H  -2.28300 35.66700 22.02500
H  -0.05700 33.03000 21.04100
H  -1.39600 32.07800 21.23400
H  -0.17900 30.49300 22.64400
H  0.77700 31.75000 23.43100
H  1.17300 31.11000 21.76300
H  -3.68500 29.45200 24.51600
H  -5.13600 30.32200 24.88700
H  -4.79600 28.85500 25.86700
H  -2.89900 30.33200 30.85500
H  -6.55700 32.25400 32.14500
H  -5.41400 32.17200 33.47600
H  -6.56200 30.86800 33.10500

