158

Mg 9.23800 4.28000 27.70000
C  10.51600 2.68000 30.56700
C  7.46600 6.34000 29.81800
C  7.54100 5.38100 25.09400
C  11.03300 2.08400 25.70200
N  9.22700 4.63100 29.98200
C  9.73400 3.76200 30.88200
C  9.31300 4.19100 32.31000
C  8.28300 5.35200 32.04900
C  8.30500 5.47500 30.53800
C  6.86500 5.23600 32.61800
C  10.57500 4.34400 33.24300
C  10.59500 5.53600 34.17100
H  11.54100 5.51000 35.32400
N  7.77200 5.74300 27.47600
C  7.17500 6.49300 28.43300
C  6.27500 7.47000 27.81500
C  6.28800 7.24700 26.39900
C  7.21100 6.04100 26.28900
C  5.51200 8.54200 28.67600
C  5.65200 8.12900 25.26200
O  5.82000 7.87800 24.08100
C  4.77500 9.24200 25.67600
N  9.18600 3.75300 25.69500
C  8.34800 4.35500 24.83600
C  8.63700 3.83000 23.44200
C  9.93500 2.98000 23.61500
C  10.13200 2.96900 25.11900
C  7.44100 3.09800 22.81000
C  11.21600 3.39000 22.85100
C  11.88400 2.20300 22.07600
N  10.45800 2.64600 27.98900
C  11.20000 1.84900 27.09900
C  11.93800 0.89600 27.77600
C  11.68600 1.14900 29.12800
C  10.81200 2.25300 29.21900
C  12.62800 -0.33300 27.16800
C  11.91700 0.62300 30.46500
O  12.53800 -0.31900 30.88600
C  11.23100 1.63400 31.46800
C  10.41500 0.89900 32.52700
O  9.25300 0.55000 32.33300
O  11.13700 0.93500 33.73100
C  10.47600 0.47800 34.95100
H  6.95700 7.03700 30.48700
H  7.18000 5.88300 24.19400
H  11.58600 1.36400 25.09600
H  8.88700 3.28600 32.74300
H  8.70800 6.27700 32.43800
H  6.54800 6.13800 33.14100
H  6.79400 4.36200 33.26700
H  6.07500 5.22800 31.86700
H  11.49000 4.44500 32.66000
H  10.61000 3.54300 33.98100
H  9.61300 5.52400 34.64300
H  10.77200 6.48900 33.67300
H  5.49400 9.51600 28.18800
H  5.92500 8.67300 29.67700
H  4.49400 8.20600 28.87300
H  4.18000 9.60300 24.83700
H  5.33300 10.09100 26.07000
H  4.15900 8.90600 26.51000
H  8.90000 4.72500 22.87800
H  9.72500 1.95000 23.32700
H  6.61200 3.07900 23.51700
H  7.80000 2.09800 22.56800
H  7.18800 3.66500 21.91400
H  12.03800 3.88300 23.36900
H  10.90000 4.09800 22.08600
H  11.54800 2.32900 21.04600
H  11.47300 1.24500 22.39400
H  12.97000 2.13400 22.13900
H  13.66800 -0.07900 26.96500
H  12.15100 -0.83200 26.32400
H  12.65800 -1.03600 28.00000
H  11.96100 2.12800 32.10900
H  10.68200 1.29200 35.64600
H  10.88800 -0.48000 35.26700
H  9.39400 0.43400 34.83100
Mg -6.91900 26.05400 25.30700
C  -5.24800 27.29100 28.10400
C  -8.31300 23.70400 27.49000
C  -8.06100 24.35500 22.48900
C  -5.05600 27.95800 23.21700
N  -6.82300 25.62100 27.50100
C  -6.15900 26.35900 28.41700
C  -6.58700 26.01500 29.83500
C  -7.41200 24.67800 29.62100
C  -7.55300 24.66700 28.14600
C  -6.79700 23.34500 30.24400
C  -7.37400 27.19300 30.57400
C  -7.07900 27.40500 32.02800
H  -6.63100 26.17400 32.86200
N  -8.18300 24.31900 25.03400
C  -8.59500 23.52200 26.05700
C  -9.27900 22.40800 25.44400
C  -9.33500 22.53400 23.99900
C  -8.53700 23.78500 23.78700
C  -9.79900 21.30900 26.24000
C  -10.03400 21.71600 22.90000
O  -10.04800 22.17300 21.77800
C  -10.69600 20.41200 23.27900
N  -6.82200 26.32400 23.13600
C  -7.30200 25.41800 22.20600
C  -6.81100 25.82600 20.74900
C  -6.00200 27.15200 21.03100
C  -5.96900 27.18700 22.58700
C  -6.15600 24.72000 19.90400
C  -6.63100 28.46600 20.44300
C  -5.96800 29.04400 19.18200
N  -5.54300 27.51600 25.54700
C  -4.77200 28.14300 24.61100
C  -3.83800 29.03700 25.29800
C  -3.99800 28.74700 26.73400
C  -5.01500 27.77000 26.79500
C  -2.96300 30.06500 24.69900
C  -3.62100 29.12900 28.06300
O  -2.78200 29.95000 28.44700
C  -4.27900 28.03500 28.99100
C  -3.26900 27.11900 29.60700
O  -3.05500 26.01400 29.22900
O  -2.57400 27.73600 30.64500
C  -1.48500 26.92000 31.18200
H  -8.75300 22.97300 28.17200
H  -8.34000 23.82000 21.57900
H  -4.41000 28.53900 22.55600
H  -5.67700 25.86900 30.41700
H  -8.42200 24.81900 30.00400
H  -6.02900 22.98800 29.55800
H  -7.51100 22.54500 30.43800
H  -6.37900 23.60200 31.21700
H  -8.45000 27.18200 30.40100
H  -7.11400 28.14900 30.12000
H  -7.98500 27.79900 32.48700
H  -6.31300 28.17900 32.07800
H  -10.86500 21.47100 26.39600
H  -9.32600 21.20600 27.21700
H  -9.62900 20.33900 25.77300
H  -9.94900 19.70500 23.64000
H  -11.24300 20.07200 22.40000
H  -11.49500 20.61300 23.99200
H  -7.71500 26.05200 20.18300
H  -5.06300 26.97900 20.50500
H  -5.91600 23.88200 20.55900
H  -5.21800 25.03900 19.45000
H  -6.82900 24.27500 19.17200
H  -6.67100 29.37000 21.05100
H  -7.63400 28.31900 20.04300
H  -6.71100 29.40900 18.47300
H  -5.23500 28.37000 18.73900
H  -5.43100 29.92800 19.52700
H  -3.35600 30.40700 23.74200
H  -2.04100 29.54700 24.43400
H  -2.67100 30.82300 25.42600
H  -4.75600 28.71400 29.69700
H  -0.64600 26.97800 30.49000
H  -1.81200 25.88000 31.16700
H  -1.18700 27.34200 32.14200

