158

Mg 2.35900 -2.08600 44.84700
C  5.68100 -1.33300 44.06200
C  1.59000 0.69600 42.57000
C  -0.81600 -3.00100 44.72200
C  3.38700 -5.12800 46.17200
N  3.58700 -0.52500 43.36100
C  4.88300 -0.48600 43.28300
C  5.33500 0.64700 42.34100
C  4.00900 1.36600 41.90300
C  2.96300 0.48400 42.67900
C  3.89500 2.87000 42.30300
C  6.36700 0.07600 41.24800
C  7.66000 0.86400 41.05000
H  8.03600 1.23700 39.68000
N  0.65100 -1.19200 44.00000
C  0.55000 -0.05600 43.14800
C  -0.77500 0.20100 42.90800
C  -1.57300 -0.81300 43.48200
C  -0.61700 -1.75300 44.09700
C  -1.21000 1.42300 42.21900
C  -3.12600 -0.93600 43.49500
O  -3.88600 -0.14900 42.89700
C  -3.78600 -2.01200 44.19100
N  1.38400 -3.80800 45.42000
C  0.04100 -3.91800 45.40400
C  -0.39800 -5.35500 45.96900
C  0.97300 -5.93600 46.31000
C  2.01200 -4.93400 45.95700
C  -1.30300 -5.19400 47.21700
C  1.19700 -7.42800 45.83900
C  1.57000 -8.53500 46.84900
N  4.13500 -3.00500 45.18500
C  4.45300 -4.25200 45.91900
C  5.86900 -4.27500 46.15300
C  6.36500 -3.15500 45.48600
C  5.32200 -2.44000 44.90800
C  6.68500 -5.30500 46.94000
C  7.58600 -2.46400 45.25500
O  8.69900 -2.75900 45.58100
C  7.20600 -1.16500 44.33000
C  7.62200 0.00200 44.97300
O  7.45100 0.27100 46.14600
O  8.08600 0.86400 43.99500
C  8.15700 2.34100 44.35400
H  1.39600 1.53200 41.89400
H  -1.79300 -3.48100 44.64000
H  3.69200 -6.08600 46.59800
H  5.77800 1.31500 43.08000
H  3.88300 1.37700 40.82100
H  3.37500 3.42100 41.52000
H  4.92900 3.21500 42.30700
H  3.43400 2.91600 43.28900
H  5.80200 0.03600 40.31700
H  6.60200 -0.95700 41.50400
H  8.38200 0.10800 41.36000
H  7.72500 1.74200 41.69300
H  -0.57300 1.65600 41.36600
H  -1.36800 2.24000 42.92200
H  -2.17500 1.09600 41.83300
H  -3.71700 -2.91000 43.57600
H  -4.82000 -1.67100 44.22600
H  -3.40100 -2.08400 45.20800
H  -0.88500 -5.83400 45.12000
H  1.01600 -5.90800 47.39900
H  -1.26800 -4.18500 47.62600
H  -1.07200 -5.89100 48.02200
H  -2.30100 -5.32700 46.80100
H  1.90300 -7.33200 45.01400
H  0.25200 -7.73300 45.39000
H  0.82000 -9.32600 46.86000
H  1.82800 -8.03300 47.78200
H  2.51200 -8.97500 46.52200
H  7.44700 -4.80400 47.53700
H  7.15900 -6.00800 46.25400
H  6.00200 -5.81300 47.62000
H  7.71900 -1.31600 43.38000
H  7.19100 2.81500 44.17800
H  8.84000 2.81800 43.65100
H  8.62600 2.60200 45.30300
Mg 48.46200 45.38000 42.63900
C  44.86000 45.27000 42.12300
C  48.41400 41.99300 42.26400
C  51.79700 45.52500 42.60400
C  48.18700 48.94000 42.51400
N  46.85400 43.83800 42.10200
C  45.47100 44.02800 42.03600
C  44.71300 42.70900 41.82600
C  45.85700 41.63600 41.94000
C  47.13700 42.49300 42.22200
C  45.57400 40.48600 43.03100
C  43.96400 42.70600 40.50300
C  44.69800 43.29000 39.30300
H  44.95100 42.35900 38.06400
N  50.00100 43.95500 42.44600
C  49.79100 42.55500 42.33300
C  51.11600 41.92500 42.30900
C  52.08500 42.90600 42.41300
C  51.31600 44.21000 42.53100
C  51.24900 40.43700 42.14300
C  53.63700 42.80700 42.37400
O  54.16300 41.73600 42.18800
C  54.56700 43.96600 42.75300
N  49.77300 46.93000 42.74300
C  51.09100 46.71200 42.71700
C  51.79800 48.11000 42.70500
C  50.64300 49.10000 42.83600
C  49.47100 48.28300 42.56100
C  52.97000 48.30600 43.68300
C  50.88700 50.43300 42.09000
C  50.76200 51.84900 42.74100
N  46.82200 46.85000 42.62200
C  46.92600 48.27200 42.53700
C  45.48100 48.78800 42.57100
C  44.66500 47.65400 42.37300
C  45.50800 46.52800 42.35900
C  45.02800 50.23200 42.37900
C  43.26000 47.17600 42.23700
O  42.16200 47.74800 42.26500
C  43.38000 45.64800 42.04400
C  42.53200 44.97000 43.03800
O  41.52900 44.34900 42.83700
O  43.02600 45.12900 44.33800
C  42.39100 44.27100 45.37100
H  48.34700 40.94800 42.57400
H  52.82700 45.76700 42.33200
H  48.16400 50.03100 42.53000
H  43.88500 42.69500 42.53400
H  45.95800 41.05900 41.02100
H  45.71700 39.46000 42.69200
H  44.52000 40.50100 43.30800
H  46.19900 40.65000 43.90800
H  43.03200 43.18500 40.80100
H  43.77500 41.66700 40.23000
H  45.68600 43.65900 39.57700
H  44.14900 44.12500 38.86800
H  50.38500 40.20000 41.52200
H  51.25500 40.11100 43.18300
H  52.11900 40.09800 41.58100
H  54.06300 44.43700 43.59700
H  54.50200 44.57300 41.85000
H  55.51900 43.51600 43.03600
H  52.23600 48.23200 41.71400
H  50.58100 49.39400 43.88400
H  52.81000 48.99000 44.51700
H  53.81600 48.58700 43.05500
H  53.29400 47.37100 44.14200
H  50.16100 50.40900 41.27700
H  51.91600 50.39100 41.73300
H  51.72100 52.35200 42.61300
H  50.61400 51.77100 43.81800
H  49.99500 52.51400 42.34400
H  43.96100 50.40700 42.24600
H  45.55500 50.71100 41.55300
H  45.44800 50.78200 43.22100
H  43.10600 45.52200 40.99600
H  41.30400 44.32900 45.30400
H  42.81000 44.49000 46.35300
H  42.68900 43.26400 45.07800

