158

Mg -11.39500 38.89600 42.09200
C  -9.55300 36.16500 40.91900
C  -9.46400 40.93200 40.07200
C  -13.72000 41.28700 42.41300
C  -13.73500 36.53400 43.38700
N  -9.74200 38.56400 40.50300
C  -9.12200 37.35500 40.29300
C  -7.99200 37.56800 39.33000
C  -7.89600 39.13800 39.21300
C  -9.05200 39.56700 40.01900
C  -6.55600 39.71300 39.63800
C  -8.38100 36.94400 37.91600
C  -7.37100 36.00700 37.27700
H  -6.52400 36.70300 36.19100
N  -11.47100 40.86000 41.46600
C  -10.54400 41.55300 40.73200
C  -11.01900 42.95900 40.67400
C  -12.23800 43.09600 41.44500
C  -12.52400 41.68800 41.83100
C  -10.10700 43.97700 40.06500
C  -13.04600 44.34600 41.66400
O  -12.57000 45.38100 41.16700
C  -14.22800 44.49500 42.57900
N  -13.42800 38.95800 42.99100
C  -14.20900 40.08900 42.94400
C  -15.62300 39.80400 43.34700
C  -15.64000 38.23600 43.71700
C  -14.17600 37.88000 43.38100
C  -15.91400 40.71300 44.56000
C  -16.73100 37.43900 42.91400
C  -17.65700 36.62200 43.84200
N  -11.53600 36.84400 42.28000
C  -12.52500 36.04200 42.87500
C  -11.98400 34.69800 43.03600
C  -10.77500 34.71600 42.28700
C  -10.63900 35.98000 41.77700
C  -12.72300 33.57400 43.78800
C  -9.72100 33.90500 41.78600
O  -9.39800 32.76000 41.98300
C  -8.81600 34.80700 40.88500
C  -7.47300 34.82700 41.41800
O  -6.55800 34.03800 41.15000
O  -7.18400 35.91900 42.15700
C  -5.85900 35.82300 42.79800
H  -8.94800 41.65800 39.44100
H  -14.55200 41.99500 42.42900
H  -14.41700 35.78700 43.79800
H  -7.04300 37.12900 39.63800
H  -8.07000 39.51700 38.20500
H  -6.37100 40.56700 38.98700
H  -5.72600 39.05000 39.39700
H  -6.52300 39.89900 40.71200
H  -8.74300 37.70600 37.22700
H  -9.29700 36.37600 38.07900
H  -7.93600 35.23100 36.76200
H  -6.81700 35.48300 38.05600
H  -10.65700 44.62100 39.38000
H  -9.27300 43.55600 39.50500
H  -9.75700 44.46900 40.97300
H  -14.14800 45.51200 42.96400
H  -14.14100 43.94400 43.51500
H  -15.16800 44.31000 42.05900
H  -16.25900 40.12000 42.52100
H  -15.71100 38.12700 44.79900
H  -15.01600 40.79500 45.17100
H  -16.67000 40.25900 45.20100
H  -16.40400 41.65000 44.29500
H  -16.23500 36.85200 42.14100
H  -17.40800 38.13200 42.41600
H  -17.47300 35.58800 43.54900
H  -18.67500 36.91200 43.58600
H  -17.68400 36.70200 44.92900
H  -12.26500 32.58800 43.72300
H  -13.72600 33.51200 43.36600
H  -12.77300 33.87200 44.83500
H  -8.82800 34.48600 39.84400
H  -5.86300 36.37900 43.73500
H  -5.13700 36.36100 42.18300
H  -5.40200 34.86900 43.06200
Mg -1.84000 34.75700 26.40300
C  -3.61600 33.21000 29.15400
C  -0.75200 37.02500 28.68400
C  -0.67700 36.32700 23.79800
C  -3.23200 32.25800 24.41900
N  -2.23300 35.07900 28.72400
C  -2.97500 34.37000 29.58200
C  -2.92200 34.99900 31.03100
C  -2.04600 36.25000 30.82700
C  -1.65500 36.11800 29.34000
C  -2.59400 37.71100 31.34000
C  -2.33700 34.07600 32.03600
C  -2.43900 34.47600 33.53600
H  -3.17100 33.58900 34.60100
N  -0.91500 36.47800 26.25600
C  -0.44500 37.22600 27.30800
C  0.32500 38.29000 26.82200
C  0.44500 38.09200 25.47400
C  -0.42200 36.93600 25.08900
C  0.94200 39.29000 27.75900
C  1.28100 38.81600 24.47100
O  1.45400 38.48600 23.26300
C  2.12000 40.00500 24.93600
N  -2.03600 34.44500 24.42800
C  -1.42200 35.17100 23.49600
C  -1.40700 34.51500 22.08600
C  -2.11700 33.16200 22.37600
C  -2.44100 33.25000 23.84200
C  -1.97900 35.51700 21.03700
C  -1.39900 31.89600 21.89400
C  -0.05000 31.50600 22.58800
N  -3.28400 33.08300 26.60000
C  -3.71400 32.17500 25.75100
C  -4.45300 31.15300 26.41100
C  -4.40800 31.47900 27.71700
C  -3.70100 32.72000 27.80400
C  -5.13100 30.02500 25.74800
C  -4.87200 31.10500 28.96900
O  -5.59600 30.16500 29.25900
C  -4.37600 32.21800 30.01600
C  -5.50900 32.67500 30.73500
O  -6.50900 33.17800 30.27300
O  -5.31700 32.43000 32.12100
C  -6.57600 32.55100 32.91600
H  -0.26100 37.71100 29.37800
H  -0.22500 36.83600 22.94400
H  -3.58400 31.53700 23.67800
H  -3.96000 35.21700 31.28500
H  -1.11500 36.09200 31.37000
H  -2.59300 38.40000 30.49600
H  -2.06700 38.08800 32.21600
H  -3.62600 37.51800 31.63600
H  -1.33200 33.78100 31.73300
H  -2.84800 33.12300 31.89800
H  -2.73400 35.52200 33.45200
H  -1.37700 34.55300 33.77000
H  2.01800 39.29500 27.57900
H  0.70500 39.23900 28.82200
H  0.75800 40.31000 27.42200
H  1.42600 40.77200 25.28100
H  2.61000 40.31300 24.01200
H  2.87300 39.68500 25.65500
H  -0.33700 34.39800 21.91500
H  -3.05000 33.08500 21.81900
H  -1.19000 35.78800 20.33600
H  -2.33900 36.45100 21.46800
H  -2.74300 35.08000 20.39400
H  -1.26900 31.99100 20.81600
H  -2.16700 31.12500 21.95900
H  0.13300 32.13600 23.45900
H  0.79500 31.40800 21.90700
H  -0.09700 30.48400 22.96300
H  -5.42700 29.37700 26.57300
H  -4.53800 29.51400 24.99000
H  -6.04300 30.42100 25.30300
H  -3.66200 31.60600 30.56700
H  -6.39900 32.73900 33.97500
H  -7.14600 31.62300 32.86600
H  -7.24400 33.38100 32.68600

