158

Mg -2.15200 17.31000 25.63900
C  -2.60200 14.91900 28.35500
C  -2.91200 19.77700 27.89200
C  -2.04300 19.35700 23.12300
C  -2.05400 14.55000 23.40300
N  -2.73900 17.25800 27.88000
C  -2.85400 16.23000 28.75200
C  -3.19400 16.68900 30.11600
C  -3.56800 18.19500 29.92100
C  -3.11500 18.48400 28.46200
C  -4.98500 18.71500 30.18800
C  -2.12100 16.43300 31.28000
C  -2.47300 17.06700 32.72000
H  -2.33700 16.07300 33.81500
N  -2.27400 19.31500 25.51600
C  -2.52100 20.18000 26.58700
C  -2.38100 21.48600 26.00900
C  -2.05200 21.41700 24.62800
C  -2.10400 19.97400 24.32700
C  -2.59100 22.76900 26.85800
C  -1.75000 22.55400 23.53700
O  -1.55300 22.43100 22.34700
C  -1.71800 24.00800 23.97000
N  -2.20100 16.95800 23.55000
C  -2.04700 18.01300 22.72200
C  -1.78500 17.62600 21.23700
C  -1.84700 15.98100 21.40500
C  -1.95400 15.78100 22.86900
C  -2.86200 18.15100 20.25900
C  -0.71400 15.10600 20.77400
C  0.63500 15.15200 21.45500
N  -2.37200 15.19100 25.79400
C  -2.21900 14.26300 24.78400
C  -2.15600 12.91300 25.36800
C  -2.42600 13.12600 26.75800
C  -2.41300 14.54400 26.98200
C  -2.15600 11.62400 24.58900
C  -2.65900 12.44000 27.98500
O  -2.77000 11.25400 28.26900
C  -2.63200 13.55200 29.11100
C  -1.53800 13.29000 29.97300
O  -0.41500 13.34800 29.58400
O  -1.91500 12.92800 31.20200
C  -0.75800 12.60900 32.07600
H  -3.10100 20.59300 28.59200
H  -1.83600 20.03100 22.28900
H  -1.66400 13.69200 22.85200
H  -4.11500 16.18300 30.40400
H  -2.88200 18.69500 30.60400
H  -4.90200 19.34200 31.07600
H  -5.62600 17.87900 30.46600
H  -5.46700 19.21300 29.34600
H  -1.15800 16.77000 30.89600
H  -1.98700 15.38200 31.53300
H  -3.52900 17.32800 32.66300
H  -1.88600 17.97200 32.87500
H  -3.47600 23.34400 26.58600
H  -1.67800 23.34000 26.69300
H  -2.47200 22.48900 27.90500
H  -2.73500 24.38900 24.06300
H  -1.16800 24.55300 23.20200
H  -1.13200 24.15700 24.87700
H  -0.75400 17.89200 21.00500
H  -2.80300 15.73100 20.94600
H  -2.28300 18.52700 19.41600
H  -3.41200 18.96700 20.72800
H  -3.65700 17.45400 19.99100
H  -0.57600 15.32900 19.71600
H  -1.12600 14.09900 20.83600
H  0.61500 15.91400 22.23500
H  1.43300 15.56900 20.84100
H  0.93300 14.19400 21.88000
H  -2.72200 11.72200 23.66300
H  -2.74700 10.88400 25.12900
H  -1.15600 11.21700 24.44000
H  -3.55900 13.48400 29.68100
H  -0.28600 11.66800 31.79600
H  -1.10300 12.36000 33.08000
H  -0.06900 13.40900 32.34800
Mg 48.02700 34.90500 26.85500
C  46.48800 33.37300 29.64900
C  48.63400 37.66700 28.74200
C  49.05100 36.24400 24.07400
C  46.92500 31.93900 25.01600
N  47.61800 35.46300 28.99600
C  47.05800 34.65300 29.97500
C  47.11900 35.40900 31.36900
C  47.45700 36.88400 30.92700
C  47.94600 36.64900 29.49200
C  46.24100 37.85500 30.89400
C  48.23600 34.81300 32.19700
C  47.87800 34.66700 33.65300
H  48.95800 34.96900 34.74400
N  48.87800 36.67000 26.43900
C  49.16400 37.66200 27.35200
C  49.93600 38.66100 26.69600
C  49.91400 38.40900 25.26400
C  49.16900 37.10300 25.24700
C  50.35900 39.94600 27.43100
C  50.48300 39.23700 24.18100
O  50.33400 39.02000 22.97000
C  51.37100 40.40500 24.53000
N  48.00000 34.11400 24.90400
C  48.47600 34.96800 23.92600
C  48.44100 34.29500 22.56000
C  47.86000 32.82800 22.89300
C  47.51000 32.96400 24.38700
C  47.72600 35.18300 21.56700
C  48.95500 31.73700 22.65000
C  48.41900 30.32800 22.39700
N  46.92500 32.99500 27.23900
C  46.62100 31.92000 26.33600
C  45.92500 30.83400 27.13900
C  45.77200 31.41100 28.39600
C  46.42300 32.71800 28.38000
C  45.43800 29.51300 26.67700
C  45.29600 31.14400 29.74700
O  44.73900 30.13200 30.19200
C  45.70400 32.47500 30.55700
C  46.31800 32.04900 31.89100
O  47.49200 31.70200 31.97300
O  45.45200 31.96300 32.93500
C  45.97300 31.13400 34.03100
H  48.76900 38.68300 29.11900
H  49.63500 36.63700 23.23900
H  46.58100 31.04000 24.49900
H  46.18900 35.46100 31.93500
H  48.28700 37.34600 31.46300
H  46.32700 38.59800 31.68600
H  45.35100 37.27700 31.14200
H  46.08800 38.41500 29.97200
H  49.07600 35.50600 32.22600
H  48.52500 33.86800 31.73600
H  47.69300 33.59300 33.66700
H  46.96900 35.20900 33.91600
H  50.01400 40.81300 26.86800
H  51.44200 39.85600 27.52500
H  50.01700 40.08500 28.45600
H  50.78500 41.26500 24.85700
H  51.91700 40.69800 23.63300
H  52.12200 40.09400 25.25600
H  49.49700 34.20000 22.30700
H  47.03400 32.68200 22.19700
H  47.22800 35.91400 22.20400
H  46.98000 34.62200 21.00400
H  48.36400 35.77300 20.90800
H  49.59100 31.58100 23.52100
H  49.55300 32.06300 21.79900
H  48.83100 29.58900 23.08400
H  48.56200 30.00200 21.36600
H  47.33200 30.33700 22.48400
H  45.81400 28.77300 27.38400
H  45.93600 29.34100 25.72200
H  44.38200 29.60400 26.42600
H  44.77500 33.00400 30.77100
H  45.40100 31.51500 34.87700
H  47.03100 31.35800 34.16700
H  45.76400 30.06600 33.96200

