158

Mg 42.92300 3.86100 47.97800
C  41.02200 6.58800 47.04500
C  40.25000 1.84900 47.45800
C  45.02000 1.02500 48.08400
C  45.80800 5.83500 47.84400
N  40.89300 4.24500 47.15000
C  40.27300 5.44800 46.96900
C  38.76800 5.25200 46.64500
C  38.49300 3.71700 47.06400
C  39.95600 3.20600 47.21100
C  37.56900 3.52500 48.37500
C  38.51000 5.51900 45.12000
C  37.27000 6.48300 44.75600
H  37.44300 7.35600 43.44800
N  42.59200 1.69800 47.89600
C  41.44500 1.09300 47.71500
C  41.64400 -0.38100 47.62000
C  43.03700 -0.62400 47.81600
C  43.64400 0.75700 47.91900
C  40.51400 -1.36800 47.45900
C  43.76900 -1.96500 47.87400
O  43.16600 -3.01800 47.93100
C  45.28200 -2.10800 47.85000
N  45.08400 3.49300 48.10300
C  45.65800 2.27000 48.17700
C  47.13600 2.37100 48.37800
C  47.48600 3.87200 48.14200
C  46.02500 4.45700 48.02700
C  47.61400 1.69300 49.69900
C  48.48900 4.10600 46.95300
C  49.91100 4.37300 47.37900
N  43.38100 5.85400 47.67000
C  44.60100 6.42800 47.64100
C  44.30500 7.85900 47.34300
C  42.93100 7.98700 47.19700
C  42.41200 6.69000 47.27600
C  45.40700 8.88000 47.10600
C  41.90800 8.98100 46.89200
O  41.93100 10.15500 46.65800
C  40.60500 8.10600 46.84100
C  39.76800 8.63800 47.93500
O  39.86200 8.35600 49.11900
O  38.79000 9.42200 47.40500
C  37.87600 10.08800 48.28800
H  39.39800 1.17300 47.36300
H  45.71800 0.19700 48.22300
H  46.61600 6.56900 47.83600
H  38.13200 5.95200 47.18700
H  38.19000 3.01900 46.28300
H  37.43700 4.49700 48.85000
H  38.19800 2.84300 48.94700
H  36.57400 3.09200 48.27300
H  38.34800 4.57600 44.59800
H  39.44400 5.85300 44.67000
H  37.07300 7.19900 45.55400
H  36.31500 5.95900 44.72400
H  40.57600 -1.92800 46.52600
H  39.56700 -0.84400 47.59000
H  40.57100 -2.15800 48.20900
H  45.78500 -1.53700 47.07000
H  45.44300 -3.10200 47.43200
H  45.75400 -1.93000 48.81600
H  47.81000 2.00700 47.60200
H  48.05400 4.29600 48.96900
H  47.52900 0.61800 49.54200
H  46.96800 1.99000 50.52500
H  48.64400 1.93900 49.95700
H  48.08800 4.99200 46.46100
H  48.52400 3.24000 46.29200
H  50.55700 4.04000 46.56500
H  50.17700 3.90400 48.32600
H  49.98100 5.45800 47.45700
H  46.38200 8.42800 46.92300
H  45.41400 9.48900 48.01000
H  45.14800 9.60500 46.33400
H  40.00200 8.37100 45.97300
H  36.88800 9.63900 48.18600
H  37.74100 11.08400 47.86400
H  38.16100 10.12900 49.33900
Mg -0.05000 43.76700 26.26000
C  2.07200 43.19200 29.08600
C  -2.66300 42.22200 28.12700
C  -2.01900 43.65500 23.42700
C  2.72500 44.41800 24.53600
N  -0.37200 42.88900 28.42900
C  0.68400 42.85900 29.38900
C  0.09500 42.48900 30.87700
C  -1.36500 41.92600 30.38500
C  -1.49300 42.45200 28.90400
C  -1.68100 40.43100 30.55400
C  0.16600 43.80900 31.72400
C  0.21400 43.59600 33.20100
H  -0.21500 42.23900 33.78200
N  -2.13300 43.19500 25.89800
C  -2.97400 42.49600 26.75800
C  -4.29700 42.41100 26.13300
C  -4.19300 42.88200 24.79100
C  -2.72200 43.25300 24.59500
C  -5.55800 41.87400 26.89200
C  -5.20100 42.97600 23.67400
O  -5.01000 43.49000 22.60600
C  -6.61500 42.52500 23.97600
N  0.28900 43.90500 24.29300
C  -0.65600 43.98100 23.29700
C  -0.15400 44.73000 22.03700
C  1.38700 44.87900 22.42400
C  1.49800 44.41100 23.83900
C  -0.40500 43.89400 20.70800
C  2.06800 46.27300 22.32400
C  1.62900 47.23100 21.18300
N  1.94900 43.88600 26.69400
C  3.01700 44.13400 25.85400
C  4.31900 43.87400 26.46800
C  3.98000 43.61900 27.76800
C  2.54300 43.61100 27.88400
C  5.68800 44.03500 25.78200
C  4.56200 43.28300 29.05600
O  5.71100 43.10600 29.45000
C  3.32700 43.20900 29.98100
C  3.48000 41.86700 30.63100
O  3.20500 40.78900 30.20400
O  3.87600 42.12000 31.96700
C  4.15400 40.89600 32.77000
H  -3.46300 41.71900 28.67400
H  -2.70200 43.73000 22.57800
H  3.56700 44.63100 23.87500
H  0.68500 41.67600 31.29800
H  -2.02000 42.41300 31.10700
H  -0.90300 39.84200 31.03900
H  -1.75400 39.97800 29.56500
H  -2.54300 40.25800 31.19800
H  -0.67500 44.39800 31.35800
H  1.08100 44.27200 31.35600
H  -0.45700 44.32500 33.65600
H  1.22600 43.89300 33.47700
H  -5.49500 40.78700 26.84700
H  -6.56900 42.16900 26.61300
H  -5.42400 42.14300 27.94000
H  -7.01900 42.37200 22.97600
H  -7.12200 43.36500 24.45100
H  -6.61800 41.57300 24.50700
H  -0.59500 45.71000 21.85600
H  1.88100 44.18600 21.74300
H  -0.97700 44.57600 20.07900
H  -0.97300 42.96800 20.79500
H  0.47500 43.58200 20.14600
H  3.13000 46.13700 22.12100
H  2.13600 46.78500 23.28400
H  1.22800 48.17800 21.54400
H  1.03600 46.81000 20.37200
H  2.51000 47.48000 20.59100
H  6.36600 44.59300 26.42800
H  5.70200 44.57500 24.83500
H  6.09800 43.03900 25.61500
H  3.43500 44.04600 30.67100
H  5.11000 40.93600 33.29400
H  4.21400 39.96800 32.20200
H  3.38600 40.81400 33.53900

