158

Mg 40.11100 10.50000 30.02800
C  42.02100 11.39100 32.90700
C  37.89900 8.99800 32.26500
C  38.65000 9.08100 27.39800
C  42.79400 11.72300 28.07100
N  40.06600 10.10400 32.31200
C  40.87600 10.70700 33.27400
C  40.28000 10.59900 34.68400
C  38.99400 9.70100 34.40400
C  38.96600 9.62600 32.86900
C  38.81800 8.35600 35.22200
C  39.92400 12.02600 35.28300
C  39.45700 12.14200 36.74700
H  40.24700 12.99900 37.75700
N  38.56400 9.10900 29.90300
C  37.69800 8.74800 30.92500
C  36.66000 7.94300 30.34800
C  36.90000 7.87900 28.93300
C  38.07000 8.73900 28.66600
C  35.73900 7.03500 31.15000
C  36.06100 7.25700 27.80300
O  36.35600 7.32000 26.63700
C  34.91200 6.35300 28.23500
N  40.61800 10.46000 28.02300
C  39.70500 9.94600 27.11200
C  40.12200 10.25400 25.68500
C  41.41300 11.17100 25.89600
C  41.67700 11.12700 27.40100
C  40.23800 8.91300 24.77400
C  41.23000 12.53000 25.30500
C  40.10000 13.40900 25.91000
N  41.97300 11.40100 30.37900
C  42.89700 11.87700 29.47000
C  44.03600 12.47600 30.15300
C  43.60900 12.34600 31.49200
C  42.42600 11.65400 31.60300
C  45.31800 13.00400 29.52200
C  44.13300 12.57700 32.82400
O  45.16900 13.03200 33.20600
C  43.13800 11.99500 33.78800
C  43.75300 10.99800 34.65400
O  43.78900 9.78600 34.46800
O  44.26800 11.59200 35.75200
C  44.90100 10.79500 36.73700
H  37.12300 8.54200 32.88200
H  38.11400 8.90700 26.46300
H  43.52500 12.25900 27.46200
H  40.98700 10.22800 35.42500
H  38.10300 10.27600 34.65700
H  37.79000 8.15700 35.52500
H  39.40300 8.41500 36.13900
H  39.24900 7.53900 34.64500
H  39.28100 12.56900 34.59000
H  40.86400 12.57300 35.20100
H  39.31400 11.17500 37.22900
H  38.43900 12.46600 36.53100
H  35.76000 6.01800 30.75700
H  34.71100 7.35000 30.97400
H  36.00600 6.89300 32.19700
H  34.29300 6.15000 27.36100
H  34.29100 6.79000 29.01700
H  35.28900 5.38300 28.55900
H  39.37400 10.88000 25.19700
H  42.21800 10.73300 25.30600
H  39.97000 7.99900 25.30500
H  41.24800 8.73000 24.40700
H  39.52300 9.01800 23.95800
H  41.03500 12.41000 24.23900
H  42.14100 13.07200 25.55400
H  40.52300 14.35900 26.23600
H  39.46900 12.98100 26.68900
H  39.47100 13.71000 25.07200
H  45.10300 13.17100 28.46600
H  46.14100 12.31100 29.69700
H  45.60600 13.94100 29.99900
H  42.88100 12.82200 34.45000
H  45.20000 11.40900 37.58700
H  45.87000 10.46900 36.35800
H  44.28100 9.93500 36.98900
Mg 50.20700 45.10100 43.47600
C  46.76900 45.23500 42.42500
C  50.18700 41.77800 42.89900
C  53.61600 45.27100 43.56200
C  50.10900 48.58300 43.53400
N  48.71000 43.70200 42.46900
C  47.29700 43.92700 42.38100
C  46.58200 42.58400 42.17500
C  47.60600 41.47300 42.68100
C  48.92900 42.34800 42.75500
C  47.44500 40.95700 44.14700
C  46.14300 42.31400 40.69000
C  46.73300 43.34100 39.63300
H  46.74800 42.81000 38.22000
N  51.71600 43.65700 43.29000
C  51.46800 42.33100 43.03800
C  52.71500 41.68700 43.08700
C  53.76600 42.67100 43.25300
C  53.10200 43.97400 43.37400
C  52.87700 40.18800 42.95400
C  55.32400 42.44300 43.21500
O  55.73900 41.30500 43.11100
C  56.36500 43.46700 43.15900
N  51.67600 46.67500 43.55200
C  52.99800 46.52500 43.68300
C  53.77800 47.86200 43.77700
C  52.59400 48.89800 43.70800
C  51.42900 47.99400 43.56600
C  54.59600 47.95700 45.04500
C  52.67100 49.90400 42.47900
C  52.39700 51.40200 42.90700
N  48.72600 46.61500 43.25900
C  48.90900 47.97000 43.22500
C  47.72600 48.63200 42.90000
C  46.81000 47.65300 42.61800
C  47.51500 46.44400 42.73200
C  47.47800 50.14500 42.86300
C  45.50500 47.30600 42.27800
O  44.56600 48.01800 42.01300
C  45.34500 45.74400 42.12100
C  44.38500 45.25800 43.13100
O  44.62200 45.16100 44.32500
O  43.17400 44.88100 42.56000
C  42.14500 44.57600 43.51900
H  50.20500 40.68900 42.97500
H  54.69400 45.38100 43.69700
H  49.98700 49.66600 43.60800
H  45.72200 42.75400 42.82300
H  47.64600 40.69700 41.91600
H  46.42400 41.10400 44.49900
H  48.00100 41.61400 44.81600
H  47.78000 39.92500 44.25300
H  45.06200 42.43200 40.61400
H  46.37400 41.28900 40.39800
H  47.75900 43.61100 39.88400
H  46.05100 44.19000 39.58500
H  53.89700 39.90900 42.68900
H  52.13500 39.83500 42.23700
H  52.60500 39.67700 43.87700
H  56.27400 43.97800 44.11700
H  56.14900 44.22700 42.40800
H  57.35700 43.10300 42.89200
H  54.47500 48.03300 42.95700
H  52.52000 49.43000 44.65700
H  55.62600 47.84000 44.70900
H  54.48400 47.16800 45.78800
H  54.44500 48.94600 45.47900
H  51.81300 49.66600 41.85000
H  53.63600 49.73000 42.00400
H  51.66900 51.79200 42.19500
H  53.37800 51.81500 42.67100
H  52.17500 51.66300 43.94100
H  47.70700 50.70700 43.76800
H  46.50300 50.46800 42.50000
H  48.11000 50.70300 42.17200
H  44.79900 45.50200 41.21000
H  42.46800 43.90400 44.31400
H  41.28400 44.20100 42.96500
H  41.87300 45.53900 43.95100

