158

Mg -2.46800 17.34600 26.87300
C  -3.20900 15.10700 29.50300
C  -2.39300 19.81000 29.01900
C  -2.27700 19.34600 24.23400
C  -3.23300 14.66700 24.64900
N  -2.80300 17.32300 29.04200
C  -2.95700 16.37300 29.96700
C  -3.00100 16.89800 31.36900
C  -2.90100 18.44500 31.09800
C  -2.63200 18.55300 29.59400
C  -4.07500 19.27700 31.65200
C  -1.81300 16.25300 32.21500
C  -1.44800 16.97000 33.51800
H  -1.13700 16.15100 34.71700
N  -2.18500 19.28100 26.66500
C  -2.13600 20.17200 27.69300
C  -1.91000 21.50600 27.16000
C  -1.88800 21.42100 25.72200
C  -2.10100 19.97200 25.44500
C  -1.98000 22.68700 28.08800
C  -1.69200 22.47900 24.60900
O  -1.79300 22.20300 23.41600
C  -1.50300 23.83600 24.98700
N  -2.54600 17.06000 24.77700
C  -2.46300 18.02500 23.91300
C  -2.78100 17.54700 22.49400
C  -3.00300 16.00900 22.61300
C  -2.85100 15.90500 24.10700
C  -4.01800 18.11200 21.89300
C  -1.96600 15.17100 21.74800
C  -2.42500 14.33100 20.54600
N  -2.96100 15.25700 26.97200
C  -3.29500 14.31800 26.04800
C  -3.64600 13.04700 26.65700
C  -3.55500 13.30300 27.99700
C  -3.13500 14.67200 28.13200
C  -4.05900 11.79100 25.92800
C  -3.72100 12.69400 29.32000
O  -4.03900 11.57900 29.65100
C  -3.57600 13.84100 30.25600
C  -2.44700 13.30900 31.04500
O  -1.31100 13.57300 30.98700
O  -2.93200 12.51200 32.05700
C  -2.12700 12.14100 33.18900
H  -2.35900 20.62400 29.74700
H  -2.19600 20.01900 23.37800
H  -3.35000 13.84300 23.94300
H  -3.84500 16.65500 32.01500
H  -1.97600 18.77400 31.57300
H  -4.71100 19.45700 30.78500
H  -3.66500 20.13900 32.17800
H  -4.62900 18.68900 32.38400
H  -0.87800 16.08100 31.68100
H  -2.24200 15.30900 32.54900
H  -2.10500 17.82300 33.69200
H  -0.45100 17.40600 33.45500
H  -1.39200 22.39900 28.96000
H  -3.00600 22.79900 28.43700
H  -1.63700 23.61100 27.62300
H  -2.22200 24.08800 25.76600
H  -1.68600 24.43200 24.09300
H  -0.46000 24.08800 25.18200
H  -2.03700 17.73300 21.72000
H  -4.04400 15.76200 22.40800
H  -4.88600 17.52200 22.19100
H  -3.92400 17.91500 20.82500
H  -4.13200 19.15200 22.19800
H  -1.40600 14.48600 22.38500
H  -1.25100 15.83100 21.25700
H  -2.09400 14.76100 19.60100
H  -3.50400 14.20600 20.63400
H  -2.05100 13.30900 20.60400
H  -3.33400 10.97700 25.94000
H  -4.36200 12.00200 24.90300
H  -4.87400 11.33300 26.48900
H  -4.23600 14.02000 31.10500
H  -1.86400 11.08400 33.24400
H  -2.66000 12.46200 34.08300
H  -1.17800 12.67500 33.24100
Mg 2.19900 -3.38200 45.33000
C  5.53700 -2.75500 44.54500
C  1.36500 -0.71700 43.25200
C  -0.97400 -4.53400 45.30700
C  3.12100 -6.20000 46.96600
N  3.32600 -2.02600 43.99100
C  4.70200 -1.95000 43.85700
C  5.08500 -0.88600 42.92200
C  3.80900 0.01300 42.87000
C  2.74600 -0.95700 43.36300
C  3.85900 1.21300 43.80100
C  5.64900 -1.40100 41.50700
C  6.99000 -1.01500 41.10300
H  7.18700 -0.47400 39.66800
N  0.45400 -2.68400 44.40900
C  0.31000 -1.53500 43.59000
C  -1.00900 -1.45100 43.11700
C  -1.72900 -2.48200 43.74000
C  -0.72600 -3.33500 44.54700
C  -1.39200 -0.42900 42.09400
C  -3.19700 -2.73200 43.50100
O  -3.89200 -1.98800 42.81200
C  -3.88600 -3.83300 44.04100
N  1.21000 -5.09800 46.04300
C  -0.09200 -5.35000 45.91500
C  -0.55000 -6.57500 46.64100
C  0.77500 -7.17500 47.19000
C  1.79300 -6.12800 46.71300
C  -1.65200 -6.29300 47.68400
C  1.07500 -8.63400 46.60300
C  0.06900 -9.78500 46.85500
N  3.97200 -4.28000 45.82600
C  4.21200 -5.39600 46.54600
C  5.60900 -5.68200 46.68800
C  6.22600 -4.64400 45.88500
C  5.16900 -3.81700 45.38900
C  6.09300 -6.90400 47.30300
C  7.46300 -4.15200 45.34000
O  8.59000 -4.47800 45.56700
C  7.03400 -2.94500 44.40200
C  7.93500 -1.87200 44.75300
O  8.93500 -1.58000 44.07000
O  7.45600 -1.09700 45.79500
C  8.03900 0.24700 45.96100
H  1.07100 0.13900 42.64200
H  -2.00400 -4.87100 45.44200
H  3.38300 -7.10500 47.51900
H  5.83400 -0.39100 43.54000
H  3.71800 0.43600 41.87000
H  3.93100 2.14100 43.23500
H  4.54700 1.10300 44.64000
H  2.85800 1.25300 44.23100
H  4.91400 -1.18200 40.73300
H  5.70800 -2.48100 41.64400
H  7.62400 -1.85700 41.38000
H  7.39400 -0.24800 41.76400
H  -2.05600 -0.83400 41.33000
H  -0.65900 0.14900 41.53100
H  -1.90400 0.35000 42.66000
H  -3.33600 -4.77200 43.98500
H  -4.88000 -4.02900 43.64000
H  -3.96800 -3.54600 45.08900
H  -0.95200 -7.16200 45.81600
H  0.86400 -7.07800 48.27200
H  -1.19000 -6.38000 48.66700
H  -2.49100 -6.97900 47.57000
H  -2.00900 -5.26400 47.62800
H  2.10700 -8.94600 46.76500
H  1.10600 -8.48100 45.52500
H  0.58500 -10.58100 47.38900
H  -0.17300 -10.16300 45.86100
H  -0.85700 -9.55800 47.38300
H  5.65100 -7.78000 46.82700
H  5.88700 -6.91400 48.37300
H  7.17500 -6.91700 47.17000
H  7.25900 -3.27400 43.38700
H  7.39700 0.89900 46.55200
H  8.07400 0.73800 44.98800
H  9.07600 0.27400 46.29500

