158

Mg 0.74000 8.04300 26.06900
C  1.39800 10.26400 28.53500
C  1.21900 5.49100 28.07400
C  0.24900 6.03600 23.28700
C  0.52700 10.76600 23.77900
N  1.17700 7.99200 28.11800
C  1.34000 8.94000 29.02200
C  1.53400 8.34200 30.51100
C  1.55800 6.84500 30.25600
C  1.28400 6.75000 28.67200
C  2.91500 6.09600 30.70400
C  0.42000 8.91900 31.33600
C  0.19700 8.45000 32.80800
H  1.43200 8.12500 33.58400
N  0.65200 6.04100 25.71900
C  0.89700 5.12300 26.73000
C  0.78200 3.81700 26.26300
C  0.51300 3.93700 24.81000
C  0.45800 5.40800 24.52300
C  0.99200 2.59200 27.18400
C  0.46900 2.86900 23.79100
O  0.10700 2.95100 22.63400
C  0.67600 1.54100 24.25400
N  0.48300 8.40700 23.85100
C  0.32800 7.40100 22.99200
C  -0.13700 7.82900 21.57700
C  -0.39000 9.37700 21.78800
C  0.19700 9.57000 23.23400
C  0.90500 7.52100 20.50900
C  -1.85300 9.93100 21.68300
C  -2.24100 11.01200 20.69400
N  1.08700 10.06500 26.09600
C  0.97400 11.09500 25.11100
C  1.35300 12.32100 25.66100
C  1.50900 12.12400 27.04600
C  1.35900 10.70400 27.24000
C  1.43100 13.58900 24.98100
C  1.84600 12.72400 28.34700
O  2.28100 13.84000 28.59100
C  1.58800 11.58300 29.34600
C  2.81900 11.60500 30.19700
O  4.01500 11.39700 29.92700
O  2.47600 11.85500 31.50600
C  3.65400 11.97100 32.37600
H  1.41700 4.63700 28.72600
H  -0.04400 5.29500 22.54100
H  0.25500 11.58700 23.11300
H  2.48100 8.72200 30.89400
H  0.76600 6.35900 30.82500
H  2.66000 5.25300 31.34700
H  3.59200 6.76700 31.23300
H  3.41400 5.59900 29.87200
H  -0.52900 8.76800 30.82200
H  0.56400 9.99900 31.36700
H  -0.55300 7.66300 32.88900
H  -0.21300 9.35200 33.26200
H  1.04900 2.79700 28.25300
H  1.90200 2.08700 26.85900
H  0.19400 1.88100 26.97300
H  1.63900 1.46300 24.76000
H  0.68800 0.82200 23.43400
H  -0.09400 1.21500 24.95300
H  -1.08300 7.34000 21.34600
H  0.27100 10.01600 21.20200
H  0.89800 6.49900 20.12900
H  1.93700 7.69900 20.81100
H  0.79500 8.20100 19.66400
H  -2.13800 10.25200 22.68400
H  -2.47300 9.03700 21.60100
H  -3.15900 10.79600 20.14700
H  -1.52100 11.15600 19.88900
H  -2.20200 11.96100 21.22900
H  0.49000 14.11300 24.81600
H  1.84200 13.38200 23.99300
H  2.11800 14.19500 25.57200
H  0.66000 11.80800 29.87100
H  4.28100 11.08800 32.24900
H  3.41800 12.00000 33.44000
H  4.23100 12.89000 32.27700
Mg 24.68100 -7.05800 45.36700
C  26.96800 -4.51500 44.24600
C  22.28100 -5.66400 43.39500
C  23.06600 -10.00100 45.60400
C  27.46800 -8.56200 47.00300
N  24.71800 -5.26800 44.00800
C  25.70700 -4.41000 43.64100
C  25.17700 -3.35900 42.63300
C  23.62400 -3.58200 42.72600
C  23.51700 -4.91700 43.38900
C  22.89600 -2.47600 43.45400
C  25.66500 -3.55300 41.24000
C  26.26100 -2.25100 40.53300
H  26.03800 -2.25400 39.02500
N  22.83700 -7.67600 44.67800
C  22.01300 -7.00400 43.86800
C  20.83400 -7.80600 43.49900
C  20.96400 -9.01800 44.16300
C  22.34500 -8.96700 44.86200
C  19.73900 -7.33900 42.58800
C  19.85100 -10.10500 44.24700
O  18.83500 -10.02000 43.59800
C  19.98700 -11.26400 45.26400
N  25.16200 -8.95400 46.31900
C  24.34900 -10.00300 46.24800
C  24.90600 -11.22700 47.00200
C  26.24200 -10.77100 47.42400
C  26.26200 -9.32900 46.97500
C  24.01600 -11.73500 48.13600
C  27.40200 -11.74800 46.90000
C  28.71300 -11.70300 47.65100
N  26.73900 -6.57900 45.74200
C  27.70100 -7.30100 46.38600
C  28.94200 -6.47900 46.48200
C  28.74800 -5.43500 45.63500
C  27.35600 -5.54100 45.16600
C  30.21500 -6.92900 47.23100
C  29.26000 -4.22100 45.02700
O  30.39300 -3.84300 45.08900
C  28.14100 -3.57400 44.15600
C  27.86000 -2.21700 44.71800
O  27.42400 -1.98600 45.82900
O  27.85900 -1.33500 43.66900
C  27.38700 0.01000 43.74200
H  21.55400 -5.10200 42.80400
H  22.69700 -11.02800 45.56700
H  28.22400 -9.13600 47.54300
H  25.34900 -2.37000 43.06000
H  23.21000 -3.74600 41.73100
H  22.07200 -2.88000 44.04200
H  22.42000 -1.83200 42.71400
H  23.59000 -1.92400 44.08800
H  24.81100 -3.85800 40.63600
H  26.45600 -4.30200 41.28500
H  27.31500 -2.26700 40.81100
H  25.88200 -1.30400 40.91500
H  19.81000 -7.90000 41.65600
H  19.83300 -6.25900 42.47600
H  18.73200 -7.42500 42.99600
H  19.02500 -11.77500 45.21600
H  20.21600 -10.92700 46.27500
H  20.71200 -12.03500 45.00500
H  25.04000 -11.98600 46.23100
H  26.29900 -10.82900 48.51100
H  24.60000 -11.88400 49.04400
H  23.49000 -12.65900 47.89700
H  23.23900 -11.01700 48.39700
H  27.64800 -11.56000 45.85500
H  26.98800 -12.75600 46.92900
H  29.51900 -11.19400 47.12300
H  29.13200 -12.70600 47.72100
H  28.58900 -11.34400 48.67300
H  30.10700 -6.90200 48.31500
H  31.06100 -6.36000 46.84700
H  30.37500 -7.97800 46.98100
H  28.67200 -3.44400 43.21300
H  27.49600 0.38200 44.76100
H  26.32600 0.12800 43.52200
H  28.06300 0.66400 43.19100

