158

Mg 6.83000 54.26000 41.32600
C  6.54500 50.82900 40.74700
C  10.07000 54.01600 39.78600
C  6.95100 57.55700 41.19700
C  3.37200 54.38300 42.28400
N  8.15900 52.61000 40.42300
C  7.80100 51.30500 40.30600
C  8.89900 50.44300 39.57000
C  10.07100 51.42700 39.62000
C  9.42900 52.80600 39.93900
C  11.16900 51.17400 40.59000
C  8.65700 49.94400 38.08400
C  8.07000 51.01900 37.06600
H  7.49000 50.55500 35.72500
N  8.35400 55.60300 40.62000
C  9.59000 55.30000 40.02200
C  10.26300 56.56400 39.77500
C  9.39600 57.63700 40.21500
C  8.19200 56.96200 40.77500
C  11.49600 56.58000 38.94200
C  9.70700 59.11700 40.32800
O  10.69700 59.60000 39.69500
C  8.91400 60.02100 41.15100
N  5.36500 55.79200 41.72700
C  5.64600 57.07000 41.58600
C  4.49800 58.02200 41.86100
C  3.35100 56.95100 42.16400
C  4.05100 55.60600 42.06600
C  4.77600 58.97400 43.07900
C  2.08100 57.01900 41.29200
C  0.65000 57.12100 41.75400
N  5.23300 52.87800 41.63300
C  3.89100 53.09300 41.99800
C  3.34900 51.77600 42.13900
C  4.36700 50.83300 41.60700
C  5.44400 51.58800 41.27800
C  1.97600 51.39400 42.70500
C  4.47400 49.42000 41.33900
O  3.74800 48.44000 41.48500
C  6.01000 49.39500 40.76700
C  5.92200 48.88800 39.37500
O  5.29300 49.36100 38.43900
O  6.51100 47.64500 39.37200
C  5.93300 46.64400 38.49400
H  11.09200 53.82200 39.45200
H  6.89700 58.64500 41.13200
H  2.31500 54.25000 42.52400
H  9.11200 49.53000 40.12700
H  10.64300 51.57900 38.70400
H  12.06100 51.64600 40.17700
H  11.36300 50.13700 40.86200
H  10.95600 51.71800 41.51000
H  8.04400 49.04700 38.00300
H  9.57200 49.55600 37.63900
H  8.82900 51.77700 36.87500
H  7.18700 51.49400 37.49500
H  11.93700 55.61100 38.70800
H  12.18600 57.08100 39.62100
H  11.41300 57.28200 38.11300
H  8.19400 60.49300 40.48200
H  9.58300 60.79000 41.53900
H  8.38300 59.59100 41.99900
H  4.36100 58.64300 40.97600
H  3.01000 57.09100 43.18900
H  3.89900 58.97800 43.72600
H  4.77800 60.03300 42.82000
H  5.70700 58.76500 43.60500
H  2.00500 56.10800 40.69800
H  2.22300 57.88500 40.64500
H  0.06300 57.47600 40.90700
H  0.47200 57.77700 42.60600
H  0.28100 56.16000 42.11300
H  1.32900 52.26800 42.77900
H  2.17300 51.05400 43.72100
H  1.64900 50.54100 42.10900
H  6.66400 48.71100 41.30800
H  4.84500 46.71400 38.50900
H  6.18100 45.72000 39.01500
H  6.37300 46.66000 37.49700
Mg 16.44900 52.44500 26.82000
C  18.35200 50.86900 29.10500
C  14.01500 53.08800 29.35600
C  14.43300 53.97600 24.51700
C  18.62700 51.65000 24.17700
N  16.21300 52.09200 28.96000
C  17.27100 51.55500 29.67900
C  16.98900 51.74900 31.12600
C  15.53200 52.20100 31.25500
C  15.20300 52.51900 29.83300
C  14.53200 51.08600 31.71400
C  18.04800 52.81000 31.65700
C  18.24400 52.93900 33.13400
H  17.32700 52.04200 34.09700
N  14.51700 53.44900 26.97500
C  13.68000 53.60700 28.09700
C  12.57600 54.46800 27.83800
C  12.75200 54.84700 26.43300
C  13.93700 54.12100 25.89000
C  11.59600 54.89300 28.88500
C  11.97800 55.83100 25.54300
O  12.32700 56.00700 24.42500
C  10.78100 56.61200 26.14700
N  16.49100 52.59200 24.70500
C  15.50000 53.26700 23.97600
C  15.59700 53.03000 22.48800
C  17.14400 52.64000 22.32400
C  17.53300 52.42100 23.78300
C  14.68900 51.94300 22.01600
C  18.03200 53.54200 21.44000
C  19.00400 54.50600 22.16800
N  18.11400 51.41600 26.64800
C  18.88100 51.13600 25.51200
C  19.98300 50.31500 25.91600
C  19.82000 50.17300 27.34500
C  18.69000 50.89300 27.74300
C  21.02900 49.71200 24.96400
C  20.32500 49.54500 28.59200
O  21.32900 48.86400 28.67000
C  19.54500 50.17200 29.79400
C  19.08100 49.14000 30.66300
O  18.22300 48.35700 30.28600
O  19.59200 49.35100 31.93100
C  19.24600 48.40000 33.02700
H  13.24000 53.14900 30.12300
H  13.74400 54.30200 23.73500
H  19.45700 51.32000 23.54900
H  17.14800 50.74700 31.52400
H  15.41100 53.04600 31.93200
H  14.12500 50.59400 30.83100
H  13.79600 51.47600 32.41700
H  15.09100 50.29200 32.20900
H  17.78500 53.75900 31.19000
H  19.01700 52.53600 31.23900
H  18.06300 53.98400 33.38400
H  19.28300 52.68400 33.34600
H  10.69100 55.32800 28.46000
H  12.05500 55.65000 29.52100
H  11.22500 54.14500 29.58600
H  11.19600 57.12800 27.01300
H  9.90200 55.99700 26.34000
H  10.49400 57.36800 25.41500
H  15.36600 53.98300 22.01200
H  17.15200 51.67000 21.82700
H  15.19700 51.31200 21.28700
H  13.93400 52.47600 21.43800
H  14.11200 51.37000 22.74200
H  17.37700 54.16900 20.83600
H  18.57600 52.90700 20.74100
H  19.14800 54.25600 23.21900
H  18.62700 55.50400 21.94500
H  19.97900 54.41200 21.69000
H  21.88100 49.35400 25.54200
H  21.31500 50.50400 24.27200
H  20.64000 48.87600 24.38300
H  20.21600 50.94500 30.16800
H  18.30000 47.87500 32.89600
H  19.25100 48.87400 34.00800
H  20.03300 47.66600 33.19900

