158

Mg 1.17500 -1.82700 43.24700
C  4.45300 -0.63500 43.14700
C  0.05900 1.14700 41.85700
C  -1.94600 -3.29700 42.69600
C  2.38300 -4.90100 44.18900
N  2.13000 0.06700 42.68000
C  3.46200 0.27600 42.69800
C  3.74300 1.66700 42.01000
C  2.35700 2.42800 41.88500
C  1.45900 1.15700 42.17000
C  2.21000 3.66100 42.77200
C  4.51900 1.51400 40.60200
C  5.98900 2.13600 40.44100
H  6.28300 2.73300 39.05600
N  -0.74400 -1.16100 42.40900
C  -0.95900 0.10800 41.94800
C  -2.33900 0.19200 41.52700
C  -2.98200 -1.03600 41.88800
C  -1.90000 -1.92000 42.38000
C  -2.81200 1.44700 40.62000
C  -4.54200 -1.32100 41.76200
O  -5.22500 -0.44600 41.16100
C  -5.20900 -2.65400 42.21600
N  0.28000 -3.88100 43.50900
C  -1.00200 -4.22700 43.30100
C  -1.34800 -5.76700 43.64900
C  0.12800 -6.18300 43.95800
C  1.00300 -4.94400 43.86000
C  -2.30500 -5.96400 44.83400
C  0.71400 -7.26600 42.97100
C  1.12800 -8.55500 43.63800
N  3.09100 -2.64900 43.60800
C  3.38600 -3.94100 44.02400
C  4.85000 -4.03200 44.19900
C  5.36200 -2.74000 43.87400
C  4.18100 -1.95300 43.57700
C  5.79000 -5.18100 44.47700
C  6.53000 -1.88000 43.73800
O  7.73400 -2.08500 43.91200
C  5.90600 -0.52100 43.11500
C  6.47100 0.57200 43.91700
O  6.30300 0.63500 45.14900
O  7.30300 1.42900 43.25900
C  7.81200 2.55500 44.04200
H  -0.16000 2.19100 41.62500
H  -2.90000 -3.81700 42.58700
H  2.84500 -5.76000 44.68000
H  4.38600 2.07700 42.78900
H  1.97200 2.63600 40.88700
H  2.27200 4.46000 42.03300
H  2.93700 3.70400 43.58300
H  1.18900 3.59700 43.14900
H  3.88700 1.76500 39.75000
H  4.61400 0.43700 40.46200
H  6.62900 1.31000 40.75000
H  6.11300 2.98100 41.11800
H  -3.42800 1.11100 39.78600
H  -2.04400 2.05600 40.14500
H  -3.48500 2.07200 41.20800
H  -6.25500 -2.69200 41.91100
H  -4.87400 -2.56400 43.24900
H  -4.72900 -3.45100 41.64800
H  -1.62200 -6.20700 42.69000
H  0.27500 -6.58500 44.96000
H  -2.80400 -5.08100 45.23200
H  -1.77500 -6.56500 45.57300
H  -3.14300 -6.48100 44.36600
H  1.62800 -6.95600 42.46400
H  0.01500 -7.43600 42.15300
H  1.76100 -8.25100 44.47100
H  1.65500 -9.29100 43.03000
H  0.26600 -9.10300 44.01900
H  5.84900 -5.84500 43.61500
H  5.39300 -5.76600 45.30700
H  6.74800 -4.81600 44.84900
H  6.29800 -0.44400 42.10100
H  8.50000 2.97500 43.30900
H  8.34800 2.19400 44.91900
H  6.96300 3.19000 44.29500
Mg 8.78300 3.67600 27.32900
C  9.75000 2.06000 30.08400
C  6.42100 5.57300 29.07000
C  7.80100 5.26200 24.36400
C  10.26500 1.21500 25.29700
N  7.97600 3.53700 29.31700
C  8.65700 2.98600 30.34800
C  8.02800 3.41200 31.71100
C  6.81700 4.31000 31.25700
C  7.01700 4.51600 29.72700
C  5.37100 3.80700 31.50000
C  9.10400 4.12100 32.56800
C  8.99400 3.80100 34.12300
H  10.18800 4.00200 35.05500
N  7.55400 5.23600 26.87300
C  6.61100 5.83500 27.67700
C  5.83800 6.88400 27.01700
C  6.39300 6.87100 25.64700
C  7.39200 5.77600 25.60800
C  4.78300 7.78800 27.67300
C  5.99500 7.81300 24.53000
O  6.44100 7.89000 23.35800
C  4.92400 8.90800 24.77100
N  8.97600 3.32800 25.14300
C  8.50500 4.10100 24.14400
C  8.94100 3.59800 22.73500
C  9.84100 2.37800 23.08800
C  9.74900 2.31600 24.61600
C  7.71900 3.18500 21.83800
C  11.35600 2.45900 22.57300
C  11.64900 1.47900 21.42000
N  9.91200 2.08300 27.58600
C  10.44100 1.09700 26.74400
C  11.20600 0.19100 27.54900
C  11.01800 0.51700 28.88900
C  10.23200 1.68400 28.85100
C  12.13800 -0.81600 27.03100
C  11.38400 0.29100 30.26100
O  12.13700 -0.56200 30.72600
C  10.67500 1.31700 31.10900
C  9.92800 0.61500 32.23500
O  8.93400 -0.09000 32.11600
O  10.57000 0.85400 33.41300
C  10.07900 0.18000 34.66100
H  5.78700 6.17000 29.72900
H  7.45800 5.84000 23.50300
H  10.73300 0.38800 24.75900
H  7.54700 2.60100 32.25700
H  6.90400 5.24700 31.80700
H  4.90500 4.41200 32.27800
H  5.24500 2.72500 31.50400
H  4.83500 4.06200 30.58500
H  8.94900 5.19100 32.43400
H  10.07800 3.90000 32.13100
H  8.83900 2.72800 34.23600
H  8.19000 4.43600 34.49400
H  4.69900 7.59900 28.74300
H  3.82200 7.63200 27.18300
H  5.20000 8.79500 27.70300
H  4.02800 8.34600 25.03100
H  4.79200 9.39600 23.80500
H  5.25100 9.65300 25.49700
H  9.42700 4.42000 22.21000
H  9.30700 1.47400 22.79500
H  7.59000 3.99800 21.12400
H  6.77400 3.06900 22.36900
H  7.89100 2.20500 21.39200
H  11.95100 2.24400 23.46000
H  11.65900 3.43500 22.19500
H  12.13200 1.92000 20.54800
H  10.73200 1.01300 21.05700
H  12.14900 0.60400 21.83500
H  12.67700 -1.24500 27.87500
H  12.86600 -0.27700 26.42400
H  11.62400 -1.59000 26.46000
H  11.47500 1.97200 31.45600
H  9.21500 -0.48300 34.63100
H  9.87700 0.87000 35.48000
H  10.84700 -0.35900 35.21500

