158

Mg 2.37700 -1.67600 43.88500
C  5.75800 -1.29000 43.09500
C  1.73200 1.08900 41.89100
C  -0.82100 -2.33100 44.25700
C  3.10000 -4.86100 45.13000
N  3.53200 -0.43500 42.42200
C  4.92500 -0.40400 42.43400
C  5.49800 0.72100 41.65800
C  4.21000 1.64700 41.36700
C  3.09700 0.76400 41.98900
C  4.19200 2.96300 42.17700
C  6.05400 0.23100 40.36200
C  7.18100 1.18100 39.81000
H  6.84500 1.98600 38.57600
N  0.65600 -0.70500 43.27400
C  0.57000 0.37300 42.46600
C  -0.79700 0.75300 42.28100
C  -1.62500 -0.27900 42.85600
C  -0.65000 -1.17800 43.49600
C  -1.27300 1.88800 41.41200
C  -3.17100 -0.38300 42.75700
O  -3.82900 0.48500 42.24800
C  -3.83900 -1.61100 43.13200
N  1.27800 -3.41100 44.51500
C  -0.06500 -3.36500 44.71600
C  -0.57500 -4.72500 45.08400
C  0.73600 -5.50400 45.51400
C  1.76900 -4.51300 45.04100
C  -1.80800 -4.71400 46.12000
C  0.80700 -6.86000 44.75900
C  1.26400 -8.12200 45.53900
N  4.07400 -2.87300 44.19700
C  4.18800 -4.07200 44.83800
C  5.64100 -4.29400 45.11400
C  6.34500 -3.15500 44.47200
C  5.33700 -2.37900 43.85900
C  6.25700 -5.30000 45.94900
C  7.61800 -2.52600 44.27900
O  8.72200 -2.72100 44.68000
C  7.26300 -1.31300 43.33900
C  7.78000 -0.03200 44.00300
O  7.36300 0.33700 45.08600
O  8.70600 0.58900 43.26800
C  9.08600 1.94400 43.72200
H  1.50900 2.02400 41.37300
H  -1.87300 -2.47100 44.51400
H  3.47200 -5.80800 45.52900
H  6.30200 1.20400 42.21300
H  3.95700 1.76600 40.31300
H  3.76300 3.78800 41.60900
H  5.25300 3.18000 42.30300
H  3.83200 2.76800 43.18700
H  5.20700 0.18100 39.67700
H  6.32100 -0.81600 40.50300
H  7.93300 0.46200 39.48600
H  7.52700 1.90500 40.54700
H  -2.03700 1.47800 40.75300
H  -0.47900 2.20300 40.73600
H  -1.82000 2.67700 41.92800
H  -4.87900 -1.76900 42.84800
H  -3.87200 -1.64500 44.22000
H  -3.24400 -2.46800 42.81600
H  -1.02300 -5.17700 44.19800
H  0.78000 -5.58300 46.60100
H  -1.81600 -5.45800 46.91600
H  -2.73000 -4.70000 45.53900
H  -1.95900 -3.76600 46.63500
H  1.53400 -6.76200 43.95300
H  -0.13900 -7.17300 44.31900
H  0.48200 -8.88100 45.55500
H  1.61100 -7.97500 46.56200
H  2.00900 -8.64800 44.94300
H  5.62400 -5.41800 46.82900
H  7.27800 -5.13700 46.29600
H  6.26700 -6.21200 45.35200
H  7.70700 -1.51300 42.36400
H  10.00300 2.32500 43.27300
H  9.41900 1.86600 44.75800
H  8.34000 2.67800 43.42100
Mg 7.23800 54.11600 40.64400
C  6.67900 50.55400 40.52400
C  10.42100 53.55700 39.72500
C  7.34900 57.20400 39.79000
C  3.55300 54.49800 41.28900
N  8.39100 52.28200 40.31000
C  8.00900 50.96200 40.33900
C  9.20300 49.99400 40.02900
C  10.40800 51.01700 40.04200
C  9.72100 52.37700 40.07100
C  11.44000 50.87200 41.20600
C  9.20100 49.11200 38.76700
C  9.02500 49.92900 37.51100
H  7.65000 50.01900 36.76200
N  8.68800 55.20300 39.86600
C  9.92200 54.80300 39.61600
C  10.67100 55.95400 39.11400
C  9.88100 57.09700 39.13500
C  8.56100 56.51900 39.61500
C  12.08700 55.83600 38.69900
C  10.17800 58.63000 38.82300
O  11.23900 58.89800 38.34700
C  9.16900 59.76100 38.81800
N  5.57300 55.66200 40.46500
C  6.03000 56.85700 40.25300
C  4.90500 57.93600 40.52500
C  3.62600 57.04300 40.84700
C  4.32100 55.63900 40.95400
C  5.34000 58.97300 41.57300
C  2.52100 57.03100 39.75300
C  2.04400 58.34200 39.23700
N  5.49100 52.90500 40.93700
C  4.08000 53.20400 41.19900
C  3.43800 51.91400 41.55300
C  4.39600 50.97400 41.17000
C  5.63200 51.55600 40.88700
C  2.04000 51.64700 41.86300
C  4.56200 49.55900 41.08000
O  3.75100 48.70000 41.28400
C  6.04400 49.17000 40.68500
C  6.00300 48.27800 39.41600
O  5.54300 48.63000 38.33600
O  6.50400 47.03300 39.69800
C  6.44600 46.02200 38.66600
H  11.45300 53.43300 39.39100
H  7.31600 58.29500 39.75700
H  2.49500 54.58300 41.54500
H  9.26000 49.31400 40.87900
H  10.90700 50.83500 39.09000
H  11.63700 51.82800 41.69200
H  12.32100 50.44700 40.72500
H  10.96800 50.26900 41.98200
H  8.42600 48.34900 38.83500
H  10.12300 48.53000 38.75900
H  9.82500 49.59500 36.85000
H  9.13100 50.99700 37.69900
H  12.35800 54.93700 38.14600
H  12.70200 55.87000 39.59900
H  12.38900 56.61700 38.00200
H  8.43700 59.44200 38.07700
H  9.42100 60.76100 38.46500
H  8.65100 60.00500 39.74600
H  4.76800 58.37500 39.53700
H  3.33500 57.33000 41.85700
H  5.68400 59.88000 41.07500
H  6.17100 58.61000 42.17600
H  4.50900 59.21800 42.23400
H  1.65400 56.42400 40.01100
H  3.13000 56.47400 39.04100
H  2.55300 59.20600 39.66600
H  0.96400 58.48800 39.27200
H  2.26500 58.32700 38.17000
H  1.56400 51.39700 40.91500
H  1.49500 52.47900 42.31000
H  1.95000 50.74100 42.46200
H  6.53700 48.66500 41.51500
H  6.94500 45.14600 39.07900
H  7.00300 46.25500 37.75900
H  5.39200 45.83300 38.46300

