158

Mg 1.84900 -1.32500 44.32600
C  5.19300 -0.19600 44.16900
C  0.89800 1.79000 43.25500
C  -1.28700 -2.40500 44.22500
C  2.92000 -4.51600 45.21500
N  2.94900 0.51400 43.70000
C  4.31700 0.82500 43.78700
C  4.59400 2.22100 43.16300
C  3.20900 2.94200 43.08600
C  2.32000 1.69100 43.33300
C  2.93900 4.07400 44.20000
C  5.24100 2.02700 41.79200
C  6.48500 2.93200 41.55900
H  7.55700 2.21100 40.79500
N  0.06500 -0.48000 43.64900
C  -0.14800 0.83200 43.33700
C  -1.52600 1.05100 43.10100
C  -2.20800 -0.17600 43.29100
C  -1.11800 -1.10000 43.76300
C  -2.03500 2.35700 42.68600
C  -3.66900 -0.51400 43.05000
O  -4.41100 0.35300 42.65900
C  -4.21100 -1.84700 43.29200
N  0.96600 -3.20300 44.50500
C  -0.40400 -3.32300 44.67500
C  -0.76600 -4.72400 44.96000
C  0.54300 -5.23800 45.58500
C  1.59900 -4.29500 45.02000
C  -2.11000 -4.98300 45.72900
C  0.76400 -6.73600 45.30900
C  1.16300 -7.70300 46.45000
N  3.63400 -2.19500 44.75300
C  3.89700 -3.54900 44.95200
C  5.30700 -3.59900 45.21600
C  5.86900 -2.38000 44.87400
C  4.81600 -1.55400 44.52800
C  5.99100 -4.77700 45.80300
C  7.18800 -1.58000 44.87100
O  8.34500 -1.94300 45.08300
C  6.68000 -0.09000 44.32900
C  7.17900 0.85000 45.37600
O  6.63500 1.05000 46.43800
O  8.24100 1.49000 44.84600
C  8.45700 2.77900 45.37300
H  0.52500 2.79500 43.04900
H  -2.25200 -2.91500 44.19100
H  3.18100 -5.50800 45.58800
H  5.18600 2.83100 43.84500
H  2.94900 3.41300 42.13800
H  3.79200 4.34300 44.82300
H  2.06600 3.75900 44.77200
H  2.54400 4.93200 43.65500
H  4.54400 2.17500 40.96700
H  5.52500 0.97700 41.72500
H  6.79900 3.36100 42.51100
H  6.21000 3.80700 40.97000
H  -3.06300 2.54500 42.99400
H  -1.86000 2.62700 41.64500
H  -1.61400 3.18500 43.25800
H  -3.78600 -2.68300 42.73700
H  -5.28200 -1.96300 43.12400
H  -4.12200 -2.11500 44.34500
H  -0.84000 -5.09900 43.93900
H  0.29700 -5.09200 46.63700
H  -2.70500 -4.11800 46.02000
H  -1.96700 -5.56600 46.63900
H  -2.81800 -5.37600 45.00000
H  1.60300 -6.89000 44.63000
H  -0.21400 -7.08100 44.97300
H  1.00200 -7.15800 47.38000
H  2.23500 -7.89900 46.43700
H  0.76500 -8.71700 46.39900
H  6.49300 -5.30300 44.99100
H  5.32800 -5.47600 46.31200
H  6.81400 -4.58600 46.49100
H  7.15900 0.16400 43.38300
H  7.49100 3.22800 45.60500
H  8.93600 3.43000 44.64200
H  8.93000 2.79000 46.35500
Mg 16.23200 -1.02000 28.14100
C  15.17900 1.01000 30.71000
C  18.50100 -2.54700 30.42900
C  18.00700 -2.19700 25.65000
C  14.41900 0.92700 25.87500
N  16.74800 -0.72200 30.35200
C  16.06300 0.07100 31.18800
C  16.56100 -0.02800 32.63600
C  17.81800 -0.90600 32.48200
C  17.74800 -1.42400 31.01000
C  19.23100 -0.42600 32.75500
C  15.43100 -0.53700 33.69100
C  15.26900 0.03900 35.07000
H  16.42400 0.84600 35.61900
N  17.91400 -2.27200 28.07000
C  18.64200 -2.85200 29.08700
C  19.61100 -3.82600 28.57400
C  19.44400 -3.78100 27.11100
C  18.40700 -2.71000 26.89900
C  20.50300 -4.69300 29.49900
C  20.21100 -4.52600 26.02800
O  20.03900 -4.29900 24.80400
C  21.19000 -5.58900 26.40100
N  16.08700 -0.77500 26.05000
C  16.96600 -1.35100 25.18300
C  16.60600 -1.09300 23.70400
C  15.48800 -0.10700 23.86100
C  15.26300 0.00100 25.33100
C  17.80100 -0.53100 22.88000
C  14.18000 -0.48500 23.19300
C  14.00900 -0.23300 21.65200
N  14.99300 0.57700 28.24500
C  14.26500 1.24800 27.25900
C  13.54600 2.37500 27.79500
C  13.83800 2.26300 29.20100
C  14.78000 1.21000 29.40300
C  12.70300 3.33800 27.09500
C  13.61100 2.88200 30.44300
O  12.92800 3.84300 30.74900
C  14.52300 2.11400 31.53400
C  15.45000 3.15100 32.06000
O  16.30300 3.66800 31.31100
O  15.14800 3.67900 33.34100
C  16.06700 4.83800 33.66000
H  19.18900 -2.93500 31.18200
H  18.37500 -2.76800 24.79500
H  13.79500 1.51300 25.19800
H  16.90800 0.94600 32.98000
H  17.52300 -1.73300 33.12800
H  19.11800 0.64500 32.92300
H  19.77400 -0.40900 31.81000
H  19.75400 -0.92600 33.57100
H  15.54300 -1.62100 33.71600
H  14.49300 -0.26000 33.21100
H  15.11500 -0.82300 35.71900
H  14.38000 0.67000 35.08300
H  21.58300 -4.55500 29.46000
H  20.50500 -5.73500 29.18000
H  20.15200 -4.75000 30.53000
H  21.69600 -5.76600 25.45200
H  20.68100 -6.52400 26.63500
H  21.91300 -5.33800 27.17700
H  16.17800 -2.02200 23.32800
H  15.73200 0.92000 23.58900
H  18.55400 -0.08300 23.52900
H  17.46700 0.14500 22.09300
H  18.38500 -1.26800 22.32900
H  13.32500 0.07400 23.57200
H  14.02000 -1.55400 23.33600
H  14.97500 0.10100 21.27600
H  13.17800 0.46700 21.56500
H  13.75600 -1.20000 21.21600
H  13.19700 3.52300 26.14100
H  12.73300 4.29500 27.61500
H  11.73100 2.85000 27.01800
H  13.94100 1.74100 32.37700
H  15.82900 5.03600 34.70500
H  15.87100 5.72700 33.06100
H  17.09700 4.50800 33.52400

