158

Mg 48.10600 17.13800 29.45300
C  45.80700 17.06100 32.01800
C  50.21700 19.11300 31.23900
C  50.04800 17.46900 26.72900
C  45.42900 15.84800 27.32000
N  48.10800 17.76200 31.48000
C  47.03500 17.69100 32.33600
C  47.49100 18.16500 33.79400
C  48.92600 18.80200 33.50700
C  49.16700 18.55800 31.96200
C  49.12700 20.22700 33.96200
C  47.43200 16.94500 34.80100
C  47.36300 17.21800 36.34200
H  47.44100 18.61600 37.02100
N  49.90800 18.21100 29.02100
C  50.58900 18.93100 29.93600
C  51.87700 19.30500 29.35700
C  51.87700 18.84000 28.01500
C  50.58900 18.13600 27.82500
C  52.91700 20.07500 30.03000
C  52.85600 19.06000 26.91900
O  52.74400 18.74500 25.73700
C  54.20100 19.64100 27.31300
N  47.77900 16.65200 27.38600
C  48.80800 16.89800 26.46000
C  48.41000 16.39700 25.07500
C  47.02100 15.66300 25.27700
C  46.71900 16.02700 26.74000
C  48.23300 17.44500 23.92800
C  47.16400 14.17300 25.06000
C  45.86000 13.38500 25.06400
N  46.08300 16.40200 29.61900
C  45.12000 16.07400 28.68600
C  43.86900 15.74800 29.28500
C  44.08100 16.17800 30.63000
C  45.46900 16.60500 30.76900
C  42.60300 15.29700 28.67400
C  43.46700 16.40900 31.82000
O  42.32300 16.13600 32.15000
C  44.50900 16.80800 32.82200
C  43.91500 17.92200 33.65200
O  43.89800 19.12000 33.38400
O  43.51000 17.36600 34.82800
C  42.86100 18.24200 35.77000
H  50.86100 19.71100 31.88700
H  50.67500 17.61000 25.84600
H  44.65100 15.32100 26.76300
H  46.91400 18.99100 34.21100
H  49.76700 18.34700 34.03100
H  49.20900 20.84800 33.07000
H  49.99200 20.41000 34.59800
H  48.25300 20.55700 34.52400
H  48.29600 16.31000 34.60100
H  46.66700 16.22400 34.51300
H  48.12700 16.55000 36.73800
H  46.41800 16.80000 36.68900
H  53.29600 20.99500 29.58500
H  53.72900 19.41100 30.32600
H  52.60700 20.40700 31.02000
H  54.33500 20.63500 27.74000
H  54.76500 19.63900 26.38000
H  54.76900 18.98500 27.97200
H  49.14700 15.72300 24.63900
H  46.24800 16.04600 24.61100
H  49.16100 17.40100 23.35800
H  48.19500 18.45000 24.34800
H  47.38900 17.28200 23.25800
H  47.66800 13.77300 25.94000
H  47.69200 13.90600 24.14400
H  44.95200 13.96500 24.90000
H  45.75500 12.92600 26.04700
H  45.91600 12.63900 24.27100
H  42.90000 14.50500 27.98700
H  42.15900 16.15400 28.16800
H  41.83200 14.81200 29.27200
H  44.71400 16.02300 33.55100
H  41.79500 18.22200 35.54200
H  43.07700 19.31000 35.79300
H  42.93700 17.87500 36.79400
Mg 49.77800 35.69400 28.04100
C  47.40300 34.34700 30.31900
C  49.87500 38.46300 30.01300
C  51.66100 37.22000 25.61200
C  49.00800 33.12900 25.79300
N  48.82700 36.21100 30.04500
C  48.00600 35.50000 30.87100
C  48.04500 36.19100 32.24300
C  48.30800 37.63200 31.79900
C  49.10400 37.46200 30.55800
C  47.06400 38.56500 31.56900
C  49.07300 35.48500 33.15200
C  48.69200 35.10700 34.63400
H  49.56300 35.69500 35.78200
N  50.77200 37.52400 27.87100
C  50.74000 38.45000 28.82200
C  51.54900 39.61900 28.44700
C  51.95200 39.35400 27.09700
C  51.44300 38.01400 26.78300
C  51.75300 40.80500 29.30800
C  52.57600 40.29000 26.01400
O  52.73500 39.96300 24.86000
C  53.01600 41.68800 26.50200
N  50.19400 35.29400 25.93100
C  51.13800 35.99500 25.24700
C  51.41600 35.38200 23.88700
C  50.78000 33.93100 24.08800
C  49.90600 34.11200 25.35400
C  50.75000 36.19700 22.69900
C  51.81200 32.79100 24.22000
C  51.81000 31.66500 23.13700
N  48.54900 34.03600 28.05900
C  48.38700 33.06200 27.05700
C  47.41900 32.10200 27.54800
C  46.96400 32.58900 28.75900
C  47.67500 33.77600 29.06300
C  46.82500 30.90400 26.82500
C  46.09700 32.22900 29.92700
O  45.32100 31.35800 30.16500
C  46.33100 33.44300 30.90700
C  46.60400 32.83300 32.21300
O  47.51200 32.12300 32.57000
O  45.63800 33.30100 33.12100
C  45.69900 32.61500 34.38100
H  49.95700 39.37800 30.60300
H  52.41800 37.64500 24.95000
H  48.87200 32.27400 25.12800
H  47.01400 36.09200 32.58500
H  48.95200 38.18900 32.47900
H  46.96400 39.36400 32.30400
H  46.07700 38.10700 31.50500
H  47.37300 39.18500 30.72700
H  50.02800 36.00700 33.21000
H  49.29700 34.54300 32.65100
H  48.53900 34.02800 34.64000
H  47.69200 35.48600 34.84600
H  52.68500 41.32400 29.08500
H  51.69000 40.62000 30.38000
H  50.91300 41.43600 29.01600
H  53.71800 41.69500 27.33600
H  52.10500 42.19100 26.82500
H  53.46600 42.24500 25.68000
H  52.50000 35.27800 23.83100
H  50.22600 33.68000 23.18400
H  50.06400 35.55100 22.15100
H  51.56400 36.51600 22.04900
H  50.34200 37.06500 23.21700
H  51.73400 32.51800 25.27200
H  52.77900 33.29200 24.17000
H  51.53500 30.70900 23.58100
H  52.80500 31.61200 22.69500
H  51.00200 31.85400 22.43000
H  46.27100 30.14400 27.37700
H  47.57600 30.44500 26.18100
H  46.23900 31.37300 26.03500
H  45.42100 34.04200 30.95600
H  45.53900 31.54100 34.47500
H  45.14300 33.21100 35.10400
H  46.67600 32.81000 34.82400

