158

Mg 49.24300 35.31900 28.48700
C  47.00500 33.80900 30.67900
C  49.30700 38.05900 30.52900
C  51.19700 36.76200 26.17100
C  48.47400 32.86500 26.03300
N  48.35100 35.85500 30.46800
C  47.54800 34.97900 31.18100
C  47.31300 35.58500 32.62000
C  47.86900 37.07400 32.45400
C  48.55300 36.96700 31.06400
C  46.82300 38.20400 32.47900
C  48.06400 34.60800 33.66500
C  49.55900 34.93600 34.05700
H  49.95900 35.64300 35.38600
N  50.18900 37.12900 28.46100
C  50.03800 38.18100 29.33000
C  50.95900 39.25400 28.93300
C  51.64800 38.82700 27.76900
C  50.99300 37.50700 27.40500
C  51.19600 40.49900 29.81600
C  52.75600 39.47500 26.94900
O  53.21400 38.91400 25.96800
C  53.43000 40.78500 27.45200
N  49.76800 34.89000 26.42000
C  50.67100 35.58100 25.65400
C  51.08500 34.84500 24.40100
C  49.96700 33.80900 24.30000
C  49.30400 33.82100 25.67700
C  51.12200 35.86900 23.18900
C  50.57200 32.44700 23.77500
C  49.84800 31.81400 22.62300
N  48.03900 33.58000 28.39100
C  47.85300 32.69700 27.30200
C  46.99800 31.67100 27.79100
C  46.53900 32.10200 29.03400
C  47.23900 33.25300 29.41100
C  46.54800 30.38300 27.12100
C  45.59300 31.79000 30.12300
O  44.83700 30.83100 30.25000
C  45.90400 32.90600 31.26500
C  46.31000 32.16800 32.48800
O  46.87900 31.05000 32.55800
O  45.54600 32.66300 33.53000
C  45.79100 32.10200 34.87300
H  49.36900 38.90700 31.21400
H  51.83200 37.27200 25.44300
H  48.36400 32.04300 25.32200
H  46.23500 35.61500 32.77800
H  48.60300 37.29600 33.22900
H  47.25900 39.09300 32.93400
H  46.03800 37.83400 33.13900
H  46.44000 38.40200 31.47800
H  48.14000 33.55600 33.39100
H  47.47800 34.61600 34.58400
H  50.06600 35.67500 33.43700
H  50.23700 34.09100 33.93100
H  52.27300 40.66400 29.84500
H  50.98600 40.21400 30.84700
H  50.53700 41.32200 29.54100
H  52.74000 41.53500 27.83700
H  53.91100 41.22900 26.58000
H  54.28600 40.59700 28.10000
H  52.07300 34.47200 24.67100
H  49.17500 34.11500 23.61600
H  50.56700 36.80000 23.30300
H  50.65200 35.50900 22.27400
H  52.15100 36.16500 22.98700
H  50.64000 31.72400 24.58800
H  51.54900 32.73800 23.39100
H  48.81100 32.12400 22.50000
H  49.80400 30.74000 22.80300
H  50.42700 31.96000 21.71100
H  46.40900 30.59000 26.06000
H  45.63200 29.98900 27.56100
H  47.31800 29.61200 27.13500
H  45.02300 33.48200 31.54600
H  45.85100 32.93300 35.57500
H  46.73300 31.55300 34.84800
H  44.96600 31.45100 35.16100
Mg 7.16500 53.78500 40.88600
C  6.43000 50.25700 40.54700
C  10.34800 53.15800 39.77600
C  7.47100 57.09400 40.35800
C  3.71900 54.21900 41.45300
N  8.22800 51.93700 40.15100
C  7.78700 50.64500 40.25000
C  8.87700 49.68000 39.80500
C  10.19000 50.58800 39.89700
C  9.58000 52.02400 39.84100
C  10.88600 50.34900 41.23200
C  8.85800 48.88200 38.45500
C  8.55700 49.78900 37.24300
H  7.56100 49.33300 36.20000
N  8.73000 54.98900 40.21500
C  9.99700 54.49600 39.86600
C  10.84100 55.70600 39.69000
C  10.04100 56.86600 39.87400
C  8.68600 56.36800 40.17600
C  12.26000 55.56900 39.17200
C  10.50700 58.29300 39.84100
O  11.65800 58.54900 39.52000
C  9.66700 59.46400 40.32400
N  5.69800 55.37400 40.66500
C  6.15800 56.69200 40.55000
C  5.08200 57.68800 40.75900
C  3.85000 56.73900 40.91900
C  4.45100 55.36500 41.05000
C  5.30900 58.63200 42.01700
C  2.92000 56.80300 39.67200
C  1.45800 57.04900 39.94500
N  5.40500 52.51200 41.11800
C  4.09000 52.86000 41.41400
C  3.25100 51.68600 41.74600
C  4.16300 50.67600 41.36200
C  5.42200 51.21800 41.00500
C  1.77000 51.76500 42.22900
C  4.31300 49.25000 41.31500
O  3.54000 48.34400 41.51900
C  5.73300 48.91200 40.74600
C  5.54000 48.06800 39.57500
O  4.95000 48.40400 38.56700
O  5.92000 46.78800 39.89300
C  5.29300 45.79500 38.99700
H  11.41700 52.98000 39.64000
H  7.60700 58.16600 40.19700
H  2.66200 54.42100 41.64000
H  8.80700 48.90400 40.56800
H  10.81600 50.43300 39.01900
H  10.90900 51.24900 41.84700
H  11.88500 50.00800 40.96100
H  10.37800 49.55700 41.78200
H  8.08000 48.11900 38.47700
H  9.82400 48.38600 38.35900
H  9.55000 50.03500 36.86700
H  8.25700 50.76400 37.62700
H  12.35600 56.42000 38.49700
H  12.53500 54.62000 38.71200
H  12.89000 55.80200 40.03000
H  10.26100 60.36400 40.48100
H  9.18800 59.17600 41.26000
H  8.92900 59.76700 39.58100
H  5.08800 58.34400 39.88900
H  3.32800 56.82300 41.87200
H  5.32800 59.67100 41.68800
H  6.35300 58.47900 42.29300
H  4.65700 58.38700 42.85500
H  3.00900 55.95700 38.99100
H  3.05900 57.76500 39.17800
H  0.88300 56.21300 39.54500
H  1.20400 58.01600 39.51100
H  1.33100 57.02500 41.02700
H  1.15400 51.51500 41.36600
H  1.34800 52.75000 42.42400
H  1.47300 51.11200 43.05000
H  6.30200 48.38600 41.51300
H  5.33200 46.06100 37.94000
H  4.20900 45.83300 39.10200
H  5.79000 44.87000 39.28900

