158

Mg 53.60900 23.78200 44.44800
C  50.84900 25.90000 44.05200
C  51.65300 20.98800 43.92800
C  56.35500 21.81200 44.28800
C  55.58000 26.58600 44.78200
N  51.54800 23.48900 44.00600
C  50.58900 24.52700 43.88700
C  49.18800 23.91700 43.73200
C  49.45700 22.37400 43.91700
C  50.99500 22.25000 43.99300
C  48.76600 21.81300 45.17800
C  48.46500 24.33900 42.38500
C  49.32000 24.12700 41.10200
H  48.66500 23.19900 40.00800
N  54.00300 21.66700 44.10400
C  53.07300 20.75300 43.87300
C  53.72600 19.46500 43.71100
C  55.11800 19.63000 43.76600
C  55.22300 21.08200 44.02000
C  52.93800 18.15900 43.40500
C  56.16100 18.50300 43.66200
O  55.77400 17.32900 43.63500
C  57.66000 18.77100 43.46800
N  55.63800 24.11900 44.43100
C  56.53100 23.11100 44.47000
C  57.97500 23.67100 44.42500
C  57.75300 25.25000 44.51200
C  56.23100 25.31800 44.65300
C  58.90300 23.04800 45.41700
C  58.35300 26.12200 43.35000
C  58.58800 27.64000 43.74700
N  53.34400 25.88600 44.51500
C  54.25400 26.84600 44.85500
C  53.60400 28.09300 45.07400
C  52.22400 27.79700 44.63600
C  52.12100 26.43000 44.39700
C  54.19300 29.40900 45.48600
C  50.88300 28.29900 44.40600
O  50.52900 29.48000 44.55700
C  49.92200 27.10100 44.04300
C  49.52200 27.47500 42.65000
O  50.24300 27.31300 41.65800
O  48.33600 28.06700 42.71600
C  47.63000 28.61800 41.55900
H  50.88600 20.22700 43.76700
H  57.19000 21.16400 44.56400
H  56.26300 27.38200 45.08700
H  48.66600 24.38800 44.56400
H  49.12800 21.82300 43.03600
H  48.35000 22.56000 45.85400
H  49.53100 21.23000 45.69200
H  47.97200 21.13600 44.86300
H  48.05900 25.34900 42.41800
H  47.53400 23.77600 42.32400
H  50.28200 23.64800 41.28400
H  49.57900 25.09800 40.67900
H  53.44400 17.56400 42.64400
H  51.88100 18.33200 43.20300
H  53.00400 17.38200 44.16600
H  57.95300 17.89300 42.89300
H  58.16100 18.68100 44.43200
H  57.76200 19.70800 42.92000
H  58.35200 23.55700 43.40900
H  58.12400 25.69100 45.43700
H  59.60500 23.78300 45.81200
H  59.53600 22.34200 44.87900
H  58.36400 22.50900 46.19600
H  57.66600 26.13200 42.50400
H  59.31500 25.70800 43.04900
H  59.36600 28.11300 43.14800
H  58.75700 27.71000 44.82200
H  57.69400 28.21300 43.50200
H  53.53900 30.20600 45.13000
H  55.20500 29.42200 45.08300
H  54.29100 29.44100 46.57100
H  49.14600 27.12100 44.80900
H  47.89900 27.89200 40.79100
H  48.04000 29.62300 41.46000
H  46.57400 28.40700 41.72400
Mg -0.16700 44.52300 24.55300
C  1.96300 43.49600 27.14600
C  -2.88600 43.54300 26.43900
C  -2.11100 44.66000 21.78900
C  2.71600 44.85200 22.50500
N  -0.39500 43.43700 26.42800
C  0.59500 43.43500 27.45700
C  0.01900 43.31100 28.88300
C  -1.46000 42.94100 28.52600
C  -1.63000 43.35900 27.06500
C  -1.82500 41.47700 28.73600
C  0.23800 44.59600 29.77900
C  -0.10700 44.49100 31.29600
H  -0.59300 43.15200 31.75700
N  -2.24000 44.34900 24.20700
C  -3.18200 43.99200 25.12700
C  -4.46500 43.98500 24.50400
C  -4.28400 44.21900 23.08400
C  -2.81400 44.37900 22.96100
C  -5.76700 43.86400 25.24300
C  -5.26800 44.27600 21.90500
O  -4.91200 44.54700 20.75000
C  -6.67900 43.94900 22.17100
N  0.22900 44.97400 22.44800
C  -0.75500 44.96900 21.53100
C  -0.17700 45.49200 20.18100
C  1.30800 45.74400 20.51300
C  1.47400 45.21900 21.92600
C  -0.24000 44.61900 18.90000
C  1.77100 47.21800 20.58100
C  0.85900 48.14200 21.41200
N  1.87400 44.39100 24.72600
C  2.89300 44.48600 23.79300
C  4.17600 44.15100 24.45100
C  3.82000 43.73300 25.76300
C  2.44300 43.92300 25.91000
C  5.56600 44.23600 23.87500
C  4.33600 43.25900 27.04700
O  5.47200 42.91500 27.30200
C  3.16400 43.36500 28.11900
C  3.13200 42.21300 28.97300
O  2.85100 41.06800 28.59800
O  3.41800 42.60300 30.29600
C  3.47800 41.47900 31.25300
H  -3.76000 43.40300 27.07900
H  -2.80800 44.69000 20.94900
H  3.43400 45.15600 21.74000
H  0.51700 42.46800 29.36200
H  -2.07900 43.57700 29.15800
H  -2.22800 41.03100 27.82700
H  -2.64800 41.53100 29.44800
H  -1.04700 40.82500 29.13300
H  -0.38400 45.36200 29.31700
H  1.29600 44.82300 29.64300
H  -0.96000 45.14400 31.48100
H  0.65900 44.87300 31.96900
H  -6.39700 44.73500 25.06200
H  -5.57900 43.57500 26.27700
H  -6.36500 43.07000 24.79700
H  -6.63200 43.04600 22.78100
H  -7.33700 43.86100 21.30600
H  -7.13600 44.71200 22.80100
H  -0.74500 46.37200 19.88000
H  2.07900 45.37400 19.83700
H  -1.08900 44.94100 18.29800
H  -0.60500 43.67000 19.29400
H  0.68900 44.42700 18.36300
H  1.62000 47.55700 19.55600
H  2.83200 47.16700 20.82600
H  0.18500 47.63200 22.10100
H  0.38200 48.87000 20.75600
H  1.45500 48.76600 22.07700
H  5.57400 44.50300 22.81800
H  6.13800 43.32800 24.06800
H  6.05800 44.91900 24.56800
H  3.32200 44.26400 28.71400
H  4.11300 40.70300 30.82700
H  2.50600 41.19900 31.66100
H  4.06900 41.96000 32.03200

