158

Mg -2.24600 17.34400 26.88900
C  -2.84300 15.29600 29.63300
C  -2.42000 20.02200 28.97200
C  -2.10400 19.32500 24.11600
C  -2.73500 14.57000 24.73300
N  -2.76400 17.62600 29.15000
C  -2.79400 16.63500 30.08100
C  -2.76500 17.22200 31.57800
C  -2.78700 18.79500 31.25600
C  -2.67100 18.86600 29.72900
C  -4.12700 19.47600 31.69000
C  -1.61700 16.77900 32.49400
C  -1.18400 17.63900 33.59800
H  -0.94500 16.81400 34.92800
N  -1.95500 19.28600 26.61300
C  -2.05600 20.22200 27.62900
C  -1.67400 21.54600 27.11600
C  -1.65100 21.36400 25.73500
C  -1.90400 19.89000 25.41700
C  -1.58200 22.77700 27.99500
C  -1.39800 22.51600 24.69300
O  -1.48300 22.39400 23.51300
C  -1.21000 23.82500 25.20700
N  -2.74900 17.03600 24.78300
C  -2.58100 18.07200 23.84200
C  -2.77700 17.46700 22.43800
C  -2.40900 15.99000 22.66500
C  -2.60400 15.81400 24.15500
C  -4.21800 17.67900 21.99100
C  -0.95200 15.58900 22.24100
C  0.14000 16.06900 23.13300
N  -2.68600 15.34600 27.07500
C  -2.83600 14.37800 26.14500
C  -3.05700 13.09300 26.78600
C  -3.04900 13.37400 28.19000
C  -2.82000 14.79100 28.30800
C  -3.30400 11.69800 26.19100
C  -3.25600 12.84400 29.53900
O  -3.40700 11.70200 29.97600
C  -3.09200 14.02200 30.50000
C  -1.90700 13.61000 31.33700
O  -0.71500 13.90300 31.19300
O  -2.43400 12.92700 32.40500
C  -1.48500 12.45700 33.39900
H  -2.36100 20.87200 29.65600
H  -2.10300 19.97700 23.24000
H  -2.79400 13.62500 24.18800
H  -3.64600 16.86800 32.11300
H  -2.06000 19.43000 31.76200
H  -3.88000 20.47600 32.04800
H  -4.60600 18.96800 32.52700
H  -4.78300 19.59500 30.82800
H  -0.79300 16.51400 31.83100
H  -2.07700 15.85000 32.83200
H  -1.84800 18.49100 33.74600
H  -0.28600 18.16000 33.26800
H  -1.40900 22.57800 29.05300
H  -2.42300 23.46000 27.88500
H  -0.63000 23.24300 27.73900
H  -0.24300 23.79000 25.70900
H  -2.02000 24.09100 25.88700
H  -1.13400 24.51200 24.36500
H  -2.04100 17.88800 21.75400
H  -3.10400 15.36600 22.10400
H  -4.82900 17.95100 22.85100
H  -4.51300 16.77100 21.46500
H  -4.24500 18.59800 21.40500
H  -0.89300 16.03700 21.25000
H  -0.92000 14.51900 22.03300
H  0.68700 15.19900 23.49800
H  -0.28900 16.58500 23.99100
H  0.73200 16.79100 22.57100
H  -2.36700 11.14700 26.27100
H  -3.66600 11.82200 25.17000
H  -4.10700 11.25500 26.78100
H  -4.00700 14.13500 31.08100
H  -1.12700 11.59700 32.83300
H  -1.97300 12.04800 34.28400
H  -0.72800 13.18500 33.69000
Mg 42.37100 42.20400 26.83400
C  41.56900 44.58400 29.11100
C  43.44900 40.09300 29.39700
C  43.66100 40.01700 24.53900
C  41.92200 44.63100 24.25100
N  42.61600 42.39100 28.95900
C  42.09200 43.41300 29.72000
C  41.99200 43.01600 31.26800
C  42.61400 41.55400 31.29400
C  42.97700 41.30400 29.81100
C  43.71400 41.32100 32.30000
C  40.49900 43.11000 31.72000
C  40.08000 42.23400 32.91600
H  39.38700 42.83600 34.14000
N  43.26000 40.27500 26.93600
C  43.71300 39.67400 28.10000
C  44.35500 38.48200 27.77300
C  44.44100 38.42300 26.33000
C  43.79400 39.63200 25.89800
C  44.78100 37.46100 28.74500
C  45.11900 37.38100 25.32300
O  45.18300 37.52800 24.09100
C  45.86400 36.16700 25.94500
N  42.80800 42.32600 24.69300
C  43.17600 41.22500 23.95300
C  43.09800 41.52800 22.49400
C  42.27800 42.86300 22.40200
C  42.39400 43.39800 23.82700
C  44.45200 41.74500 21.74500
C  40.79100 42.76200 21.93300
C  39.79700 41.87500 22.81400
N  41.78800 44.17500 26.68100
C  41.59000 44.95500 25.59800
C  41.09600 46.29000 26.06100
C  41.06800 46.06500 27.45500
C  41.61000 44.87200 27.74500
C  40.70900 47.45600 25.20900
C  40.52900 46.71800 28.63000
O  39.91900 47.75100 28.83300
C  40.90400 45.77100 29.75900
C  41.71800 46.46700 30.80800
O  42.91900 46.55100 30.82300
O  40.81300 46.87700 31.74900
C  41.47800 47.02300 33.04100
H  43.75200 39.46500 30.23700
H  43.92900 39.31300 23.74800
H  41.67500 45.41900 23.53600
H  42.62400 43.68200 31.85400
H  41.85200 40.81500 31.54000
H  43.50400 40.33100 32.70500
H  43.62100 42.08600 33.07100
H  44.73100 41.36800 31.90900
H  39.79200 43.08400 30.89000
H  40.32000 44.11400 32.10400
H  40.99800 41.71700 33.19300
H  39.47200 41.46200 32.44400
H  44.61400 36.44300 28.39500
H  44.20900 37.34600 29.66600
H  45.83900 37.66500 28.90600
H  46.30800 36.56100 26.85900
H  46.69800 35.85200 25.31700
H  45.17600 35.35500 26.18100
H  42.55100 40.66000 22.12300
H  42.69100 43.52300 21.64000
H  44.82500 42.76200 21.62500
H  44.41200 41.31400 20.74500
H  45.17800 41.17900 22.33000
H  40.83600 42.28500 20.95300
H  40.41100 43.78300 21.90300
H  40.37100 41.36200 23.58500
H  39.25500 41.12000 22.24500
H  38.99800 42.43600 23.30000
H  39.64900 47.69200 25.11400
H  40.89400 47.24600 24.15600
H  41.29100 48.30600 25.56700
H  39.98900 45.44200 30.25200
H  42.30700 47.72900 32.98800
H  41.82700 46.10000 33.50500
H  40.82700 47.52000 33.76100

