158

Mg -2.27400 18.09200 27.72500
C  -2.62500 15.66000 30.20700
C  -3.05100 20.53800 29.92900
C  -2.37200 20.22500 25.11800
C  -1.92100 15.34400 25.30500
N  -2.74100 18.12600 29.82200
C  -2.86200 17.01300 30.65600
C  -3.18200 17.38200 32.11600
C  -3.41400 18.95200 31.92100
C  -3.06700 19.22100 30.47600
C  -4.87600 19.51600 32.34900
C  -2.10200 16.88600 33.12800
C  -1.51100 17.89500 34.08200
H  -1.07400 17.23200 35.43500
N  -2.55400 20.07600 27.54300
C  -2.77800 20.92400 28.66900
C  -2.78700 22.32600 28.12900
C  -2.55900 22.21000 26.65700
C  -2.45600 20.80600 26.36300
C  -3.06500 23.57000 29.03100
C  -2.53900 23.34300 25.68000
O  -2.56600 23.14300 24.45400
C  -2.51200 24.69200 26.22200
N  -2.15500 17.80700 25.52400
C  -2.11200 18.85800 24.72100
C  -1.86200 18.55500 23.28600
C  -1.54500 17.04600 23.39700
C  -1.91000 16.66700 24.81500
C  -2.97900 18.91800 22.30700
C  -0.08200 16.69600 23.07700
C  1.03400 17.35500 23.85100
N  -2.21400 15.89100 27.70600
C  -2.16000 15.00900 26.67600
C  -2.20100 13.68100 27.27600
C  -2.34900 13.83400 28.65500
C  -2.34900 15.23000 28.87600
C  -2.38100 12.41600 26.61500
C  -2.60200 13.12300 29.87500
O  -2.69500 11.89500 30.04700
C  -2.74500 14.37400 30.97600
C  -1.84500 14.05400 32.03700
O  -0.68400 14.36200 32.09100
O  -2.46600 13.31500 33.03500
C  -1.77100 12.88600 34.27000
H  -3.20000 21.31900 30.67700
H  -2.42000 20.91700 24.27500
H  -1.90300 14.52500 24.58300
H  -4.07200 16.83800 32.43300
H  -2.68300 19.50400 32.51100
H  -5.27200 18.86900 33.13100
H  -5.61900 19.56700 31.55300
H  -4.91700 20.53500 32.73200
H  -1.18100 16.54900 32.65200
H  -2.56100 16.00000 33.56600
H  -2.24400 18.56200 34.53600
H  -0.70400 18.46900 33.62600
H  -2.25500 24.30000 29.04900
H  -3.19100 23.35100 30.09100
H  -4.01000 23.95700 28.65000
H  -1.63400 24.89100 26.83700
H  -3.45800 24.94700 26.70000
H  -2.47100 25.41800 25.41000
H  -0.96000 19.15400 23.16100
H  -2.19000 16.36800 22.83800
H  -2.72800 19.67700 21.56600
H  -3.95000 19.15700 22.74100
H  -3.11700 18.01900 21.70600
H  0.00300 17.11700 22.07500
H  -0.07300 15.60600 23.05300
H  0.57500 18.01500 24.58700
H  1.78100 17.83700 23.21900
H  1.43900 16.60500 24.53100
H  -3.43800 12.22600 26.42600
H  -2.04700 11.57000 27.21700
H  -1.81800 12.36900 25.68300
H  -3.77000 14.30200 31.33900
H  -0.91700 12.27100 33.98700
H  -2.48500 12.25000 34.79200
H  -1.43100 13.72200 34.88200
Mg -10.63600 39.59400 40.26400
C  -9.81700 36.32200 39.43100
C  -7.28700 40.45300 39.32700
C  -11.50700 42.78400 40.05300
C  -13.88600 38.54500 40.79900
N  -8.77900 38.52900 39.20000
C  -8.71100 37.18000 39.11400
C  -7.30300 36.78700 38.72700
C  -6.47500 38.04100 38.98600
C  -7.53800 39.09700 39.27000
C  -5.38100 37.89500 40.03800
C  -7.13500 36.14000 37.36400
C  -7.73000 37.02600 36.24500
H  -8.87500 36.40500 35.42900
N  -9.53900 41.33400 39.86900
C  -8.22000 41.49800 39.47300
C  -7.92500 42.87600 39.47300
C  -9.11100 43.62700 39.65900
C  -10.12200 42.58400 39.87200
C  -6.55800 43.36200 39.03600
C  -9.17600 45.15000 39.59000
O  -8.22700 45.80200 39.23200
C  -10.45400 45.87300 39.87800
N  -12.53100 40.59200 40.34700
C  -12.65200 41.91100 40.20200
C  -14.08300 42.33300 39.95700
C  -14.90100 41.00500 40.42600
C  -13.71700 39.96700 40.52300
C  -14.46200 43.57800 40.73300
C  -16.08500 40.54600 39.52200
C  -17.47300 41.14800 39.91100
N  -11.66600 37.85700 40.17800
C  -12.93400 37.57900 40.55900
C  -13.13600 36.14200 40.49700
C  -11.98300 35.53300 39.99000
C  -11.08700 36.70900 39.82900
C  -14.41300 35.45000 40.83400
C  -11.28200 34.26700 39.59000
O  -11.63800 33.08800 39.50900
C  -9.87200 34.79000 39.20700
C  -8.90400 34.05000 40.10200
O  -8.72100 34.32600 41.29400
O  -8.35300 33.01300 39.43100
C  -7.19200 32.36100 40.11600
H  -6.22700 40.68500 39.20700
H  -11.86400 43.81300 39.96500
H  -14.91700 38.35600 41.10400
H  -7.05700 35.96000 39.39300
H  -5.94200 38.33400 38.08100
H  -4.46100 38.02000 39.46500
H  -5.27900 36.92800 40.53000
H  -5.39100 38.65900 40.81500
H  -7.50100 35.11600 37.28400
H  -6.07700 36.31100 37.16300
H  -7.00300 37.33600 35.49500
H  -8.09200 37.94600 36.70500
H  -6.42500 44.17500 39.75000
H  -6.60800 43.67700 37.99400
H  -5.76100 42.63400 39.19300
H  -10.92600 45.66800 40.83900
H  -11.18000 45.71500 39.08100
H  -10.10700 46.90300 39.79000
H  -14.27700 42.50500 38.89800
H  -15.35500 41.10800 41.41100
H  -13.73700 44.00900 41.42400
H  -15.32900 43.44300 41.37900
H  -14.67100 44.38500 40.03100
H  -16.17200 39.46000 39.52900
H  -15.83700 41.05800 38.59300
H  -17.44100 41.86300 40.73400
H  -18.00500 40.21600 40.09900
H  -18.00100 41.66600 39.11100
H  -15.22500 35.83400 40.21500
H  -14.68000 35.57900 41.88300
H  -14.34700 34.40900 40.51800
H  -9.60000 34.45400 38.20600
H  -7.39900 32.13100 41.16100
H  -6.38700 33.08700 40.23500
H  -6.85600 31.45400 39.61400

