158

Mg 26.20200 49.30100 26.38900
C  23.97100 50.68400 28.93400
C  28.29800 48.31700 28.95000
C  28.01700 47.92500 24.12900
C  23.97700 50.60100 24.04400
N  26.09400 49.55400 28.64000
C  25.06400 49.99200 29.45000
C  25.36700 49.86500 30.93400
C  26.80400 49.33300 30.94400
C  27.14800 49.04400 29.38700
C  27.90700 50.25400 31.65600
C  24.30100 48.91100 31.63100
C  24.02200 49.39800 33.04100
H  23.86300 48.31600 34.16100
N  27.99700 48.32900 26.47800
C  28.65500 47.91800 27.60600
C  29.84800 47.09900 27.17200
C  29.86700 47.22300 25.72400
C  28.56300 47.79200 25.39000
C  30.85600 46.60100 28.16200
C  30.91100 46.73500 24.70300
O  30.79700 46.77400 23.50100
C  32.13200 46.11100 25.19700
N  26.18500 49.45800 24.41400
C  26.88500 48.55000 23.70900
C  26.49600 48.42800 22.21200
C  25.32100 49.46800 22.21600
C  25.12500 49.85700 23.70400
C  27.44400 48.54000 20.98500
C  24.11600 48.96000 21.40900
C  23.00800 48.10100 22.12800
N  24.36000 50.40200 26.36900
C  23.62700 50.91300 25.35300
C  22.51700 51.65800 25.89100
C  22.59900 51.54000 27.24800
C  23.74500 50.79800 27.54100
C  21.47700 52.29400 25.09800
C  21.98500 52.05800 28.46400
O  21.10500 52.87400 28.60300
C  22.78300 51.42600 29.65300
C  23.05900 52.48500 30.62200
O  23.89900 53.38600 30.55200
O  22.38100 52.20700 31.78800
C  22.94400 52.90700 32.95700
H  28.98200 47.95400 29.72100
H  28.55000 47.37600 23.35000
H  23.23900 50.88200 23.29000
H  25.39200 50.84000 31.42000
H  26.80200 48.35300 31.42100
H  28.62800 50.46400 30.86700
H  28.30700 49.68100 32.49300
H  27.55700 51.20000 32.06900
H  24.63400 47.87900 31.74100
H  23.39000 48.94100 31.03300
H  23.08200 49.92700 32.88500
H  24.79800 50.08800 33.37200
H  30.70300 45.53000 28.29800
H  30.79500 47.16200 29.09400
H  31.87700 46.83200 27.85600
H  32.69200 45.93900 24.27800
H  31.83300 45.20600 25.72600
H  32.61100 46.90500 25.77100
H  26.07600 47.42500 22.14900
H  25.56600 50.44700 21.80400
H  28.50500 48.60300 21.22600
H  27.15500 49.46100 20.47900
H  27.15200 47.78300 20.25800
H  24.55400 48.41700 20.57100
H  23.60300 49.85400 21.05500
H  22.15800 48.78200 22.16600
H  23.24900 47.86500 23.16400
H  22.78900 47.17400 21.59700
H  21.21400 51.50300 24.39600
H  22.04100 53.12400 24.67200
H  20.62300 52.64400 25.67700
H  22.11900 50.76800 30.21300
H  23.98400 52.62200 33.11700
H  22.41800 52.53700 33.83700
H  22.68900 53.96500 32.91200
Mg -12.53100 15.97100 41.62600
C  -9.38400 14.43400 41.29300
C  -11.15900 18.64900 40.03500
C  -15.57900 17.07800 41.45300
C  -13.79900 12.64100 42.51600
N  -10.51300 16.44300 40.72500
C  -9.38300 15.70600 40.71800
C  -8.24000 16.31700 40.00100
C  -8.69200 17.82500 39.88000
C  -10.20600 17.67400 40.26900
C  -7.97400 18.80300 40.90600
C  -7.91700 15.59100 38.64800
C  -6.42900 15.25700 38.50400
H  -5.83200 15.97900 37.29200
N  -13.22400 17.64600 40.99100
C  -12.55200 18.66500 40.34300
C  -13.42000 19.73100 40.10200
C  -14.70600 19.37700 40.52300
C  -14.53800 17.96400 41.00300
C  -13.10900 20.94400 39.43500
C  -15.94600 20.28600 40.48800
O  -15.88700 21.42500 40.02400
C  -17.26600 19.78100 41.00000
N  -14.42600 14.96600 41.97400
C  -15.51300 15.72900 41.93500
C  -16.78000 14.93600 42.29800
C  -16.21600 13.45000 42.52700
C  -14.72500 13.65900 42.33600
C  -17.44200 15.54700 43.48900
C  -16.76700 12.40100 41.55300
C  -17.14900 11.05900 42.20300
N  -11.79300 14.02100 41.94300
C  -12.39200 12.77800 42.27500
C  -11.33400 11.72800 42.38300
C  -10.14600 12.36200 42.09200
C  -10.53500 13.69300 41.70900
C  -11.51800 10.24400 42.85100
C  -8.71300 12.18300 42.01800
O  -7.96100 11.30400 42.30300
C  -8.10100 13.47100 41.48700
C  -7.10600 13.89200 42.53700
O  -7.33600 13.97900 43.71800
O  -5.86100 14.11300 41.95400
C  -4.87400 14.66100 42.90700
H  -10.82500 19.63400 39.70400
H  -16.57400 17.51100 41.33300
H  -14.05900 11.65500 42.90700
H  -7.32300 16.31900 40.59100
H  -8.53300 18.11500 38.84100
H  -7.20000 18.23900 41.42600
H  -8.65400 19.16900 41.67600
H  -7.53900 19.55700 40.25100
H  -8.17000 16.26100 37.82600
H  -8.61500 14.76300 38.52900
H  -6.26100 14.19000 38.36100
H  -5.86200 15.41900 39.42100
H  -13.29600 21.82900 40.04300
H  -13.85900 21.07400 38.65400
H  -12.17000 20.94900 38.88100
H  -17.69900 19.13100 40.24000
H  -17.84700 20.70300 41.02800
H  -17.19600 19.33900 41.99400
H  -17.49900 14.96800 41.48000
H  -16.42500 13.09200 43.53500
H  -17.30200 16.62600 43.42700
H  -17.05100 15.22000 44.45200
H  -18.52300 15.45100 43.38300
H  -16.06400 12.26800 40.73100
H  -17.73700 12.71200 41.16600
H  -18.19600 10.75700 42.22000
H  -16.90400 11.07100 43.26500
H  -16.44000 10.26500 41.97100
H  -12.12500 10.28400 43.75600
H  -10.59000 9.69300 43.00400
H  -12.16900 9.75900 42.12400
H  -7.67600 13.24100 40.51000
H  -4.03200 13.97200 42.98500
H  -5.20700 14.95100 43.90400
H  -4.55200 15.62100 42.50400

