158

Mg 9.60900 4.87800 27.58500
C  10.73200 3.24500 30.53000
C  7.50100 6.78700 29.59600
C  8.26500 6.26400 24.82300
C  11.35900 2.58700 25.67800
N  9.19400 5.01800 29.78500
C  9.86200 4.36600 30.78000
C  9.65700 4.97600 32.18900
C  8.64400 6.13200 31.85600
C  8.37700 5.97400 30.36200
C  7.39200 6.03200 32.75600
C  10.96400 5.43500 32.79100
C  11.34700 4.79900 34.08100
H  11.67300 5.67400 35.32500
N  8.01500 6.23900 27.30300
C  7.31300 6.94900 28.20500
C  6.47500 7.99000 27.50200
C  6.67900 7.82700 26.12900
C  7.69300 6.72600 25.99500
C  5.50500 9.00500 28.17700
C  6.08900 8.66500 25.01800
O  6.29100 8.50500 23.80100
C  5.14300 9.80300 25.30100
N  9.70300 4.39500 25.47200
C  9.16300 5.24500 24.56700
C  9.79600 4.91200 23.12400
C  10.58100 3.57700 23.43500
C  10.63000 3.57600 25.00600
C  8.81200 4.84400 21.90400
C  11.90500 3.50500 22.77000
C  12.12200 2.48000 21.56900
N  10.83700 3.25400 27.99800
C  11.42300 2.35300 27.09400
C  12.13000 1.27900 27.78400
C  11.94400 1.71200 29.11900
C  11.04100 2.79200 29.23700
C  12.84300 0.08500 27.25900
C  12.34900 1.31800 30.45300
O  13.09300 0.41200 30.84300
C  11.58500 2.31100 31.44900
C  10.79400 1.58100 32.49500
O  9.62300 1.26300 32.38300
O  11.63200 1.11100 33.53300
C  10.88900 0.70300 34.63800
H  6.85800 7.45700 30.17000
H  7.88100 6.67200 23.88500
H  11.92100 1.90500 25.03700
H  9.10000 4.23100 32.75700
H  9.22100 7.05100 31.96500
H  6.46200 5.83600 32.22300
H  7.33400 7.06400 33.10200
H  7.48400 5.50200 33.70400
H  10.94800 6.51300 32.95000
H  11.76400 5.26200 32.07100
H  12.28500 4.35100 33.75300
H  10.65900 3.99800 34.34900
H  5.51900 8.77200 29.24200
H  4.49900 9.06100 27.76200
H  5.84400 10.04100 28.21000
H  4.19200 9.46500 25.71400
H  4.96600 10.34000 24.36900
H  5.64400 10.39300 26.06800
H  10.48500 5.73900 22.95100
H  9.91000 2.76900 23.14400
H  7.84200 4.53100 22.29000
H  9.23400 4.13200 21.19400
H  8.88500 5.87500 21.55900
H  12.65300 3.23800 23.51700
H  12.26600 4.44100 22.34400
H  13.11900 2.15900 21.26600
H  11.75100 2.82800 20.60500
H  11.47100 1.64400 21.82600
H  12.94100 0.01700 26.17600
H  12.24500 -0.72300 27.68000
H  13.84000 0.22600 27.67800
H  12.40400 2.80200 31.97400
H  10.06400 1.40200 34.77400
H  11.54800 0.64700 35.50500
H  10.48000 -0.28500 34.42800
Mg 5.26500 54.96200 41.43200
C  4.92000 51.57000 41.77000
C  8.12600 54.48400 39.54200
C  5.27700 58.16200 40.45000
C  2.01600 55.39300 42.80600
N  6.26700 53.25000 40.59700
C  5.98000 51.96400 40.92700
C  7.09000 51.04100 40.46600
C  8.25500 51.99100 40.02000
C  7.53600 53.32000 40.07400
C  9.55600 52.07400 40.90900
C  6.50800 50.17700 39.23800
C  5.33300 50.72600 38.36300
H  5.44600 51.09600 36.86800
N  6.50800 56.17900 40.14200
C  7.67500 55.80500 39.52300
C  8.34500 56.96800 38.92500
C  7.56300 58.05100 39.40800
C  6.40200 57.51300 40.05200
C  9.66600 56.90800 38.13100
C  8.00900 59.48700 39.24800
O  9.02700 59.77600 38.64600
C  7.33100 60.56100 39.92900
N  3.79500 56.44500 41.40300
C  4.06800 57.75000 41.01300
C  2.98100 58.76800 41.42100
C  1.79000 57.84900 41.90200
C  2.60300 56.50600 42.14300
C  3.29700 59.86400 42.55000
C  0.69200 57.57900 40.82800
C  -0.62600 56.88900 41.30700
N  3.85100 53.78100 42.47100
C  2.60800 54.07200 42.90200
C  1.99100 52.89700 43.41600
C  2.89000 51.82700 43.09900
C  4.02100 52.44000 42.40400
C  0.65000 52.80900 44.03000
C  3.24200 50.38900 43.16800
O  2.72900 49.48300 43.70700
C  4.52400 50.23300 42.33500
C  4.22100 49.18200 41.37400
O  3.35000 49.20400 40.55000
O  4.95100 48.08100 41.64900
C  4.74800 46.87700 40.79700
H  9.08000 54.25400 39.06300
H  5.29700 59.19000 40.08200
H  1.02600 55.60600 43.21400
H  7.49600 50.30000 41.15400
H  8.69700 51.83300 39.03700
H  9.61300 52.88500 41.63500
H  10.46100 52.13400 40.30500
H  9.57200 51.25800 41.63200
H  6.35900 49.15800 39.59500
H  7.27500 50.16900 38.46400
H  5.01700 51.70000 38.73600
H  4.45500 50.09700 38.51200
H  9.38200 57.04400 37.08700
H  10.07700 55.91400 38.30600
H  10.43600 57.53500 38.58200
H  6.40700 60.73500 39.37800
H  7.94900 61.44600 39.77700
H  7.13600 60.27300 40.96300
H  2.76900 59.31700 40.50300
H  1.37400 58.18300 42.85200
H  2.96200 60.84800 42.22100
H  4.34000 59.94000 42.85500
H  2.69900 59.72400 43.45000
H  1.16700 56.83200 40.19200
H  0.48800 58.47800 40.24700
H  -1.37900 57.52600 40.84300
H  -0.73700 56.98900 42.38600
H  -0.76400 55.85700 40.98400
H  0.23000 53.81300 43.97600
H  0.61000 52.46000 45.06200
H  0.00600 52.08700 43.52800
H  5.39500 49.84000 42.85900
H  3.76400 46.47300 41.03200
H  5.58200 46.19000 40.94300
H  4.77000 47.00900 39.71500

