158

Mg 6.32200 54.12400 40.83100
C  6.12300 50.49800 40.72900
C  9.65700 53.83500 40.00800
C  6.30500 57.42600 40.54600
C  2.75700 54.03300 40.83500
N  7.64600 52.35100 40.29200
C  7.42600 50.97800 40.33800
C  8.65700 50.20200 39.97800
C  9.74900 51.23400 40.20100
C  9.01400 52.54900 40.21600
C  10.61200 51.01200 41.48600
C  8.70100 49.41300 38.64700
C  8.80300 50.27800 37.25800
H  7.55000 50.29200 36.38300
N  7.78000 55.39400 40.32100
C  9.13900 55.08600 40.05600
C  9.86000 56.31300 39.84800
C  8.89300 57.37500 40.18300
C  7.60100 56.75500 40.37800
C  11.38800 56.44100 39.56400
C  9.17200 58.84600 40.13700
O  10.32500 59.18100 39.90800
C  8.07600 59.98100 40.31800
N  4.75900 55.50200 40.64400
C  5.03900 56.86700 40.67100
C  3.83000 57.66700 41.07100
C  2.66200 56.53000 40.76900
C  3.46300 55.26900 40.66100
C  3.83600 58.07900 42.60200
C  2.02700 56.82300 39.32100
C  0.55500 57.35200 39.38900
N  4.68100 52.63000 40.97700
C  3.33300 52.77000 40.97800
C  2.69200 51.47500 41.21700
C  3.85600 50.59400 41.14000
C  5.01600 51.34000 40.99800
C  1.22600 51.24000 41.27200
C  4.24100 49.19000 41.23600
O  3.56400 48.19400 41.49300
C  5.70600 49.06600 40.90500
C  5.65300 48.26100 39.69200
O  5.25600 48.70300 38.59700
O  6.06600 47.03900 39.97900
C  5.85900 46.01900 38.93700
H  10.73300 53.65300 39.95600
H  6.17800 58.49600 40.72300
H  1.68500 54.12700 41.02100
H  8.66500 49.51700 40.82600
H  10.47800 51.19300 39.39200
H  11.64600 51.18800 41.19300
H  10.68500 49.99000 41.86000
H  10.30100 51.61300 42.34100
H  7.74800 48.89900 38.52000
H  9.55400 48.73600 38.60900
H  9.65300 49.89900 36.69000
H  8.98300 51.28900 37.62300
H  11.63500 56.90200 38.60800
H  11.87500 55.47500 39.69900
H  11.62900 57.08900 40.40700
H  7.24000 59.90300 39.62300
H  8.70400 60.85100 40.12500
H  7.83100 59.99400 41.38000
H  3.74600 58.55700 40.44800
H  1.90600 56.48300 41.55300
H  3.18900 57.46300 43.22600
H  3.63800 59.15100 42.57700
H  4.88300 57.95400 42.87700
H  2.06200 55.86600 38.80000
H  2.61100 57.50600 38.70500
H  0.38500 58.33100 39.83700
H  -0.11400 56.67400 39.92000
H  0.16800 57.41300 38.37200
H  1.08200 50.60400 40.39900
H  0.70500 52.19600 41.33200
H  0.98900 50.73800 42.20900
H  6.30700 48.59300 41.68200
H  6.60400 45.26600 39.19400
H  6.20400 46.46100 38.00200
H  4.80400 45.75000 38.98600
Mg 9.53000 48.55100 26.43400
C  7.36100 48.46200 29.22900
C  12.07300 49.37500 28.65400
C  11.44100 48.84000 23.74000
C  6.68900 48.32800 24.34300
N  9.62300 48.76100 28.70900
C  8.65000 48.70100 29.63300
C  9.11400 48.99000 31.04200
C  10.56200 49.51000 30.89800
C  10.80000 49.24900 29.27900
C  10.80800 50.96800 31.35400
C  8.94200 47.72800 32.03200
C  9.92500 47.32400 33.08200
H  9.25800 46.66800 34.36600
N  11.46900 49.02300 26.21900
C  12.38300 49.27600 27.29000
C  13.71800 49.45800 26.72300
C  13.60100 49.30700 25.35600
C  12.14600 49.02800 25.00500
C  14.98500 49.73200 27.47900
C  14.74500 49.43700 24.38700
O  14.47700 49.64200 23.23400
C  16.14700 49.22700 24.75200
N  9.13200 48.57700 24.27500
C  10.12200 48.62800 23.39800
C  9.65800 48.22300 22.06500
C  8.07000 48.12400 22.24400
C  7.93300 48.36900 23.70400
C  10.09500 49.09600 20.89700
C  7.58000 46.67200 21.86900
C  6.21800 46.54500 21.19400
N  7.43700 48.32800 26.69100
C  6.40000 48.30200 25.74500
C  5.12500 48.17400 26.36800
C  5.49700 48.25900 27.71300
C  6.90600 48.23900 27.88100
C  3.79300 47.98500 25.66000
C  4.85700 48.31200 29.04300
O  3.69500 48.41400 29.45100
C  6.10300 48.38800 30.03700
C  5.97400 47.11800 30.84500
O  6.64100 46.13200 30.72500
O  4.98600 47.27200 31.75200
C  4.91600 46.21800 32.75500
H  12.93200 49.55500 29.30300
H  12.24400 48.85200 23.00100
H  5.78300 48.27500 23.73600
H  8.46500 49.74900 31.47800
H  11.31900 48.86500 31.34300
H  11.50700 50.85100 32.18200
H  9.85400 51.31000 31.75500
H  11.21000 51.62100 30.57900
H  9.01000 46.89000 31.33800
H  7.96700 47.75600 32.51800
H  10.37700 48.25000 33.43700
H  10.75400 46.67500 32.80100
H  15.56900 48.82500 27.64000
H  14.84200 50.11000 28.49100
H  15.60300 50.46800 26.96500
H  16.81300 48.97400 23.92800
H  16.10100 48.39400 25.45400
H  16.51700 50.14800 25.20200
H  10.07700 47.24700 21.82200
H  7.48300 48.87700 21.71700
H  9.48300 49.96400 20.65200
H  10.00400 48.52900 19.97100
H  11.10300 49.48900 21.03200
H  7.48900 46.05100 22.75900
H  8.40000 46.30900 21.24900
H  5.54600 46.02600 21.87700
H  6.39300 45.93400 20.30800
H  5.75800 47.51800 21.02100
H  3.77700 47.12600 24.98900
H  3.47000 48.84900 25.07900
H  3.00100 47.88700 26.40200
H  5.98300 49.17400 30.78300
H  5.81200 46.26400 33.37300
H  4.75800 45.19200 32.42100
H  4.05100 46.38600 33.39600

