158

Mg 41.75900 9.11100 29.63600
C  43.77600 10.17400 32.27600
C  39.50200 7.83100 32.01000
C  39.98700 7.74200 27.06800
C  44.30900 9.91000 27.41900
N  41.75200 8.76600 31.94000
C  42.51600 9.61600 32.73800
C  41.98000 9.65600 34.21400
C  40.84200 8.52500 34.16000
C  40.62800 8.37900 32.66100
C  41.22500 7.24900 34.95900
C  41.67400 11.18100 34.67800
C  40.92400 11.33300 35.99600
H  41.61700 11.91400 37.23200
N  39.92100 8.05600 29.52800
C  39.16700 7.57000 30.62200
C  38.09900 6.78700 30.08500
C  38.08600 7.01600 28.64200
C  39.36300 7.68500 28.34300
C  37.18200 5.91800 30.97500
C  37.03500 6.72600 27.71100
O  37.12500 6.83200 26.48400
C  35.69100 6.27600 28.16500
N  42.18800 8.76300 27.61700
C  41.28000 8.15800 26.78500
C  41.78900 8.02200 25.28900
C  43.15200 8.77900 25.34400
C  43.23800 9.15800 26.88500
C  41.90100 6.46900 24.83800
C  43.31200 9.98900 24.37800
C  42.54400 11.30700 24.52600
N  43.65500 9.89400 29.77400
C  44.51200 10.25200 28.74500
C  45.67400 10.87200 29.35100
C  45.39000 10.90900 30.74500
C  44.14400 10.26200 30.96900
C  46.95400 11.26800 28.67000
C  45.86800 11.44500 32.04600
O  46.85200 12.11600 32.37300
C  44.78500 10.97800 33.07900
C  45.33900 10.22200 34.21000
O  45.91600 9.15600 34.19400
O  45.28600 10.97200 35.35600
C  46.01600 10.50500 36.49000
H  38.64300 7.60200 32.64400
H  39.38700 7.24400 26.30300
H  45.11100 10.19400 26.73400
H  42.70500 9.21900 34.90000
H  39.92200 9.00200 34.49700
H  42.08100 7.43800 35.60800
H  41.57800 6.38900 34.39000
H  40.39400 6.87000 35.55300
H  41.05300 11.52600 33.85200
H  42.53000 11.85300 34.72200
H  40.50600 10.36300 36.26700
H  40.04300 11.92900 35.75700
H  37.75300 5.45700 31.78100
H  36.77300 5.12100 30.35500
H  36.31400 6.35900 31.46600
H  35.39700 6.79800 29.07500
H  35.78600 5.22800 28.45200
H  34.98900 6.44000 27.34700
H  41.11600 8.49800 24.57700
H  43.95800 8.08600 25.10100
H  42.93800 6.17000 24.68800
H  41.20400 6.35100 24.00800
H  41.57200 5.74200 25.58200
H  42.88000 9.54600 23.48000
H  44.34500 10.32100 24.28100
H  41.92300 11.31200 25.42200
H  41.87100 11.44800 23.68000
H  43.21700 12.15900 24.62000
H  47.75200 10.74000 29.19200
H  47.19600 12.32100 28.81400
H  47.10900 10.87600 27.66400
H  44.33900 11.87500 33.50800
H  46.97200 10.04600 36.23800
H  45.40100 9.84100 37.09600
H  46.07000 11.44200 37.04400
Mg 55.30500 23.42300 45.10900
C  53.16700 25.98800 44.18600
C  53.40700 21.14500 43.61400
C  58.02000 21.31800 45.13300
C  57.50100 25.95500 46.39600
N  53.44800 23.57000 43.99100
C  52.65000 24.75700 43.79500
C  51.31800 24.29400 43.12400
C  51.29800 22.75500 43.34300
C  52.77500 22.41000 43.66600
C  50.29400 22.13100 44.40500
C  51.21000 24.74800 41.59400
C  49.74400 25.05300 41.11700
H  49.23600 24.39900 39.77300
N  55.68700 21.51000 44.42500
C  54.71200 20.76300 43.89100
C  55.26900 19.45800 43.62200
C  56.63000 19.53100 43.98700
C  56.82900 20.85200 44.49900
C  54.49300 18.40300 42.74400
C  57.52800 18.30100 43.77400
O  57.08000 17.25900 43.40700
C  58.96300 18.37500 43.93300
N  57.41000 23.49700 45.81300
C  58.34300 22.47500 45.74500
C  59.65200 22.86600 46.52800
C  59.47300 24.39600 46.78700
C  58.02100 24.69400 46.30300
C  59.81400 22.03200 47.77400
C  60.62600 25.28100 46.34500
C  60.48300 25.85500 44.94200
N  55.38900 25.53400 45.37600
C  56.30700 26.37400 45.91800
C  55.88000 27.73500 45.88600
C  54.61800 27.66700 45.21100
C  54.37400 26.27300 44.87000
C  56.74800 28.99700 46.19300
C  53.48600 28.49100 44.69100
O  53.26200 29.69900 44.60100
C  52.55700 27.43500 43.98600
C  52.50200 27.81700 42.54500
O  53.48900 27.81000 41.80100
O  51.20400 28.01700 42.13900
C  51.19400 28.43000 40.72400
H  52.75500 20.38100 43.18500
H  58.77300 20.56600 45.37700
H  58.09300 26.72600 46.89400
H  50.59400 24.86400 43.70600
H  51.03800 22.26800 42.40300
H  50.87300 21.39300 44.96000
H  49.46600 21.57200 43.96900
H  49.87800 22.87100 45.08900
H  51.53500 23.94800 40.92900
H  51.88100 25.55800 41.30600
H  49.60900 26.11800 40.93300
H  48.94100 24.80300 41.81100
H  55.16000 17.83900 42.09300
H  53.67900 18.87500 42.19400
H  54.04600 17.78500 43.52400
H  59.31300 19.34800 43.58700
H  59.43300 17.51800 43.45000
H  59.27600 18.31000 44.97500
H  60.51300 22.67900 45.88700
H  59.42800 24.64900 47.84600
H  60.78300 21.53400 47.74500
H  58.99200 21.32300 47.87200
H  59.75200 22.61200 48.69500
H  61.61700 24.82700 46.34300
H  60.60700 26.16000 46.98900
H  59.79200 25.24200 44.36300
H  61.48800 25.80900 44.52200
H  60.12000 26.88000 44.87000
H  57.61900 28.93200 45.54200
H  57.06900 28.91500 47.23200
H  56.18500 29.89600 45.94300
H  51.55900 27.67100 44.35600
H  52.13300 28.87500 40.39300
H  50.29900 29.05100 40.73200
H  50.94300 27.62200 40.03700

