158

Mg 50.63600 45.41400 42.49500
C  47.60900 47.15300 41.65700
C  49.34300 42.55400 41.37700
C  53.84600 44.29500 42.17900
C  51.99000 48.62800 43.36800
N  48.72600 44.96200 41.51500
C  47.62400 45.71100 41.37500
C  46.45900 44.88200 40.79800
C  46.92200 43.40500 41.12300
C  48.42900 43.61600 41.27500
C  46.14400 42.73800 42.34400
C  46.33500 45.13900 39.25600
C  44.80700 45.08300 38.72500
H  44.37200 43.77100 38.22400
N  51.47300 43.67100 41.94100
C  50.74100 42.57700 41.60900
C  51.66400 41.43200 41.53400
C  52.94900 41.91000 41.59200
C  52.79200 43.36200 41.87700
C  51.23700 39.98900 41.32900
C  54.23800 41.11100 41.35300
O  54.25500 39.91100 41.12400
C  55.61400 41.79400 41.23200
N  52.60300 46.37400 42.67400
C  53.76200 45.62900 42.55900
C  55.04100 46.44200 43.02000
C  54.38300 47.75800 43.52700
C  52.91400 47.57800 43.21600
C  55.93100 45.71600 44.01700
C  54.99500 49.05300 42.92800
C  55.18400 50.21500 43.92700
N  50.02100 47.46500 42.44400
C  50.63100 48.61800 42.97900
C  49.71400 49.73800 42.83000
C  48.58300 49.21100 42.21700
C  48.73200 47.81900 42.14800
C  50.08200 51.16800 43.05100
C  47.20100 49.51400 41.87700
O  46.66600 50.64100 41.88100
C  46.51300 48.18900 41.40200
C  45.25400 47.74700 42.03800
O  45.11300 46.93600 42.94000
O  44.24500 48.42600 41.37100
C  42.88300 47.98500 41.49100
H  48.96000 41.59700 41.01600
H  54.87800 43.96100 42.30700
H  52.37900 49.58500 43.72400
H  45.52700 45.24300 41.23400
H  46.61100 42.75400 40.30600
H  45.51100 42.05300 41.77900
H  45.51100 43.45900 42.86200
H  46.88900 42.27700 42.99200
H  46.89600 44.35300 38.75000
H  46.80000 46.06800 38.92600
H  44.89500 45.90400 38.01300
H  44.16400 45.52800 39.48400
H  51.83000 39.58600 40.50700
H  50.15600 39.92100 41.21200
H  51.50800 39.40900 42.21100
H  55.96000 42.10700 42.21700
H  55.46900 42.52800 40.43900
H  56.35600 41.07500 40.88600
H  55.53900 46.60300 42.06400
H  54.45500 47.76600 44.61500
H  56.09100 46.39600 44.85400
H  56.90200 45.37000 43.66400
H  55.39300 44.86800 44.44100
H  54.34400 49.32700 42.09700
H  55.96500 48.76600 42.52300
H  54.36900 50.92800 43.80300
H  56.15600 50.69700 43.82100
H  55.13700 49.70700 44.89000
H  50.68200 51.49700 42.20300
H  50.70000 51.35700 43.92900
H  49.21700 51.83200 43.08300
H  46.32700 48.27500 40.33200
H  42.38600 48.27800 40.56600
H  42.46800 48.33900 42.43500
H  42.85300 46.89800 41.56500
Mg -11.49100 17.32700 41.06500
C  -7.93800 16.88600 41.01700
C  -10.95100 20.77100 40.51100
C  -14.66300 17.72900 40.06600
C  -11.76600 13.82400 40.70900
N  -9.66000 18.64200 40.94200
C  -8.32000 18.24300 40.79500
C  -7.31600 19.45000 40.54900
C  -8.33100 20.65200 40.80000
C  -9.78300 19.99500 40.83500
C  -8.12500 21.46100 42.11300
C  -6.73700 19.36300 39.06800
C  -5.16600 19.03600 38.91200
H  -4.85500 18.00900 37.78200
N  -12.68200 19.00900 40.38600
C  -12.29500 20.32000 40.32900
C  -13.41600 21.17000 39.90900
C  -14.63000 20.29300 39.93400
C  -14.01700 18.98200 40.17100
C  -13.39200 22.56700 39.47100
C  -16.02000 20.72100 39.71400
O  -16.26800 21.91900 39.64000
C  -17.26800 19.84400 39.70200
N  -12.97800 15.92100 40.54100
C  -14.20400 16.37000 40.17300
C  -15.24700 15.26000 39.91700
C  -14.25400 14.08700 39.83600
C  -12.91800 14.63000 40.41600
C  -16.36800 14.96400 40.95200
C  -14.04700 13.51600 38.43100
C  -14.98800 12.35200 37.92000
N  -10.20100 15.66200 41.16100
C  -10.47400 14.33300 41.01900
C  -9.21200 13.55800 41.18800
C  -8.19400 14.56900 41.16600
C  -8.84400 15.84300 41.09200
C  -9.16400 12.07900 41.08400
C  -6.72000 14.76100 41.03500
O  -5.91300 13.89400 40.99800
C  -6.54000 16.29800 40.95500
C  -5.68100 16.69100 42.15800
O  -4.61100 16.09800 42.54300
O  -6.24600 17.65900 42.96400
C  -5.67600 18.04000 44.20000
H  -10.72800 21.82400 40.32600
H  -15.71000 17.75300 39.75700
H  -11.83000 12.75200 40.51400
H  -6.45100 19.41900 41.21100
H  -8.34900 21.38600 39.99500
H  -9.02900 21.23800 42.68000
H  -7.97700 22.52500 41.92800
H  -7.30500 21.00700 42.67000
H  -6.90400 20.40400 38.78800
H  -7.21400 18.56300 38.50300
H  -4.78100 18.70900 39.87800
H  -4.65000 19.97200 38.70200
H  -14.14200 22.71000 38.69300
H  -12.39300 22.80500 39.10500
H  -13.50100 23.22100 40.33600
H  -17.06500 19.01600 39.02400
H  -18.12600 20.36500 39.27800
H  -17.35000 19.55600 40.75000
H  -15.61600 15.49700 38.91900
H  -14.58100 13.27900 40.49000
H  -15.99800 15.48700 41.83400
H  -16.38600 13.89600 41.16800
H  -17.34600 15.27800 40.58600
H  -13.05500 13.06600 38.37700
H  -14.10200 14.34700 37.72700
H  -14.43500 11.56600 37.40600
H  -15.66300 12.79100 37.18400
H  -15.63300 11.99000 38.72100
H  -8.28100 11.79200 41.65500
H  -9.07500 11.77600 40.04100
H  -9.98300 11.49200 41.50000
H  -6.06700 16.66700 40.04500
H  -4.58800 18.04600 44.13300
H  -5.86000 17.34800 45.02100
H  -6.12300 18.98900 44.49900

