158

Mg 2.40600 -1.98800 44.83800
C  5.62200 -1.30100 44.46100
C  1.55100 0.74600 42.89700
C  -0.90800 -3.08100 44.73600
C  3.23700 -4.92100 46.55400
N  3.46400 -0.61200 43.69100
C  4.82300 -0.53400 43.63200
C  5.29400 0.62500 42.76100
C  4.00500 1.51100 42.70300
C  2.89600 0.51200 43.15000
C  4.02200 2.86300 43.51700
C  5.99500 0.14300 41.47500
C  7.37300 0.88100 41.18700
H  7.49000 1.94300 40.08400
N  0.61000 -1.34200 43.75900
C  0.47400 -0.11400 43.10800
C  -0.88700 0.05400 42.72300
C  -1.63300 -1.02100 43.24800
C  -0.65800 -1.91100 43.96700
C  -1.28500 1.26200 41.86900
C  -3.14000 -1.15700 43.17400
O  -3.82500 -0.36100 42.55900
C  -3.95300 -2.23400 43.89700
N  1.32500 -3.77000 45.53800
C  0.00300 -3.97800 45.37900
C  -0.47700 -5.28400 46.09000
C  0.80800 -5.77300 46.79700
C  1.84800 -4.78700 46.22400
C  -1.65900 -5.15000 47.01500
C  1.15200 -7.30500 46.59300
C  1.74400 -8.16800 47.77200
N  4.14800 -2.96700 45.45800
C  4.35100 -4.11300 46.17000
C  5.77900 -4.20600 46.50000
C  6.35300 -3.06400 45.91100
C  5.27900 -2.40400 45.19600
C  6.51500 -5.35900 47.13700
C  7.54900 -2.26400 45.77000
O  8.64200 -2.43700 46.26000
C  7.13400 -1.07300 44.76800
C  7.38800 0.24600 45.42800
O  6.77700 0.74600 46.42700
O  8.40400 0.95700 44.76600
C  8.49100 2.44400 45.07200
H  1.39600 1.71600 42.42000
H  -1.92400 -3.47800 44.70000
H  3.56700 -5.81400 47.08900
H  5.99100 1.15800 43.40800
H  3.89000 1.77300 41.65100
H  4.33100 3.56200 42.74100
H  4.69800 2.66000 44.34800
H  3.04900 3.13900 43.92400
H  5.24500 0.35300 40.71300
H  6.26200 -0.91400 41.50300
H  7.98200 0.13600 40.67400
H  7.87600 1.24200 42.08500
H  -0.51500 2.03000 41.80900
H  -2.27000 1.59200 42.19800
H  -1.43700 0.77700 40.90500
H  -4.96300 -1.94000 43.61100
H  -3.86100 -2.20000 44.98200
H  -3.76100 -3.23500 43.50900
H  -0.69000 -6.09900 45.39900
H  0.62200 -5.54100 47.84600
H  -2.13700 -4.18900 46.82300
H  -1.51600 -5.30800 48.08400
H  -2.40900 -5.88500 46.72300
H  1.96500 -7.19300 45.87600
H  0.22800 -7.81300 46.31300
H  0.92500 -8.69700 48.25900
H  2.34800 -7.59700 48.47700
H  2.35900 -8.93800 47.30500
H  6.32300 -6.26500 46.56300
H  6.11300 -5.52900 48.13600
H  7.58900 -5.17500 47.11500
H  7.55100 -1.02200 43.76200
H  7.68900 2.85200 45.68700
H  8.52700 2.88600 44.07600
H  9.44300 2.71000 45.53100
Mg 25.87800 1.15500 29.26200
C  27.83200 0.75000 32.13100
C  23.14000 1.55800 31.26600
C  24.13500 1.37600 26.43800
C  28.78600 0.22300 27.40800
N  25.58800 0.97400 31.51800
C  26.55300 1.04700 32.44600
C  25.96200 1.30700 33.82700
C  24.40900 1.33500 33.54800
C  24.33900 1.29100 32.03700
C  23.57300 0.21000 34.30200
C  26.45400 2.58100 34.50400
C  26.91600 2.51600 35.99000
H  26.37100 3.61700 36.97700
N  23.92500 1.39200 28.89400
C  22.88800 1.59000 29.81600
C  21.61200 1.84500 29.15800
C  21.87200 1.75600 27.75700
C  23.35600 1.51900 27.63200
C  20.37400 2.15800 29.98700
C  20.92400 1.87600 26.59600
O  21.29000 1.65300 25.44200
C  19.47100 2.19500 26.73300
N  26.41400 0.78500 27.23700
C  25.49200 1.01300 26.22800
C  26.12600 0.82000 24.91300
C  27.64200 0.62700 25.22100
C  27.63300 0.49900 26.71700
C  25.53000 -0.33500 23.98800
C  28.64100 1.78000 24.73900
C  28.48600 3.16800 25.29100
N  27.86200 0.50600 29.60600
C  28.89900 0.21200 28.76100
C  30.12300 0.07700 29.53300
C  29.73000 0.37400 30.85100
C  28.33800 0.52500 30.82600
C  31.47400 -0.23000 29.06900
C  30.25300 0.61100 32.17700
O  31.41300 0.57000 32.60000
C  29.05500 0.81800 33.07000
C  28.98600 -0.15800 34.16200
O  28.83600 -1.36900 34.03700
O  29.12700 0.53700 35.33700
C  29.44400 -0.31600 36.47400
H  22.26400 1.75500 31.88700
H  23.60200 1.48300 25.49000
H  29.66100 0.01300 26.78900
H  26.16500 0.42100 34.42800
H  24.05600 2.31700 33.86300
H  23.07000 -0.42400 33.57300
H  22.78800 0.65600 34.91200
H  24.20600 -0.39500 34.95100
H  25.61300 3.27300 34.50200
H  27.19100 3.02100 33.83200
H  27.99500 2.65200 35.91000
H  26.88300 1.58600 36.55600
H  20.32700 3.22500 30.20800
H  20.42400 1.66700 30.95900
H  19.48100 1.92800 29.40500
H  18.88500 1.95800 25.84600
H  19.18300 3.13800 27.19900
H  19.20800 1.42100 27.45300
H  26.04000 1.75600 24.36100
H  28.01500 -0.38500 25.07000
H  24.96500 -0.99800 24.64300
H  26.34500 -0.86400 23.49300
H  24.84500 0.11300 23.26700
H  28.50500 1.83100 23.65900
H  29.61700 1.30000 24.81800
H  27.81300 3.17700 26.14900
H  28.20500 3.94600 24.58100
H  29.41800 3.51900 25.73400
H  31.44900 -1.29900 28.85500
H  32.27000 -0.09900 29.80200
H  31.68900 0.36400 28.18100
H  29.22000 1.80700 33.49900
H  28.65000 -0.37100 37.21800
H  30.21800 0.05500 37.14500
H  29.74500 -1.33100 36.21500

