158

Mg 47.07100 24.47200 28.61700
C  47.47500 26.79100 31.19400
C  46.27200 22.06800 30.91600
C  47.55800 22.19500 26.18400
C  48.62900 26.85400 26.33200
N  46.86100 24.46700 30.82400
C  47.09100 25.51100 31.67600
C  46.75700 25.12700 33.12900
C  46.42100 23.61800 33.04100
C  46.52300 23.35200 31.54200
C  47.20700 22.69400 33.95100
C  45.59300 25.96500 33.78600
C  45.72100 26.65500 35.20400
H  44.55300 26.52300 36.24400
N  46.62000 22.55000 28.51700
C  46.25100 21.71500 29.55300
C  46.04500 20.43100 29.01800
C  46.46800 20.39500 27.67000
C  46.90700 21.79000 27.40500
C  45.55300 19.36300 29.89200
C  46.63500 19.27100 26.74800
O  46.96000 19.46200 25.56100
C  46.52500 17.84700 27.22200
N  47.88400 24.53300 26.56200
C  47.98200 23.42300 25.76800
C  48.63100 23.71500 24.44700
C  48.49800 25.27100 24.37700
C  48.39800 25.59900 25.88300
C  50.18200 23.19200 24.46800
C  47.09900 25.61700 23.57100
C  46.45600 27.05300 23.71400
N  47.89900 26.40200 28.71300
C  48.50000 27.26000 27.71700
C  48.75400 28.48800 28.27600
C  48.38900 28.30800 29.62500
C  47.83100 27.08500 29.87200
C  49.12500 29.78800 27.48200
C  48.45600 29.01800 30.88500
O  48.93300 30.08700 31.16900
C  47.84500 28.03200 31.96800
C  48.90400 27.72000 33.05300
O  49.99600 27.26500 32.77300
O  48.49600 28.06800 34.38200
C  49.35900 27.78600 35.55600
H  46.01100 21.27400 31.61900
H  47.76000 21.49300 25.37300
H  49.13800 27.48100 25.59600
H  47.68700 25.28200 33.67800
H  45.38600 23.34000 33.24200
H  47.88100 22.03300 33.40800
H  46.49400 22.16000 34.58000
H  47.87700 23.24700 34.60900
H  44.67300 25.40200 33.94300
H  45.25800 26.74400 33.10100
H  45.91700 27.70700 34.99700
H  46.58100 26.21200 35.70600
H  44.95600 18.74700 29.21900
H  44.93200 19.62800 30.74800
H  46.44200 18.79100 30.15700
H  47.28500 17.67300 27.98300
H  46.74000 17.24500 26.33800
H  45.50600 17.64700 27.55400
H  48.02000 23.20100 23.70600
H  49.24800 25.79300 23.78300
H  50.64800 23.16200 25.45300
H  50.81100 23.85000 23.86900
H  50.18400 22.16400 24.10500
H  46.33300 24.89900 23.86400
H  47.24500 25.46900 22.50100
H  45.53900 26.91000 24.28600
H  46.15300 27.57900 22.80900
H  47.23300 27.64200 24.20200
H  48.41900 29.97700 26.67300
H  50.03900 29.55000 26.93600
H  49.25200 30.69500 28.07200
H  47.05700 28.59400 32.47000
H  49.92900 26.85700 35.55000
H  48.74100 27.66500 36.44600
H  50.06800 28.61500 35.54200
Mg 47.00000 34.15200 27.51800
C  45.48700 32.41600 30.02400
C  47.39700 36.91500 29.74200
C  48.01300 35.93300 24.99800
C  46.48200 31.46500 25.33700
N  46.53900 34.58900 29.64000
C  46.00900 33.66100 30.50500
C  46.11100 34.23700 31.96900
C  46.35700 35.79900 31.70300
C  46.79500 35.77700 30.22100
C  45.21000 36.70500 32.00400
C  47.26700 33.58100 32.69800
C  47.37500 33.76300 34.29900
H  46.38600 34.80600 34.92300
N  47.60400 36.16800 27.44700
C  47.71100 37.12100 28.41400
C  48.26200 38.29900 27.79000
C  48.41400 38.08800 26.39500
C  48.01200 36.70300 26.23900
C  48.61200 39.46100 28.60900
C  48.93800 39.07200 25.35700
O  48.98100 38.81200 24.14200
C  49.25300 40.54300 25.73800
N  47.19900 33.65500 25.45600
C  47.61700 34.65800 24.67600
C  47.89900 34.15900 23.18300
C  47.54800 32.73400 23.26900
C  47.05500 32.57500 24.78300
C  46.98000 34.91300 22.10000
C  48.66400 31.64500 22.91700
C  48.16100 30.24000 22.58200
N  46.14900 32.32800 27.65300
C  46.01700 31.30700 26.71700
C  45.38500 30.15500 27.28800
C  45.12700 30.57500 28.62300
C  45.60100 31.89300 28.73900
C  45.19700 28.79200 26.71100
C  44.62600 30.11100 29.90000
O  44.28100 29.01200 30.33900
C  44.56000 31.47800 30.71800
C  44.77700 31.16700 32.24500
O  45.80500 30.72600 32.79300
O  43.64400 31.53500 32.82900
C  43.53200 31.34900 34.22000
H  47.57200 37.68300 30.49900
H  48.42600 36.42100 24.11300
H  46.34300 30.55900 24.74300
H  45.18700 33.97600 32.48400
H  47.16800 36.07800 32.37600
H  45.35200 37.11900 33.00200
H  44.26100 36.19800 31.82900
H  45.22000 37.57300 31.34400
H  48.08000 34.15100 32.24900
H  47.35300 32.51600 32.48300
H  48.40600 34.04600 34.51200
H  47.05900 32.85900 34.82000
H  48.29600 40.43300 28.23100
H  49.69600 39.49800 28.71600
H  48.15900 39.51500 29.59900
H  48.34900 40.91500 26.22000
H  49.33600 41.06400 24.78400
H  50.17200 40.73200 26.29300
H  48.92100 34.40700 22.89600
H  46.73600 32.43700 22.60500
H  47.59000 35.42700 21.35800
H  46.40700 35.73800 22.52400
H  46.32900 34.23700 21.54500
H  49.28200 31.52400 23.80600
H  49.35500 32.15400 22.24500
H  48.71700 29.49500 23.15100
H  48.40800 29.97600 21.55400
H  47.08000 30.13300 22.66900
H  46.06700 28.16700 26.91300
H  45.09900 28.88800 25.62900
H  44.22600 28.34800 26.93200
H  43.55100 31.87600 30.62100
H  42.60400 30.80200 34.38400
H  43.47000 32.31500 34.72200
H  44.32400 30.73800 34.65300

