158

Mg -1.30800 17.71500 25.98100
C  -1.92500 15.73400 28.60800
C  -2.03500 20.44700 28.05500
C  -0.76200 19.82300 23.41900
C  -1.40300 15.02700 23.87100
N  -1.79900 18.00400 28.12800
C  -1.89000 17.03900 29.03900
C  -2.18000 17.58000 30.43300
C  -2.57900 19.11600 30.14900
C  -2.14200 19.19800 28.68000
C  -4.09200 19.40200 30.22900
C  -1.09000 17.41600 31.41700
C  -1.50300 16.81400 32.76400
H  -0.23000 16.31300 33.51300
N  -1.17700 19.76400 25.81600
C  -1.55800 20.70900 26.76000
C  -1.36000 22.03100 26.20300
C  -0.82100 21.91600 24.90400
C  -0.82700 20.44300 24.66700
C  -1.61900 23.33400 26.94700
C  -0.44200 22.98300 23.92600
O  0.03600 22.75900 22.82600
C  -0.56900 24.39900 24.27300
N  -1.26100 17.44300 23.88900
C  -0.98100 18.45800 23.06500
C  -0.85200 17.89700 21.55900
C  -0.71600 16.34900 21.78900
C  -1.14500 16.23800 23.28700
C  -1.95300 18.36300 20.57400
C  0.62900 15.68200 21.35900
C  1.72000 15.70200 22.42200
N  -1.61000 15.76300 26.15400
C  -1.65700 14.77900 25.19600
C  -1.85800 13.52400 25.87200
C  -1.92200 13.84700 27.21800
C  -1.86400 15.20400 27.29700
C  -1.96300 12.22200 25.19500
C  -2.07000 13.31200 28.47000
O  -2.17500 12.07500 28.72600
C  -2.31300 14.50400 29.40600
C  -1.64700 14.12200 30.63500
O  -0.47400 14.19600 30.90000
O  -2.63200 13.50800 31.43300
C  -2.19100 12.95200 32.69300
H  -2.29900 21.29000 28.69600
H  -0.72400 20.52100 22.58000
H  -1.22100 14.16300 23.22900
H  -2.98300 16.95300 30.82000
H  -2.11000 19.81400 30.84200
H  -4.38400 20.25500 29.61600
H  -4.40100 19.61700 31.25200
H  -4.62700 18.56000 29.79000
H  -0.66300 18.38400 31.67600
H  -0.26800 16.84100 30.99100
H  -2.28000 16.07200 32.58400
H  -1.89900 17.66500 33.31900
H  -0.70700 23.89300 27.16100
H  -2.14900 23.17500 27.88600
H  -2.29800 23.95600 26.36400
H  0.03400 24.46200 25.17800
H  -1.59600 24.74500 24.38300
H  -0.15200 25.04400 23.50000
H  0.14400 18.16000 21.20200
H  -1.51400 15.78500 21.30500
H  -2.57000 18.95400 21.25100
H  -2.60600 17.58800 20.17100
H  -1.54500 19.04600 19.82900
H  1.16400 16.05600 20.48600
H  0.44900 14.65400 21.04500
H  1.56900 16.42600 23.22200
H  2.67100 15.94100 21.94600
H  1.80800 14.69500 22.83200
H  -1.66800 11.41600 25.86700
H  -1.32400 12.32700 24.31800
H  -2.98800 12.06900 24.85500
H  -3.38400 14.62200 29.57500
H  -3.05300 12.45000 33.13400
H  -1.86100 13.82200 33.26100
H  -1.29600 12.33100 32.66000
Mg 46.51500 25.16300 28.70500
C  47.60000 27.50400 31.08200
C  45.67800 23.10900 31.25600
C  45.97500 22.75000 26.42400
C  47.97900 27.11800 26.18500
N  46.55700 25.37800 30.85700
C  46.87700 26.45000 31.67800
C  46.56700 26.22200 33.13100
C  46.01800 24.73600 33.17300
C  46.09600 24.36700 31.65200
C  46.67600 23.79500 34.16100
C  45.68500 27.40400 33.74200
C  46.16900 28.01500 35.05900
H  45.09500 28.27200 36.20400
N  45.83200 23.14500 28.81300
C  45.56100 22.53700 30.00800
C  45.06800 21.17800 29.60700
C  45.20300 21.00400 28.18300
C  45.71100 22.30600 27.72700
C  44.55000 20.14700 30.60400
C  44.88600 19.87100 27.33700
O  44.93100 19.89300 26.11300
C  44.56700 18.52400 27.97200
N  46.99200 24.94700 26.62600
C  46.47000 23.91000 25.89400
C  46.59200 24.22100 24.40500
C  47.01600 25.68800 24.38300
C  47.42000 25.93500 25.78500
C  47.50100 23.26100 23.60300
C  45.86600 26.68300 23.94000
C  46.26200 27.55900 22.74800
N  47.51500 26.95700 28.59700
C  48.03500 27.63000 27.48200
C  48.68000 28.85700 27.97900
C  48.51500 28.79700 29.37000
C  47.79500 27.71700 29.68300
C  49.47400 29.79500 27.17400
C  48.86300 29.42100 30.54500
O  49.64300 30.38200 30.71700
C  48.23600 28.73300 31.74100
C  49.33800 28.24200 32.63700
O  50.33000 27.60300 32.29200
O  49.12300 28.67500 33.88900
C  50.12300 28.43800 35.02400
H  45.30200 22.52000 32.09500
H  45.66400 22.04200 25.65300
H  48.27200 27.90600 25.48800
H  47.44400 26.24000 33.77800
H  44.96200 24.93100 33.35600
H  46.89200 24.48300 34.97800
H  47.59900 23.43300 33.70800
H  46.07400 22.94400 34.47800
H  44.68600 27.02700 33.95900
H  45.48000 28.09500 32.92400
H  46.38000 29.03100 34.72600
H  47.06500 27.56200 35.48300
H  43.52900 19.77100 30.55700
H  44.57400 20.42400 31.65800
H  45.16000 19.26900 30.39100
H  43.74400 18.67000 28.67100
H  45.43100 18.18300 28.54300
H  44.42600 17.68800 27.28600
H  45.61200 24.13900 23.93500
H  47.93900 25.91500 23.84900
H  46.95600 22.69000 22.85100
H  47.90600 22.55400 24.32800
H  48.22600 23.86000 23.05200
H  45.67500 27.32500 24.79900
H  44.90900 26.20300 23.73600
H  45.63600 27.32300 21.88800
H  47.31500 27.37600 22.53400
H  46.11700 28.58200 23.09600
H  49.12400 30.04600 26.17300
H  50.43300 29.31700 26.97100
H  49.54700 30.72300 27.74200
H  47.60200 29.44500 32.26800
H  49.75500 28.75900 35.99800
H  51.04500 28.98600 34.82900
H  50.33900 27.39600 35.26100

