158

Mg 41.85200 40.74300 26.51800
C  41.05200 43.16400 29.11600
C  43.04500 38.78500 28.98400
C  42.56300 38.64900 24.06000
C  41.33600 43.34000 24.17800
N  41.93300 41.02700 28.77800
C  41.43400 41.92800 29.64100
C  41.42800 41.46800 31.08100
C  42.30100 40.22300 31.03000
C  42.40600 39.93000 29.47600
C  43.71600 40.32900 31.69000
C  40.00300 41.35700 31.71200
C  39.87600 42.12500 33.07700
H  38.92600 41.59400 34.17100
N  42.59600 38.97900 26.50600
C  43.20500 38.36000 27.62500
C  43.68100 37.10900 27.24000
C  43.33200 36.93900 25.88200
C  42.78500 38.17100 25.38600
C  44.35600 36.15600 28.22100
C  43.53800 35.73400 24.89800
O  43.23700 35.76500 23.74100
C  44.36000 34.47800 25.43800
N  42.13000 41.07300 24.43700
C  42.31900 39.95900 23.64000
C  42.24900 40.36100 22.19900
C  41.78000 41.83600 22.20500
C  41.76000 42.13100 23.73400
C  43.49700 40.14400 21.32600
C  40.35300 42.13500 21.55700
C  40.08500 43.64800 20.98000
N  41.36300 42.83100 26.52200
C  41.16900 43.67800 25.52800
C  40.79800 44.96900 26.08700
C  40.72000 44.77500 27.45900
C  41.12000 43.46900 27.75100
C  40.44600 46.15700 25.31100
C  40.29600 45.43100 28.67100
O  39.87800 46.52600 28.75700
C  40.52900 44.41700 29.77300
C  41.57500 44.94300 30.71700
O  42.76900 45.06000 30.39400
O  41.05100 45.14000 32.01200
C  42.03900 45.55800 33.04400
H  43.28900 38.08200 29.78300
H  42.81700 37.98300 23.23200
H  41.05300 44.14900 23.50100
H  42.11200 42.08600 31.66300
H  41.72900 39.41400 31.48600
H  43.93300 39.33700 32.08800
H  43.64700 41.05000 32.50500
H  44.55800 40.53900 31.03100
H  39.63900 40.34700 31.89900
H  39.27300 41.75800 31.00800
H  39.57500 43.14300 32.82900
H  40.88100 42.15900 33.49600
H  44.47200 36.64200 29.19000
H  45.33800 35.77900 27.93600
H  43.70900 35.29400 28.38400
H  43.85400 33.87500 26.19200
H  45.16300 34.89700 26.04300
H  44.65800 33.87400 24.58100
H  41.41100 39.76400 21.83900
H  42.50000 42.53900 21.78600
H  44.08100 41.06200 21.39800
H  43.23600 39.99200 20.27800
H  44.02200 39.31300 21.79700
H  39.66500 41.77500 22.32300
H  40.18500 41.39900 20.77000
H  39.50900 44.29300 21.64400
H  39.39700 43.61400 20.13500
H  41.05800 43.93300 20.57900
H  40.77000 46.06200 24.27400
H  41.09500 46.97200 25.63300
H  39.43400 46.44600 25.59400
H  39.59000 44.21000 30.28500
H  41.98200 44.76800 33.79300
H  41.56600 46.43800 33.48000
H  43.07400 45.65300 32.71700
Mg 35.54500 48.47500 25.31300
C  36.02300 46.48700 28.20100
C  34.43800 50.95100 27.28600
C  34.62000 49.94700 22.52100
C  36.90900 45.78100 23.35000
N  35.27100 48.68100 27.52600
C  35.57200 47.80000 28.51200
C  35.23900 48.39900 29.94700
C  34.77100 49.80200 29.57500
C  34.80600 49.81100 27.99300
C  33.41800 50.20400 30.20500
C  36.50500 48.48000 30.90700
C  36.26000 48.37200 32.41600
H  34.85300 48.64800 32.87500
N  34.80700 50.29600 24.91600
C  34.34400 51.17800 25.86600
C  33.85000 52.37400 25.15200
C  33.90600 52.11800 23.74700
C  34.43900 50.74200 23.65300
C  33.62500 53.66700 25.84800
C  33.70600 52.97200 22.51400
O  33.95900 52.63700 21.34000
C  33.21700 54.42800 22.61400
N  35.76100 47.95000 23.19600
C  35.22400 48.76200 22.24100
C  35.61700 48.18100 20.82700
C  36.62100 46.98300 21.11000
C  36.45500 46.86700 22.65500
C  34.34400 47.95000 19.99200
C  38.10800 47.13700 20.66900
C  38.93300 48.23800 21.35700
N  36.30900 46.53400 25.64500
C  36.75300 45.51000 24.77500
C  36.93000 44.29700 25.47000
C  36.61800 44.62200 26.83600
C  36.32300 46.02200 26.86400
C  37.34900 43.01500 24.79900
C  36.52600 44.00900 28.18700
O  36.57000 42.87700 28.57400
C  36.21300 45.28200 29.14700
C  35.07200 44.83000 29.95700
O  33.93200 44.82100 29.55900
O  35.36600 44.53300 31.20600
C  34.33300 44.42500 32.18500
H  34.21600 51.76700 27.97700
H  34.29600 50.29200 21.53600
H  37.42500 45.05300 22.72200
H  34.37700 47.89100 30.38000
H  35.50700 50.49900 29.97900
H  33.47000 51.18000 30.69000
H  33.01300 49.41700 30.84100
H  32.67300 50.32500 29.41900
H  37.08300 49.34300 30.57600
H  37.09000 47.58100 30.71300
H  36.97100 49.09600 32.81200
H  36.65900 47.40200 32.71400
H  34.16800 54.46700 25.34500
H  34.22100 53.52100 26.74900
H  32.58300 53.94700 25.99800
H  34.11300 55.04800 22.62000
H  32.56100 54.55300 23.47600
H  32.48400 54.57500 21.82100
H  36.05100 49.04200 20.31800
H  36.17400 46.09100 20.67100
H  33.85200 48.90400 19.80300
H  33.70400 47.25400 20.53400
H  34.79100 47.62100 19.05400
H  37.91100 47.51600 19.66600
H  38.65300 46.20400 20.53000
H  39.92200 47.88600 21.65300
H  38.43600 48.54000 22.27900
H  39.17000 49.08100 20.70900
H  36.60300 42.57600 24.13600
H  37.61300 42.45300 25.69500
H  38.30500 43.16400 24.29800
H  37.07800 45.50700 29.77100
H  33.45700 43.90300 31.80100
H  34.06000 45.43400 32.49500
H  34.74100 43.84800 33.01500

