158

Mg -2.49400 17.16700 27.40000
C  -3.32500 14.73200 29.96600
C  -3.56000 19.63200 29.37800
C  -2.61400 19.14900 24.68700
C  -2.20600 14.25000 25.12100
N  -3.18800 17.14500 29.50000
C  -3.52100 16.08900 30.36500
C  -3.98000 16.57900 31.72800
C  -4.24200 18.09200 31.39200
C  -3.61900 18.31900 29.97100
C  -5.74900 18.59000 31.39000
C  -2.99500 16.29200 32.88800
C  -3.04400 17.28500 34.10300
H  -2.33100 16.65000 35.30700
N  -2.91800 19.24700 27.09700
C  -3.26600 20.11100 28.09600
C  -3.30100 21.45400 27.52000
C  -3.01600 21.29000 26.17400
C  -2.88500 19.84100 25.92100
C  -3.58000 22.70900 28.36300
C  -2.76000 22.30100 25.19000
O  -2.41900 22.06500 24.02500
C  -2.72800 23.78300 25.57200
N  -2.42200 16.75900 25.27800
C  -2.49100 17.80300 24.38700
C  -2.36400 17.29300 22.92600
C  -1.75500 15.87700 23.08700
C  -2.18300 15.57500 24.55700
C  -3.53400 17.40700 21.98300
C  -0.22100 15.72500 22.77700
C  0.73800 16.59700 23.62600
N  -2.57800 14.99300 27.45700
C  -2.38900 13.96400 26.51700
C  -2.53700 12.69200 27.13300
C  -2.76000 12.94300 28.51100
C  -2.88900 14.36600 28.61300
C  -2.56100 11.40500 26.44300
C  -3.05200 12.27900 29.81300
O  -3.05800 11.13800 30.10200
C  -3.54800 13.43700 30.72700
C  -2.72600 13.31100 31.98800
O  -1.48700 13.56900 32.07400
O  -3.37800 12.86300 33.09500
C  -2.57600 12.64800 34.30100
H  -3.97400 20.43400 29.99200
H  -2.49600 19.64000 23.71800
H  -1.97200 13.42400 24.44500
H  -4.90700 16.05800 31.96600
H  -3.68900 18.73800 32.07400
H  -6.03200 18.75100 30.35000
H  -5.83500 19.52600 31.94200
H  -6.39700 17.86200 31.87800
H  -2.00200 16.17200 32.45400
H  -3.21300 15.31200 33.31200
H  -4.05500 17.50800 34.44400
H  -2.50600 18.19800 33.84600
H  -2.77700 23.44500 28.30900
H  -3.76000 22.51800 29.42100
H  -4.49000 23.16400 27.96900
H  -1.97400 24.09600 26.29400
H  -3.74300 23.93800 25.93900
H  -2.66700 24.31700 24.62400
H  -1.52100 17.82300 22.48300
H  -2.31700 15.13100 22.52500
H  -4.04400 16.46200 21.79000
H  -3.33000 18.01300 21.10000
H  -4.32400 17.98500 22.46300
H  0.02500 15.78100 21.71600
H  -0.05700 14.65700 22.92200
H  1.31900 17.18700 22.91600
H  1.38200 15.90700 24.17100
H  0.25400 17.27500 24.32800
H  -2.06700 11.51600 25.47800
H  -3.59100 11.19000 26.15800
H  -2.06100 10.60900 26.99400
H  -4.56200 13.23700 31.07500
H  -2.94600 11.72100 34.73900
H  -2.72400 13.46700 35.00500
H  -1.53000 12.37700 34.16200
Mg 0.10500 7.83900 27.02000
C  0.80900 9.90400 29.81800
C  0.57200 5.23400 28.83500
C  -0.04500 6.11400 24.18700
C  0.57600 10.82100 25.02500
N  0.48100 7.66600 29.04300
C  0.60000 8.55800 30.09500
C  0.55900 7.94300 31.46200
C  0.83500 6.42200 31.08200
C  0.66100 6.44000 29.51700
C  2.17900 5.76200 31.51200
C  -0.76600 8.33100 32.13300
C  -0.69200 8.76400 33.61900
H  0.53000 8.28200 34.46400
N  0.24500 5.86600 26.54800
C  0.32300 4.92300 27.51700
C  0.16800 3.59800 26.92800
C  0.09600 3.84700 25.50200
C  0.05100 5.33800 25.36000
C  0.44800 2.29700 27.67400
C  0.08100 2.89900 24.32600
O  -0.10100 3.20700 23.10400
C  0.26800 1.39700 24.62800
N  0.21000 8.36800 24.95300
C  0.04700 7.45500 23.93000
C  0.28100 8.07400 22.54500
C  0.13500 9.61700 22.81700
C  0.40000 9.58800 24.35100
C  1.62800 7.51000 22.04600
C  -1.26900 10.22900 22.48900
C  -1.23200 11.09000 21.28200
N  0.53600 10.00600 27.29900
C  0.68600 11.07100 26.41500
C  0.85600 12.28800 27.12700
C  0.87700 11.87700 28.46700
C  0.75300 10.50600 28.52000
C  1.13100 13.71500 26.42100
C  1.11800 12.41000 29.79200
O  1.33200 13.65400 30.10000
C  0.91000 11.17600 30.81700
C  2.02500 11.24000 31.76500
O  3.11000 10.67200 31.72000
O  1.57300 11.89800 32.90700
C  2.41600 11.77100 34.11400
H  0.77200 4.35700 29.45500
H  -0.09500 5.57500 23.23900
H  0.59900 11.68600 24.35800
H  1.32800 8.45800 32.03800
H  0.14700 5.81200 31.66800
H  2.73000 6.37400 32.22700
H  2.82700 5.45300 30.69200
H  1.98700 4.87800 32.12100
H  -1.44000 7.47400 32.10900
H  -1.19100 9.17300 31.58700
H  -1.56600 8.36500 34.13300
H  -0.70100 9.85200 33.68300
H  -0.20200 1.50400 27.30500
H  0.34900 2.39800 28.75400
H  1.48800 2.06800 27.43800
H  -0.72900 1.17100 25.00800
H  1.07100 1.24900 25.35000
H  0.38900 0.82200 23.71000
H  -0.44000 7.73500 21.80100
H  0.91500 10.23700 22.37600
H  1.95100 8.08200 21.17600
H  1.57800 6.46800 21.73100
H  2.34700 7.56300 22.86400
H  -1.61000 10.88500 23.29100
H  -2.02700 9.48600 22.23900
H  -0.37300 10.88900 20.64200
H  -1.11300 12.13900 21.55400
H  -2.11400 10.82900 20.69800
H  1.70500 13.47100 25.52700
H  1.78800 14.31600 27.05000
H  0.24000 14.26200 26.11500
H  -0.07400 11.24400 31.28000
H  3.28600 11.14900 33.90200
H  1.84000 11.30800 34.91400
H  2.87000 12.72600 34.38000

