158

Mg 40.48600 9.45000 29.88300
C  42.43300 10.54000 32.65900
C  38.15800 8.33800 32.15300
C  38.74400 8.24800 27.23900
C  43.17400 10.32200 27.75900
N  40.37800 9.37700 32.14800
C  41.18500 9.99700 33.00300
C  40.72700 9.95800 34.47600
C  39.36300 9.18100 34.31100
C  39.28100 8.94400 32.78600
C  39.34900 7.80100 35.13000
C  40.64900 11.36300 35.13000
C  39.63700 11.48000 36.31600
H  40.08300 12.44800 37.39000
N  38.70100 8.39100 29.71300
C  37.85000 8.13000 30.78800
C  36.57600 7.61300 30.18700
C  36.72800 7.69600 28.80300
C  38.11000 8.10400 28.52000
C  35.42200 7.16500 31.05300
C  35.70700 7.44100 27.71200
O  35.93400 7.51100 26.52500
C  34.41400 7.03900 28.14600
N  40.92200 9.33600 27.84300
C  39.96400 8.85300 26.89300
C  40.52100 9.06400 25.43200
C  41.84600 9.88600 25.68400
C  41.99300 9.87100 27.21200
C  40.79300 7.75600 24.62100
C  41.85800 11.32900 25.12100
C  41.18500 12.40400 25.90900
N  42.47800 10.25500 30.08800
C  43.40700 10.48600 29.14700
C  44.51100 11.12800 29.84100
C  44.15300 11.18000 31.16900
C  42.94400 10.56200 31.25600
C  45.82700 11.60700 29.21700
C  44.65300 11.66200 32.45800
O  45.70100 12.25000 32.80300
C  43.56400 11.20800 33.50000
C  44.14900 10.25800 34.47600
O  44.34300 9.09400 34.34600
O  44.50900 10.94400 35.63500
C  45.54800 10.35400 36.51300
H  37.39000 8.00500 32.85400
H  38.25400 7.81200 26.36500
H  43.93500 10.66800 27.05800
H  41.37600 9.30100 35.05500
H  38.58000 9.87700 34.61300
H  39.97600 7.91600 36.01300
H  39.66600 6.95000 34.52700
H  38.34200 7.60700 35.50100
H  40.51600 12.12500 34.36200
H  41.59000 11.61300 35.61900
H  39.31200 10.55500 36.79100
H  38.81300 12.00500 35.83200
H  35.40900 7.43900 32.10800
H  35.43700 6.08500 31.20300
H  34.42100 7.45800 30.73800
H  33.84700 7.80300 28.67600
H  34.45900 6.11100 28.71600
H  33.83000 6.84200 27.24600
H  39.78400 9.58900 24.82300
H  42.73100 9.39000 25.28500
H  40.85000 6.93200 25.33300
H  41.77900 7.73500 24.15800
H  39.95700 7.65000 23.93000
H  41.29700 11.28100 24.18900
H  42.87900 11.57900 24.83200
H  40.81400 12.11700 26.89300
H  40.33300 12.80500 25.36100
H  41.89300 13.19700 26.15100
H  45.77400 11.94300 28.18100
H  46.59900 10.83800 29.24500
H  46.30900 12.42500 29.75100
H  43.29200 12.10000 34.06400
H  46.46400 10.02600 36.02000
H  45.09000 9.48500 36.98500
H  45.90800 10.99900 37.31500
Mg 54.88800 25.59900 44.67800
C  52.05500 27.49800 43.93600
C  53.01700 22.74000 43.80600
C  57.64100 23.73200 44.97300
C  56.74500 28.53500 45.01500
N  52.74400 25.23800 43.90400
C  51.73000 26.16100 43.71600
C  50.43600 25.47600 43.16300
C  50.73600 23.95600 43.49900
C  52.28400 23.93800 43.80000
C  49.95500 23.42100 44.78700
C  50.31700 25.62800 41.62500
C  48.92900 25.42100 40.99300
H  48.82500 24.61100 39.70600
N  55.26900 23.49300 44.46300
C  54.37900 22.55800 44.05700
C  55.01300 21.26900 43.99200
C  56.44500 21.46100 44.35400
C  56.48800 22.92900 44.66100
C  54.27300 19.96500 43.75000
C  57.51800 20.40800 44.26800
O  57.19800 19.27600 43.92700
C  58.90500 20.66300 44.70200
N  56.94500 26.05800 44.90400
C  57.92200 25.11500 45.15700
C  59.30700 25.77700 45.40500
C  58.93400 27.28700 45.53000
C  57.43000 27.33000 45.13800
C  60.17600 25.12700 46.51400
C  59.77900 28.22200 44.68900
C  60.21500 29.53500 45.27300
N  54.55100 27.55500 44.56700
C  55.36100 28.60400 44.81700
C  54.46200 29.78200 44.92200
C  53.20800 29.44500 44.44700
C  53.30100 28.03800 44.32500
C  54.87900 31.10700 45.34300
C  51.84400 29.96200 44.22800
O  51.29200 31.03900 44.47100
C  51.05300 28.70200 43.78900
C  50.71700 29.01500 42.36000
O  51.47200 29.25800 41.47200
O  49.30800 29.08500 42.24600
C  48.85700 29.53200 40.94000
H  52.42300 21.87000 43.51600
H  58.52600 23.09500 45.02700
H  57.12500 29.51900 45.29600
H  49.52500 25.84400 43.63400
H  50.42000 23.42500 42.60100
H  49.22900 24.14100 45.16400
H  50.65000 23.19700 45.59600
H  49.42600 22.54200 44.41800
H  51.02800 24.89700 41.24200
H  50.68500 26.58900 41.26600
H  48.68000 26.45000 40.73400
H  48.17700 25.11100 41.71800
H  54.31600 19.78800 42.67500
H  53.23400 19.88600 44.06900
H  54.87100 19.20500 44.25400
H  59.54300 21.26000 44.05000
H  59.38800 19.72100 44.95900
H  58.76900 21.19300 45.64500
H  59.81600 25.64600 44.45000
H  59.11700 27.64200 46.54400
H  60.98900 24.50600 46.13700
H  59.56700 24.68400 47.30200
H  60.57600 25.95000 47.10600
H  59.33100 28.48500 43.73000
H  60.66900 27.72000 44.31100
H  61.29900 29.53700 45.15500
H  59.97600 29.78000 46.30700
H  59.77900 30.31600 44.65000
H  54.28900 31.86200 44.82400
H  55.94100 31.33600 45.24700
H  54.64400 31.24700 46.39800
H  50.16200 28.62400 44.41200
H  49.57900 30.15000 40.40600
H  47.87200 29.98300 41.06400
H  48.75500 28.64300 40.31900

