158

Mg 36.28700 49.77500 24.72500
C  36.48500 47.85200 27.74500
C  34.82100 52.17500 26.48200
C  35.31600 51.01800 21.70700
C  37.44700 46.90500 23.06100
N  35.57000 49.90500 26.94900
C  35.90800 49.12400 27.93300
C  35.71900 49.84100 29.34000
C  35.04000 51.25000 28.82500
C  35.23500 51.15200 27.35700
C  33.55300 51.50500 29.23400
C  37.06900 50.15900 30.09800
C  37.06400 49.88000 31.61500
H  35.67600 49.85000 32.37000
N  35.29300 51.44200 24.11700
C  34.81500 52.31000 25.01100
C  34.20800 53.39800 24.30600
C  34.38800 53.19800 22.87600
C  34.98200 51.84200 22.85800
C  33.52900 54.60300 25.02500
C  33.93400 54.09000 21.72600
O  33.92900 53.58800 20.64500
C  33.35400 55.51900 21.95400
N  36.12700 48.95300 22.67900
C  35.72800 49.66700 21.66100
C  35.98900 48.98400 20.31400
C  36.92000 47.78400 20.74400
C  36.84800 47.85800 22.22800
C  34.66800 48.61300 19.52300
C  38.43200 47.92500 20.19400
C  39.54000 48.70700 20.98200
N  37.04100 47.83300 25.22800
C  37.50700 46.79400 24.48300
C  37.98000 45.72700 25.34800
C  37.53500 46.08200 26.58500
C  36.94100 47.30500 26.48600
C  38.56200 44.42300 24.87900
C  37.30700 45.65300 27.96000
O  37.58700 44.52600 28.38000
C  36.74900 46.80200 28.79300
C  35.52400 46.36300 29.49000
O  34.46900 46.00300 29.01000
O  35.87400 46.36900 30.80200
C  34.91500 45.92900 31.79500
H  34.33200 52.97600 27.04100
H  35.00000 51.56800 20.81800
H  37.70700 46.03400 22.45600
H  35.00000 49.19400 29.84200
H  35.61500 52.12700 29.12400
H  33.30900 50.95900 30.14500
H  32.83600 51.20400 28.47100
H  33.40700 52.56400 29.44600
H  37.36200 51.18200 29.86600
H  37.79400 49.48400 29.64200
H  37.66500 50.67400 32.05700
H  37.65000 48.97800 31.79000
H  34.13100 55.48500 24.80700
H  33.41600 54.52900 26.10600
H  32.54600 54.83200 24.61600
H  33.32300 56.00900 20.98100
H  33.86100 56.18400 22.65300
H  32.31400 55.46000 22.27400
H  36.62000 49.66000 19.73900
H  36.50600 46.80000 20.52300
H  34.76200 47.58700 19.16600
H  34.46200 49.25800 18.66900
H  33.78100 48.68700 20.15200
H  38.43400 48.14400 19.12600
H  38.70100 46.87400 20.09600
H  39.02200 49.27400 21.75500
H  39.97300 49.31900 20.19100
H  40.27700 47.96900 21.29900
H  39.38400 44.09600 25.51600
H  38.89100 44.37600 23.84100
H  37.79500 43.64800 24.84900
H  37.52200 47.08400 29.50700
H  34.98800 44.87000 32.04100
H  33.96400 46.34200 31.45600
H  35.23200 46.34400 32.75100
Mg -11.64800 16.28000 41.60800
C  -8.82600 14.25700 41.13700
C  -9.83800 18.96700 40.40400
C  -14.56100 18.02300 41.22700
C  -13.52900 13.48700 42.53400
N  -9.61700 16.54400 40.68500
C  -8.60200 15.58900 40.67300
C  -7.28900 16.25400 40.15600
C  -7.57800 17.75300 40.35100
C  -9.15400 17.77800 40.33500
C  -7.01700 18.30200 41.69300
C  -7.07800 15.80900 38.70400
C  -5.65000 15.43300 38.20600
H  -5.08300 16.17200 36.98100
N  -12.15700 18.22800 40.94000
C  -11.25300 19.17700 40.60600
C  -11.96600 20.43700 40.49400
C  -13.32600 20.19600 40.67000
C  -13.41200 18.76900 40.97200
C  -11.27100 21.67800 40.03200
C  -14.41200 21.28800 40.81500
O  -14.07800 22.41000 40.65800
C  -15.87000 20.99100 41.19900
N  -13.74900 15.73500 41.74700
C  -14.71200 16.67700 41.54900
C  -16.10200 16.08000 41.74600
C  -15.76800 14.85000 42.56700
C  -14.24000 14.63400 42.27800
C  -17.13400 16.95500 42.50400
C  -16.66400 13.68400 41.97800
C  -17.13900 12.73200 43.07600
N  -11.31800 14.27300 41.82000
C  -12.12700 13.26500 42.38600
C  -11.35500 12.13600 42.61800
C  -10.05800 12.48800 42.21900
C  -10.07200 13.72600 41.65400
C  -11.83200 10.88100 43.20300
C  -8.64400 12.07000 42.15400
O  -8.10700 11.09200 42.64200
C  -7.80300 13.15500 41.46500
C  -6.78400 13.71000 42.37700
O  -7.09400 14.20400 43.45100
O  -5.52500 13.71400 41.74300
C  -4.47100 14.33500 42.49600
H  -9.42000 19.92200 40.08100
H  -15.48800 18.56500 41.02900
H  -13.99800 12.60100 42.96800
H  -6.36500 16.02000 40.68500
H  -7.23600 18.35500 39.50900
H  -6.83400 17.46300 42.36400
H  -7.74800 19.00700 42.08800
H  -6.02600 18.72700 41.53200
H  -7.35500 16.61100 38.02100
H  -7.79800 14.99800 38.60300
H  -5.51600 14.35400 38.13100
H  -4.92500 15.57600 39.00700
H  -10.25700 21.58000 39.64200
H  -11.05800 22.28200 40.91400
H  -11.90100 22.24100 39.34400
H  -16.02500 20.29100 42.02000
H  -16.42400 20.70100 40.30600
H  -16.31400 21.93500 41.51600
H  -16.37500 15.94600 40.69900
H  -15.95200 14.87900 43.64200
H  -17.48100 16.50400 43.43400
H  -17.93500 17.05900 41.77200
H  -16.72700 17.93600 42.75000
H  -15.96500 13.11200 41.36700
H  -17.55300 14.14200 41.54700
H  -16.85900 11.68000 43.01800
H  -18.21200 12.57800 42.96300
H  -17.00600 13.15300 44.07200
H  -12.69400 10.42800 42.71300
H  -11.90800 11.15000 44.25700
H  -11.08200 10.11100 43.02100
H  -7.27700 12.81700 40.57200
H  -4.76400 15.12100 43.19200
H  -3.67900 14.79800 41.90700
H  -4.16500 13.40100 42.96800

