158

Mg 24.42500 -8.37900 47.22600
C  26.69400 -6.01200 46.22900
C  22.41300 -7.35200 44.64200
C  22.36600 -11.10800 47.62000
C  26.79200 -9.84000 49.09400
N  24.52800 -6.68700 45.74400
C  25.51000 -5.80100 45.58200
C  25.13400 -4.75300 44.52800
C  23.75700 -5.25100 43.95200
C  23.51200 -6.52000 44.84100
C  22.57600 -4.20700 44.16900
C  26.20900 -4.66200 43.38300
C  26.85600 -3.26300 43.24800
H  26.60500 -2.68500 41.86200
N  22.60200 -9.00100 46.40400
C  21.95400 -8.42900 45.35700
C  20.64700 -9.05300 45.16100
C  20.59100 -10.21500 46.00100
C  21.89500 -10.21500 46.70100
C  19.65200 -8.47400 44.21100
C  19.41000 -11.21100 46.00300
O  18.40000 -10.86500 45.37900
C  19.46000 -12.46900 46.85500
N  24.61000 -10.26200 48.12700
C  23.58300 -11.14800 48.29200
C  23.93300 -12.25000 49.30900
C  25.36400 -11.79500 49.88800
C  25.58000 -10.53200 48.96100
C  22.85200 -12.56800 50.41000
C  26.51600 -12.82300 49.94600
C  26.35600 -14.21600 49.15500
N  26.35200 -8.02000 47.74800
C  27.23700 -8.70300 48.49900
C  28.45900 -7.94500 48.58400
C  28.30600 -6.90000 47.64700
C  26.98600 -7.00400 47.18800
C  29.64900 -8.27000 49.38700
C  29.04400 -5.75400 47.02700
O  30.18300 -5.34300 47.17900
C  27.98300 -5.08900 46.13400
C  27.73100 -3.65600 46.58400
O  27.07100 -3.29000 47.55100
O  28.42000 -2.81400 45.71700
C  28.32400 -1.45900 46.09900
H  21.73400 -7.00400 43.86000
H  21.73400 -11.97600 47.82200
H  27.60300 -10.19300 49.73500
H  24.95000 -3.86900 45.13800
H  23.86100 -5.51000 42.89800
H  21.90100 -4.63600 44.90900
H  22.09100 -4.08200 43.20100
H  22.92800 -3.21100 44.43700
H  25.88200 -4.95300 42.38500
H  26.99200 -5.39600 43.57200
H  27.94200 -3.31400 43.33600
H  26.44400 -2.58900 43.99900
H  18.67200 -8.85500 44.49900
H  19.77200 -8.82900 43.18700
H  19.66900 -7.38500 44.23200
H  19.67200 -12.10100 47.85900
H  20.15200 -13.20500 46.44700
H  18.48500 -12.95600 46.87700
H  23.90000 -13.15000 48.69600
H  25.09900 -11.30100 50.82300
H  23.27200 -12.52400 51.41400
H  22.47800 -13.56300 50.16700
H  22.04900 -11.83200 50.35000
H  26.60700 -13.15900 50.97800
H  27.53100 -12.47100 49.75900
H  27.35500 -14.56600 48.89600
H  25.87700 -14.13900 48.17900
H  25.88000 -14.96900 49.78300
H  29.75100 -7.63700 50.26900
H  30.51800 -8.16900 48.73700
H  29.52200 -9.28500 49.76500
H  28.36600 -5.10100 45.11400
H  28.81800 -1.25300 47.04900
H  27.29200 -1.15100 46.26600
H  28.67100 -0.77600 45.32300
Mg 15.64200 51.63300 25.64900
C  17.69500 50.50700 28.23100
C  13.32600 52.49900 27.96600
C  13.56800 52.13500 23.05100
C  18.01000 50.41300 23.34400
N  15.49300 51.41500 27.84800
C  16.53800 51.03500 28.70300
C  16.22700 51.36500 30.20800
C  14.67600 51.91400 30.10300
C  14.50100 51.97700 28.56900
C  13.70400 50.80700 30.68000
C  17.24100 52.39100 30.92900
C  17.43500 52.34000 32.45200
H  16.58500 51.36600 33.23900
N  13.74000 52.30100 25.54400
C  12.93000 52.54400 26.63500
C  11.61100 53.04000 26.05800
C  11.71100 52.75100 24.63700
C  13.06600 52.37900 24.39700
C  10.48300 53.53800 26.90300
C  10.58700 52.81100 23.60400
O  10.62900 52.48100 22.43600
C  9.21800 53.27900 24.15900
N  15.77900 51.31300 23.55200
C  14.77500 51.63200 22.64400
C  15.28900 51.78400 21.17800
C  16.74400 51.28400 21.33400
C  16.84700 50.94400 22.80800
C  14.41900 50.90600 20.20100
C  17.87300 52.36000 20.87600
C  18.78700 51.73800 19.76900
N  17.53500 50.78500 25.68000
C  18.35200 50.31700 24.68100
C  19.59800 49.78500 25.28100
C  19.33400 49.80600 26.69800
C  18.08400 50.43000 26.86000
C  20.83800 49.31900 24.59000
C  19.86700 49.49600 27.99200
O  20.96400 49.03000 28.29200
C  18.82400 49.97900 29.04500
C  18.52200 48.97800 30.07100
O  17.96100 47.92100 29.88700
O  19.13500 49.32600 31.30300
C  19.10000 48.40000 32.37700
H  12.58400 52.86600 28.67800
H  12.92100 52.32400 22.19200
H  18.83300 50.16600 22.67000
H  16.42300 50.44600 30.75900
H  14.58700 52.84000 30.67100
H  13.24700 50.22400 29.88000
H  13.00600 51.36300 31.30600
H  14.39700 50.17500 31.23500
H  16.83400 53.36300 30.65200
H  18.18400 52.33700 30.38500
H  17.35700 53.32400 32.91400
H  18.43900 51.93700 32.58800
H  10.10800 54.49500 26.53800
H  10.83700 53.75000 27.91200
H  9.63300 52.85600 26.92500
H  8.44200 53.45200 23.41400
H  9.33800 54.24100 24.65800
H  8.95600 52.60100 24.97200
H  15.24900 52.86600 21.05500
H  16.89000 50.35100 20.79000
H  13.45600 50.61700 20.62200
H  14.93200 49.96500 20.00300
H  14.12700 51.36300 19.25600
H  18.49200 52.54400 21.75400
H  17.49300 53.35900 20.66500
H  18.62400 52.49100 18.99900
H  18.59700 50.69200 19.52600
H  19.82500 51.64800 20.09100
H  20.99500 49.80700 23.62800
H  20.66200 48.25800 24.41100
H  21.70200 49.61500 25.18400
H  19.33000 50.82600 29.50800
H  18.03700 48.35600 32.61500
H  19.57300 48.77900 33.28300
H  19.47000 47.38700 32.21700

