158

Mg 26.23300 50.83900 26.52100
C  23.81100 51.97400 28.92000
C  28.34500 50.19600 29.13300
C  28.57900 50.01400 24.30900
C  24.15300 52.01700 24.00300
N  26.02300 51.01500 28.72500
C  24.92700 51.41600 29.48300
C  25.29000 51.40400 30.99000
C  26.74000 50.83200 31.00400
C  27.08600 50.71200 29.52700
C  27.78500 51.52700 31.83900
C  24.29300 50.68800 31.88400
C  24.21800 51.21700 33.24800
H  23.90100 50.25700 34.39300
N  28.17900 50.15000 26.70300
C  28.94700 50.00800 27.84200
C  30.23200 49.52200 27.51900
C  30.32900 49.47100 26.07500
C  29.03000 49.91100 25.62300
C  31.21300 48.89700 28.53100
C  31.49800 48.90200 25.07600
O  31.43100 48.80100 23.86100
C  32.78100 48.68400 25.66000
N  26.29200 50.92400 24.40000
C  27.33800 50.38700 23.71100
C  27.10500 50.71300 22.22600
C  25.68600 51.38600 22.07700
C  25.32500 51.48100 23.56500
C  28.27600 51.45500 21.59000
C  24.58600 50.72300 21.20000
C  24.10100 51.49900 19.99400
N  24.44200 51.83200 26.38000
C  23.71300 52.19200 25.29700
C  22.51300 52.88300 25.78200
C  22.53700 52.87400 27.18500
C  23.71200 52.16200 27.51100
C  21.44400 53.46400 24.93900
C  21.79200 53.06300 28.45500
O  20.68600 53.62800 28.64600
C  22.66700 52.68400 29.58500
C  22.98000 53.93600 30.39700
O  23.67200 54.86500 30.02400
O  22.38500 53.84300 31.67700
C  22.60500 54.86000 32.65000
H  28.98500 49.84200 29.94400
H  29.25200 49.61700 23.54700
H  23.47900 52.44200 23.25600
H  25.36200 52.43900 31.32500
H  26.71300 49.82700 31.42500
H  27.99700 52.53000 31.46900
H  28.66500 50.90300 31.99400
H  27.24000 51.61900 32.77800
H  24.50600 49.62100 31.94700
H  23.26200 50.75300 31.53500
H  23.37200 51.89800 33.33800
H  25.02500 51.88300 33.55600
H  30.93100 49.22300 29.53200
H  32.28100 49.11100 28.48300
H  31.21500 47.80900 28.59800
H  32.83600 49.55800 26.30800
H  33.59600 48.57600 24.94400
H  32.77700 47.74700 26.21700
H  27.03900 49.70600 21.81400
H  25.83400 52.40000 21.70500
H  28.88700 50.87600 20.89800
H  28.85500 51.85700 22.42200
H  27.91600 52.32800 21.04500
H  23.75800 50.44500 21.85300
H  24.95700 49.80100 20.75200
H  24.40200 51.09000 19.03000
H  24.45100 52.52900 20.06000
H  23.01400 51.50900 20.07200
H  21.87200 53.97700 24.07800
H  20.90200 54.11200 25.62700
H  20.83700 52.69500 24.46000
H  22.01900 51.97500 30.10000
H  22.77800 55.80500 32.13500
H  23.36400 54.56000 33.37300
H  21.65800 55.06400 33.15100
Mg -1.18500 34.66900 26.51900
C  -2.58700 32.90600 29.37800
C  -0.09400 37.04900 28.80200
C  -0.31900 36.35400 23.91600
C  -2.79000 32.31500 24.62400
N  -1.42600 34.94100 28.90100
C  -1.88500 34.09700 29.81700
C  -1.71100 34.68700 31.22000
C  -0.87200 35.92100 30.97100
C  -0.80500 35.99200 29.43200
C  -1.45100 37.23700 31.56000
C  -1.01200 33.69400 32.16800
C  -1.56700 33.49700 33.56500
H  -0.78000 33.19500 34.85200
N  -0.29700 36.36200 26.41300
C  0.09800 37.23100 27.42000
C  0.84000 38.33800 26.82100
C  0.90400 38.15400 25.42300
C  0.06800 36.95200 25.20500
C  1.58200 39.34200 27.68400
C  1.61600 39.08100 24.39200
O  1.33200 38.96700 23.20700
C  2.42900 40.34300 24.76700
N  -1.67400 34.46200 24.54600
C  -1.08700 35.21300 23.59200
C  -1.51600 34.79900 22.19500
C  -2.08100 33.37100 22.51600
C  -2.28100 33.43500 24.00200
C  -2.55400 35.66500 21.51700
C  -1.24000 32.13000 21.99400
C  0.05600 31.75900 22.76000
N  -2.45900 32.91100 26.86400
C  -3.04700 32.15800 25.95600
C  -3.84200 31.10900 26.56500
C  -3.66800 31.36400 27.92800
C  -2.87600 32.51800 28.07700
C  -4.52300 30.04200 25.81200
C  -3.93100 30.79100 29.19600
O  -4.36300 29.67900 29.54000
C  -3.38200 31.83100 30.21100
C  -4.44900 32.48300 30.94600
O  -5.34200 33.14600 30.52000
O  -4.36000 32.10900 32.27000
C  -5.35300 32.73700 33.19900
H  0.36800 37.85200 29.38000
H  -0.06200 36.94800 23.03600
H  -3.05300 31.53400 23.90700
H  -2.67100 34.99900 31.63200
H  0.16900 35.72900 31.23200
H  -1.90500 37.82500 30.76300
H  -0.69500 37.76900 32.13700
H  -2.19200 37.02900 32.33100
H  0.02900 33.91700 32.40400
H  -0.92500 32.75500 31.62200
H  -2.39600 32.79200 33.51100
H  -2.09400 34.42800 33.77300
H  2.65900 39.26100 27.53300
H  1.31300 39.36900 28.74000
H  1.16100 40.28700 27.33900
H  1.67700 41.06500 25.08500
H  2.93600 40.69700 23.86900
H  3.15500 40.18400 25.56400
H  -0.61500 34.64000 21.60300
H  -3.06800 33.20100 22.08600
H  -2.17100 35.94100 20.53400
H  -2.54000 36.60800 22.06400
H  -3.50100 35.15300 21.34800
H  -0.72500 32.40300 21.07300
H  -1.87900 31.27400 21.77400
H  0.12700 32.30700 23.70000
H  0.97200 31.95500 22.20300
H  0.10100 30.69300 22.98300
H  -4.18000 30.05900 24.77700
H  -5.60500 30.17700 25.83400
H  -4.23500 29.12900 26.33300
H  -2.71700 31.27000 30.86800
H  -4.91700 33.30900 34.01800
H  -5.83700 31.86600 33.64000
H  -6.03600 33.42300 32.69800

