158

Mg 48.61300 36.32800 27.45000
C  46.31600 35.31000 29.95400
C  48.86000 39.28100 29.07100
C  50.41000 37.43100 24.90000
C  47.75700 33.44100 25.66300
N  47.75900 37.13700 29.36700
C  46.85900 36.59000 30.25400
C  46.70700 37.44700 31.55600
C  47.29400 38.78100 31.01900
C  47.93600 38.38700 29.72600
C  46.14200 39.83100 30.85600
C  47.57000 36.85900 32.66200
C  46.88900 36.45000 34.04500
H  46.92500 37.56400 35.07200
N  49.74600 37.98400 27.18700
C  49.73600 39.06600 27.93300
C  50.74000 40.01800 27.44900
C  51.10000 39.56500 26.18500
C  50.40600 38.28000 26.01800
C  51.14100 41.30900 28.11600
C  52.00200 40.12600 25.07200
O  52.09400 39.66200 23.96000
C  52.83000 41.36900 25.30200
N  48.76100 35.59700 25.45200
C  49.70100 36.16400 24.67500
C  49.91300 35.38500 23.34900
C  49.23300 34.06400 23.68500
C  48.56200 34.33700 25.02700
C  49.10100 36.10500 22.29400
C  50.24200 32.83300 23.72700
C  49.82300 31.65900 22.83400
N  47.33500 34.65300 27.71400
C  47.07300 33.57300 26.88700
C  46.15800 32.65400 27.54600
C  45.78100 33.37600 28.71600
C  46.50900 34.50400 28.78300
C  45.70500 31.28800 27.02200
C  44.85100 33.31200 29.87700
O  44.09800 32.43200 30.20000
C  45.25700 34.51600 30.74700
C  45.74600 33.98100 31.99900
O  46.80700 33.41100 32.19100
O  44.70400 34.09000 32.89500
C  44.88100 33.46700 34.21300
H  48.89500 40.24000 29.59100
H  51.03200 37.60200 24.01900
H  47.69500 32.49700 25.11700
H  45.63900 37.52400 31.76100
H  47.95400 39.31400 31.70300
H  45.28300 39.48600 30.28100
H  46.56500 40.66700 30.29900
H  45.82600 40.23700 31.81700
H  48.41500 37.47900 32.96200
H  47.89900 35.86400 32.36100
H  47.27000 35.57600 34.57300
H  45.81500 36.39800 33.86600
H  52.13300 41.56500 27.74200
H  51.23200 41.15500 29.19100
H  50.44000 42.12900 27.96300
H  52.09300 42.15000 25.48900
H  53.34400 41.64000 24.38000
H  53.44200 41.31500 26.20300
H  50.95000 35.28800 23.02700
H  48.41900 33.76800 23.02300
H  48.55500 35.44100 21.62300
H  49.72000 36.83000 21.76500
H  48.39500 36.73700 22.83300
H  50.31300 32.36000 24.70600
H  51.25400 33.14200 23.46400
H  50.45600 31.54000 21.95400
H  48.81500 31.85700 22.47000
H  49.93100 30.71200 23.36100
H  46.25400 31.06200 26.10800
H  44.66400 31.29200 26.70200
H  45.91200 30.54400 27.79200
H  44.37700 35.14900 30.85900
H  45.85900 33.71500 34.62500
H  44.80900 32.39100 34.05200
H  44.07400 33.82200 34.85400
Mg 6.19700 53.62600 40.97100
C  5.27200 50.26400 40.37500
C  9.36800 52.92100 39.87500
C  6.90800 56.88700 41.07400
C  2.83700 54.33700 41.84100
N  7.17400 51.70300 40.02100
C  6.67200 50.39000 40.02400
C  7.79700 49.43600 39.76600
C  9.11000 50.39400 39.99700
C  8.52200 51.76600 39.85300
C  9.79100 50.22600 41.33000
C  7.88300 48.68000 38.43600
C  8.00200 49.58200 37.18800
H  6.93700 49.32500 36.06800
N  7.93800 54.76000 40.66000
C  9.11900 54.26400 40.14000
C  10.08900 55.36000 40.16000
C  9.41600 56.59800 40.46800
C  8.00000 56.11700 40.76300
C  11.56800 55.25400 40.05700
C  9.99600 57.98300 40.52700
O  11.10400 58.19500 40.05400
C  9.27400 59.26400 40.97200
N  4.98300 55.40000 41.27800
C  5.56900 56.66100 41.27400
C  4.44500 57.75100 41.31100
C  3.20500 56.93600 41.94300
C  3.64600 55.44800 41.62200
C  4.75000 59.08500 42.00600
C  1.86900 57.38800 41.19100
C  1.49500 56.95700 39.82200
N  4.31500 52.57900 41.04300
C  3.13600 52.95800 41.57100
C  2.22700 51.74300 41.59900
C  3.06700 50.71500 41.13500
C  4.29500 51.24300 40.79500
C  0.75300 51.78000 41.78400
C  3.06200 49.32700 40.81900
O  2.21400 48.44400 40.94900
C  4.50000 48.97500 40.43900
C  4.32900 48.29000 39.10800
O  3.66800 48.68800 38.16800
O  4.90300 47.06800 39.19200
C  4.71100 46.24400 38.03400
H  10.36600 52.65700 39.51800
H  7.08300 57.95400 41.22800
H  1.85200 54.48600 42.28800
H  7.94000 48.79900 40.63900
H  9.84400 50.17400 39.22200
H  9.47000 49.31100 41.82900
H  9.72400 51.13000 41.93500
H  10.82400 50.17400 40.98700
H  7.05700 47.97200 38.36200
H  8.74700 48.01800 38.38800
H  8.99400 49.53200 36.74000
H  7.82200 50.60700 37.51300
H  12.13300 55.91700 40.71200
H  11.95500 55.23500 39.03800
H  11.80700 54.21000 40.26300
H  10.06800 59.97700 41.19100
H  8.75000 59.03000 41.89900
H  8.72900 59.45400 40.04800
H  4.22100 57.92000 40.25800
H  3.13000 57.09000 43.02000
H  5.05600 59.93800 41.40000
H  5.57900 58.96000 42.70200
H  3.86900 59.44100 42.54000
H  1.65700 58.44500 41.35300
H  1.00500 56.93900 41.68100
H  1.30900 57.85400 39.23000
H  0.67400 56.27300 39.60900
H  2.32400 56.37500 39.42000
H  0.39600 52.38900 40.95300
H  0.55700 52.28200 42.73100
H  0.39000 50.75700 41.69400
H  4.86900 48.39600 41.28500
H  5.23500 46.61500 37.15300
H  3.64200 46.14000 37.84500
H  5.04400 45.23300 38.26500

