158

Mg 39.93900 9.12000 28.91500
C  41.86100 10.25500 31.55200
C  37.65400 7.76600 31.07300
C  38.18400 8.01400 26.25700
C  42.60400 9.90900 26.76300
N  39.90600 8.91600 31.06100
C  40.71800 9.54400 31.92900
C  40.15900 9.51200 33.32800
C  38.92500 8.52100 33.19500
C  38.76700 8.43200 31.67800
C  38.96900 7.19300 33.93800
C  39.85100 10.91700 33.86100
C  39.51000 11.17500 35.34800
H  40.50300 11.96100 36.19400
N  38.16000 8.06000 28.72200
C  37.29700 7.61300 29.72300
C  36.03800 7.12500 29.20800
C  36.22400 7.20900 27.73600
C  37.56800 7.79600 27.49700
C  34.85700 6.58700 30.03100
C  35.23600 6.99200 26.71900
O  35.49700 7.09200 25.51800
C  33.75100 6.59500 27.06300
N  40.41600 8.94300 26.83100
C  39.44900 8.52000 25.86200
C  40.00100 8.41200 24.41600
C  41.42500 9.11300 24.61800
C  41.52600 9.35200 26.15600
C  39.98100 6.98200 23.87500
C  41.45300 10.59600 23.92100
C  40.73800 11.81500 24.52700
N  41.81700 10.04200 29.03000
C  42.77700 10.33000 28.11200
C  43.88000 11.02700 28.71600
C  43.63500 11.00700 30.12700
C  42.34000 10.41100 30.21500
C  45.06900 11.61400 28.01400
C  44.11900 11.29200 31.43800
O  45.18100 11.75700 31.87600
C  42.94600 10.94300 32.42400
C  43.42200 10.10900 33.50500
O  44.16900 9.16600 33.33600
O  42.96000 10.63200 34.67300
C  43.36500 10.04600 35.90500
H  36.96600 7.37200 31.82400
H  37.62300 7.78400 25.34900
H  43.45900 10.05600 26.10000
H  40.83900 9.06600 34.05400
H  38.04300 9.07600 33.51600
H  39.81700 7.22600 34.62200
H  39.05400 6.36700 33.23200
H  38.04300 7.10100 34.50500
H  38.94200 11.22900 33.34700
H  40.74900 11.47900 33.60400
H  39.56200 10.13800 35.67700
H  38.50900 11.60800 35.34000
H  34.89800 6.76400 31.10500
H  34.62500 5.53500 29.86100
H  33.97300 7.14000 29.71100
H  33.59100 5.95500 27.93100
H  33.25300 6.14200 26.20600
H  33.18700 7.49900 27.29400
H  39.46700 9.01000 23.67700
H  42.29900 8.51600 24.35500
H  39.09100 6.85000 23.25900
H  39.88300 6.42100 24.80400
H  40.91000 6.81500 23.33100
H  41.04700 10.40300 22.92900
H  42.52500 10.74800 23.79100
H  40.12000 11.55400 25.38700
H  39.96400 12.13200 23.82900
H  41.41800 12.65800 24.64700
H  44.64200 11.81600 27.03200
H  45.82600 10.83000 27.99400
H  45.46100 12.54200 28.43200
H  42.59100 11.89800 32.81200
H  42.49700 9.88100 36.54300
H  44.03700 10.79200 36.32900
H  43.92900 9.11300 35.90200
Mg -4.41200 26.10500 25.59600
C  -3.10200 27.30400 28.58700
C  -6.41100 24.01600 27.55800
C  -5.16800 24.33500 22.77400
C  -2.03700 27.82400 23.91600
N  -4.48000 25.50100 27.78800
C  -3.96400 26.27500 28.75000
C  -4.50300 25.87000 30.11100
C  -5.18700 24.53700 29.83200
C  -5.45600 24.68100 28.31300
C  -4.30900 23.27400 30.18800
C  -5.43100 26.92400 30.79700
C  -5.89800 26.63800 32.25700
H  -5.34400 25.52000 33.03600
N  -5.68600 24.47700 25.16200
C  -6.52100 23.85300 26.12600
C  -7.27900 22.86300 25.44300
C  -6.89500 22.85400 24.07700
C  -5.87000 23.89500 23.95600
C  -8.19500 21.92500 26.18600
C  -7.39900 21.90000 22.95300
O  -6.95600 22.01800 21.73900
C  -8.60100 20.99400 23.27100
N  -3.76400 26.13700 23.59200
C  -4.13700 25.30200 22.55800
C  -3.38700 25.58500 21.28500
C  -2.53400 26.83300 21.70300
C  -2.76100 26.92300 23.15500
C  -2.62500 24.33200 20.78700
C  -2.76200 28.06600 20.90600
C  -1.54100 28.85700 20.35500
N  -2.93200 27.38000 26.13700
C  -2.06600 28.11600 25.30300
C  -1.44300 29.15600 26.07300
C  -1.81900 28.86300 27.41600
C  -2.65200 27.72900 27.39000
C  -0.47600 30.23300 25.55500
C  -1.58000 29.21100 28.72500
O  -0.87500 30.04800 29.27000
C  -2.44800 28.27600 29.59000
C  -1.61800 27.56400 30.61900
O  -0.88000 26.59400 30.44000
O  -1.87700 28.05700 31.86800
C  -1.26700 27.40200 33.02700
H  -7.15100 23.52300 28.19200
H  -5.41400 23.79600 21.85600
H  -1.49900 28.60400 23.37400
H  -3.63100 25.68600 30.73800
H  -6.03900 24.39800 30.49800
H  -4.82800 22.69700 30.95400
H  -3.31700 23.32100 30.63800
H  -4.06500 22.50900 29.45100
H  -6.40000 26.92900 30.29700
H  -5.17400 27.96000 30.57800
H  -6.98700 26.66900 32.22900
H  -5.57000 27.49500 32.84600
H  -8.27000 22.21700 27.23300
H  -7.88900 20.88700 26.05300
H  -9.20300 22.08100 25.80400
H  -8.39600 20.15500 23.93600
H  -8.92700 20.52500 22.34200
H  -9.41700 21.59400 23.67200
H  -4.16200 25.87500 20.57500
H  -1.49100 26.52400 21.77000
H  -2.94500 24.06200 19.78100
H  -2.70600 23.45400 21.42800
H  -1.55700 24.53000 20.70000
H  -3.35300 28.77600 21.48500
H  -3.28900 27.67600 20.03500
H  -1.43800 29.81200 20.87000
H  -1.66200 28.92900 19.27400
H  -0.57700 28.36100 20.46600
H  -0.26400 30.03500 24.50400
H  0.43200 30.09300 26.14100
H  -0.92500 31.20400 25.76200
H  -3.22200 28.82900 30.12300
H  -1.40600 26.32200 32.98500
H  -1.76200 27.82900 33.89900
H  -0.21200 27.64200 33.16300

