158

Mg -10.55000 37.75000 41.40600
C  -8.28600 35.05200 40.99700
C  -8.26500 39.75700 39.54700
C  -12.86900 40.20900 41.22300
C  -12.83800 35.56500 42.65200
N  -8.54400 37.38000 40.22400
C  -7.85400 36.19000 40.31900
C  -6.57000 36.30300 39.39700
C  -6.42400 37.86100 39.18600
C  -7.81900 38.40100 39.70000
C  -5.23200 38.62300 39.85200
C  -6.64600 35.51100 38.02100
C  -5.36900 34.79800 37.53200
H  -4.57100 35.57100 36.47100
N  -10.50500 39.70900 40.66900
C  -9.47800 40.34300 39.89700
C  -9.87000 41.76200 39.79300
C  -11.14200 41.96800 40.42000
C  -11.58500 40.58600 40.79200
C  -9.00600 42.76400 39.04500
C  -11.92300 43.28200 40.45600
O  -11.38900 44.35800 40.10900
C  -13.39500 43.32100 40.62800
N  -12.66100 37.83500 41.65800
C  -13.37700 38.96300 41.58300
C  -14.74400 38.76000 42.24700
C  -14.74200 37.25500 42.76700
C  -13.33400 36.86000 42.41000
C  -15.16800 39.63000 43.49100
C  -15.76100 36.40700 42.07200
C  -16.79500 35.53800 42.83200
N  -10.62600 35.69900 41.86000
C  -11.58100 34.93700 42.43900
C  -11.12700 33.57000 42.54800
C  -9.84700 33.59700 41.99900
C  -9.62200 34.93400 41.62500
C  -11.74200 32.37000 43.18600
C  -8.73000 32.81000 41.73500
O  -8.51500 31.64000 41.97400
C  -7.66200 33.62600 41.01500
C  -6.29600 33.48600 41.83200
O  -5.55300 32.53100 41.69100
O  -6.03600 34.65000 42.49200
C  -4.84400 34.59200 43.33100
H  -7.62600 40.46800 39.02000
H  -13.55700 41.03700 41.40500
H  -13.54700 34.86400 43.09800
H  -5.73100 35.92600 39.98200
H  -6.31300 38.00000 38.11100
H  -4.61500 37.82700 40.26900
H  -5.43600 39.34100 40.64600
H  -4.83900 39.19000 39.00700
H  -7.11300 36.18000 37.29800
H  -7.37500 34.70700 38.12300
H  -5.56200 33.78400 37.18400
H  -4.72900 34.77700 38.41500
H  -8.13300 42.29500 38.59200
H  -8.66000 43.42000 39.84400
H  -9.48600 43.31600 38.23700
H  -13.67900 43.17700 41.67100
H  -13.90900 42.63700 39.95300
H  -13.65300 44.35500 40.40100
H  -15.40400 38.87700 41.38700
H  -14.81600 37.10900 43.84400
H  -15.51500 40.55300 43.02700
H  -14.28500 40.12200 43.90000
H  -15.95000 39.27100 44.16000
H  -15.16400 35.76300 41.42600
H  -16.48100 37.04700 41.56300
H  -16.59300 35.45500 43.90000
H  -16.75400 34.50300 42.49200
H  -17.83100 35.80800 42.63000
H  -12.82800 32.42800 43.11600
H  -11.51800 32.25100 44.24600
H  -11.50300 31.42700 42.69400
H  -7.33000 33.21500 40.06100
H  -4.42600 35.55700 43.61900
H  -3.94600 34.14600 42.90400
H  -5.13200 34.05300 44.23400
Mg -5.13400 25.68700 25.96300
C  -3.69900 26.90700 28.80600
C  -7.01900 23.47300 27.86600
C  -6.51200 24.30300 23.08700
C  -2.68100 27.27600 24.04700
N  -5.34800 25.24300 28.06900
C  -4.70800 26.00000 29.09300
C  -5.23900 25.58800 30.39800
C  -5.95700 24.21300 30.13200
C  -6.11000 24.31800 28.57200
C  -5.26700 22.97500 30.68500
C  -6.19600 26.72100 31.06500
C  -6.13200 26.92100 32.60400
H  -5.55300 25.78800 33.41200
N  -6.71500 24.22600 25.50000
C  -7.31300 23.42500 26.44900
C  -8.28100 22.66800 25.76200
C  -8.19500 22.89400 24.36300
C  -7.14700 23.87900 24.25700
C  -9.28000 21.82800 26.44100
C  -9.02200 22.18500 23.23900
O  -8.80400 22.30700 22.05900
C  -10.15500 21.13600 23.54200
N  -4.81200 26.03200 23.84900
C  -5.38100 25.16700 22.93100
C  -4.80000 25.36300 21.50000
C  -3.67900 26.37800 21.79300
C  -3.65500 26.56600 23.34800
C  -4.24200 24.07600 20.79900
C  -3.84100 27.75900 21.07200
C  -2.54000 28.32400 20.42500
N  -3.51400 26.85900 26.22600
C  -2.58700 27.53400 25.43200
C  -1.70700 28.28000 26.28200
C  -2.10700 28.03200 27.57400
C  -3.18400 27.22500 27.52600
C  -0.52500 29.07400 25.76800
C  -1.77900 28.32900 28.96600
O  -0.79200 28.96300 29.40300
C  -2.85500 27.66700 29.80000
C  -2.14800 26.77800 30.78700
O  -1.91300 25.56800 30.61100
O  -1.83700 27.47200 31.96000
C  -1.18100 26.82200 33.12400
H  -7.58900 22.77400 28.48200
H  -6.85000 23.94300 22.11300
H  -1.80300 27.67100 23.53300
H  -4.38900 25.39500 31.05200
H  -6.91600 24.16600 30.64900
H  -4.70300 22.53400 29.86400
H  -6.03800 22.33300 31.11100
H  -4.57400 23.23600 31.48400
H  -7.22400 26.51200 30.76900
H  -6.02800 27.70500 30.62800
H  -7.12200 27.11600 33.01500
H  -5.60100 27.86300 32.74500
H  -10.27600 22.10400 26.09400
H  -9.23200 21.93800 27.52500
H  -9.16500 20.76000 26.25500
H  -11.00800 21.56300 24.07000
H  -9.62200 20.36900 24.10400
H  -10.54300 20.77400 22.59000
H  -5.59500 25.86800 20.95200
H  -2.77900 25.87000 21.44600
H  -4.71000 23.87900 19.83400
H  -4.37600 23.22400 21.46500
H  -3.17800 24.10700 20.56300
H  -4.20600 28.45900 21.82300
H  -4.66900 27.68400 20.36700
H  -2.69800 28.13700 19.36300
H  -1.53900 27.94700 20.63500
H  -2.65000 29.38400 20.65300
H  -0.78800 30.13100 25.81000
H  -0.32200 28.66400 24.77800
H  0.32400 28.99700 26.44700
H  -3.48400 28.29700 30.42900
H  -1.16700 27.67000 33.80900
H  -0.14500 26.63700 32.83800
H  -1.72900 25.96900 33.52300

