158

Mg 8.68700 3.48500 27.77700
C  10.18200 2.31700 30.74300
C  6.67800 5.55400 29.83300
C  7.12600 4.26600 25.04300
C  10.67300 1.12300 26.11200
N  8.44800 3.77500 30.05300
C  9.21700 3.22900 31.04900
C  8.76000 3.74700 32.49200
C  7.50800 4.61300 32.20100
C  7.48700 4.63700 30.59500
C  6.11800 4.17000 32.81800
C  9.91200 4.54000 33.28700
C  10.13400 4.10600 34.75200
H  10.74900 5.06000 35.73000
N  7.16000 4.73000 27.49300
C  6.47000 5.55800 28.40100
C  5.52700 6.36200 27.63700
C  5.63400 5.96600 26.26800
C  6.61400 4.94000 26.20400
C  4.61900 7.30200 28.47000
C  4.85200 6.53200 25.06300
O  4.89500 6.17500 23.90000
C  3.78800 7.60600 25.28000
N  8.90400 2.81300 25.81900
C  8.12500 3.32800 24.86300
C  8.40700 2.65100 23.54600
C  9.62900 1.77000 23.86400
C  9.78300 1.90700 25.34300
C  7.27400 1.90200 22.83000
C  11.03800 2.06100 23.14800
C  11.92800 3.21400 23.67600
N  10.21500 2.02200 28.25600
C  10.87400 1.16200 27.46900
C  11.74100 0.31700 28.31300
C  11.61700 0.82400 29.57400
C  10.57700 1.77200 29.51400
C  12.73600 -0.77300 27.74400
C  11.98000 0.67900 30.97300
O  12.81200 -0.04900 31.48200
C  11.09500 1.64500 31.74500
C  10.31100 0.91700 32.77300
O  9.18000 0.46700 32.54600
O  11.03000 0.75500 33.93100
C  10.22400 0.02600 34.87200
H  6.08700 6.28800 30.38500
H  6.70900 4.56300 24.07900
H  11.32600 0.41400 25.59900
H  8.39800 2.88400 33.05100
H  7.63700 5.55600 32.73400
H  6.15600 3.31700 33.49600
H  5.28900 3.93800 32.14900
H  5.67000 4.98300 33.39000
H  9.54900 5.56500 33.20900
H  10.80200 4.51400 32.65900
H  10.77400 3.24700 34.55200
H  9.23800 3.68700 35.21200
H  4.06500 7.96100 27.80200
H  5.18800 8.05100 29.02000
H  3.89200 6.72600 29.04300
H  3.13600 7.37800 26.12300
H  3.21000 7.77600 24.37100
H  4.36300 8.52900 25.35600
H  8.89200 3.41600 22.93900
H  9.41700 0.72800 23.62300
H  6.74000 1.27100 23.54100
H  7.68500 1.17400 22.13100
H  6.56600 2.62700 22.42700
H  10.77900 2.32500 22.12300
H  11.64600 1.15600 23.14900
H  11.47700 3.81800 24.46400
H  12.26800 3.78800 22.81500
H  12.88400 2.86100 24.06300
H  13.34200 -0.31900 26.96000
H  12.09100 -1.54200 27.31800
H  13.39700 -1.21200 28.49000
H  11.76000 2.36300 32.22400
H  10.82700 -0.11600 35.76900
H  9.97600 -0.92800 34.40500
H  9.27800 0.53600 35.05100
Mg 39.49300 9.38400 29.32800
C  41.31200 10.59100 31.90300
C  37.62100 7.50600 31.60600
C  37.94400 7.94100 26.74000
C  41.97800 10.51800 27.03300
N  39.34800 9.16200 31.43900
C  40.21700 9.86400 32.31100
C  39.79300 9.73000 33.71900
C  38.75400 8.50400 33.70400
C  38.54500 8.34100 32.17200
C  39.28700 7.16200 34.31900
C  39.19300 11.07600 34.22900
C  39.15000 11.10800 35.70900
H  39.60100 12.41100 36.35700
N  37.88400 8.04000 29.21000
C  37.18000 7.37400 30.22400
C  36.10000 6.59100 29.61500
C  36.15900 6.78200 28.19900
C  37.37100 7.61700 28.00000
C  35.16000 5.86900 30.61800
C  35.27000 6.13200 27.07300
O  35.49700 6.41400 25.87500
C  34.22000 5.16000 27.46200
N  39.98400 9.22600 27.18900
C  39.09400 8.61700 26.38700
C  39.44600 8.85400 24.94400
C  40.74900 9.71400 25.00800
C  41.00100 9.81200 26.49300
C  39.67900 7.63300 24.05300
C  40.61300 11.09600 24.27900
C  39.63300 12.11700 24.80900
N  41.29100 10.31500 29.44200
C  42.15600 10.68900 28.42200
C  43.26000 11.33200 29.10000
C  43.01300 11.30200 30.45900
C  41.75800 10.66900 30.60400
C  44.48000 11.91200 28.35400
C  43.46500 11.75500 31.75300
O  44.52000 12.33000 31.99100
C  42.40700 11.40200 32.78000
C  43.07800 10.45500 33.77500
O  43.82300 9.53800 33.56500
O  42.79100 10.85400 35.03300
C  43.09100 10.04500 36.23200
H  37.04900 6.92100 32.33000
H  37.46800 7.50100 25.86100
H  42.68300 10.99500 26.34800
H  40.67100 9.60500 34.35200
H  37.78600 8.75100 34.14000
H  40.27100 7.37100 34.73900
H  39.42500 6.43200 33.52200
H  38.64500 6.77700 35.11100
H  38.21300 11.07600 33.75200
H  39.57500 11.98200 33.75600
H  39.67100 10.25900 36.15200
H  38.09900 11.11400 36.00000
H  35.38700 5.92500 31.68200
H  35.07900 4.81900 30.33400
H  34.16800 6.30700 30.51000
H  33.67500 5.55500 28.31900
H  34.77400 4.25200 27.70400
H  33.60400 5.04000 26.57100
H  38.58200 9.37900 24.53500
H  41.54500 9.20800 24.46100
H  38.88700 7.44600 23.32800
H  39.71200 6.72900 24.66100
H  40.59500 7.60300 23.46300
H  40.28400 10.93100 23.25300
H  41.53700 11.67000 24.20700
H  39.24200 11.92800 25.80900
H  38.75000 12.02000 24.17700
H  40.03200 13.12900 24.88600
H  44.21100 12.15200 27.32600
H  45.33800 11.25700 28.50100
H  44.74800 12.78500 28.95000
H  41.98200 12.30700 33.21400
H  42.94300 9.00300 35.95000
H  42.51400 10.26600 37.13000
H  44.16900 10.12600 36.36800

