158

Mg 44.56200 4.04500 47.29700
C  42.40700 6.75400 47.00800
C  41.74500 1.88100 47.21800
C  46.61800 1.42000 47.22300
C  47.23500 6.23900 47.26800
N  42.37700 4.33200 47.01000
C  41.75700 5.49900 46.86800
C  40.32200 5.26800 46.68700
C  39.93600 3.77200 47.02600
C  41.41300 3.21100 47.11000
C  39.03900 3.56100 48.24000
C  40.01600 5.60800 45.14400
C  39.06300 6.67600 44.80100
H  39.42100 7.64300 43.66800
N  44.20900 2.00200 47.28200
C  43.05700 1.30600 47.28200
C  43.29500 -0.11800 47.08900
C  44.69800 -0.27100 47.19100
C  45.22000 1.10700 47.17600
C  42.30500 -1.15900 46.79900
C  45.44000 -1.60500 47.11100
O  44.88100 -2.67500 47.24900
C  46.88300 -1.73600 46.81200
N  46.67300 3.86400 47.25800
C  47.30000 2.65700 47.18800
C  48.86100 2.84500 47.20100
C  49.02200 4.37900 47.11500
C  47.59400 4.89700 47.25700
C  49.50800 2.34800 48.48100
C  49.62500 4.92000 45.76800
C  51.10300 5.43000 45.89600
N  44.83100 6.17400 47.12300
C  45.98600 6.90100 47.15100
C  45.56000 8.30200 47.14100
C  44.17100 8.34300 47.14200
C  43.77500 6.97700 47.12000
C  46.48000 9.55500 47.28000
C  42.97300 9.17700 47.16000
O  42.84200 10.36300 47.20900
C  41.80700 8.16000 47.05200
C  40.91100 8.25400 48.27100
O  41.07200 7.62000 49.33000
O  40.01500 9.25200 48.04900
C  39.01200 9.52500 49.05300
H  40.82900 1.28900 47.18200
H  47.32300 0.58700 47.18400
H  48.04600 6.95500 47.42000
H  39.70800 5.95800 47.26600
H  39.58400 3.14200 46.20900
H  38.57500 2.57500 48.23200
H  38.35600 4.40100 48.37300
H  39.76000 3.63300 49.05400
H  39.66500 4.73000 44.60200
H  40.95600 5.85500 44.65100
H  38.99100 7.42400 45.59000
H  38.12300 6.16500 44.59200
H  42.31100 -1.68900 45.84600
H  41.28300 -0.88200 47.05800
H  42.53400 -2.01800 47.42900
H  46.98200 -1.00100 46.01300
H  47.24700 -2.65800 46.35800
H  47.53200 -1.47500 47.64800
H  49.17600 2.19800 46.38100
H  49.47900 4.86100 47.97900
H  50.16700 1.52000 48.22200
H  48.75200 1.94700 49.15600
H  50.14900 3.10600 48.93200
H  48.92700 5.69300 45.44500
H  49.67000 4.13100 45.01700
H  51.61900 5.41700 44.93600
H  51.64800 4.75900 46.56000
H  51.09600 6.46400 46.24100
H  46.78800 9.75700 48.30600
H  46.08000 10.47400 46.85100
H  47.34200 9.27800 46.67300
H  41.30400 8.41900 46.12000
H  38.76100 10.58600 49.03700
H  39.34400 9.30700 50.06700
H  38.06000 9.01800 48.89400
Mg -4.40900 25.29700 26.06800
C  -2.83500 26.51900 28.96900
C  -6.21600 23.23900 27.82000
C  -5.43700 23.75200 23.16000
C  -2.09200 27.14500 24.10700
N  -4.43700 24.91400 28.17500
C  -3.81000 25.59100 29.18500
C  -4.43700 25.16900 30.50500
C  -5.32900 23.96700 30.12100
C  -5.30100 24.07600 28.59400
C  -4.82400 22.62500 30.72000
C  -5.30900 26.36000 31.11600
C  -5.32500 26.51000 32.64300
H  -4.74000 25.32400 33.46100
N  -5.89700 23.93600 25.59200
C  -6.55100 23.15200 26.47400
C  -7.48900 22.21700 25.80400
C  -7.25200 22.48200 24.37900
C  -6.14000 23.41100 24.29400
C  -8.58100 21.38400 26.44200
C  -7.91200 21.88500 23.14000
O  -7.54800 22.17400 21.99400
C  -9.09600 20.92900 23.28700
N  -3.81100 25.38800 23.94900
C  -4.39100 24.67000 22.97300
C  -3.70200 24.90400 21.58600
C  -2.78800 26.12200 21.93000
C  -2.93200 26.28200 23.42400
C  -2.98800 23.70700 20.93500
C  -3.07000 27.50300 21.14200
C  -1.77300 27.91400 20.31900
N  -2.76300 26.62300 26.46100
C  -2.00300 27.31000 25.57600
C  -0.98200 28.07600 26.28800
C  -1.26800 27.84900 27.65500
C  -2.40400 26.92800 27.67400
C  0.08300 28.91000 25.65600
C  -0.91300 28.19400 28.99900
O  -0.08700 28.99200 29.42400
C  -1.95700 27.40100 29.92600
C  -1.12500 26.62600 30.85100
O  -0.80600 25.48200 30.66100
O  -0.84900 27.27600 32.02400
C  -0.16700 26.53200 33.13200
H  -6.76100 22.53900 28.45700
H  -5.45200 23.14000 22.25600
H  -1.33600 27.64800 23.50100
H  -3.63700 24.87300 31.18300
H  -6.37500 24.16300 30.35700
H  -3.78400 22.55100 31.03500
H  -4.90200 21.84900 29.95800
H  -5.43200 22.40900 31.59900
H  -6.32100 26.44000 30.72100
H  -4.82800 27.28500 30.79800
H  -6.38700 26.58400 32.87700
H  -4.70100 27.35200 32.94500
H  -8.59800 21.62800 27.50500
H  -8.25900 20.36900 26.21200
H  -9.60400 21.60900 26.14000
H  -8.91300 20.20100 24.07800
H  -9.18600 20.51200 22.28300
H  -9.99400 21.51500 23.48200
H  -4.56500 25.31100 21.05900
H  -1.79500 25.69800 21.78000
H  -3.05700 22.87100 21.63100
H  -1.98600 24.04300 20.67000
H  -3.47500 23.57200 19.96900
H  -3.44000 28.27700 21.81400
H  -3.78700 27.32200 20.34000
H  -2.24400 27.95100 19.33600
H  -1.08400 27.07000 20.28500
H  -1.28300 28.77800 20.76800
H  -0.23600 29.51900 24.81000
H  1.00000 28.32800 25.56500
H  0.29400 29.62200 26.45300
H  -2.66200 28.04800 30.44700
H  0.90900 26.69400 33.19700
H  -0.30400 25.45100 33.09800
H  -0.62800 26.86300 34.06200

