158

Mg 8.38600 3.10300 27.58700
C  10.19100 1.78300 30.45500
C  6.53200 5.07700 29.90500
C  6.52100 3.96000 25.08700
C  10.14600 0.68300 25.72000
N  8.42600 3.32800 29.93100
C  9.32900 2.82500 30.85300
C  9.27400 3.60300 32.12000
C  8.03900 4.59200 31.95200
C  7.60700 4.34500 30.50700
C  6.90900 4.45500 32.99700
C  10.61700 4.39900 32.36000
C  11.21200 4.12400 33.73100
H  10.85000 5.02600 34.92900
N  6.82200 4.37400 27.47000
C  6.14800 5.01700 28.47200
C  5.03900 5.72000 27.92600
C  5.06500 5.57900 26.53000
C  6.21000 4.66100 26.25700
C  4.02900 6.37200 28.79500
C  4.10100 6.25100 25.53300
O  4.10100 5.92200 24.36000
C  3.22700 7.33700 25.86200
N  8.48900 2.56200 25.69200
C  7.51800 2.95300 24.86700
C  7.83100 2.39000 23.40000
C  9.01300 1.48400 23.54000
C  9.27500 1.56100 25.07300
C  6.51500 1.73100 22.83600
C  10.30200 1.87200 22.80600
C  10.71400 1.09200 21.54000
N  9.84600 1.49800 27.93000
C  10.43000 0.63800 27.03500
C  11.33800 -0.23100 27.70000
C  11.32500 0.23000 29.06900
C  10.32000 1.24800 29.14600
C  12.10800 -1.25900 27.04500
C  11.97400 0.11000 30.31500
O  12.86800 -0.65000 30.67300
C  11.22800 1.06600 31.32000
C  10.52800 0.21800 32.29400
O  9.78100 -0.71600 32.11900
O  10.93000 0.59400 33.49800
C  10.32800 -0.06000 34.69700
H  6.09900 5.79000 30.61000
H  5.97000 4.23700 24.18600
H  10.64500 -0.00700 25.03800
H  9.03500 3.03300 33.01800
H  8.36300 5.63300 31.92300
H  6.00700 4.17200 32.45500
H  6.78100 5.42300 33.48100
H  7.15000 3.67200 33.71500
H  10.46100 5.47400 32.26600
H  11.36600 4.22300 31.58700
H  12.29000 3.97000 33.68200
H  10.80600 3.18600 34.10900
H  4.10400 7.44500 28.61800
H  4.08900 6.05300 29.83600
H  3.01100 6.11900 28.49900
H  3.80100 8.12600 26.34700
H  2.35900 6.89200 26.34800
H  2.99900 7.80000 24.90200
H  7.95800 3.24500 22.73700
H  8.68000 0.46800 23.32500
H  5.80900 1.71200 23.66600
H  6.69300 0.74600 22.40400
H  5.98800 2.34900 22.10900
H  11.10700 1.84100 23.54100
H  10.23500 2.92600 22.53700
H  10.90700 1.83200 20.76300
H  9.95400 0.37600 21.22600
H  11.61100 0.48100 21.63400
H  11.44000 -2.06500 26.73900
H  12.93300 -1.70400 27.60100
H  12.51300 -0.91700 26.09200
H  11.81800 1.88300 31.73400
H  9.30400 -0.41500 34.57400
H  10.22500 0.76800 35.39800
H  11.03000 -0.68100 35.25300
Mg 24.86100 -5.45300 46.22000
C  27.28900 -3.53500 44.48400
C  22.57700 -4.30000 43.88500
C  23.01800 -8.14000 46.90100
C  27.43500 -6.62000 48.25500
N  24.87000 -3.95300 44.48400
C  26.02400 -3.36800 43.95100
C  25.59700 -2.53500 42.73600
C  24.06700 -2.39400 42.86600
C  23.84100 -3.58300 43.77400
C  23.60900 -1.03800 43.45000
C  26.16700 -3.14700 41.51500
C  26.51900 -2.03100 40.39900
H  26.06800 -2.34100 38.96100
N  23.01900 -6.04300 45.53600
C  22.19300 -5.46500 44.65900
C  20.99400 -6.24900 44.44600
C  21.01600 -7.25400 45.38600
C  22.38100 -7.20300 46.00700
C  19.90900 -5.90000 43.39600
C  19.94500 -8.35400 45.56200
O  18.83000 -8.23800 45.01900
C  20.12300 -9.50600 46.54400
N  25.12400 -7.08000 47.39900
C  24.25900 -8.14300 47.48300
C  24.58400 -9.06000 48.71700
C  26.09000 -8.73800 48.87400
C  26.17600 -7.35700 48.22700
C  23.83900 -8.59600 49.90400
C  26.98400 -9.74700 48.08500
C  27.70800 -10.80100 48.91300
N  27.03500 -5.06500 46.43800
C  27.89400 -5.64800 47.31200
C  29.24600 -5.10000 47.08900
C  29.04000 -4.26400 46.00200
C  27.71000 -4.36100 45.60500
C  30.45900 -5.22800 47.91200
C  29.77100 -3.30700 45.09500
O  30.96400 -3.13600 45.02400
C  28.64400 -2.84400 44.08900
C  28.53200 -1.38500 44.14000
O  28.37000 -0.77600 45.17700
O  28.71300 -0.75100 42.91700
C  28.66900 0.77300 42.95200
H  21.88800 -3.84800 43.16800
H  22.37700 -8.97200 47.19800
H  28.13200 -7.14200 48.91500
H  26.02500 -1.56300 42.98100
H  23.51100 -2.63600 41.96000
H  24.35600 -0.27000 43.65000
H  23.01400 -1.31600 44.32000
H  22.91400 -0.46500 42.83600
H  25.40100 -3.88600 41.27800
H  27.05300 -3.72100 41.78600
H  27.60300 -2.13200 40.44200
H  26.16000 -1.04900 40.70700
H  19.97900 -4.94500 42.87600
H  18.92100 -5.87600 43.85600
H  20.01900 -6.68400 42.64700
H  19.24600 -10.09800 46.80400
H  20.38800 -8.96300 47.45100
H  20.93300 -10.15300 46.20700
H  24.39900 -10.11300 48.50300
H  26.47000 -8.72000 49.89500
H  22.76900 -8.55400 49.70100
H  24.17100 -7.59300 50.17400
H  23.94200 -9.30200 50.72800
H  27.73400 -9.21500 47.50000
H  26.41800 -10.37800 47.40000
H  27.74400 -10.45300 49.94600
H  28.71800 -10.96500 48.53800
H  27.13900 -11.72900 48.86600
H  30.78100 -4.21600 48.15700
H  31.17800 -5.82400 47.35000
H  30.30400 -5.80800 48.82200
H  28.92300 -3.07500 43.06100
H  27.81600 1.03700 43.57700
H  28.51200 1.06300 41.91300
H  29.55400 1.26300 43.35800

