158

Mg 15.96700 51.81400 25.91800
C  17.73700 51.07200 28.86200
C  13.23600 52.60400 27.91300
C  14.37700 52.61100 23.24100
C  18.63500 50.64100 24.00500
N  15.49500 51.71700 28.11500
C  16.44500 51.57100 29.11200
C  15.88800 51.85600 30.43700
C  14.32600 52.12600 30.07300
C  14.31200 52.20000 28.58200
C  13.20800 51.13900 30.59700
C  16.76900 53.00900 31.06200
C  17.00300 52.98800 32.54900
H  16.02700 52.12100 33.32200
N  14.00200 52.47800 25.53600
C  13.13700 52.67500 26.48000
C  11.92800 53.29400 25.83500
C  12.30000 53.41700 24.45900
C  13.60100 52.85500 24.35900
C  10.70600 53.79500 26.59300
C  11.55200 54.13700 23.36300
O  11.95400 54.18200 22.25400
C  10.26700 54.95600 23.60800
N  16.45300 51.58800 23.87500
C  15.61400 51.98900 22.97200
C  16.13600 51.66400 21.51300
C  17.57100 51.18500 21.71500
C  17.65200 51.13700 23.26100
C  15.19900 50.69200 20.69600
C  18.62300 52.16100 21.14400
C  19.33500 51.75400 19.78800
N  17.73600 50.97200 26.31200
C  18.75300 50.63800 25.44500
C  19.92400 50.18200 26.14600
C  19.53200 50.27700 27.50900
C  18.26400 50.78100 27.54100
C  21.25700 49.66900 25.49100
C  19.95900 49.99000 28.89300
O  20.97800 49.48600 29.33700
C  18.84500 50.64100 29.76000
C  18.38500 49.61000 30.79700
O  17.61200 48.70800 30.65300
O  19.13800 49.86100 31.94700
C  18.83800 48.91600 32.97600
H  12.42900 53.06800 28.48400
H  13.92800 52.88000 22.28200
H  19.53200 50.27300 23.50100
H  15.91400 50.88800 30.93700
H  14.25600 53.17200 30.36900
H  13.60800 50.54600 31.41900
H  12.92200 50.41700 29.83100
H  12.32600 51.63200 31.00700
H  16.07700 53.84500 30.96700
H  17.56700 53.23700 30.35500
H  16.95000 54.00700 32.93300
H  18.00400 52.56300 32.63300
H  10.66500 53.24600 27.53400
H  9.80400 53.61900 26.00700
H  10.66100 54.88400 26.58100
H  10.37400 55.64400 24.44700
H  9.50500 54.18000 23.67800
H  10.20400 55.66200 22.77900
H  16.15600 52.55200 20.88100
H  17.75200 50.18000 21.33500
H  14.57500 50.08400 21.35100
H  15.80000 50.13500 19.97800
H  14.51500 51.29500 20.09800
H  19.38000 52.30100 21.91500
H  18.14400 53.12600 20.98100
H  20.39400 51.53100 19.92500
H  19.16200 52.52400 19.03600
H  18.85300 50.82200 19.49500
H  21.55400 50.23200 24.60600
H  21.08100 48.62800 25.21700
H  22.01400 49.77000 26.26800
H  19.25200 51.49100 30.30700
H  18.90400 47.90200 32.58000
H  17.86700 49.05200 33.45200
H  19.56600 49.02300 33.78000
Mg 9.15300 47.57700 25.32500
C  7.06100 47.40500 28.17700
C  11.63500 48.96500 27.09100
C  10.99200 47.43100 22.64000
C  6.22700 46.93100 23.42200
N  9.28300 48.08000 27.38400
C  8.34600 47.96100 28.41600
C  8.90500 48.58300 29.73200
C  10.26100 49.23200 29.26300
C  10.40000 48.76100 27.76800
C  10.21700 50.81400 29.19700
C  9.03800 47.58500 30.96700
C  8.43600 48.14400 32.27800
H  7.97500 47.35200 33.54500
N  11.08700 47.97100 24.96000
C  12.00000 48.57200 25.82500
C  13.32200 48.60200 25.20400
C  13.15200 48.04500 23.91300
C  11.67600 47.77600 23.79400
C  14.63600 48.92800 26.03100
C  14.19200 47.73400 22.86200
O  13.92500 47.25600 21.74500
C  15.60200 47.95600 23.15300
N  8.67000 47.40500 23.27900
C  9.64600 47.28000 22.42900
C  9.12500 46.73000 21.09100
C  7.63400 46.29700 21.38300
C  7.44400 46.92900 22.79400
C  9.35500 47.77800 19.91800
C  7.38900 44.72300 21.34000
C  8.47400 43.75700 21.94100
N  7.03000 47.29500 25.68200
C  6.05400 47.03500 24.76200
C  4.80100 46.81500 25.46400
C  5.09200 46.99700 26.82100
C  6.49400 47.26200 26.87600
C  3.44700 46.67200 24.96100
C  4.60700 47.02200 28.22900
O  3.51100 46.79700 28.69900
C  5.89400 47.18600 29.12500
C  5.97300 45.90900 29.87600
O  6.63600 44.94800 29.58500
O  5.16200 45.97500 30.94800
C  4.88500 44.83500 31.91200
H  12.28400 49.63400 27.66000
H  11.62100 47.18700 21.78200
H  5.42500 46.55300 22.78400
H  8.27700 49.43400 29.99500
H  11.17200 48.89800 29.76000
H  11.14100 51.17100 28.74100
H  10.25700 51.21600 30.20900
H  9.31200 51.20900 28.73700
H  10.12000 47.48100 31.05300
H  8.71000 46.56500 30.76600
H  7.43300 48.45900 31.99000
H  8.90800 49.11500 32.42800
H  14.31500 49.28000 27.01200
H  15.11800 49.79200 25.57300
H  15.24200 48.02700 26.11500
H  15.91500 47.39400 24.03200
H  15.66600 48.98300 23.51400
H  16.17800 47.84100 22.23500
H  9.67200 45.87200 20.69900
H  6.99100 46.71000 20.60600
H  8.44500 47.92300 19.33600
H  10.09900 47.43000 19.20100
H  9.73200 48.72800 20.29400
H  7.14800 44.35500 20.34200
H  6.53300 44.53800 21.99000
H  8.03500 43.09500 22.68700
H  9.35900 44.18000 22.41600
H  8.99100 43.22600 21.14200
H  3.43900 46.27200 23.94700
H  3.10900 47.70800 24.97700
H  2.80900 46.11400 25.64600
H  5.79000 47.97700 29.86700
H  3.79900 44.75300 31.91400
H  5.35500 45.02200 32.87800
H  5.27800 43.88200 31.55900

