158

Mg 17.80400 -2.04200 28.04700
C  16.93600 -0.08500 30.83200
C  19.97600 -3.77300 29.94100
C  19.25900 -3.09700 25.25000
C  15.81200 0.26000 26.26800
N  18.31600 -1.87600 30.13400
C  17.87800 -1.06400 31.15600
C  18.31500 -1.54800 32.50500
C  19.36700 -2.62300 32.13700
C  19.19500 -2.87600 30.66200
C  20.84600 -2.33900 32.60200
C  17.00600 -2.10100 33.33300
C  17.06900 -1.71600 34.87200
H  18.49200 -1.92200 35.44000
N  19.29400 -3.44000 27.64200
C  20.03400 -4.04600 28.54000
C  20.75700 -5.08800 27.89900
C  20.52200 -5.05200 26.50100
C  19.70100 -3.79700 26.41400
C  21.63000 -6.11600 28.60500
C  20.89000 -5.97900 25.38400
O  20.60100 -5.68200 24.24900
C  21.76100 -7.16900 25.64400
N  17.56600 -1.51500 26.08500
C  18.35100 -2.00200 25.08100
C  17.87800 -1.45900 23.69200
C  16.70200 -0.53500 24.05100
C  16.68100 -0.63100 25.55400
C  18.95300 -0.64900 22.90600
C  15.35900 -0.92400 23.34700
C  14.56400 0.22200 22.79000
N  16.43800 -0.33500 28.42900
C  15.67700 0.44200 27.61700
C  14.87700 1.42900 28.33900
C  15.40300 1.35700 29.62800
C  16.27800 0.24900 29.62800
C  13.92500 2.37300 27.71100
C  15.36200 1.92000 30.97400
O  14.81400 2.90100 31.45900
C  16.44400 0.98000 31.78300
C  17.58000 1.90900 32.30500
O  18.62200 2.15500 31.79400
O  17.03500 2.49200 33.42700
C  17.88900 3.38900 34.15900
H  20.66200 -4.47400 30.42100
H  19.78300 -3.46900 24.36700
H  15.24500 0.95000 25.63800
H  18.85400 -0.71900 32.96400
H  19.16800 -3.54400 32.68500
H  20.86700 -1.86600 33.58400
H  21.44900 -1.76600 31.89900
H  21.41900 -3.24700 32.79100
H  16.88500 -3.14800 33.05300
H  16.14800 -1.56900 32.92400
H  16.41500 -2.33500 35.48600
H  16.71300 -0.70400 35.06500
H  22.53200 -6.41200 28.07000
H  21.07000 -7.04100 28.74700
H  21.98500 -5.67900 29.53800
H  22.71800 -6.85100 26.05800
H  21.83200 -7.57700 24.63600
H  21.28900 -7.87000 26.33100
H  17.53700 -2.32800 23.12900
H  16.82600 0.49600 23.71700
H  19.90100 -0.82600 23.41600
H  18.76000 0.41800 22.79900
H  19.07100 -1.13900 21.94000
H  14.73900 -1.31100 24.15600
H  15.50400 -1.75100 22.65100
H  14.96500 1.18900 23.09300
H  13.56000 0.24700 23.21300
H  14.40200 0.08100 21.72100
H  14.49200 3.26900 27.45500
H  13.12300 2.54400 28.42800
H  13.59900 1.85700 26.80700
H  15.86900 0.57500 32.61600
H  18.92600 3.35800 33.82400
H  17.80500 3.08300 35.20200
H  17.30400 4.28100 33.93500
Mg 35.89600 1.80000 29.32600
C  33.90200 3.15400 31.81200
C  38.64700 1.99600 31.60400
C  38.07500 1.55900 26.72300
C  33.34000 2.36700 27.06000
N  36.18900 2.39600 31.50400
C  35.18100 2.84200 32.27800
C  35.67700 2.89900 33.74800
C  37.26800 2.80800 33.65800
C  37.37800 2.37300 32.16400
C  38.13400 4.03500 33.99700
C  34.99900 1.88600 34.69300
C  34.27300 2.46200 35.89200
H  35.05200 3.49000 36.67000
N  38.00500 1.49800 29.23100
C  38.92800 1.62000 30.24600
C  40.21000 1.21200 29.72600
C  40.10600 1.21800 28.26900
C  38.67200 1.36800 27.96600
C  41.44400 0.85700 30.56200
C  41.17200 1.13300 27.26300
O  40.92800 1.22100 26.09600
C  42.56000 1.29100 27.62400
N  35.70300 1.81200 27.18900
C  36.77300 1.66100 26.35500
C  36.33900 1.58300 24.89000
C  34.78600 1.56400 25.03000
C  34.54400 1.88100 26.50400
C  36.95400 2.72700 23.98600
C  34.14600 0.24300 24.64500
C  33.24600 0.08400 23.33900
N  34.04600 2.56000 29.38000
C  33.08700 2.70600 28.38900
C  31.90200 3.30700 28.93200
C  32.13800 3.42200 30.29100
C  33.48500 2.96500 30.48800
C  30.62800 3.60900 28.14400
C  31.55700 3.79000 31.54600
O  30.45900 4.27200 31.71700
C  32.69400 3.62800 32.55800
C  32.90500 4.95100 33.26300
O  33.62200 5.84300 32.92600
O  32.04200 5.05000 34.32900
C  32.19800 6.13900 35.26300
H  39.41400 1.87500 32.37200
H  38.58900 1.53600 25.76100
H  32.43500 2.34100 26.45000
H  35.39200 3.92800 33.96500
H  37.60100 2.02200 34.33600
H  37.56500 4.68200 34.66500
H  38.65100 4.47500 33.14300
H  39.00400 3.65900 34.53600
H  35.72200 1.27000 35.22800
H  34.34700 1.21700 34.13300
H  33.93600 1.66500 36.55400
H  33.34500 2.93600 35.57100
H  41.74100 -0.19200 30.56100
H  41.23000 0.99700 31.62100
H  42.28800 1.50700 30.33300
H  42.83700 0.43400 28.23800
H  42.81800 2.21800 28.13600
H  43.14300 1.27500 26.70300
H  36.66000 0.59000 24.57300
H  34.31300 2.37800 24.48000
H  37.95900 2.44400 23.67200
H  37.02100 3.65800 24.54800
H  36.36800 2.96200 23.09700
H  33.44900 -0.08900 25.41400
H  34.94300 -0.49500 24.55600
H  32.20500 0.25200 23.61600
H  33.33300 -0.86900 22.81700
H  33.47200 0.99000 22.77600
H  30.05200 2.71800 27.89400
H  30.79200 4.25700 27.28400
H  30.01900 4.09100 28.90800
H  32.35500 2.84200 33.23300
H  31.26500 6.05300 35.82000
H  32.14700 7.12200 34.79400
H  32.97700 6.02600 36.01700

