158

Mg 16.07200 -2.00500 27.73000
C  15.07800 0.35100 30.21500
C  18.00100 -3.48500 30.14800
C  17.13400 -3.94200 25.25200
C  14.34000 0.18600 25.31500
N  16.44300 -1.58900 29.92900
C  15.92500 -0.60900 30.75200
C  16.51800 -0.67200 32.13800
C  17.70900 -1.68500 32.00800
C  17.41600 -2.25200 30.57200
C  19.20100 -1.23000 32.31300
C  15.44200 -1.13100 33.11700
C  15.31400 -0.49500 34.51000
H  16.47200 0.35800 35.05000
N  17.28700 -3.62600 27.68700
C  17.95600 -4.12800 28.76300
C  18.62600 -5.31500 28.29100
C  18.49600 -5.36900 26.88000
C  17.61500 -4.32600 26.49800
C  19.42900 -6.07700 29.28700
C  19.20700 -6.33100 25.98400
O  18.89400 -6.33900 24.78900
C  20.36600 -7.13600 26.52600
N  15.99400 -1.83800 25.68800
C  16.50000 -2.78400 24.82100
C  16.24800 -2.35900 23.34000
C  15.32200 -1.14900 23.43700
C  15.22600 -0.89400 24.94900
C  17.59400 -2.08300 22.50100
C  13.92500 -1.35400 22.76200
C  13.63500 -0.36700 21.61500
N  14.92500 -0.20200 27.71900
C  14.25800 0.55300 26.66300
C  13.63200 1.66100 27.29000
C  13.85400 1.53000 28.66800
C  14.65000 0.40900 28.84400
C  13.06800 2.79200 26.49000
C  13.61500 2.28800 29.84200
O  12.86600 3.25800 30.04900
C  14.33500 1.47600 30.95400
C  15.17900 2.38600 31.72100
O  16.35000 2.49900 31.63100
O  14.40100 3.07800 32.56100
C  14.85500 4.11500 33.56300
H  18.78000 -3.84000 30.82600
H  17.53800 -4.50000 24.40400
H  13.93900 0.87400 24.56700
H  16.93200 0.31400 32.35100
H  17.44500 -2.57200 32.58400
H  19.68900 -1.70000 33.16700
H  18.99000 -0.19300 32.57700
H  19.92500 -1.26000 31.49900
H  15.62300 -2.20000 33.22800
H  14.53000 -0.94700 32.54800
H  15.02300 -1.19100 35.29600
H  14.44800 0.15100 34.36600
H  20.51000 -5.93100 29.28100
H  19.13500 -7.12200 29.19600
H  19.16900 -5.81000 30.31100
H  21.16400 -6.45700 26.82500
H  20.79000 -7.66600 25.67300
H  19.96000 -7.87400 27.21800
H  15.73700 -3.17100 22.82100
H  15.87500 -0.33400 22.97100
H  18.46200 -2.42800 23.06300
H  17.89300 -1.04200 22.37300
H  17.53200 -2.63800 21.56500
H  13.19800 -1.09000 23.52900
H  13.70900 -2.41300 22.61900
H  13.14400 -0.82500 20.75700
H  14.54500 0.00100 21.14100
H  13.04900 0.46300 22.01000
H  12.00000 2.58000 26.43600
H  13.58700 2.96700 25.54700
H  13.24800 3.80100 26.85900
H  13.65400 0.98800 31.65100
H  15.63300 4.74300 33.12800
H  15.08000 3.78600 34.57700
H  14.00100 4.76500 33.75800
Mg 44.88600 4.07000 46.33600
C  42.93100 7.09000 46.18900
C  41.73700 2.40600 45.72900
C  46.48200 1.43000 45.86600
C  47.68400 6.07800 45.99500
N  42.57500 4.73600 45.63000
C  42.10200 5.98700 45.81700
C  40.58400 6.04700 45.54700
C  40.17100 4.49100 45.61300
C  41.57300 3.80500 45.65500
C  39.27800 4.00300 46.76600
C  40.00800 6.93500 44.37500
C  40.65000 6.78100 42.93300
H  39.85700 6.86000 41.64400
N  44.20300 2.15500 45.82700
C  42.93100 1.62800 45.79600
C  43.07900 0.16500 45.73500
C  44.43100 -0.13700 45.49300
C  45.09300 1.16800 45.74200
C  41.79600 -0.72900 45.59700
C  45.04400 -1.46400 45.20800
O  44.37900 -2.44400 45.03000
C  46.49700 -1.67900 45.03600
N  46.78700 3.89900 45.69000
C  47.28000 2.63100 45.94500
C  48.81000 2.58300 45.99200
C  49.22600 4.10400 45.88900
C  47.77900 4.79200 45.76700
C  49.44600 1.76200 47.12900
C  50.10400 4.32300 44.67100
C  51.55500 4.53700 45.03400
N  45.26800 6.14500 46.38700
C  46.48600 6.78200 46.24700
C  46.33700 8.14300 46.52200
C  44.97100 8.33800 46.53200
C  44.34000 7.03400 46.41100
C  47.46700 9.11000 46.47000
C  43.96500 9.35000 46.72700
O  44.05500 10.57100 46.83100
C  42.57700 8.56700 46.47400
C  41.87500 8.85100 47.70300
O  41.88100 8.20000 48.71400
O  41.16500 9.99200 47.53300
C  40.57800 10.59900 48.69300
H  40.82300 1.82200 45.60000
H  47.18000 0.59100 45.83600
H  48.56500 6.69700 46.17700
H  40.02800 6.47500 46.38200
H  39.81400 4.16900 44.63400
H  38.55600 3.21200 46.56500
H  38.73800 4.72100 47.38300
H  39.96400 3.47300 47.42700
H  40.02700 8.00100 44.60300
H  38.97400 6.68500 44.13900
H  41.14400 5.81000 42.95600
H  41.35300 7.60900 42.84300
H  41.82100 -1.64700 46.18600
H  41.91300 -1.10600 44.58100
H  40.84100 -0.22700 45.74700
H  46.76600 -2.69600 44.75100
H  46.94000 -1.52900 46.02100
H  46.96900 -1.08200 44.25600
H  49.18700 2.02300 45.13600
H  49.69800 4.45700 46.80600
H  50.27100 1.13600 46.79000
H  48.70200 1.13000 47.61300
H  49.77600 2.40200 47.94700
H  49.58700 5.19200 44.26500
H  50.11900 3.44000 44.03200
H  51.78600 3.99700 45.95300
H  51.70100 5.61000 45.15800
H  52.16200 4.15100 44.21500
H  47.19700 10.06300 46.92400
H  47.78500 9.21000 45.43200
H  48.33700 8.76100 47.02800
H  41.94200 8.99200 45.69700
H  39.65700 10.07200 48.94300
H  40.39300 11.62600 48.37900
H  41.28700 10.62400 49.52100

