158

Mg 45.06700 5.35500 48.19900
C  43.06000 8.39000 47.32400
C  42.42100 3.63900 47.58600
C  47.25500 2.85400 47.90700
C  47.81200 7.58400 48.35500
N  43.03200 5.98800 47.22300
C  42.37900 7.21500 47.12100
C  40.96300 7.07100 46.60500
C  40.73000 5.53000 46.95900
C  42.09000 5.04700 47.32900
C  39.61300 5.28000 48.04500
C  40.89200 7.36000 45.06400
C  39.64400 8.18600 44.59100
H  38.97600 7.62000 43.34300
N  44.86100 3.52800 47.87100
C  43.62600 2.99800 47.73000
C  43.81100 1.59700 47.60100
C  45.18900 1.30400 47.63000
C  45.87400 2.59100 47.83800
C  42.67300 0.58600 47.18500
C  45.82100 -0.06600 47.52400
O  45.08200 -1.00600 47.16500
C  47.26000 -0.48100 47.79100
N  47.20600 5.23900 48.29200
C  47.86300 4.08500 48.11300
C  49.34100 4.27800 48.11100
C  49.52700 5.74800 48.17800
C  48.08800 6.23900 48.24500
C  50.14100 3.39900 49.17100
C  50.30400 6.44400 46.93400
C  51.76100 6.13000 46.73900
N  45.37700 7.56200 48.00600
C  46.59200 8.27600 48.18000
C  46.34900 9.69000 48.01200
C  44.97900 9.75100 47.76900
C  44.42700 8.46500 47.71700
C  47.39400 10.75400 48.20800
C  43.83900 10.69600 47.60000
O  43.85200 11.94200 47.58300
C  42.56500 9.81400 47.29800
C  41.54100 10.08000 48.33900
O  41.30900 9.39800 49.31700
O  40.83100 11.17400 47.95200
C  39.71900 11.65800 48.79800
H  41.49600 3.06100 47.55000
H  47.92100 2.00500 47.73900
H  48.72400 8.14700 48.56500
H  40.26100 7.71500 47.13300
H  40.40000 5.04600 46.04000
H  39.06700 6.16500 48.37100
H  40.10100 4.91700 48.95000
H  38.85200 4.54500 47.78600
H  40.98600 6.36900 44.62000
H  41.82300 7.83800 44.75900
H  39.97200 9.19400 44.33800
H  38.85900 8.28500 45.34200
H  42.88800 0.12800 46.21900
H  41.63600 0.91900 47.13300
H  42.63800 -0.20400 47.93500
H  47.23400 -1.54400 48.02900
H  47.75800 0.11000 48.56000
H  47.80700 -0.37700 46.85400
H  49.77800 3.89600 47.18800
H  50.03300 6.10600 49.07500
H  49.52900 2.60600 49.60000
H  50.69400 3.93100 49.94500
H  50.80800 2.83200 48.52300
H  50.21300 7.52600 47.03300
H  49.78900 6.14100 46.02300
H  51.71200 5.50500 45.84700
H  52.13200 5.52000 47.56300
H  52.36600 7.03600 46.73700
H  46.81900 11.67900 48.25300
H  48.10800 10.87700 47.39400
H  47.95700 10.56500 49.12100
H  42.11900 9.94600 46.31200
H  39.61100 11.08800 49.72000
H  38.83700 11.63100 48.15700
H  39.90100 12.68600 49.11300
Mg 16.68600 51.58700 26.81000
C  18.72100 49.62900 28.92900
C  14.52100 51.94100 29.37700
C  14.72600 52.99800 24.60900
C  18.97100 50.54700 24.20000
N  16.75900 51.06600 28.92900
C  17.71600 50.28900 29.55400
C  17.47800 50.29100 31.09100
C  15.94300 50.73400 31.14600
C  15.66500 51.27000 29.70800
C  15.01200 49.68800 31.77900
C  18.47100 51.28400 31.76400
C  18.77000 50.97200 33.20200
H  17.84700 51.49300 34.19200
N  14.88300 52.45300 27.04000
C  14.20600 52.59200 28.14600
C  13.06100 53.38600 27.92300
C  13.02400 53.59300 26.46000
C  14.24600 53.03600 25.98200
C  12.01800 53.77600 29.04500
C  11.97600 54.20500 25.54500
O  12.08900 54.26000 24.33400
C  10.77300 54.79300 26.11800
N  16.87700 51.77100 24.71700
C  15.87000 52.43200 24.06600
C  16.26300 52.51300 22.57800
C  17.65200 51.85700 22.50600
C  17.84900 51.36800 23.95000
C  15.12400 51.98600 21.68900
C  18.87900 52.84800 22.18400
C  19.60800 52.52200 20.87400
N  18.45700 50.37700 26.51400
C  19.27500 50.05300 25.45800
C  20.34400 49.23200 25.85700
C  20.18400 49.03800 27.19900
C  19.00300 49.81000 27.57800
C  21.46100 48.65200 24.94600
C  20.74100 48.35400 28.33800
O  21.65900 47.57400 28.37700
C  19.84100 48.89700 29.55900
C  19.51900 47.79400 30.43800
O  18.77200 46.88600 30.18800
O  20.16200 47.94700 31.64700
C  19.78700 46.97700 32.72100
H  13.93900 52.16400 30.27400
H  14.09600 53.48500 23.86200
H  19.60600 50.40600 23.32300
H  17.57700 49.30200 31.53800
H  15.82800 51.60900 31.78600
H  14.01300 50.04500 32.03000
H  15.48000 49.35800 32.70700
H  14.99100 48.85100 31.08200
H  18.02800 52.28000 31.79900
H  19.46300 51.31100 31.31500
H  19.79400 51.24200 33.45900
H  18.86400 49.91400 33.44700
H  11.71000 54.80800 28.87500
H  12.59900 53.82600 29.96600
H  11.13600 53.13600 29.08400
H  10.32000 54.02200 26.74300
H  10.15500 55.11600 25.28000
H  10.99700 55.64400 26.76100
H  16.39600 53.59400 22.63000
H  17.69000 50.98500 21.85400
H  14.43000 52.80100 21.48200
H  14.57200 51.14500 22.11100
H  15.54900 51.58100 20.77100
H  19.59900 52.94800 22.99700
H  18.43100 53.83900 22.11100
H  19.34400 51.54200 20.47700
H  20.68900 52.49300 21.00900
H  19.34900 53.31800 20.17600
H  21.63300 49.48500 24.26400
H  21.18100 47.75800 24.38900
H  22.34300 48.51300 25.57300
H  20.50300 49.62700 30.02300
H  19.83000 47.51200 33.67000
H  20.48200 46.13900 32.78000
H  18.81300 46.49600 32.63300

