158

Mg 44.77200 4.12300 47.21400
C  42.90600 7.10700 46.95500
C  41.88300 2.35300 47.42600
C  46.55400 1.45200 46.70100
C  47.64100 6.14300 46.73600
N  42.62700 4.68000 47.01400
C  42.18000 5.94100 46.84800
C  40.70600 5.78800 46.54400
C  40.25700 4.32300 46.99200
C  41.72600 3.75300 47.14100
C  39.46700 4.21500 48.30400
C  40.48200 6.08500 45.05100
C  39.37700 7.06600 44.64100
H  39.83400 8.10700 43.74000
N  44.31700 2.10000 47.12400
C  43.04100 1.58900 47.30800
C  43.10900 0.15300 47.17600
C  44.44800 -0.17200 46.90700
C  45.21500 1.16900 46.90900
C  41.93100 -0.86800 47.17400
C  44.93400 -1.57800 46.73400
O  44.23500 -2.50600 47.11700
C  46.35600 -1.92700 46.42500
N  46.93400 3.78000 47.06700
C  47.32800 2.57800 46.73300
C  48.81400 2.64200 46.34200
C  49.26000 4.14800 46.50600
C  47.84600 4.78300 46.74600
C  49.74600 1.57400 47.13700
C  49.95500 4.88100 45.29500
C  51.28600 5.56700 45.71600
N  45.25500 6.17500 47.11600
C  46.42600 6.86300 46.93000
C  46.23400 8.25800 47.08100
C  44.82200 8.45600 47.21500
C  44.28500 7.12600 47.06600
C  47.27400 9.31600 46.88400
C  43.82100 9.43400 47.32800
O  43.83200 10.63900 47.45700
C  42.48600 8.53200 47.06900
C  41.55600 8.73900 48.19600
O  41.33300 8.01800 49.15000
O  40.89200 9.95800 47.91700
C  39.91500 10.47700 48.85300
H  40.98400 1.75400 47.58700
H  47.06100 0.53900 46.37900
H  48.43000 6.83700 46.43800
H  40.07500 6.45900 47.12600
H  39.70200 3.89600 46.15700
H  40.13600 4.65300 49.04500
H  39.08300 3.22700 48.55700
H  38.55700 4.80000 48.17100
H  40.20000 5.12700 44.61600
H  41.37600 6.31900 44.47300
H  38.92500 7.55500 45.50400
H  38.63700 6.47000 44.10700
H  40.96700 -0.40600 47.38700
H  42.02800 -1.73200 47.83200
H  41.97800 -1.15700 46.12400
H  46.98500 -1.46300 47.18600
H  46.36300 -1.58000 45.39200
H  46.56800 -2.99300 46.50300
H  48.84100 2.33400 45.29700
H  49.88000 4.28900 47.39100
H  49.13600 0.78700 47.58000
H  50.24000 2.09400 47.95700
H  50.43100 1.03500 46.48300
H  49.33800 5.59000 44.74300
H  50.31700 4.08100 44.64900
H  51.28100 6.65600 45.76900
H  52.07300 5.25000 45.03200
H  51.48000 5.05100 46.65600
H  46.82700 10.30600 46.79600
H  47.85200 9.18700 45.96900
H  47.94900 9.15600 47.72500
H  41.94200 8.76700 46.15400
H  40.25700 11.28400 49.50100
H  39.40900 9.68000 49.39800
H  39.06200 10.81900 48.26700
Mg -10.17600 17.20400 40.66300
C  -6.60100 16.93900 40.48400
C  -9.93800 20.55200 39.91400
C  -13.45200 17.20700 40.25300
C  -10.22000 13.54000 40.30700
N  -8.47100 18.55100 40.09500
C  -7.07100 18.23100 40.23500
C  -6.35700 19.57800 39.91500
C  -7.39600 20.64300 40.24700
C  -8.73000 19.89800 40.13100
C  -7.21200 21.28400 41.67200
C  -5.93200 19.57000 38.42200
C  -4.43700 19.41200 38.26700
H  -3.89200 18.33200 37.26700
N  -11.59300 18.68300 40.08600
C  -11.26100 19.97900 39.81200
C  -12.53500 20.68400 39.38300
C  -13.63000 19.79800 39.57200
C  -12.97700 18.50600 40.01800
C  -12.56600 22.07800 38.94500
C  -15.16300 20.01800 39.36900
O  -15.57000 21.18300 39.12500
C  -16.18300 18.97300 39.58400
N  -11.58600 15.66400 40.46400
C  -12.86000 15.93200 40.41400
C  -13.72100 14.68600 40.45800
C  -12.71200 13.51800 40.16400
C  -11.40900 14.27800 40.26900
C  -14.49400 14.58300 41.77400
C  -12.94900 12.94400 38.69000
C  -12.82900 11.37300 38.58400
N  -8.69800 15.55000 40.62100
C  -8.92100 14.18600 40.42400
C  -7.64700 13.54400 40.43000
C  -6.64800 14.58300 40.48800
C  -7.38400 15.77100 40.58200
C  -7.46000 12.04600 40.15100
C  -5.24900 14.95000 40.55000
O  -4.21000 14.29700 40.72400
C  -5.19700 16.50500 40.68600
C  -4.52900 16.80000 41.96100
O  -4.78000 16.34400 43.05900
O  -3.75800 17.87600 41.72400
C  -3.45600 18.66700 42.87000
H  -9.74300 21.62600 39.88300
H  -14.53800 17.32000 40.22400
H  -10.37200 12.50300 39.99900
H  -5.51000 19.77000 40.57300
H  -7.29600 21.43100 39.50100
H  -7.47400 22.33300 41.53000
H  -6.31800 20.97100 42.21100
H  -8.03300 20.93300 42.29700
H  -6.25900 20.56000 38.10600
H  -6.52800 18.83600 37.88000
H  -4.04700 18.99200 39.19500
H  -3.90700 20.29600 37.91300
H  -11.64900 22.46300 38.49800
H  -12.81800 22.75300 39.76300
H  -13.20400 21.95300 38.07000
H  -17.14100 19.27200 39.15800
H  -16.32200 19.00800 40.66500
H  -15.90700 18.07100 39.03800
H  -14.47000 14.85800 39.68500
H  -12.77500 12.67900 40.85600
H  -14.77000 13.54900 41.98200
H  -15.45900 15.07600 41.89700
H  -13.77500 14.82000 42.55800
H  -12.32400 13.50400 37.99400
H  -13.95600 13.19700 38.35800
H  -13.75600 10.81800 38.44100
H  -12.35500 10.98000 39.48300
H  -12.07500 11.22000 37.81200
H  -6.47600 11.71000 40.47800
H  -7.53000 12.03100 39.06300
H  -8.30000 11.52200 40.60700
H  -4.49500 16.75500 39.89100
H  -2.81200 19.48100 42.53700
H  -2.91400 18.02400 43.56300
H  -4.40700 18.96100 43.31500

