158

Mg 7.15700 1.68900 28.15700
C  8.96400 0.51200 30.89900
C  5.66300 4.01900 30.22500
C  5.55000 2.96900 25.49100
C  8.40400 -0.85900 26.18000
N  7.36500 2.27600 30.26200
C  8.00500 1.52000 31.26100
C  7.81800 2.11700 32.68700
C  6.51700 3.04800 32.39000
C  6.48800 3.12100 30.88000
C  5.20000 2.39100 33.02600
C  9.04500 2.83400 33.28900
C  9.49100 2.43900 34.70700
H  9.92100 3.57200 35.65900
N  5.81200 3.30600 27.86200
C  5.38300 4.15500 28.86100
C  4.58300 5.18500 28.25700
C  4.65400 5.00700 26.84500
C  5.37800 3.71300 26.67000
C  3.90400 6.35100 28.94200
C  4.08600 5.88800 25.66100
O  4.13800 5.51400 24.54000
C  3.20100 7.20800 25.89100
N  6.93600 1.02100 26.16100
C  6.26400 1.77700 25.24900
C  6.38600 1.11300 23.80800
C  7.45100 -0.06000 24.05300
C  7.49000 -0.05000 25.53900
C  5.06700 0.60800 23.12900
C  8.83100 0.20000 23.43700
C  9.50500 -0.96900 22.65900
N  8.39600 0.17800 28.40500
C  8.83000 -0.77900 27.49600
C  9.90800 -1.56700 28.15300
C  9.96100 -1.14600 29.46800
C  8.99600 -0.10300 29.60500
C  10.77700 -2.56500 27.45800
C  10.64500 -1.28200 30.70000
O  11.55000 -2.04700 30.92600
C  10.01000 -0.29000 31.73100
C  9.52200 -0.99300 32.94800
O  8.60300 -1.84100 32.83400
O  10.19900 -0.58300 34.05900
C  9.42100 -0.90200 35.26800
H  5.20400 4.75100 30.89300
H  5.16000 3.23900 24.50700
H  8.79400 -1.75900 25.70000
H  7.47000 1.24200 33.23700
H  6.52600 4.10100 32.67300
H  4.78000 3.13000 33.70700
H  5.43200 1.44000 33.50600
H  4.55100 2.17800 32.17700
H  8.77100 3.88900 33.31000
H  9.90200 2.62700 32.64900
H  10.39000 1.82500 34.66400
H  8.67500 1.90500 35.19400
H  4.24000 7.30100 28.52600
H  4.21600 6.38300 29.98600
H  2.82300 6.21600 28.92000
H  3.09300 7.77100 24.96400
H  3.58000 7.86200 26.67700
H  2.23300 6.82800 26.21600
H  6.77500 1.95100 23.22900
H  7.22800 -1.04100 23.63400
H  4.55600 0.21800 24.00900
H  5.13500 -0.14000 22.34000
H  4.49400 1.45300 22.74500
H  9.54900 0.40300 24.23200
H  8.88700 1.09800 22.82200
H  10.32800 -1.32200 23.28000
H  9.94800 -0.53300 21.76300
H  8.91900 -1.85700 22.41800
H  11.28000 -2.07800 26.62300
H  10.32900 -3.50900 27.15100
H  11.71800 -2.78700 27.96100
H  10.73500 0.47600 32.00900
H  10.00300 -0.73000 36.17300
H  8.97700 -1.89500 35.19700
H  8.57100 -0.24600 35.45900
Mg 7.40200 53.51800 40.98600
C  6.89600 50.14000 40.66100
C  10.63600 53.06600 39.63100
C  7.62800 56.86500 40.26800
C  4.20900 53.98200 41.98800
N  8.59000 51.81000 40.18600
C  8.13000 50.55900 40.17700
C  9.12400 49.58300 39.52800
C  10.42000 50.48500 39.40600
C  9.93900 51.85600 39.83400
C  11.54200 50.06700 40.37800
C  8.75400 49.02600 38.08900
C  7.97200 49.92100 37.09400
H  7.20200 49.25100 35.91600
N  8.96000 54.77300 40.12800
C  10.17400 54.40600 39.71900
C  11.01000 55.62500 39.60300
C  10.12800 56.76000 39.63700
C  8.82800 56.17100 40.02100
C  12.51000 55.53900 39.15900
C  10.48300 58.19600 39.29500
O  11.59400 58.44400 38.92900
C  9.55700 59.34200 39.33100
N  6.06600 55.24100 41.19600
C  6.37900 56.52300 40.84700
C  5.18000 57.45800 41.08100
C  4.02600 56.50200 41.59800
C  4.79200 55.16800 41.54800
C  5.52100 58.65000 42.00700
C  2.73800 56.32500 40.66500
C  1.48000 56.85700 41.35500
N  5.89600 52.39000 41.46200
C  4.65200 52.67200 41.93500
C  3.93700 51.43700 42.26200
C  4.85200 50.44500 41.82900
C  5.98900 51.02500 41.29400
C  2.52100 51.15900 42.79700
C  4.91400 49.02300 41.69000
O  4.16900 48.06300 42.06100
C  6.25300 48.78200 40.84600
C  5.86100 48.02500 39.55800
O  5.28000 48.48400 38.63900
O  6.25200 46.71500 39.60800
C  5.65100 45.80200 38.60200
H  11.66900 52.91300 39.31300
H  7.57500 57.91100 39.95800
H  3.23300 54.12300 42.45700
H  9.18400 48.71200 40.18100
H  10.92200 50.53600 38.44000
H  11.29200 49.12800 40.87200
H  11.66800 50.83700 41.13900
H  12.51700 49.82800 39.95300
H  8.25700 48.05800 38.15000
H  9.69200 48.94400 37.54000
H  8.70300 50.65900 36.76500
H  7.19000 50.44500 37.64300
H  12.54900 54.83900 38.32500
H  13.01800 55.17200 40.05200
H  12.93400 56.44300 38.72300
H  9.20700 59.40300 40.36100
H  8.78700 59.14500 38.58400
H  10.06300 60.25100 39.00700
H  4.95400 57.82300 40.08000
H  3.64400 56.73800 42.59100
H  5.24800 59.62800 41.61200
H  6.55600 58.66400 42.34900
H  4.89100 58.53900 42.89000
H  2.62600 55.26000 40.45900
H  2.89100 56.91500 39.76100
H  1.36900 57.88000 40.99400
H  1.55000 56.87700 42.44300
H  0.66900 56.22600 40.99300
H  2.09700 52.03600 43.28600
H  2.62600 50.36200 43.53400
H  1.88500 50.88800 41.95400
H  7.02200 48.25300 41.40900
H  4.59400 46.06500 38.65100
H  5.90300 44.77000 38.84400
H  6.11000 46.04600 37.64400

