158

Mg -0.16700 7.10600 27.86100
C  0.61400 9.54100 30.20600
C  -0.50500 4.78400 30.32400
C  -0.71700 4.79200 25.53300
C  0.62500 9.45900 25.24800
N  0.01800 7.14400 29.94600
C  0.22400 8.27600 30.75000
C  0.09000 7.89500 32.23000
C  0.03600 6.33600 32.16400
C  -0.17800 6.06200 30.71100
C  1.26100 5.65300 32.82800
C  -1.19900 8.49900 32.82400
C  -1.45200 8.52700 34.28800
H  -0.49900 7.87300 35.29500
N  -0.56300 5.02400 27.94200
C  -0.73800 4.28400 29.03500
C  -0.95100 2.89100 28.65700
C  -0.94100 2.89700 27.21600
C  -0.75400 4.27400 26.82700
C  -0.97300 1.76300 29.57300
C  -0.95300 1.69700 26.19800
O  -0.65500 1.86500 25.05400
C  -1.40000 0.40600 26.60300
N  -0.11500 7.15200 25.75900
C  -0.49700 6.09600 25.02600
C  -0.65500 6.46600 23.52400
C  -0.43300 7.92600 23.47600
C  0.06800 8.20400 24.90400
C  0.25100 5.62500 22.63400
C  -1.66600 8.85600 23.26400
C  -1.55600 9.94800 22.25800
N  0.57400 9.06000 27.76500
C  0.84400 9.88100 26.63100
C  1.30700 11.18900 27.12500
C  1.09500 11.09200 28.52400
C  0.72600 9.81200 28.81900
C  1.72600 12.37600 26.25100
C  1.26600 11.81700 29.72700
O  1.69200 12.93000 29.91000
C  0.77700 10.91900 30.88000
C  1.82600 10.88500 31.93600
O  2.99400 10.49900 31.82000
O  1.37500 11.44100 33.10100
C  2.35200 11.25600 34.19100
H  -0.43500 3.98800 31.06800
H  -0.90900 4.10500 24.70700
H  0.80800 10.12700 24.40400
H  0.93900 8.27000 32.80100
H  -0.82300 5.95200 32.71500
H  1.59200 4.74600 32.32300
H  0.91200 5.29300 33.79600
H  2.05500 6.37100 33.03100
H  -2.04400 7.96900 32.38500
H  -1.16400 9.52200 32.45000
H  -2.46700 8.14100 34.37800
H  -1.48500 9.55000 34.66300
H  -0.41900 0.87900 29.25800
H  -2.00800 1.47700 29.76200
H  -0.54800 2.08800 30.52200
H  -1.62100 -0.06600 25.64600
H  -2.30100 0.56100 27.19600
H  -0.63400 -0.15200 27.14200
H  -1.65900 6.21200 23.18400
H  0.42100 8.03900 22.80700
H  1.20400 5.61900 23.16200
H  0.40700 6.04400 21.64000
H  -0.08700 4.60600 22.44600
H  -1.84000 9.36200 24.21400
H  -2.61900 8.32900 23.22500
H  -2.19500 9.64500 21.42900
H  -0.52000 10.20400 22.03600
H  -1.92200 10.84700 22.75500
H  1.18000 13.28700 26.49500
H  1.44900 12.19200 25.21300
H  2.79900 12.49100 26.40200
H  -0.11600 11.21300 31.43200
H  2.02600 11.81900 35.06500
H  3.32500 11.58200 33.82400
H  2.33400 10.20500 34.48200
Mg 50.06900 46.42900 43.80800
C  46.99800 47.42500 42.41400
C  49.61600 43.43800 41.92200
C  53.37000 45.78400 44.00000
C  50.45900 49.67800 44.83000
N  48.41100 45.50400 42.45800
C  47.30500 46.12200 42.01500
C  46.47700 45.24500 41.01400
C  47.16000 43.83700 41.28500
C  48.45800 44.20200 42.02200
C  46.26100 42.71500 41.97300
C  46.64100 45.93400 39.61700
C  45.25000 46.12900 38.89000
H  45.01100 44.94200 37.89100
N  51.26300 44.75400 43.24700
C  50.95500 43.65300 42.40500
C  52.03500 42.72000 42.44300
C  53.13700 43.44200 42.96300
C  52.62600 44.74400 43.40300
C  52.02500 41.34100 41.80500
C  54.55300 42.90800 43.05400
O  54.78200 41.80800 42.61300
C  55.68900 43.64400 43.58700
N  51.69600 47.54000 44.33300
C  52.95200 47.04600 44.38800
C  53.90800 48.11600 44.96700
C  52.93800 49.32900 45.32900
C  51.61500 48.87700 44.82000
C  54.72500 47.68800 46.13600
C  53.34600 50.67300 44.59200
C  53.32500 51.83000 45.48000
N  48.96200 48.20500 43.90300
C  49.18500 49.45600 44.37100
C  48.02500 50.33400 44.19700
C  47.11400 49.51000 43.52700
C  47.78300 48.26400 43.30100
C  47.83100 51.78000 44.58900
C  45.83400 49.50400 42.76900
O  44.93600 50.34700 42.66400
C  45.68900 48.15900 42.10100
C  44.46200 47.51900 42.60000
O  44.37400 46.81300 43.55300
O  43.51300 47.72900 41.68000
C  42.25000 46.95900 41.95700
H  49.40700 42.65400 41.19100
H  54.44300 45.63400 44.13800
H  50.66000 50.69200 45.18200
H  45.42900 45.30200 41.30700
H  47.47100 43.48400 40.30100
H  46.80100 42.40500 42.86800
H  46.04700 41.85400 41.34000
H  45.32200 43.21800 42.20600
H  47.26100 45.25400 39.03400
H  47.28100 46.81600 39.65800
H  45.24700 47.14000 38.48300
H  44.43600 46.04100 39.60900
H  51.01000 41.07700 41.50900
H  52.37400 40.57400 42.49600
H  52.65800 41.33700 40.91800
H  56.63700 43.10700 43.56200
H  55.47600 43.98200 44.60100
H  55.72900 44.54900 42.98200
H  54.55600 48.29000 44.10800
H  52.72600 49.52600 46.38000
H  54.52900 48.09100 47.12900
H  55.76000 47.95900 45.92600
H  54.80500 46.60100 46.11500
H  52.66400 50.93100 43.78200
H  54.34600 50.58100 44.16900
H  53.15300 51.58500 46.52700
H  52.52100 52.53700 45.27400
H  54.23100 52.42400 45.35900
H  46.77300 52.04100 44.54300
H  48.46800 52.27700 43.85700
H  48.12000 52.07700 45.59700
H  45.71000 48.25400 41.01600
H  41.63300 46.96300 41.05900
H  41.71400 47.42700 42.78200
H  42.48200 45.91400 42.16200

