158

Mg 16.73900 51.82700 26.49100
C  18.55900 50.30100 29.07400
C  14.34600 52.56500 28.83400
C  14.99200 53.09200 24.02600
C  18.97600 50.29000 24.15200
N  16.59500 51.63900 28.67300
C  17.43700 51.00700 29.51800
C  16.99900 51.16800 31.01500
C  15.57200 51.62100 30.87000
C  15.46600 51.95200 29.41100
C  14.42900 50.67300 31.26500
C  17.88900 52.24500 31.65600
C  17.50400 52.76500 33.02000
H  16.48000 51.95300 33.84300
N  14.94800 52.80100 26.38500
C  14.11000 53.08500 27.49000
C  13.02400 53.98900 27.08000
C  13.24800 54.20100 25.69500
C  14.41000 53.39200 25.29600
C  12.05400 54.64000 28.09700
C  12.42800 55.05300 24.74400
O  12.72700 55.20100 23.59800
C  11.15400 55.68100 25.28400
N  17.10600 51.77400 24.35200
C  16.15900 52.39800 23.56700
C  16.56700 52.37300 22.05900
C  17.93300 51.49800 22.07400
C  17.96300 51.11800 23.59000
C  15.51800 51.77400 20.98100
C  19.28400 52.16500 21.64000
C  20.20800 51.33400 20.71100
N  18.54200 50.60300 26.57100
C  19.30700 50.14600 25.52800
C  20.45400 49.51000 26.13900
C  20.23500 49.51600 27.52800
C  19.02600 50.17700 27.76500
C  21.60700 48.91700 25.26200
C  20.73000 49.13700 28.83600
O  21.80400 48.65600 29.24200
C  19.63500 49.65400 29.89500
C  19.33800 48.55500 30.77700
O  18.73700 47.50000 30.50600
O  19.78300 48.85000 32.01900
C  19.55100 47.76300 33.04000
H  13.50400 52.86300 29.46200
H  14.48500 53.50800 23.15200
H  19.68600 49.96100 23.39100
H  16.94800 50.28500 31.65200
H  15.34500 52.62100 31.24000
H  13.87200 50.96600 32.15500
H  14.82200 49.66400 31.39500
H  13.75300 50.49600 30.42800
H  17.76900 53.11300 31.00800
H  18.91800 51.88500 31.68500
H  17.16100 53.78600 32.85300
H  18.48200 52.69500 33.49800
H  12.02100 55.72800 28.03800
H  12.40200 54.54000 29.12500
H  11.03800 54.26100 27.98400
H  10.74900 56.09500 24.36000
H  11.52900 56.53200 25.85100
H  10.56400 55.07800 25.97400
H  16.67700 53.41500 21.76000
H  17.75000 50.56100 21.54900
H  14.77200 51.18200 21.51200
H  16.03100 51.00700 20.40100
H  14.98000 52.45400 20.32100
H  19.91700 52.51100 22.45600
H  19.00100 53.07200 21.10600
H  20.58000 51.91700 19.86900
H  19.58500 50.54200 20.29600
H  20.99500 50.80700 21.25000
H  21.57600 49.55400 24.37800
H  21.39200 47.89100 24.96500
H  22.53200 48.90300 25.83900
H  20.16300 50.43100 30.44800
H  20.39400 47.11500 32.79700
H  18.59100 47.25600 32.94700
H  19.72700 47.96400 34.09700
Mg -6.50800 25.53600 26.22900
C  -5.26900 27.06100 29.01900
C  -7.91900 23.17000 28.18500
C  -7.70800 24.09000 23.43400
C  -4.96400 28.09300 24.16600
N  -6.46600 25.13000 28.29700
C  -6.12600 26.00700 29.27600
C  -6.69600 25.67300 30.59200
C  -7.40400 24.29600 30.31900
C  -7.26100 24.15400 28.81700
C  -7.10000 23.13700 31.26800
C  -7.59100 26.83700 31.11800
C  -7.59800 27.03900 32.67300
H  -7.23200 25.79700 33.67300
N  -7.54100 23.77800 25.86500
C  -8.10800 22.99800 26.81500
C  -9.02800 22.06200 26.16000
C  -8.90300 22.25800 24.78700
C  -8.04000 23.42600 24.65400
C  -10.07000 21.07300 26.80800
C  -9.53900 21.46600 23.60900
O  -9.42300 21.70600 22.40900
C  -10.37100 20.20400 23.90100
N  -6.32000 26.04000 24.16700
C  -6.99300 25.26900 23.20800
C  -6.83500 25.79000 21.78500
C  -6.31200 27.28600 22.18000
C  -5.85200 27.12600 23.63200
C  -5.64800 25.02400 21.01700
C  -7.47300 28.31800 21.98000
C  -7.32900 29.05100 20.64700
N  -5.32500 27.33800 26.50700
C  -4.75200 28.17900 25.61200
C  -3.96800 29.12600 26.35900
C  -4.03500 28.79300 27.77800
C  -4.95600 27.69900 27.76200
C  -3.39800 30.30900 25.70400
C  -3.69500 29.03300 29.17100
O  -2.93700 29.81500 29.69700
C  -4.52300 27.94100 30.02800
C  -3.54100 27.19000 30.91600
O  -2.65600 26.48300 30.49600
O  -3.77300 27.37900 32.26100
C  -2.85900 26.73200 33.24100
H  -8.51900 22.46900 28.76900
H  -8.11900 23.67200 22.51200
H  -4.56800 28.86600 23.50400
H  -5.81300 25.39200 31.16600
H  -8.47400 24.47100 30.42800
H  -6.53500 22.29800 30.86200
H  -7.95300 22.55100 31.61200
H  -6.42500 23.54200 32.02200
H  -8.63400 26.81900 30.80200
H  -7.38500 27.82300 30.70000
H  -8.56600 27.36300 33.05600
H  -6.88600 27.84200 32.86600
H  -11.05300 21.09900 26.33900
H  -10.34400 21.51500 27.76600
H  -9.68000 20.05700 26.86800
H  -11.41200 20.28600 24.21300
H  -9.81900 19.47300 24.49300
H  -10.53700 19.88100 22.87300
H  -7.79200 25.61900 21.29200
H  -5.53400 27.62400 21.49600
H  -5.04600 25.71700 20.42900
H  -6.15700 24.34500 20.33300
H  -4.95300 24.55800 21.71600
H  -7.33200 29.13200 22.69200
H  -8.51300 28.02100 22.11600
H  -8.30500 29.18100 20.18000
H  -6.80300 28.46300 19.89500
H  -6.81700 30.01000 20.72600
H  -2.76900 30.04000 24.85500
H  -2.84700 30.89500 26.43900
H  -4.18000 30.95600 25.30900
H  -5.22000 28.43700 30.70400
H  -3.45600 26.64800 34.14800
H  -2.04700 27.43300 33.44000
H  -2.66100 25.73900 32.83900

