158

Mg 42.81700 4.51900 47.89900
C  40.57400 7.18200 47.33300
C  40.01500 2.33100 47.56100
C  44.84200 1.86300 47.84300
C  45.50100 6.64700 47.37800
N  40.64500 4.73100 47.50400
C  39.96400 5.90900 47.45100
C  38.46400 5.75900 47.44200
C  38.37600 4.23700 47.70300
C  39.75100 3.68000 47.59100
C  37.65900 3.82000 49.06500
C  37.67400 6.34600 46.20000
C  38.18400 6.01300 44.75200
H  38.47300 7.23400 43.93900
N  42.52100 2.34000 47.78100
C  41.28500 1.72700 47.68600
C  41.53400 0.28700 47.81200
C  42.94000 0.06700 47.75500
C  43.50600 1.43700 47.76400
C  40.49100 -0.82800 47.67700
C  43.78700 -1.23700 47.61100
O  43.22800 -2.34900 47.37100
C  45.31000 -1.36800 47.68900
N  44.88700 4.33500 47.68300
C  45.47000 3.13500 47.74000
C  47.02100 3.23200 47.67500
C  47.21200 4.85900 47.68800
C  45.79200 5.32800 47.54700
C  47.83900 2.55400 48.75900
C  48.21100 5.46500 46.61900
C  49.22100 4.64300 45.85100
N  43.06900 6.60600 47.55100
C  44.21100 7.27600 47.37400
C  43.90600 8.70200 47.12200
C  42.49000 8.72200 47.16700
C  42.06000 7.41600 47.38300
C  44.92000 9.74700 46.87400
C  41.23800 9.52000 47.09200
O  41.00900 10.74000 46.90600
C  39.98200 8.52200 47.18900
C  39.24200 8.98600 48.42800
O  39.41900 8.51200 49.57000
O  38.29300 9.90400 48.06300
C  37.53100 10.44200 49.16300
H  39.15500 1.66000 47.53700
H  45.60400 1.08400 47.90800
H  46.31800 7.36300 47.26700
H  38.14500 6.39300 48.27000
H  37.76000 3.75900 46.94000
H  38.36400 3.30100 49.71400
H  36.84300 3.12300 48.87800
H  37.29000 4.69100 49.60600
H  37.48100 7.40000 46.39900
H  36.71600 5.83900 46.32000
H  37.34100 5.50400 44.28500
H  39.04500 5.34600 44.72400
H  40.78600 -1.31000 46.74500
H  39.47900 -0.42500 47.63300
H  40.60200 -1.49800 48.52900
H  45.67600 -0.89200 48.59900
H  45.61500 -0.81600 46.80000
H  45.71600 -2.37700 47.76000
H  47.28200 2.74800 46.73400
H  47.51000 5.23500 48.66700
H  48.63800 1.97700 48.29400
H  47.27100 1.86600 49.38400
H  48.28700 3.35200 49.35100
H  48.87900 6.15100 47.14100
H  47.66100 5.94600 45.81100
H  50.23400 5.04600 45.82600
H  48.97400 4.64100 44.79000
H  49.33100 3.61200 46.18700
H  45.76200 9.69700 47.56500
H  44.45100 10.72900 46.80900
H  45.34100 9.71300 45.86900
H  39.44800 8.59300 46.24100
H  37.99800 10.43300 50.14800
H  36.57000 9.92700 49.15400
H  37.15400 11.41600 48.84800
Mg -6.16400 24.37500 26.28400
C  -4.29300 25.91800 28.86700
C  -7.51800 22.32000 28.44900
C  -7.69500 22.94900 23.61700
C  -4.21200 26.48900 23.90500
N  -5.86400 24.12900 28.35700
C  -5.06900 24.83300 29.29000
C  -5.37900 24.50000 30.72300
C  -6.13900 23.20700 30.55000
C  -6.52800 23.16700 28.97200
C  -5.29200 21.92800 31.01200
C  -6.09600 25.60300 31.58700
C  -5.87900 25.65800 33.12300
H  -7.12800 25.17500 33.85400
N  -7.50500 22.94900 26.14500
C  -7.98200 22.25300 27.14600
C  -9.11400 21.45400 26.73300
C  -9.16100 21.57100 25.31600
C  -8.11400 22.52200 24.91100
C  -10.07100 20.67600 27.70100
C  -10.08400 20.88300 24.33400
O  -10.00100 21.03600 23.12900
C  -11.15500 19.85000 24.87700
N  -6.00400 24.71800 24.17000
C  -6.77000 23.90300 23.27500
C  -6.43000 24.16800 21.73700
C  -5.43900 25.40000 21.85700
C  -5.11800 25.53200 23.39000
C  -5.95600 22.89300 20.98700
C  -6.01000 26.67900 21.39400
C  -5.04700 27.65900 20.69600
N  -4.55900 25.82400 26.31900
C  -3.96100 26.62200 25.32000
C  -3.09100 27.60500 25.98000
C  -3.19700 27.32400 27.38700
C  -4.08400 26.29300 27.54600
C  -2.40100 28.72100 25.29400
C  -2.72500 27.74200 28.66800
O  -1.95600 28.66500 29.01800
C  -3.49100 26.86200 29.67000
C  -2.52900 26.27700 30.63100
O  -1.84400 25.24900 30.46100
O  -2.48100 27.04900 31.71900
C  -1.58400 26.60100 32.80600
H  -7.87100 21.48800 29.06200
H  -8.11000 22.36100 22.79600
H  -3.83000 27.21300 23.18200
H  -4.43700 24.27900 31.22300
H  -7.02600 23.09700 31.17400
H  -5.39300 21.03200 30.40000
H  -5.43000 21.58000 32.03600
H  -4.23300 22.17800 30.94600
H  -7.14500 25.33200 31.46600
H  -6.06100 26.61300 31.17900
H  -5.69600 26.71000 33.34000
H  -4.96500 25.10700 33.34600
H  -11.08000 21.02600 27.48600
H  -9.84600 20.83400 28.75600
H  -9.88500 19.64700 27.39300
H  -10.54700 18.98700 25.14800
H  -11.90300 19.64800 24.11000
H  -11.79400 20.31800 25.62600
H  -7.32100 24.44100 21.17100
H  -4.52700 25.20800 21.29300
H  -6.80500 22.54900 20.39600
H  -5.79000 22.11700 21.73300
H  -5.16900 23.06100 20.25200
H  -6.38400 27.12700 22.31500
H  -6.78300 26.45800 20.65900
H  -4.02700 27.29500 20.57600
H  -5.01900 28.57700 21.28300
H  -5.47500 27.80300 19.70400
H  -1.55700 28.47500 24.64900
H  -2.00100 29.34000 26.09600
H  -3.18400 29.30200 24.80700
H  -4.13200 27.47900 30.29900
H  -0.61200 26.48100 32.32600
H  -1.81700 25.58800 33.13300
H  -1.52600 27.28700 33.65100

