158

Mg 53.04700 23.19100 44.34200
C  50.44400 25.37600 43.33900
C  51.42100 20.61300 42.97600
C  55.87400 21.47300 44.68400
C  54.76100 25.94900 45.79700
N  51.23800 23.04600 43.19500
C  50.29400 24.04700 42.95000
C  48.98000 23.41700 42.43100
C  49.28500 21.89900 42.49400
C  50.77100 21.81000 42.87700
C  48.38800 21.15800 43.48800
C  48.67600 23.86100 40.89900
C  49.78100 23.82400 39.90000
H  49.55600 24.35000 38.48600
N  53.57900 21.25600 43.82300
C  52.73600 20.31900 43.32200
C  53.45300 19.06000 43.21600
C  54.81200 19.32900 43.67100
C  54.82300 20.79000 44.05500
C  52.80200 17.84900 42.65500
C  55.97200 18.29200 43.59400
O  55.90400 17.25100 42.98600
C  57.24100 18.61900 44.32200
N  55.23900 23.78100 44.75000
C  56.09500 22.81200 44.98000
C  57.32500 23.20200 45.83500
C  56.91400 24.71100 46.11400
C  55.52700 24.82700 45.57400
C  57.83100 22.37800 46.95500
C  57.85900 25.82900 45.57100
C  58.58800 26.57700 46.69400
N  52.75000 25.29900 44.65000
C  53.45800 26.19400 45.36400
C  52.61600 27.37900 45.54600
C  51.41000 27.11400 44.78500
C  51.64600 25.87200 44.13800
C  52.98300 28.56700 46.27600
C  50.13800 27.73500 44.35200
O  49.65900 28.82100 44.58400
C  49.51400 26.56100 43.40100
C  49.20000 27.08400 42.02900
O  49.88500 26.97500 41.03700
O  47.94100 27.70900 42.04200
C  47.36000 28.07000 40.73200
H  50.87000 19.73200 42.63900
H  56.66000 20.87700 45.15200
H  55.29000 26.74200 46.33000
H  48.19600 23.76800 43.10200
H  49.15700 21.33300 41.57200
H  47.96400 20.31800 42.93800
H  47.59800 21.80000 43.87800
H  48.75600 20.69200 44.40300
H  48.30700 24.88500 40.94900
H  47.84400 23.20500 40.64500
H  50.29200 22.87100 40.03600
H  50.51300 24.56800 40.21400
H  53.50000 17.01700 42.56100
H  52.55300 18.00200 41.60500
H  52.13500 17.32100 43.33500
H  57.09700 18.86900 45.37300
H  57.68000 19.43400 43.74600
H  57.97500 17.81600 44.25300
H  58.15400 23.28500 45.13200
H  56.81800 24.82600 47.19400
H  57.79400 23.09300 47.77600
H  58.86300 22.04800 46.83700
H  57.15800 21.54300 47.15100
H  57.37700 26.40300 44.77900
H  58.66400 25.31100 45.04800
H  59.59800 26.27000 46.96600
H  57.97000 26.67900 47.58500
H  58.57100 27.62500 46.39400
H  52.02900 28.94100 46.64800
H  53.46500 29.30700 45.63700
H  53.53400 28.42600 47.20600
H  48.60300 26.21800 43.89200
H  47.14900 29.11700 40.51600
H  46.40500 27.54400 40.73600
H  47.92100 27.58900 39.93200
Mg 16.61600 52.94900 25.90400
C  18.09300 51.50500 28.68700
C  14.22200 54.21300 28.10800
C  14.96000 54.03500 23.19600
C  19.10600 51.80300 23.90600
N  16.01500 52.57300 28.13900
C  16.93200 52.13600 29.05100
C  16.44300 52.38400 30.49000
C  15.02000 53.04600 30.19300
C  15.08500 53.33200 28.71700
C  13.80000 52.04100 30.55800
C  17.50100 53.31300 31.26500
C  17.57400 53.08300 32.84900
H  16.52400 52.16500 33.45100
N  14.80200 53.94900 25.73200
C  13.96100 54.38300 26.72600
C  12.87600 55.12600 26.10100
C  13.10300 55.00100 24.72500
C  14.28800 54.28100 24.51200
C  11.85100 55.96700 26.86000
C  12.20600 55.69100 23.56800
O  12.31900 55.51800 22.35000
C  11.05800 56.54800 23.94700
N  16.91600 52.72200 23.76800
C  16.15100 53.42600 22.89900
C  16.84300 53.70000 21.58700
C  18.17600 52.89000 21.74700
C  18.06100 52.36000 23.19100
C  16.03600 53.59900 20.26000
C  19.51000 53.69600 21.57800
C  20.74200 52.92600 20.94200
N  18.23500 51.76000 26.12800
C  19.20700 51.40800 25.26200
C  20.24900 50.73000 25.94400
C  19.87600 50.70300 27.30100
C  18.64200 51.39100 27.39300
C  21.51600 50.22500 25.31200
C  20.28300 50.24400 28.62500
O  21.18400 49.52600 29.01800
C  19.16900 50.81300 29.50900
C  18.49000 49.68300 30.26500
O  17.64500 48.90700 29.82500
O  19.06700 49.50000 31.47500
C  18.54500 48.40500 32.23400
H  13.57700 54.74600 28.81000
H  14.43700 54.32700 22.28300
H  19.99700 51.66900 23.28900
H  16.40100 51.45000 31.05000
H  14.96100 53.91300 30.85200
H  13.34400 51.69200 29.63200
H  13.05500 52.57000 31.15300
H  14.08800 51.14100 31.10100
H  17.28200 54.36300 31.06800
H  18.51300 53.23500 30.86700
H  17.50600 54.11100 33.20400
H  18.54900 52.71800 33.17100
H  11.88700 56.98500 26.47100
H  12.06000 55.87500 27.92600
H  10.81800 55.70200 26.63800
H  11.49100 57.34400 24.55300
H  10.26700 55.98400 24.44100
H  10.70700 56.97200 23.00600
H  17.01900 54.77400 21.65300
H  18.15700 51.98600 21.13900
H  15.16200 52.99800 20.51200
H  16.65200 53.15300 19.47800
H  15.74300 54.58800 19.90900
H  19.87100 54.17600 22.48800
H  19.39700 54.49500 20.84600
H  21.56100 53.04300 21.65100
H  20.84500 53.38200 19.95700
H  20.67300 51.86800 20.68900
H  21.97900 50.99000 24.68800
H  21.26700 49.45200 24.58600
H  22.15100 49.76300 26.06800
H  19.57700 51.49100 30.25800
H  17.46700 48.54200 32.30900
H  19.06200 48.23800 33.17900
H  18.74100 47.55400 31.58100

