158

Mg 8.03100 3.24700 27.83400
C  9.56300 1.60400 30.44000
C  6.30600 5.19600 30.12300
C  6.32300 4.72300 25.18900
C  9.31200 0.86200 25.65400
N  7.80800 3.18900 29.99700
C  8.70700 2.63200 30.84700
C  8.55000 3.24600 32.28300
C  7.27400 4.15200 32.21700
C  7.15700 4.21700 30.66300
C  5.98200 3.61200 32.95300
C  9.86700 3.83500 32.97100
C  10.42500 3.16400 34.16400
H  10.96100 4.01500 35.26800
N  6.52000 4.69800 27.65600
C  6.01100 5.47200 28.73000
C  5.30700 6.57200 28.14600
C  5.34300 6.45200 26.73200
C  6.04600 5.24400 26.46300
C  4.60100 7.46500 29.18700
C  4.73100 7.41700 25.75100
O  4.92200 7.19300 24.54400
C  4.06900 8.66400 26.25200
N  7.76200 2.74900 25.74000
C  7.07500 3.51500 24.87700
C  7.20500 2.93200 23.39500
C  8.06200 1.57400 23.65000
C  8.44200 1.74200 25.10400
C  5.86800 2.75500 22.67000
C  9.29200 1.47600 22.62500
C  9.49000 0.14400 21.97100
N  9.34500 1.56300 27.97800
C  9.73800 0.67100 27.03200
C  10.60900 -0.23900 27.67700
C  10.68800 0.06900 29.06500
C  9.79900 1.17700 29.12900
C  11.25000 -1.35300 26.87800
C  11.15500 -0.35000 30.36000
O  11.93700 -1.23500 30.70300
C  10.39100 0.63400 31.26900
C  9.55300 -0.00200 32.28100
O  8.48100 -0.65100 32.09800
O  10.09700 0.08000 33.54400
C  9.15700 -0.29200 34.65000
H  5.93500 5.84700 30.91700
H  6.02200 5.23800 24.27400
H  9.63100 0.07500 24.96700
H  8.33300 2.34700 32.86100
H  7.38700 5.20200 32.48600
H  5.30200 3.20500 32.20500
H  5.56000 4.36200 33.62100
H  6.26500 2.73600 33.53700
H  9.46100 4.78900 33.31000
H  10.73500 3.99200 32.33100
H  11.18800 2.42100 33.92900
H  9.66100 2.50700 34.58000
H  5.29900 8.10000 29.73400
H  4.16500 6.84400 29.97000
H  3.85900 8.17200 28.81600
H  4.76700 9.30800 26.78800
H  3.17300 8.42900 26.82600
H  3.71700 9.16300 25.35000
H  7.74700 3.67500 22.81000
H  7.44700 0.67600 23.60500
H  5.78800 3.34300 21.75600
H  5.09500 3.10300 23.35700
H  5.62100 1.70800 22.49800
H  10.15800 1.61500 23.27200
H  9.27600 2.22500 21.83400
H  8.68700 -0.55100 22.21700
H  10.44300 -0.13600 22.42000
H  9.48700 0.20500 20.88300
H  11.84800 -0.91000 26.08200
H  10.63900 -2.16300 26.47900
H  11.94700 -1.85000 27.55200
H  11.15700 1.10300 31.88700
H  8.74600 -1.28300 34.45700
H  8.48800 0.56200 34.74900
H  9.83100 -0.40600 35.49900
Mg 48.82900 35.40000 28.40400
C  46.76100 33.71300 30.61000
C  49.18700 37.82600 30.77000
C  50.58400 37.09700 26.18100
C  47.91800 33.05300 25.95400
N  48.13700 35.60400 30.45300
C  47.33700 34.83000 31.20100
C  47.31500 35.24800 32.71900
C  47.70200 36.75500 32.52000
C  48.34900 36.81400 31.13400
C  46.45700 37.69200 32.55100
C  48.41500 34.38400 33.46400
C  48.33400 34.15800 34.96300
H  47.43500 35.10700 35.70700
N  49.90800 37.17500 28.52000
C  49.96300 38.03500 29.59800
C  50.73400 39.21800 29.26900
C  51.11600 39.03900 27.87100
C  50.53400 37.72400 27.46600
C  50.94400 40.34300 30.22200
C  51.93500 39.96700 26.96500
O  51.97100 39.86100 25.77600
C  52.76100 41.09700 27.63600
N  48.94000 35.29500 26.26800
C  49.80800 36.04400 25.63800
C  50.06500 35.57400 24.22200
C  49.25600 34.31800 24.18700
C  48.54600 34.22100 25.54100
C  49.36800 36.60600 23.15400
C  50.19200 33.04300 23.81100
C  49.62700 32.26200 22.59200
N  47.65400 33.67200 28.25200
C  47.53700 32.74300 27.23500
C  46.64000 31.68800 27.62400
C  46.14300 32.09200 28.88000
C  46.92300 33.22300 29.27700
C  46.18000 30.48100 26.75800
C  45.33700 31.75100 30.05000
O  44.69000 30.75600 30.20100
C  45.58200 32.88400 31.12900
C  45.82200 32.18700 32.37000
O  46.81700 31.44900 32.58000
O  44.94300 32.60000 33.34800
C  45.05400 31.86600 34.61600
H  49.02600 38.74800 31.33400
H  51.26800 37.60800 25.50000
H  47.64200 32.34500 25.17000
H  46.36100 35.06400 33.21100
H  48.38400 36.97300 33.34200
H  45.65300 37.22800 33.12200
H  46.11500 37.99900 31.56200
H  46.57400 38.56100 33.19900
H  49.40000 34.74200 33.16600
H  48.49900 33.47800 32.86400
H  49.32900 34.14600 35.40700
H  47.93900 33.14200 34.98200
H  50.45300 41.22100 29.80300
H  52.02800 40.40900 30.32100
H  50.57400 40.01200 31.19200
H  53.51000 41.32900 26.87800
H  53.05500 40.55800 28.53600
H  52.01900 41.86900 27.83900
H  51.12100 35.42900 23.99500
H  48.49500 34.29600 23.40700
H  50.18700 37.15200 22.68600
H  48.68800 37.25800 23.70300
H  48.79800 36.11100 22.36700
H  50.24200 32.44400 24.72000
H  51.25500 33.25000 23.68300
H  48.76100 32.74800 22.14200
H  49.25500 31.25200 22.76800
H  50.40100 32.28400 21.82500
H  47.08500 30.27700 26.18600
H  45.37600 30.78200 26.08500
H  45.97200 29.54300 27.27200
H  44.64000 33.42800 31.20800
H  44.21100 31.17700 34.66600
H  44.96400 32.60600 35.41100
H  45.96700 31.28400 34.74000

