158

Mg 24.53200 -5.53000 45.08900
C  26.55100 -3.05500 43.71500
C  22.09300 -4.64000 42.76600
C  22.88700 -8.45000 45.64100
C  27.32300 -6.85500 46.71800
N  24.37800 -3.97800 43.48700
C  25.29200 -3.07500 43.05700
C  24.77900 -2.20100 41.99300
C  23.27300 -2.54000 42.01100
C  23.25600 -3.84400 42.75800
C  22.34400 -1.41600 42.57100
C  25.42800 -2.52100 40.61900
C  25.85300 -1.29300 39.82800
H  26.10600 -1.47600 38.28800
N  22.72400 -6.34000 44.38000
C  21.84400 -5.79100 43.50000
C  20.65600 -6.61100 43.44000
C  20.92100 -7.82600 44.20400
C  22.23400 -7.57900 44.77500
C  19.48700 -6.24900 42.47100
C  20.06200 -8.97100 44.26800
O  18.92300 -8.88000 43.77600
C  20.38800 -10.24100 45.01400
N  25.04200 -7.37900 46.06500
C  24.12400 -8.39500 46.19200
C  24.74700 -9.57800 46.89400
C  26.18300 -9.17900 47.20900
C  26.21600 -7.72900 46.60900
C  23.88100 -10.26100 47.93200
C  27.29400 -10.06000 46.76000
C  28.09600 -10.77400 47.84500
N  26.58400 -4.99100 45.28500
C  27.55200 -5.62100 46.05800
C  28.74800 -4.75900 45.95300
C  28.40600 -3.78500 44.99700
C  27.04800 -3.96700 44.64400
C  30.04900 -5.06100 46.52900
C  28.95700 -2.70900 44.15000
O  30.09200 -2.28000 44.13900
C  27.75900 -2.12700 43.33200
C  27.49100 -0.70500 43.79100
O  27.46900 -0.24300 44.95600
O  27.47300 0.17400 42.69300
C  27.25000 1.56200 42.92900
H  21.28700 -4.22600 42.15600
H  22.41100 -9.38300 45.95100
H  28.05900 -7.26900 47.41000
H  25.01600 -1.15600 42.19200
H  22.95500 -2.83700 41.01200
H  22.90900 -0.56000 42.94000
H  21.70200 -1.68900 43.40900
H  21.67500 -0.94700 41.85000
H  24.83600 -3.19000 39.99500
H  26.33800 -3.02200 40.95000
H  26.74300 -0.89800 40.31800
H  25.02100 -0.58800 39.83100
H  19.66200 -6.55800 41.44100
H  19.46500 -5.16100 42.40800
H  18.56100 -6.72500 42.79300
H  21.32500 -10.69500 44.69100
H  19.59200 -10.95400 44.79800
H  20.35900 -10.08900 46.09300
H  24.85400 -10.33600 46.11900
H  26.23200 -9.13200 48.29700
H  23.44800 -11.19500 47.57300
H  23.24100 -9.48300 48.34800
H  24.51900 -10.56700 48.76100
H  27.99000 -9.57500 46.07600
H  26.91500 -10.83500 46.09400
H  27.61900 -11.74000 48.01100
H  28.21800 -10.32300 48.82900
H  29.07000 -10.95700 47.39000
H  30.63600 -5.75500 45.92800
H  29.87300 -5.46300 47.52700
H  30.61800 -4.13300 46.47300
H  28.08800 -2.25600 42.30100
H  27.99700 1.95700 43.61800
H  26.23200 1.59500 43.31700
H  27.38200 2.16600 42.03200
Mg 47.43000 25.72700 28.79200
C  48.52300 27.97000 31.20800
C  46.96200 23.38100 31.30700
C  46.94700 23.38800 26.37800
C  48.75900 27.94500 26.34600
N  47.64800 25.71900 31.00700
C  47.92600 26.81500 31.80100
C  47.53000 26.53700 33.23000
C  47.10400 24.97700 33.23500
C  47.20500 24.67500 31.73900
C  47.96800 23.97000 34.13300
C  46.41100 27.59800 33.71400
C  45.64800 27.33700 35.01000
H  45.85400 28.08900 36.31700
N  46.85300 23.70900 28.86300
C  46.73800 22.89100 30.00800
C  46.44400 21.53300 29.59900
C  46.23900 21.54900 28.17300
C  46.73500 22.91800 27.73500
C  46.17500 20.46400 30.52700
C  45.85600 20.44100 27.25000
O  45.67600 20.61300 26.00800
C  45.44300 19.13800 27.73100
N  47.87400 25.67000 26.67700
C  47.41700 24.66300 25.90500
C  47.27700 25.08600 24.40700
C  47.71500 26.57700 24.44100
C  48.15800 26.75000 25.92800
C  48.23300 24.23400 23.51800
C  46.59900 27.58400 24.01000
C  47.02200 28.67500 23.05800
N  48.50100 27.55500 28.71100
C  48.90700 28.32200 27.63900
C  49.50700 29.55600 28.13900
C  49.35600 29.42800 29.55900
C  48.75900 28.20000 29.89500
C  50.20800 30.57500 27.37400
C  49.57300 30.14400 30.81200
O  50.06900 31.29400 30.98000
C  48.92500 29.30600 31.87800
C  49.69800 29.17600 33.19700
O  50.75100 28.51700 33.30800
O  49.20800 30.01200 34.22000
C  49.95200 29.90100 35.47400
H  46.56000 22.77300 32.12100
H  46.56200 22.74700 25.58300
H  49.02400 28.69100 25.59400
H  48.37400 26.66000 33.90800
H  46.05600 24.88300 33.52100
H  48.58300 23.34200 33.48800
H  47.36600 23.23100 34.66200
H  48.65300 24.55000 34.75100
H  45.70800 27.54800 32.88200
H  46.83000 28.60100 33.64500
H  46.12600 26.42900 35.37700
H  44.59700 27.11500 34.82400
H  46.23900 20.73200 31.58100
H  46.77200 19.59800 30.24100
H  45.14300 20.21800 30.27800
H  46.18700 18.74000 28.42200
H  45.48300 18.48300 26.86100
H  44.59700 19.19700 28.41500
H  46.31400 24.95700 23.91300
H  48.54300 26.69000 23.74100
H  48.44200 23.26800 23.97800
H  49.23600 24.59100 23.28500
H  47.64700 23.93000 22.65100
H  46.13900 28.01800 24.89800
H  45.76200 27.09700 23.51100
H  46.36600 29.45100 23.45400
H  46.78200 28.47100 22.01500
H  48.05800 28.98300 23.20400
H  50.48000 31.48500 27.90900
H  49.46900 30.94500 26.66400
H  51.11900 30.21800 26.89400
H  48.01000 29.77600 32.23900
H  49.98100 28.85600 35.78300
H  49.44800 30.36500 36.32300
H  50.97400 30.28000 35.47200

