158

Mg 26.05100 0.23900 29.53500
C  28.08900 -0.24100 32.32700
C  23.39300 0.89000 31.52500
C  24.16200 0.31300 26.77000
C  28.84000 -0.77500 27.57300
N  25.84700 0.32400 31.78200
C  26.77000 0.00900 32.73900
C  26.12100 0.11200 34.09900
C  24.62300 0.35200 33.78900
C  24.60100 0.67400 32.27800
C  23.62300 -0.66400 34.32700
C  26.82600 1.20700 34.99100
C  26.00100 1.70700 36.26800
H  26.78400 2.06600 37.52700
N  24.04600 0.63800 29.13400
C  23.07800 0.91500 30.13200
C  21.85600 1.25100 29.44100
C  22.05600 1.15000 28.06300
C  23.46900 0.67300 27.91500
C  20.62300 1.58200 30.21400
C  21.17000 1.49700 26.91100
O  21.43200 1.19700 25.71400
C  19.85900 2.09200 27.23800
N  26.40400 -0.46100 27.42800
C  25.42300 -0.19500 26.48900
C  26.03000 -0.39300 25.07400
C  27.56300 -0.66200 25.31700
C  27.62000 -0.58200 26.82600
C  25.31200 -1.48500 24.25700
C  28.50200 0.38100 24.56400
C  29.74600 -0.18300 23.89400
N  28.03500 -0.30800 29.82300
C  29.02900 -0.70900 28.96900
C  30.32500 -0.83700 29.63500
C  29.94800 -0.74200 30.97600
C  28.62100 -0.36900 31.01100
C  31.64700 -1.06000 29.05100
C  30.45200 -0.85400 32.29800
O  31.55000 -1.05300 32.81300
C  29.26300 -0.45000 33.28800
C  28.97600 -1.57600 34.29500
O  28.26100 -2.54500 34.12200
O  29.61400 -1.32800 35.43100
C  29.58300 -2.46800 36.31700
H  22.59600 0.87200 32.27100
H  23.49300 0.29100 25.90700
H  29.70600 -1.12400 27.00700
H  26.17100 -0.88300 34.54100
H  24.21700 1.25400 34.24700
H  24.12100 -1.23600 35.11000
H  23.49200 -1.32200 33.46800
H  22.66100 -0.30100 34.69000
H  27.10300 1.97400 34.26700
H  27.73900 0.75000 35.37200
H  25.13400 1.08400 36.48800
H  25.57500 2.65700 35.94500
H  19.88200 0.83100 29.94100
H  20.20600 2.53600 29.89000
H  20.69800 1.50600 31.29900
H  19.30900 1.18400 27.48700
H  19.46900 2.60600 26.35900
H  19.95200 2.92800 27.93200
H  25.84500 0.57700 24.61100
H  27.87600 -1.67600 25.06700
H  24.65600 -2.04200 24.92600
H  26.07100 -2.11600 23.79500
H  24.75500 -1.11500 23.39600
H  28.72600 1.05600 25.39000
H  28.03800 0.97300 23.77500
H  30.52600 0.34100 24.44600
H  29.70600 0.04300 22.82800
H  29.84900 -1.25600 24.05400
H  31.82100 -2.12100 28.87200
H  32.39800 -0.56400 29.66400
H  31.64300 -0.45000 28.14800
H  29.57200 0.48500 33.75500
H  30.43100 -2.20500 36.94900
H  29.82100 -3.45300 35.91600
H  28.66000 -2.39800 36.89200
Mg 0.77100 44.39900 25.09400
C  2.97100 43.89800 27.66300
C  -1.81700 43.86300 27.24300
C  -1.28100 44.18300 22.35300
C  3.44900 44.95800 22.86100
N  0.61800 43.86900 27.21000
C  1.65500 43.72400 28.10500
C  1.07600 43.74600 29.56000
C  -0.39100 43.49900 29.32900
C  -0.56600 43.86400 27.83700
C  -0.83500 42.03900 29.72100
C  1.27700 45.08100 30.39300
C  1.03000 45.03900 31.89300
H  1.11300 43.66000 32.55200
N  -1.26100 44.09400 24.83400
C  -2.20400 43.99200 25.81300
C  -3.55700 43.93200 25.27700
C  -3.28700 43.89100 23.85200
C  -1.86600 44.09000 23.63600
C  -4.77900 43.69900 26.16600
C  -4.30200 43.52400 22.70300
O  -4.00900 43.40600 21.50400
C  -5.73600 43.19300 23.06900
N  1.10500 44.29800 22.87700
C  0.05200 44.27600 22.00700
C  0.50200 44.55000 20.61500
C  2.12200 44.81300 20.75400
C  2.26100 44.67000 22.26600
C  0.16500 43.57000 19.44600
C  2.64700 46.13700 20.18600
C  2.51300 47.42800 20.89700
N  2.83500 44.32500 25.13800
C  3.79400 44.71200 24.18700
C  5.08900 44.76700 24.87700
C  4.80100 44.43300 26.18700
C  3.45100 44.15800 26.30200
C  6.38400 45.13800 24.26600
C  5.41100 44.23600 27.45900
O  6.59900 44.21500 27.82500
C  4.26200 43.96600 28.49900
C  4.45200 42.60200 28.99400
O  4.47100 41.58200 28.31900
O  4.75400 42.62100 30.32700
C  4.69000 41.31000 30.93900
H  -2.58500 43.54800 27.95300
H  -1.99600 44.37300 21.55000
H  4.27600 45.27600 22.22300
H  1.54700 42.95700 30.14700
H  -1.04500 44.12900 29.93200
H  -1.13900 41.51600 28.81400
H  -1.56800 42.05400 30.52700
H  -0.09200 41.42000 30.22500
H  0.53000 45.83300 30.13600
H  2.23200 45.39300 29.97200
H  0.04800 45.47900 32.07100
H  1.80800 45.66400 32.33100
H  -4.76000 42.61700 26.29800
H  -5.68800 43.98100 25.63400
H  -4.75800 44.10300 27.17800
H  -6.27500 43.09700 22.12700
H  -6.15400 44.02100 23.64300
H  -5.55800 42.26800 23.61800
H  -0.10600 45.45400 20.57800
H  2.68300 43.96600 20.36000
H  -0.76100 43.02800 19.63500
H  1.04000 42.92400 19.36700
H  0.08300 44.06800 18.48000
H  2.22500 46.25400 19.18800
H  3.68400 46.00600 19.87700
H  1.84900 47.40200 21.76100
H  2.13500 48.12200 20.14700
H  3.49500 47.78600 21.20800
H  6.54300 46.21500 24.20100
H  6.30100 44.76800 23.24400
H  7.17800 44.53000 24.70100
H  4.34100 44.54600 29.41900
H  5.48100 41.14100 31.67000
H  4.60600 40.44000 30.28700
H  3.74700 41.24700 31.48300

