158

Mg 35.43100 3.34500 29.17400
C  33.36600 4.19800 31.77600
C  38.09400 3.34600 31.26400
C  37.34800 3.04300 26.44600
C  32.70500 3.75200 26.89300
N  35.76000 3.45600 31.36600
C  34.67900 3.85300 32.24400
C  35.20200 3.78700 33.67800
C  36.77500 3.71900 33.45900
C  36.94700 3.42900 31.96100
C  37.50900 4.98300 33.88600
C  34.51000 2.51500 34.27900
C  34.14200 2.54000 35.77200
H  34.86900 3.63900 36.56700
N  37.43100 3.05400 28.94900
C  38.40800 3.12800 29.91600
C  39.71200 2.88000 29.30300
C  39.50200 2.77400 27.88700
C  38.04000 2.97000 27.70800
C  40.98100 2.87500 30.09700
C  40.45000 2.38800 26.73900
O  40.10600 2.27000 25.56100
C  41.82200 1.86700 27.10800
N  34.99100 3.08400 26.90800
C  36.03600 3.13000 26.07300
C  35.51400 2.98000 24.60800
C  33.96000 3.18800 24.76400
C  33.87200 3.44700 26.25400
C  36.20200 3.89100 23.51400
C  33.01100 2.09300 24.25300
C  31.92900 2.68400 23.34400
N  33.45900 3.80900 29.31300
C  32.47600 3.95400 28.28400
C  31.21000 4.32900 28.91300
C  31.51900 4.47700 30.28200
C  32.89600 4.17900 30.46100
C  29.96300 4.63600 28.13400
C  30.97500 4.78000 31.60500
O  29.86000 5.15500 31.89900
C  32.13700 4.42500 32.59300
C  32.31000 5.56900 33.53100
O  32.89700 6.63700 33.32100
O  31.80200 5.22200 34.76900
C  31.51800 6.26500 35.70500
H  38.99500 3.42300 31.87700
H  37.91700 3.00000 25.51500
H  31.89700 3.93200 26.18100
H  34.84900 4.72800 34.10000
H  37.19500 2.80300 33.87500
H  38.17700 5.43300 33.15200
H  38.21300 4.60000 34.62400
H  36.97100 5.74300 34.45400
H  35.04200 1.60300 34.00900
H  33.50000 2.34400 33.90600
H  34.59300 1.62600 36.15800
H  33.06200 2.60300 35.90100
H  40.89400 3.42100 31.03600
H  41.79100 3.31400 29.51400
H  41.23200 1.82400 30.24500
H  42.12100 1.14100 26.35200
H  41.88800 1.27000 28.01800
H  42.49200 2.72700 27.09500
H  35.70100 1.97700 24.22500
H  33.75100 4.11000 24.22000
H  36.49600 3.23700 22.69200
H  37.02200 4.44700 23.96800
H  35.59200 4.71000 23.13300
H  32.49800 1.70600 25.13400
H  33.62200 1.32100 23.78400
H  31.73500 1.94000 22.57200
H  32.15600 3.68600 22.97900
H  31.00300 2.80900 23.90600
H  29.85000 4.36300 27.08500
H  29.71500 5.69200 28.23700
H  29.19800 4.11300 28.70900
H  31.84900 3.49500 33.08300
H  32.20900 6.17700 36.54300
H  30.50100 6.03000 36.01900
H  31.43300 7.26400 35.27700
Mg 31.08400 58.51600 39.60000
C  28.54500 56.24700 38.35100
C  33.35200 56.00400 39.01300
C  33.27100 60.79600 39.78100
C  28.42200 60.89100 39.98200
N  30.88700 56.41000 38.79500
C  29.83400 55.72200 38.26600
C  30.21300 54.43800 37.66700
C  31.56800 54.19800 38.38100
C  31.94500 55.57500 38.80000
C  31.59000 53.23400 39.62300
C  30.12800 54.47300 36.05300
C  29.03900 53.52900 35.41800
H  28.05500 54.02500 34.38800
N  33.02100 58.47900 39.46700
C  33.77800 57.34300 39.24200
C  35.20500 57.78400 39.21100
C  35.18700 59.15500 39.41900
C  33.81600 59.54500 39.56000
C  36.40400 56.76700 38.89800
C  36.47300 60.00700 39.62200
O  37.60800 59.55200 39.46800
C  36.41600 61.46200 39.79500
N  30.83600 60.55400 39.83600
C  32.00500 61.30400 40.02600
C  31.67500 62.76400 40.23700
C  30.10700 62.73700 40.45300
C  29.77500 61.32900 40.02300
C  32.48100 63.32200 41.44300
C  29.44500 64.00900 39.79000
C  29.62800 65.31500 40.53700
N  28.89800 58.63700 39.38200
C  28.00900 59.65300 39.52000
C  26.66000 59.19500 39.18700
C  26.92200 57.87900 38.69500
C  28.26200 57.59700 38.92800
C  25.35200 59.92500 39.30800
C  26.17100 56.74900 38.27500
O  24.95800 56.56100 38.26000
C  27.22100 55.59500 38.12700
C  26.92800 54.65400 39.23700
O  27.28900 54.74400 40.40900
O  26.07900 53.68900 38.79600
C  25.72700 52.76500 39.86100
H  34.13100 55.26900 38.80300
H  34.05200 61.55700 39.72300
H  27.59000 61.57700 40.15500
H  29.48800 53.70700 38.02500
H  32.30100 53.84400 37.65600
H  32.24400 53.60500 40.41200
H  31.96100 52.32000 39.15800
H  30.62600 53.01100 40.08000
H  31.13100 54.19400 35.73300
H  29.83200 55.50400 35.85500
H  28.43700 52.95200 36.12000
H  29.60700 52.77500 34.87400
H  37.04600 57.10800 38.08600
H  36.04000 55.76000 38.69400
H  36.99100 56.66800 39.81100
H  35.86100 61.82300 40.66100
H  36.11500 61.94300 38.86400
H  37.42200 61.80200 40.03900
H  32.05400 63.18100 39.30400
H  29.98100 62.83700 41.53100
H  33.37000 62.74500 41.69400
H  31.97900 63.53400 42.38800
H  32.84100 64.26300 41.02700
H  28.37500 63.87400 39.63600
H  29.91000 64.13200 38.81200
H  30.37600 65.84100 39.94500
H  29.96700 65.06600 41.54300
H  28.73100 65.92600 40.63300
H  25.15200 60.66100 40.08700
H  24.50900 59.23800 39.24100
H  25.46100 60.60000 38.45900
H  27.07300 55.04700 37.19600
H  26.54300 52.04800 39.95600
H  24.86800 52.28200 39.39600
H  25.44500 53.19100 40.82400

