158

Mg -1.98100 16.98000 27.23700
C  -2.51500 14.86800 29.93500
C  -2.64300 19.61500 29.18700
C  -1.85900 18.95500 24.36300
C  -2.14000 14.16300 25.03100
N  -2.46800 17.22700 29.29200
C  -2.48100 16.21400 30.24900
C  -2.63400 16.84700 31.73300
C  -2.75100 18.40800 31.44500
C  -2.73600 18.42700 29.86500
C  -4.04600 19.07300 31.94600
C  -1.51200 16.31000 32.70100
C  -1.18000 17.29300 33.86000
H  -0.41300 16.68100 35.07100
N  -2.17900 18.99300 26.84500
C  -2.41000 19.93900 27.82300
C  -2.23600 21.28500 27.22300
C  -2.02200 21.11100 25.81000
C  -1.96600 19.60400 25.60700
C  -2.44900 22.59900 28.00300
C  -1.75000 22.20500 24.84200
O  -1.42800 21.97600 23.73700
C  -1.69700 23.72800 25.26400
N  -2.09500 16.61800 25.01500
C  -1.92200 17.62300 24.07100
C  -2.05000 17.12500 22.61000
C  -1.99100 15.59100 22.81600
C  -2.04100 15.43200 24.34300
C  -3.34100 17.63300 21.81800
C  -0.69900 14.88100 22.16600
C  0.70500 15.23900 22.65300
N  -2.14500 14.90600 27.37600
C  -2.20100 13.88900 26.45600
C  -2.38700 12.66700 27.11300
C  -2.54600 12.90400 28.49200
C  -2.33900 14.31800 28.57400
C  -2.54500 11.33900 26.38900
C  -2.70900 12.33700 29.81600
O  -2.85600 11.18000 30.15500
C  -2.76900 13.61900 30.82800
C  -1.64900 13.31000 31.85000
O  -0.45900 13.57100 31.64400
O  -2.04100 12.82300 33.08800
C  -1.08400 12.75600 34.23600
H  -2.65600 20.43900 29.90300
H  -1.85600 19.63400 23.50800
H  -2.31000 13.26900 24.42900
H  -3.56300 16.42200 32.11300
H  -1.83600 18.90900 31.76300
H  -3.68900 19.91400 32.54100
H  -4.66400 18.38700 32.52400
H  -4.73600 19.46300 31.19700
H  -0.59100 16.08500 32.16500
H  -1.85300 15.44200 33.26500
H  -2.01500 17.94900 34.10500
H  -0.48500 17.98700 33.38500
H  -1.71600 23.37500 27.78100
H  -2.45300 22.35400 29.06500
H  -3.42800 22.96700 27.69600
H  -1.77000 24.39600 24.40600
H  -0.74200 23.90000 25.76000
H  -2.56300 23.97700 25.87700
H  -1.11500 17.33900 22.09200
H  -2.90700 15.14200 22.43100
H  -3.89100 18.12600 22.62000
H  -3.88800 16.79800 21.38100
H  -3.09600 18.28000 20.97500
H  -0.89800 15.12000 21.12200
H  -0.93400 13.81600 22.16100
H  0.68700 16.15700 23.24000
H  1.47400 15.25300 21.88000
H  1.08400 14.43800 23.28700
H  -2.73600 11.51100 25.33000
H  -3.21000 10.62300 26.87200
H  -1.55900 10.87500 26.38100
H  -3.66200 13.61300 31.45400
H  -0.53800 13.69800 34.30200
H  -0.33400 11.98400 34.06800
H  -1.52900 12.50300 35.19800
Mg 40.98200 9.99400 29.51600
C  42.70700 11.13300 32.45100
C  38.96100 8.09800 31.61100
C  39.43500 8.77600 26.79900
C  43.60800 11.14800 27.68800
N  40.80700 9.78500 31.84700
C  41.59600 10.36000 32.83200
C  40.99900 10.06200 34.20300
C  39.99500 8.89200 33.83800
C  39.96100 8.79400 32.31300
C  40.12200 7.59400 34.63400
C  40.45200 11.33200 34.86700
C  39.93900 11.15000 36.36100
H  40.49500 12.09200 37.45100
N  39.30600 8.75200 29.27500
C  38.65800 8.06900 30.26100
C  37.59100 7.28900 29.60800
C  37.63500 7.56100 28.19100
C  38.81300 8.36300 28.02400
C  36.75200 6.27400 30.36300
C  36.79300 7.03600 27.13200
O  36.93100 7.24400 25.95900
C  35.52800 6.28300 27.49500
N  41.38000 10.09900 27.54600
C  40.67700 9.45100 26.58900
C  41.38700 9.45200 25.18900
C  42.65800 10.28400 25.50300
C  42.57400 10.53700 27.02700
C  41.61600 8.11800 24.52000
C  42.79700 11.45500 24.55900
C  42.16900 12.81500 24.89900
N  42.79200 10.99300 29.92500
C  43.67600 11.48100 29.06000
C  44.74700 12.02900 29.77600
C  44.38400 12.00800 31.19200
C  43.18200 11.32700 31.13600
C  46.08500 12.35800 29.15100
C  44.83500 12.32800 32.52600
O  45.76300 12.95300 33.00100
C  43.69100 11.77400 33.42500
C  44.30000 10.88800 34.47200
O  44.97100 9.88600 34.17700
O  44.00400 11.31500 35.73900
C  44.76900 10.62000 36.81000
H  38.43700 7.56600 32.40800
H  39.17900 8.36100 25.82200
H  44.36000 11.57300 27.02000
H  41.91100 9.70100 34.67800
H  39.01400 9.13600 34.24400
H  40.20100 6.79300 33.89800
H  39.21200 7.53400 35.23100
H  40.96300 7.45600 35.31300
H  39.88600 11.97500 34.19400
H  41.28500 11.97500 35.15300
H  40.34900 10.16100 36.56400
H  38.85100 11.11300 36.29600
H  36.75600 5.38400 29.73300
H  35.73400 6.63500 30.51000
H  37.34900 6.14800 31.26700
H  34.78900 6.85400 28.05900
H  35.83000 5.34800 27.96700
H  34.96600 6.02300 26.59800
H  40.74500 10.03400 24.52800
H  43.53200 9.66000 25.31700
H  41.34500 7.32700 25.21900
H  42.65800 7.99300 24.22500
H  40.88800 8.07200 23.71000
H  42.51400 11.18600 23.54100
H  43.85100 11.73000 24.51700
H  41.47100 13.13800 24.12700
H  43.00500 13.51000 24.96900
H  41.64400 12.95100 25.84500
H  46.70200 12.60400 30.01500
H  46.11400 13.20500 28.46500
H  46.26600 11.44800 28.57900
H  43.30400 12.65800 33.93300
H  44.70300 11.20200 37.72900
H  45.81800 10.40700 36.60400
H  44.38900 9.60900 36.95500

