158

Mg 48.94300 44.43100 42.81400
C  45.46000 44.37700 42.22900
C  49.16600 41.12500 42.43600
C  52.26900 44.77400 42.56900
C  48.73100 47.98900 42.78500
N  47.44500 42.94600 42.20900
C  46.08600 43.06900 42.09300
C  45.49300 41.65300 42.15400
C  46.68100 40.67900 42.38100
C  47.87500 41.66500 42.38300
C  46.60800 39.83500 43.72900
C  44.44200 41.20800 41.03100
C  44.51300 42.00000 39.67700
H  44.65200 41.13900 38.42100
N  50.50700 43.09800 42.60300
C  50.33700 41.76400 42.43200
C  51.66200 41.12300 42.29300
C  52.64400 42.16300 42.33100
C  51.80000 43.44000 42.45700
C  51.84100 39.63700 42.10700
C  54.16800 42.02300 42.12700
O  54.64100 40.88800 42.14000
C  55.15200 43.30700 41.84700
N  50.35800 46.13400 42.57200
C  51.66900 46.00500 42.60000
C  52.38600 47.43100 42.65500
C  51.27300 48.42200 42.93300
C  50.05800 47.46600 42.69100
C  53.59700 47.44100 43.60700
C  51.29400 49.64100 41.90000
C  51.03900 51.03500 42.51900
N  47.45200 45.93200 42.54600
C  47.48800 47.27800 42.67700
C  46.16500 47.86800 42.61900
C  45.31200 46.76200 42.46900
C  46.16200 45.62200 42.41300
C  45.85500 49.32500 42.43800
C  43.91100 46.34100 42.36600
O  42.81900 46.96900 42.39000
C  43.99000 44.84100 42.21000
C  43.06400 44.20100 43.21900
O  41.91100 43.76500 43.04700
O  43.58800 44.11700 44.48700
C  42.74300 43.49400 45.49900
H  49.34500 40.04700 42.42500
H  53.35500 44.78900 42.68400
H  48.72700 49.08100 42.78300
H  44.82400 41.74300 43.01000
H  46.76700 39.93500 41.58900
H  45.73300 40.14600 44.29900
H  47.46200 40.10200 44.35100
H  46.56300 38.74700 43.68100
H  43.44100 41.39900 41.41900
H  44.53100 40.12500 40.94900
H  45.36700 42.67900 39.68000
H  43.60000 42.59300 39.62800
H  51.61600 39.39200 41.06900
H  51.13100 39.17100 42.79000
H  52.82900 39.20400 42.26500
H  54.61900 43.94000 41.13700
H  56.01400 42.83500 41.37600
H  55.42100 43.82300 42.76900
H  52.82200 47.69600 41.69200
H  51.18100 48.78500 43.95600
H  53.64100 48.34300 44.21800
H  54.43600 47.62900 42.93600
H  53.76000 46.51600 44.15900
H  50.57900 49.38100 41.11900
H  52.23100 49.76500 41.35800
H  51.04100 50.99900 43.60900
H  50.13700 51.52700 42.15400
H  51.90200 51.60900 42.18200
H  46.04000 49.70500 43.44300
H  44.79700 49.39600 42.18300
H  46.56300 49.75100 41.72800
H  43.40300 44.55000 41.33800
H  42.56500 42.47900 45.14400
H  41.77700 43.95600 45.70100
H  43.21500 43.65400 46.46800
Mg -1.91000 34.13100 26.58900
C  -3.28600 31.83900 28.87900
C  -0.69500 35.93500 29.14500
C  -0.91900 36.29700 24.37700
C  -3.65700 32.27700 24.08900
N  -1.89700 33.80200 28.80800
C  -2.50000 32.84500 29.50900
C  -2.31600 33.14700 30.99300
C  -1.75300 34.59700 31.07100
C  -1.40200 34.80800 29.60000
C  -2.62700 35.70800 31.66700
C  -1.55200 32.04100 31.77100
C  -2.19600 31.63900 33.13200
H  -1.21800 31.71000 34.28500
N  -0.86300 35.90800 26.74500
C  -0.42900 36.46000 27.86500
C  0.34700 37.68400 27.46800
C  0.31500 37.76400 26.03200
C  -0.55900 36.65000 25.67000
C  1.01800 38.53600 28.52000
C  0.91100 38.84300 25.12600
O  0.71100 38.76400 23.89500
C  1.69600 39.95400 25.73200
N  -2.36300 34.31700 24.57400
C  -1.69400 35.26600 23.87100
C  -1.62300 34.93200 22.35200
C  -2.51700 33.64200 22.26100
C  -2.85600 33.33100 23.69200
C  -2.36900 36.09700 21.53900
C  -1.83000 32.50000 21.41500
C  -0.42600 32.15500 21.71300
N  -3.30400 32.49300 26.43100
C  -3.85100 31.85700 25.33700
C  -4.68500 30.72000 25.81800
C  -4.52600 30.78000 27.20400
C  -3.60100 31.74100 27.48800
C  -5.57100 29.86300 24.97500
C  -4.86100 30.06400 28.42800
O  -5.57200 29.06200 28.58600
C  -3.96000 30.63500 29.53900
C  -4.91900 31.07700 30.59300
O  -5.40600 32.22400 30.67100
O  -5.11300 30.12900 31.50400
C  -5.75700 30.58900 32.74300
H  -0.32700 36.50400 30.00200
H  -0.52300 36.94300 23.59100
H  -4.01600 31.66500 23.25900
H  -3.32600 33.17400 31.40100
H  -0.86500 34.46000 31.68900
H  -2.34300 36.10000 32.64400
H  -3.60800 35.24000 31.75500
H  -2.65500 36.51400 30.93300
H  -0.54900 32.45400 31.88100
H  -1.33800 31.15100 31.17800
H  -2.42200 30.57800 33.02100
H  -3.08500 32.24700 33.29700
H  0.93000 38.14000 29.53200
H  0.54000 39.51500 28.53500
H  2.05900 38.73800 28.26800
H  1.02600 40.33900 26.50100
H  1.89000 40.73300 24.99500
H  2.64100 39.58900 26.13600
H  -0.61800 34.79400 21.95400
H  -3.53100 33.76800 21.88300
H  -3.11500 35.76000 20.82100
H  -1.61300 36.77600 21.14500
H  -2.95100 36.64900 22.27700
H  -1.85600 32.86000 20.38700
H  -2.39500 31.56800 21.44200
H  -0.17600 32.39200 22.74700
H  0.35600 32.49100 21.03100
H  -0.32700 31.07400 21.61200
H  -5.84200 30.48400 24.12100
H  -6.48400 29.56500 25.49100
H  -5.02600 28.96800 24.67600
H  -3.19300 30.02400 30.01600
H  -6.67900 31.16700 32.69100
H  -5.01700 31.19700 33.26400
H  -6.05700 29.67300 33.25200

