158

Mg 29.41100 59.43000 41.77500
C  26.28300 58.08300 40.76600
C  30.95900 56.52600 40.45000
C  32.46400 60.82400 42.08900
C  27.79800 62.23100 42.79800
N  28.67600 57.60700 40.59100
C  27.40600 57.27200 40.37500
C  27.41500 55.99800 39.61900
C  28.82800 55.41300 39.75300
C  29.53800 56.52300 40.45100
C  28.98400 54.00600 40.26500
C  26.81300 56.07800 38.13500
C  26.11300 54.83300 37.70400
H  26.64600 54.26200 36.38300
N  31.44200 58.79600 41.23100
C  31.92800 57.51400 40.78600
C  33.27000 57.45400 40.63500
C  33.70000 58.77300 40.96600
C  32.52800 59.53600 41.48100
C  33.97300 56.22500 40.08100
C  35.07500 59.22100 40.87600
O  35.95200 58.41200 40.56700
C  35.56400 60.63200 41.14000
N  30.06700 61.29600 42.30100
C  31.38000 61.64300 42.44400
C  31.52700 63.08300 42.95000
C  29.98900 63.54000 43.10900
C  29.22200 62.32400 42.62500
C  32.29800 63.27600 44.29900
C  29.63000 64.85300 42.25400
C  29.10000 65.95700 43.20200
N  27.44000 59.99100 41.91200
C  26.93100 61.20900 42.41100
C  25.45300 61.03300 42.51900
C  25.19600 59.84800 41.82800
C  26.43400 59.30900 41.39900
C  24.54400 62.13100 42.90100
C  24.09800 58.97800 41.31300
O  22.89300 59.00100 41.42200
C  24.83100 57.78400 40.62200
C  24.38300 56.49200 41.17900
O  24.34300 56.26300 42.34900
O  24.00800 55.62300 40.20900
C  23.48400 54.42200 40.89600
H  31.47100 55.64400 40.05900
H  33.40000 61.28800 42.40500
H  27.43200 63.18700 43.17800
H  26.74800 55.40500 40.24500
H  29.24200 55.58800 38.76000
H  29.75800 54.14200 41.02000
H  29.31400 53.43700 39.39600
H  28.01200 53.62600 40.58100
H  27.63300 56.18500 37.42500
H  26.16900 56.93900 37.95400
H  25.06400 55.02100 37.47700
H  26.12100 54.05800 38.47000
H  34.03300 56.34400 39.00000
H  33.61300 55.21400 40.27500
H  34.92800 56.04800 40.57700
H  34.72200 61.28600 40.91600
H  36.44600 60.83100 40.53100
H  35.75300 60.59900 42.21400
H  32.10800 63.55500 42.15700
H  29.89800 63.72300 44.18000
H  31.95700 64.07900 44.95200
H  33.29500 63.44200 43.88900
H  32.27500 62.32800 44.83700
H  28.86100 64.60600 41.52200
H  30.49600 65.15100 41.66300
H  29.51900 66.94500 43.01400
H  29.15600 65.59200 44.22800
H  28.02200 66.07800 43.10000
H  23.62700 61.64500 43.23300
H  24.43100 62.72800 41.99600
H  24.85600 62.70000 43.77700
H  24.54200 57.75500 39.57200
H  24.36500 53.87600 41.23100
H  22.93100 53.80500 40.18800
H  22.75000 54.62200 41.67700
Mg -9.70000 41.31300 41.76900
C  -8.56200 38.04900 41.12500
C  -6.80000 42.43400 40.39100
C  -11.11600 44.19800 41.87500
C  -12.76000 39.85200 43.01000
N  -8.03400 40.34800 40.73700
C  -7.75400 38.97900 40.63800
C  -6.38200 38.71000 39.82900
C  -5.80400 40.12400 39.83300
C  -6.90800 41.00500 40.39000
C  -4.42400 40.45200 40.59900
C  -6.59700 38.04900 38.40300
C  -5.85600 36.72700 38.04000
H  -4.99100 36.86700 36.75000
N  -9.05200 43.11900 41.20500
C  -7.84800 43.39700 40.68600
C  -7.72900 44.81200 40.51800
C  -8.99400 45.39200 40.89700
C  -9.81100 44.25900 41.30300
C  -6.43900 45.49400 39.84100
C  -9.35900 46.87600 40.86600
O  -8.55800 47.72300 40.43900
C  -10.68700 47.32600 41.21200
N  -11.68900 41.92100 42.29700
C  -11.88600 43.23400 42.40100
C  -13.31500 43.50400 42.85300
C  -13.62600 42.19300 43.67300
C  -12.64200 41.25700 42.96000
C  -13.55000 44.87100 43.64500
C  -15.13300 41.71300 43.47300
C  -15.92300 41.20800 44.68100
N  -10.55300 39.30900 42.07200
C  -11.81900 38.90400 42.51200
C  -11.71500 37.40500 42.59800
C  -10.44800 37.06600 42.08000
C  -9.82800 38.27200 41.72200
C  -12.84600 36.51400 43.12500
C  -9.55200 35.97500 41.84000
O  -9.71800 34.74500 42.04300
C  -8.34600 36.53200 41.10900
C  -7.16700 35.97300 41.85400
O  -6.42700 36.54300 42.62900
O  -6.85000 34.83900 41.14600
C  -5.56200 34.23800 41.43300
H  -5.81600 42.76400 40.05400
H  -11.52000 45.20300 42.01400
H  -13.57800 39.37900 43.55900
H  -5.66400 38.10300 40.38100
H  -5.60300 40.49600 38.82900
H  -3.82900 41.13100 39.98800
H  -3.99100 39.45500 40.67200
H  -4.57500 40.75000 41.63700
H  -6.36600 38.81100 37.65900
H  -7.66100 37.88900 38.23300
H  -6.69700 36.06700 37.82600
H  -5.20300 36.40800 38.85300
H  -6.47200 46.56200 39.62600
H  -6.11000 44.98700 38.93400
H  -5.63100 45.26800 40.53700
H  -10.86500 48.38400 41.01800
H  -10.92800 47.26400 42.27300
H  -11.48400 46.79300 40.69300
H  -13.80200 43.57400 41.88100
H  -13.43000 42.35800 44.73200
H  -13.96200 45.57100 42.91900
H  -12.64600 45.35000 44.02100
H  -14.26200 44.71000 44.45500
H  -15.22000 40.87700 42.77900
H  -15.71400 42.51900 43.02500
H  -16.82300 41.82100 44.71400
H  -15.31700 41.48400 45.54400
H  -16.01000 40.12300 44.74600
H  -13.55400 37.24600 43.51300
H  -12.56600 35.82300 43.92100
H  -13.12900 35.89100 42.27600
H  -8.29700 36.22200 40.06500
H  -5.49000 33.41200 40.72600
H  -5.56100 33.76000 42.41200
H  -4.80500 35.01800 41.34700

