158

Mg 8.40000 3.79100 27.76500
C  9.72800 2.33600 30.76400
C  6.51800 5.84100 29.96400
C  6.77400 4.93000 25.15700
C  9.43400 1.01300 26.02100
N  8.21600 4.11700 30.08000
C  8.90800 3.41100 31.05700
C  8.75200 4.08000 32.46800
C  7.66500 5.11300 32.10300
C  7.40800 5.00700 30.65400
C  6.47100 5.20400 33.03900
C  10.06400 4.67800 32.90900
C  10.01000 5.26500 34.30500
H  10.96100 4.81400 35.44000
N  6.88800 5.24700 27.62600
C  6.21000 5.94000 28.55700
C  5.40200 6.92700 27.97800
C  5.45500 6.74400 26.58700
C  6.36200 5.55100 26.40700
C  4.57500 7.96700 28.75300
C  4.94700 7.56200 25.48000
O  5.08500 7.32500 24.30600
C  4.20000 8.85800 25.73200
N  8.27500 3.20100 25.86100
C  7.63500 3.87900 24.91400
C  7.57000 3.17000 23.54600
C  8.25100 1.83900 23.92600
C  8.75100 2.01900 25.36300
C  6.22900 3.16300 22.81000
C  9.37900 1.51700 22.90600
C  9.11300 0.23900 22.22300
N  9.43700 2.03600 28.20400
C  9.76200 0.97300 27.44700
C  10.51800 -0.03900 28.17700
C  10.57500 0.48900 29.51200
C  9.89200 1.73000 29.46500
C  10.90600 -1.42700 27.65600
C  10.97800 0.17300 30.81100
O  11.63200 -0.75300 31.27100
C  10.51700 1.45600 31.69100
C  9.72100 0.91600 32.81500
O  8.60100 0.45900 32.77100
O  10.46600 1.16600 33.97800
C  9.81600 0.87100 35.23400
H  5.94100 6.46200 30.65300
H  6.40100 5.22300 24.17300
H  9.67600 0.14800 25.40000
H  8.35600 3.40100 33.22400
H  8.14500 6.08600 32.20700
H  6.16800 4.22400 33.40800
H  5.55800 5.33900 32.46100
H  6.45800 6.00600 33.77700
H  10.40300 5.38400 32.15000
H  10.85700 3.94000 32.79300
H  8.98300 5.15300 34.65200
H  10.13600 6.34700 34.28200
H  5.18800 8.86800 28.72200
H  4.53100 7.60900 29.78200
H  3.59600 8.11200 28.29600
H  4.22700 9.45500 24.82100
H  4.69800 9.41900 26.52300
H  3.21900 8.70800 26.18300
H  8.16700 3.68700 22.79400
H  7.62700 0.94600 23.97400
H  5.40700 3.45600 23.46300
H  6.05600 2.11300 22.57500
H  6.28900 3.76100 21.90100
H  10.38900 1.54300 23.31300
H  9.52600 2.27100 22.13400
H  9.32600 0.40700 21.16700
H  8.15100 -0.24900 22.37600
H  9.82600 -0.50800 22.57400
H  10.04200 -1.86700 27.15900
H  11.17700 -2.04600 28.51100
H  11.83800 -1.37200 27.09200
H  11.41200 1.94900 32.06900
H  10.65800 0.67800 35.89800
H  9.14700 0.01500 35.13900
H  9.25700 1.79900 35.35400
Mg 17.06600 52.99600 25.59500
C  18.56700 51.20400 28.33500
C  14.37700 53.40800 27.74700
C  15.25200 54.40000 23.08300
C  19.37900 51.63200 23.57700
N  16.67100 52.55700 27.84000
C  17.41800 51.94800 28.70400
C  16.85500 52.05300 30.07600
C  15.38800 52.39800 29.82500
C  15.44900 52.87500 28.37800
C  14.39500 51.28800 30.00900
C  17.60600 53.09900 30.93500
C  17.98800 52.64400 32.37000
H  17.14400 53.26700 33.50100
N  15.11000 53.86200 25.46700
C  14.14900 53.92000 26.44600
C  12.96600 54.57800 25.94100
C  13.26400 54.96800 24.60400
C  14.61400 54.42500 24.31200
C  11.76400 54.88100 26.80900
C  12.49100 55.89800 23.63800
O  13.01800 56.35800 22.66800
C  11.18700 56.38900 24.04100
N  17.19600 52.99500 23.65700
C  16.40200 53.66900 22.74000
C  17.03000 53.75800 21.29900
C  18.36400 52.87300 21.54100
C  18.40500 52.49500 23.05800
C  16.12000 53.15600 20.25500
C  19.56900 53.68500 20.98500
C  20.33000 54.57600 21.93700
N  18.83600 51.74300 25.89000
C  19.57600 51.20000 24.93200
C  20.57400 50.31000 25.55300
C  20.37000 50.44900 26.93000
C  19.17700 51.16000 27.06100
C  21.77300 49.65500 24.81000
C  20.71000 50.12600 28.27200
O  21.68300 49.58500 28.65200
C  19.49500 50.53800 29.18600
C  18.97700 49.28700 29.92600
O  18.19700 48.44400 29.48800
O  19.56100 49.18600 31.18200
C  19.11500 48.11000 32.04300
H  13.55400 53.52700 28.45500
H  14.84800 55.00000 22.26600
H  20.08900 51.30800 22.81300
H  16.92400 51.09400 30.58900
H  15.04600 53.31900 30.29900
H  14.56700 50.79700 30.96700
H  14.51700 50.62100 29.15500
H  13.41200 51.75000 29.91700
H  16.99500 54.00100 30.94200
H  18.52200 53.39700 30.42500
H  19.05100 52.77200 32.57600
H  17.78100 51.57600 32.44600
H  11.81000 54.41900 27.79500
H  10.86800 54.63200 26.24000
H  11.76300 55.95000 27.01800
H  10.79500 57.04500 23.26400
H  11.30500 57.06400 24.88900
H  10.44400 55.59600 24.12200
H  17.20200 54.78400 20.97400
H  18.34400 51.93100 20.99200
H  16.08700 53.81500 19.38700
H  15.09200 52.97600 20.56900
H  16.52400 52.21600 19.87800
H  19.17200 54.29500 20.17300
H  20.29600 52.99600 20.55700
H  20.03000 54.33900 22.95700
H  20.10600 55.59900 21.63500
H  21.40000 54.37400 21.87700
H  21.82100 48.57400 24.94500
H  22.69900 50.10800 25.16300
H  21.66500 49.76400 23.73100
H  19.93800 51.19700 29.93200
H  19.28300 48.28500 33.10600
H  19.52300 47.12600 31.80900
H  18.04100 47.96800 31.92700

