158

Mg 0.42300 7.92800 24.83900
C  1.16400 9.53600 27.93200
C  0.35000 5.02800 26.55700
C  0.36600 6.42800 21.90600
C  1.11300 10.96500 23.29600
N  0.75100 7.36000 27.00100
C  0.94100 8.15000 28.12300
C  0.87700 7.38100 29.40700
C  0.59200 5.97100 28.90900
C  0.54100 6.12600 27.38500
C  1.65100 4.83400 29.33100
C  -0.17700 7.82500 30.48300
C  0.21600 7.63200 31.99000
H  1.46400 6.87900 32.44000
N  0.31400 6.03900 24.29900
C  0.29000 4.94500 25.19300
C  0.16900 3.70800 24.47100
C  0.07800 4.09700 23.10400
C  0.30400 5.55500 23.05600
C  0.08200 2.33700 25.09400
C  -0.10800 3.25600 21.86600
O  -0.06100 3.71400 20.67200
C  -0.43200 1.82700 22.05000
N  0.82500 8.63300 22.84300
C  0.60300 7.85200 21.77200
C  0.52200 8.67800 20.46000
C  0.93400 10.07900 20.91900
C  0.92300 9.93600 22.47000
C  1.49100 8.17200 19.24900
C  -0.00300 11.22200 20.31700
C  -1.25800 11.62200 21.07600
N  0.87400 9.92000 25.41000
C  1.21500 11.01300 24.69400
C  1.39800 12.11600 25.62800
C  1.35200 11.54200 26.85700
C  1.12900 10.22700 26.70600
C  1.55000 13.51800 25.13300
C  1.54400 11.92200 28.28200
O  1.93800 13.05400 28.75600
C  1.34700 10.59000 28.96400
C  2.39300 10.44800 30.04100
O  3.38900 9.66200 29.90100
O  2.09100 11.24800 31.09100
C  3.11200 11.13900 32.09500
H  0.29900 4.11500 27.15400
H  0.41000 5.85800 20.97600
H  1.28500 11.88600 22.73400
H  1.89500 7.38200 29.79700
H  -0.40300 5.65800 29.22500
H  1.76200 4.79700 30.41400
H  2.59800 5.14600 28.89100
H  1.44900 3.85400 28.89800
H  -1.09900 7.32300 30.19000
H  -0.22800 8.91000 30.38700
H  -0.70400 7.31200 32.48100
H  0.27800 8.65800 32.35100
H  -0.96100 2.13000 25.32900
H  0.78900 2.23900 25.91800
H  0.40700 1.54400 24.42000
H  0.38700 1.15300 22.30000
H  -0.84400 1.39200 21.14000
H  -1.14200 1.70800 22.86900
H  -0.49900 8.79200 20.09500
H  1.98600 10.20100 20.65900
H  0.88400 7.84600 18.40400
H  2.05600 7.30400 19.58800
H  2.18400 8.91300 18.85000
H  -0.27500 11.02300 19.28000
H  0.56900 12.14400 20.21000
H  -2.14400 11.59200 20.44200
H  -1.19700 12.64200 21.45300
H  -1.33200 10.79800 21.78600
H  0.58300 13.67400 24.65600
H  2.44000 13.57000 24.50600
H  1.74500 14.13300 26.01200
H  0.40700 10.78100 29.48300
H  2.96600 10.18200 32.59600
H  2.99500 11.91300 32.85300
H  4.15800 11.14000 31.78800
Mg -12.50100 38.33500 41.52300
C  -10.65800 35.58800 40.49300
C  -10.47000 40.31000 39.86500
C  -14.74200 40.55800 42.01300
C  -14.94300 35.78900 42.75600
N  -10.94700 37.93700 40.17700
C  -10.25300 36.76700 39.91600
C  -8.99500 37.00600 39.14100
C  -8.86300 38.62400 39.06700
C  -10.18100 38.97400 39.77000
C  -7.63300 39.26000 39.81100
C  -8.99500 36.34500 37.67100
C  -7.75200 35.49400 37.26300
H  -6.78700 36.13700 36.26900
N  -12.59600 40.24300 41.07000
C  -11.61700 40.93000 40.43700
C  -11.96800 42.32200 40.46900
C  -13.22100 42.47800 41.13900
C  -13.56600 41.04400 41.47900
C  -11.07600 43.49100 39.83700
C  -13.90300 43.72700 41.42200
O  -13.50200 44.71400 40.86000
C  -15.15000 43.83200 42.24900
N  -14.47100 38.21100 42.45300
C  -15.19700 39.36100 42.45700
C  -16.60300 39.06300 42.93700
C  -16.73900 37.53900 43.02600
C  -15.33500 37.14100 42.74200
C  -16.96200 39.78700 44.29200
C  -17.71600 36.92700 42.07700
C  -17.39200 36.95600 40.56700
N  -12.67500 36.19900 41.81400
C  -13.66100 35.32300 42.41900
C  -13.19500 33.97400 42.41400
C  -11.99000 34.05800 41.69600
C  -11.77300 35.38700 41.28200
C  -13.82300 32.78900 43.07400
C  -11.00400 33.23500 41.19400
O  -10.85600 32.03100 41.19900
C  -10.01700 34.19600 40.44300
C  -8.69600 34.09000 41.11900
O  -8.54000 34.55700 42.24000
O  -7.75700 33.45700 40.35600
C  -6.43500 33.07600 40.99400
H  -9.80000 40.88000 39.21800
H  -15.52700 41.31100 41.91700
H  -15.63600 35.06100 43.18300
H  -8.19200 36.49400 39.67300
H  -8.91400 38.97800 38.03700
H  -7.82600 39.75000 40.76500
H  -7.14100 39.93300 39.10800
H  -6.95900 38.44000 40.06100
H  -9.20400 37.09600 36.90900
H  -9.88400 35.71400 37.66600
H  -8.01900 34.45900 37.04800
H  -7.18900 35.32600 38.18100
H  -11.17000 44.38800 40.44900
H  -11.31800 43.81700 38.82500
H  -10.03800 43.17100 39.92700
H  -15.95300 43.25700 41.79000
H  -15.59600 44.82600 42.26500
H  -14.97300 43.63500 43.30700
H  -17.35200 39.39100 42.21700
H  -16.97900 37.25500 44.05100
H  -17.50000 40.63400 43.86600
H  -16.07700 40.23500 44.74400
H  -17.56400 39.22400 45.00500
H  -18.68800 37.38900 42.25000
H  -17.93300 35.90500 42.39000
H  -17.37800 35.98900 40.06400
H  -16.36600 37.32300 40.54000
H  -18.09700 37.63400 40.08600
H  -13.84600 32.93300 44.15400
H  -13.27300 31.89700 42.77100
H  -14.83400 32.51100 42.77600
H  -10.02000 33.87700 39.40000
H  -5.99100 32.20000 40.52000
H  -6.50800 32.96800 42.07600
H  -5.88200 33.98300 40.74900

