158

Mg 54.38000 24.32400 44.14600
C  51.69900 26.53200 43.41700
C  52.52100 21.69700 43.28800
C  57.32200 22.70500 43.80300
C  56.27600 27.31500 44.80200
N  52.34900 24.14100 43.31500
C  51.38000 25.14400 43.16700
C  50.02100 24.45100 42.89900
C  50.29500 22.94600 43.18600
C  51.80300 22.91400 43.22800
C  49.58600 22.48700 44.49800
C  49.51900 24.73600 41.37800
C  47.97700 24.94600 41.20400
H  47.45100 25.06700 39.80300
N  54.81700 22.35600 43.73100
C  53.87500 21.39900 43.42400
C  54.59200 20.14900 43.23500
C  55.96400 20.41800 43.53200
C  56.10500 21.88900 43.77400
C  53.94500 18.81900 42.87900
C  57.10800 19.42000 43.43700
O  56.85300 18.29000 43.03900
C  58.50600 19.69400 43.94700
N  56.56400 24.97300 44.18700
C  57.58200 24.08400 44.02000
C  58.96700 24.69600 44.30500
C  58.58500 26.22000 44.59100
C  57.07500 26.20700 44.54300
C  60.00400 24.05600 45.31900
C  59.20500 27.26800 43.58400
C  59.70800 28.63000 44.09000
N  54.07600 26.46800 44.26300
C  54.88000 27.51200 44.69900
C  54.09000 28.64600 44.92200
C  52.84700 28.39400 44.35700
C  52.89700 27.04600 43.96800
C  54.49700 29.97500 45.59800
C  51.52500 28.85600 44.09400
O  51.03000 29.90100 44.42600
C  50.82100 27.72000 43.29600
C  50.67100 28.17400 41.88400
O  51.57400 28.54200 41.20100
O  49.37700 28.13700 41.54900
C  48.87300 28.71900 40.31300
H  51.87900 20.82600 43.14300
H  58.28800 22.19600 43.78900
H  56.80400 28.19000 45.18700
H  49.19600 24.83700 43.49800
H  50.10500 22.24700 42.37200
H  50.30700 22.30200 45.29400
H  49.05600 21.57500 44.22500
H  48.78100 23.19600 44.69400
H  49.77500 23.84300 40.80700
H  50.03300 25.57700 40.91400
H  47.75600 25.79000 41.85800
H  47.34700 24.14700 41.59300
H  53.06400 19.14500 42.32600
H  53.62500 18.25100 43.75300
H  54.55200 18.16400 42.25400
H  59.10700 20.20500 43.19500
H  58.95900 18.71500 44.10100
H  58.38700 20.21600 44.89700
H  59.45600 24.64100 43.33300
H  58.88400 26.56300 45.58200
H  59.62100 23.10500 45.68800
H  60.05300 24.75400 46.15400
H  61.01300 23.92000 44.92700
H  58.51600 27.28800 42.74000
H  60.10100 26.82800 43.14800
H  60.67300 28.94100 43.69100
H  59.81700 28.64900 45.17400
H  59.01400 29.46300 43.97000
H  53.93500 29.96200 46.53200
H  54.07900 30.79600 45.01500
H  55.57600 30.11100 45.67000
H  49.86000 27.37200 43.67300
H  49.61100 29.18100 39.65800
H  48.15100 29.49300 40.57300
H  48.41000 27.91800 39.73500
Mg 4.49100 53.55300 42.35500
C  4.29500 50.04100 41.93200
C  7.20400 53.37200 40.01600
C  4.76200 56.81900 42.45300
C  1.58100 53.48100 44.25100
N  5.45200 51.91600 40.94000
C  5.22300 50.54000 41.01100
C  6.06600 49.80200 39.96700
C  7.19200 50.91500 39.63000
C  6.56800 52.14600 40.17200
C  8.53200 50.56400 40.37100
C  5.28900 49.37700 38.67800
C  5.23400 47.84900 38.23400
H  5.81200 47.50800 36.83400
N  5.89400 54.92100 41.44800
C  6.91300 54.64700 40.61900
C  7.69900 55.84700 40.50900
C  7.09400 56.86500 41.21700
C  5.85700 56.25600 41.74900
C  8.92200 55.85000 39.74500
C  7.40500 58.36200 41.16900
O  8.44000 58.74900 40.59100
C  6.61300 59.52700 41.87200
N  3.33200 54.87700 43.15200
C  3.63800 56.20300 43.05000
C  2.61100 57.13000 43.74900
C  1.67100 56.12400 44.44000
C  2.22800 54.68500 43.96400
C  3.38000 57.95600 44.74800
C  0.13800 56.39500 43.94900
C  -0.97400 56.33800 44.97600
N  3.14700 52.03100 42.97300
C  2.05500 52.21900 43.78000
C  1.67900 50.87100 44.17400
C  2.51100 49.98900 43.45900
C  3.37700 50.74900 42.71600
C  0.65800 50.45600 45.30600
C  2.86200 48.61200 43.39000
O  2.44500 47.61900 44.00000
C  4.09700 48.60700 42.33500
C  3.57700 47.71900 41.28800
O  2.78200 48.07900 40.42000
O  3.95900 46.41500 41.51600
C  3.55200 45.32300 40.61700
H  8.03900 53.16200 39.34500
H  4.83100 57.90000 42.58900
H  0.75800 53.49200 44.96900
H  6.49100 48.94700 40.49200
H  7.46200 51.04700 38.58300
H  9.33200 50.58100 39.63100
H  8.51900 49.62000 40.91500
H  8.80300 51.36300 41.06100
H  5.63000 49.91400 37.79300
H  4.27200 49.68200 38.92500
H  4.25000 47.38500 38.30800
H  5.97000 47.47600 38.94600
H  9.09800 56.77400 39.19500
H  9.06100 55.08100 38.98400
H  9.70500 55.89900 40.50200
H  5.70400 59.65200 41.28400
H  7.19800 60.43300 41.71200
H  6.45800 59.42200 42.94600
H  2.15500 57.76700 42.99000
H  1.82200 56.17000 45.51900
H  3.31500 59.02400 44.54100
H  4.39500 57.57700 44.86500
H  2.91500 57.82600 45.72500
H  -0.17100 55.68000 43.18700
H  0.09300 57.31700 43.36900
H  -1.67100 55.55800 44.67100
H  -1.61900 57.20800 45.10300
H  -0.55000 56.05100 45.93900
H  -0.36300 50.48100 44.92400
H  0.67500 50.87400 46.31200
H  0.99300 49.43800 45.50500
H  4.95300 48.18700 42.86300
H  4.34200 44.57300 40.65400
H  3.35100 45.63800 39.59300
H  2.69000 44.88800 41.12300

