158

Mg 54.43400 24.46700 44.55900
C  51.60900 26.34400 43.91700
C  52.66100 21.64300 43.64600
C  57.30500 22.80300 44.21100
C  56.15800 27.47200 45.19900
N  52.39600 24.10000 43.88400
C  51.39300 25.00700 43.65200
C  50.09000 24.30900 43.21500
C  50.38700 22.78400 43.48700
C  51.90400 22.80700 43.75800
C  49.56600 22.24400 44.63100
C  49.75900 24.60700 41.77000
C  48.33500 25.07500 41.45500
H  47.92600 25.37600 40.01400
N  54.92300 22.49300 43.94000
C  54.06700 21.47400 43.65400
C  54.77300 20.28100 43.33100
C  56.11100 20.53400 43.52900
C  56.20000 21.98300 43.90800
C  54.13600 19.01800 42.70600
C  57.25100 19.55600 43.40500
O  57.08800 18.38600 43.06800
C  58.66900 19.92700 43.84100
N  56.44200 25.13400 44.37700
C  57.48200 24.21700 44.33000
C  58.84400 24.93600 44.64200
C  58.47500 26.37800 44.79100
C  56.89400 26.34300 44.83200
C  59.64500 24.47500 45.87700
C  58.99900 27.40400 43.73000
C  59.80800 28.63800 44.34100
N  53.95000 26.45800 44.86000
C  54.71200 27.60200 45.10800
C  53.87900 28.76600 45.19300
C  52.64000 28.31100 44.73900
C  52.75500 26.89900 44.54300
C  54.20300 30.17100 45.61700
C  51.28500 28.76700 44.50400
O  50.74000 29.85600 44.59900
C  50.63600 27.50000 43.85500
C  50.06900 28.00500 42.48800
O  50.79000 28.31400 41.53400
O  48.69700 28.28700 42.58500
C  48.04300 28.92500 41.41400
H  52.13200 20.69000 43.57400
H  58.30700 22.36900 44.18400
H  56.69600 28.36700 45.52000
H  49.27800 24.68600 43.83600
H  50.24400 22.13500 42.62400
H  48.52900 22.58200 44.63400
H  49.93200 22.26800 45.65700
H  49.40400 21.18100 44.45600
H  49.94000 23.73800 41.13700
H  50.42000 25.38900 41.39600
H  48.15500 25.95300 42.07600
H  47.75800 24.19600 41.74200
H  54.36100 18.07700 43.20900
H  54.51300 19.01600 41.68400
H  53.05300 19.12100 42.65000
H  59.06700 20.75500 43.25400
H  59.20000 18.97500 43.81100
H  58.52000 20.14600 44.89800
H  59.46300 24.85000 43.74900
H  58.63000 26.80200 45.78300
H  59.11500 23.77500 46.52400
H  59.97700 25.29500 46.51300
H  60.54800 24.02500 45.46500
H  58.07700 27.78100 43.28800
H  59.57200 26.90700 42.94700
H  60.81800 28.69200 43.93400
H  59.98100 28.63900 45.41700
H  59.26600 29.55900 44.12500
H  53.69300 30.80300 44.89000
H  55.28500 30.22400 45.49900
H  53.86800 30.49400 46.60300
H  49.79200 27.23500 44.49200
H  47.71800 29.95500 41.56100
H  47.12500 28.34700 41.31500
H  48.63900 29.07000 40.51200
Mg 47.72500 16.09700 27.28500
C  45.90600 16.48400 30.22700
C  50.22800 17.85500 28.97200
C  49.23200 16.50800 24.42900
C  44.72400 15.00900 25.71500
N  47.98900 17.24100 29.38500
C  47.12600 17.04700 30.40800
C  47.69800 17.64900 31.73900
C  49.02200 18.31800 31.19800
C  49.08200 17.79900 29.76200
C  49.20100 19.78500 31.43100
C  48.01700 16.50300 32.78300
C  48.18500 16.99400 34.26400
H  47.83000 18.46800 34.62600
N  49.62600 16.88800 26.78500
C  50.51900 17.53400 27.58000
C  51.68400 17.88500 26.80800
C  51.40800 17.56200 25.46100
C  50.02900 16.96100 25.48800
C  52.86900 18.56200 27.38600
C  52.16300 17.73600 24.07000
O  51.75100 17.31100 22.97700
C  53.39300 18.55600 24.01100
N  47.02000 15.74800 25.31700
C  47.91800 15.96400 24.33600
C  47.29000 15.57700 22.96600
C  45.84200 14.99400 23.34200
C  45.84500 15.18500 24.86700
C  47.20700 16.76000 21.98800
C  45.55000 13.59100 22.80600
C  45.90300 12.34100 23.69400
N  45.80000 15.74300 27.78600
C  44.65300 15.27300 27.09500
C  43.56000 14.99800 27.98100
C  44.03200 15.44000 29.17500
C  45.37100 15.95200 29.02900
C  42.13700 14.48500 27.66000
C  43.63000 15.62800 30.56500
O  42.53500 15.42900 31.09300
C  44.89500 16.27900 31.38100
C  44.32300 17.36300 32.20300
O  44.26300 18.50200 31.83300
O  43.97700 16.95000 33.48700
C  43.47100 18.04200 34.29600
H  51.09100 18.25700 29.50700
H  49.74600 16.46700 23.46700
H  43.83800 14.54600 25.27700
H  47.00000 18.41200 32.08000
H  49.88700 17.91300 31.72400
H  48.20800 20.16400 31.67100
H  49.61700 20.39100 30.62600
H  49.80100 20.05900 32.29800
H  48.93600 15.98200 32.51700
H  47.22600 15.75300 32.79400
H  49.16600 16.80400 34.69900
H  47.59900 16.28300 34.84600
H  52.97000 19.60500 27.08600
H  53.77000 17.98700 27.17000
H  52.94700 18.70100 28.46500
H  53.95400 18.43300 23.08500
H  54.09500 18.43700 24.83600
H  53.03500 19.57900 23.89000
H  47.99000 14.85900 22.53800
H  45.12500 15.74700 23.01400
H  47.63900 17.63100 22.48000
H  46.22500 16.90100 21.53800
H  47.95300 16.47600 21.24500
H  46.06800 13.59900 21.84700
H  44.49500 13.50700 22.54500
H  46.37300 11.62300 23.02200
H  44.93500 11.94000 23.99500
H  46.52500 12.63900 24.53900
H  41.41000 15.21800 27.30800
H  41.76500 14.03300 28.58000
H  42.09400 13.64500 26.96700
H  45.01300 15.40900 32.02700
H  42.66100 18.65100 33.89500
H  44.19500 18.78300 34.63400
H  43.18600 17.55900 35.23100

