158

Mg 26.21200 0.61700 28.85300
C  28.26700 0.35000 31.84900
C  23.42800 0.68600 30.81600
C  24.48100 0.68600 26.03500
C  29.21200 -0.09000 26.98500
N  25.91300 0.43400 31.11700
C  26.87600 0.46600 32.07800
C  26.21600 0.57100 33.42700
C  24.61200 0.64200 33.11800
C  24.61600 0.55300 31.58000
C  23.88200 -0.39800 33.99900
C  26.78900 1.67300 34.25100
C  27.24200 1.32700 35.72700
H  26.71300 2.27600 36.83900
N  24.27000 0.74100 28.48600
C  23.25400 0.73700 29.43500
C  21.98900 0.89200 28.75400
C  22.23800 0.82300 27.32800
C  23.73000 0.73400 27.22300
C  20.73400 1.04900 29.50200
C  21.22600 0.80900 26.20700
O  21.50900 0.54000 25.06500
C  19.73800 1.09800 26.50500
N  26.74800 0.29100 26.76800
C  25.83600 0.51400 25.74300
C  26.49700 0.84200 24.43100
C  27.99200 0.59600 24.73300
C  28.02400 0.27700 26.24700
C  25.93500 -0.02100 23.29900
C  28.86700 1.77700 24.38300
C  29.53700 1.58400 23.01500
N  28.23400 0.11600 29.26500
C  29.30400 -0.14100 28.40800
C  30.50600 -0.33500 29.13800
C  30.20100 -0.16200 30.49900
C  28.77800 0.15700 30.50900
C  31.89700 -0.59500 28.51800
C  30.70100 -0.14300 31.78900
O  31.83700 -0.27100 32.27400
C  29.42800 0.15500 32.79800
C  29.20400 -1.07000 33.71800
O  28.77600 -2.17100 33.38500
O  29.67300 -0.83300 35.00300
C  29.14500 -1.82500 35.96700
H  22.52800 0.81100 31.42300
H  23.88200 0.95200 25.16200
H  30.10500 -0.16200 26.36200
H  26.45400 -0.39200 33.87800
H  24.24000 1.62900 33.39300
H  24.53000 -0.71700 34.81500
H  23.62300 -1.32600 33.48900
H  22.98400 0.04900 34.42500
H  26.00300 2.42400 34.33000
H  27.64400 2.14500 33.76700
H  28.32800 1.31400 35.64400
H  26.82800 0.33400 35.90300
H  20.80300 1.44200 30.51600
H  20.24000 0.07700 29.49300
H  19.98400 1.61900 28.95300
H  19.13500 1.06200 25.59800
H  19.68000 2.08200 26.97000
H  19.32200 0.32200 27.14800
H  26.20700 1.89200 24.38500
H  28.24600 -0.34400 24.24400
H  25.46300 -0.94300 23.63700
H  26.70300 -0.44800 22.65400
H  25.25200 0.53900 22.66000
H  29.67300 1.92200 25.10300
H  28.29600 2.70500 24.37000
H  29.30000 2.44300 22.38600
H  29.25800 0.67700 22.47800
H  30.61700 1.63900 23.15200
H  32.70900 -0.35300 29.20400
H  32.07100 -0.22200 27.50900
H  31.77200 -1.66200 28.33300
H  29.80300 0.91500 33.48300
H  29.66200 -1.52000 36.87700
H  29.31600 -2.87500 35.72700
H  28.07700 -1.62800 36.05700
Mg -10.93700 16.75700 40.22900
C  -7.57700 16.26000 40.40000
C  -10.44900 20.13200 40.29700
C  -14.29400 17.18400 39.48700
C  -11.37400 13.29500 39.88800
N  -9.15300 17.99300 40.23500
C  -7.86100 17.64900 40.35500
C  -6.99300 18.81400 40.19600
C  -7.91300 19.95100 40.75900
C  -9.29600 19.37300 40.43600
C  -7.72100 20.29200 42.25800
C  -6.47700 19.10400 38.83300
C  -5.04400 18.69900 38.50700
H  -4.83000 18.01300 37.17400
N  -12.17900 18.43500 39.99400
C  -11.79000 19.76200 40.01900
C  -12.83000 20.61600 39.56100
C  -13.97800 19.79200 39.37300
C  -13.53500 18.38700 39.64500
C  -12.58800 22.04900 39.11400
C  -15.36600 20.23800 38.84700
O  -15.51800 21.40600 38.59300
C  -16.59600 19.35900 38.79600
N  -12.53800 15.44100 39.56600
C  -13.86500 15.85700 39.53300
C  -14.85900 14.66200 39.48500
C  -13.85900 13.45100 39.72900
C  -12.50100 14.10100 39.74000
C  -16.08000 14.75500 40.38600
C  -13.97100 12.41600 38.57500
C  -14.07700 10.88400 38.95000
N  -9.72100 15.06600 40.11900
C  -10.03800 13.72800 39.98500
C  -8.83300 12.96000 39.97600
C  -7.83500 13.90200 40.15800
C  -8.40900 15.20000 40.23300
C  -8.63600 11.54400 39.97300
C  -6.41300 14.10100 40.25800
O  -5.55000 13.29300 40.37700
C  -6.20400 15.62500 40.44500
C  -5.51300 15.71800 41.76800
O  -5.73100 15.02900 42.74100
O  -4.67700 16.75700 41.76000
C  -4.05300 16.99400 43.04900
H  -10.20500 21.19300 40.37500
H  -15.37600 17.21700 39.34600
H  -11.51700 12.21300 39.92300
H  -6.14200 18.68900 40.86600
H  -7.86500 20.90700 40.23800
H  -8.66100 20.31600 42.81000
H  -7.26000 21.27900 42.24800
H  -7.05400 19.62800 42.80800
H  -6.60600 20.16700 38.62500
H  -7.17000 18.62000 38.14500
H  -4.52200 18.12100 39.27100
H  -4.47300 19.62800 38.51700
H  -13.08200 22.74400 39.79400
H  -13.03700 22.10100 38.12200
H  -11.51600 22.23600 39.06100
H  -17.55600 19.86900 38.87200
H  -16.62800 18.67400 39.64400
H  -16.61800 18.92300 37.79800
H  -15.24000 14.64000 38.46400
H  -13.98600 12.86800 40.64000
H  -16.06700 13.84000 40.97700
H  -16.97500 14.69900 39.76600
H  -16.09400 15.67000 40.97900
H  -13.30600 12.58600 37.72800
H  -14.83500 12.79500 38.02900
H  -13.50400 10.19700 38.32700
H  -15.14000 10.65900 38.86300
H  -13.83200 10.74500 40.00400
H  -7.89900 11.20900 40.70200
H  -8.32500 11.17200 38.99700
H  -9.53400 11.12400 40.42600
H  -5.49600 16.06600 39.74400
H  -3.83500 16.06000 43.56700
H  -4.71000 17.55200 43.71600
H  -3.13900 17.53200 42.79500

