158

Mg 40.83000 8.51500 30.26400
C  42.73900 9.63400 33.00700
C  38.61900 7.28300 32.51800
C  39.43100 6.81400 27.78100
C  43.48300 9.61100 28.13700
N  40.76100 8.61100 32.55300
C  41.63400 9.04100 33.47800
C  41.20700 8.62800 34.89500
C  40.00600 7.69700 34.58800
C  39.71600 7.94900 33.06700
C  40.17000 6.20900 34.94500
C  40.82800 9.89800 35.75000
C  41.29100 9.66900 37.19400
H  41.55600 10.98200 38.01100
N  39.10800 7.41700 30.14300
C  38.35800 7.03600 31.18900
C  37.24900 6.26600 30.66100
C  37.43600 6.16400 29.27800
C  38.72200 6.78300 28.99600
C  36.03600 5.77800 31.40100
C  36.51000 5.64400 28.16500
O  36.86700 5.40900 27.02800
C  35.07400 5.39900 28.48700
N  41.40800 8.21500 28.27100
C  40.62900 7.41800 27.45200
C  41.20900 7.46900 26.03800
C  42.31100 8.61400 26.10000
C  42.46900 8.80500 27.57000
C  41.75900 6.06600 25.63300
C  41.76000 9.89500 25.35200
C  42.56700 10.49200 24.23500
N  42.67800 9.46000 30.45200
C  43.64300 9.94400 29.48800
C  44.75000 10.60700 30.17700
C  44.44200 10.45600 31.56500
C  43.16700 9.78200 31.67000
C  46.01500 11.09100 29.50000
C  44.92600 10.76700 32.91900
O  45.92000 11.32900 33.28100
C  43.80200 10.36100 33.82500
C  44.47700 9.56900 34.87500
O  45.11500 8.56000 34.74800
O  44.25900 10.18000 36.06100
C  44.86600 9.55100 37.26500
H  38.02700 6.80300 33.30000
H  39.07000 6.26500 26.90800
H  44.25000 10.04900 27.49400
H  42.04900 8.13100 35.37600
H  39.21800 7.97900 35.28700
H  41.15800 5.96700 35.33800
H  40.00000 5.48700 34.14600
H  39.49100 6.01600 35.77500
H  39.74600 10.01600 35.70200
H  41.32500 10.79300 35.37600
H  42.17200 9.02700 37.22800
H  40.44300 9.20000 37.69200
H  36.20400 5.56000 32.45600
H  35.74400 4.76900 31.11100
H  35.11400 6.35600 31.34500
H  34.70800 6.33900 28.90000
H  34.88800 4.62100 29.22700
H  34.50400 5.14500 27.59300
H  40.43500 7.72900 25.31600
H  43.32600 8.39000 25.77200
H  41.51400 5.28300 26.35100
H  42.83700 6.10700 25.47700
H  41.31100 5.73500 24.69600
H  41.71800 10.70400 26.08100
H  40.74400 9.65700 25.03600
H  41.82900 10.54300 23.43500
H  43.46800 9.95500 23.93800
H  42.90700 11.46000 24.60400
H  45.98200 12.18000 29.53100
H  46.06000 10.72600 28.47400
H  46.84300 10.80500 30.15000
H  43.50800 11.34400 34.19300
H  45.95500 9.56200 37.21800
H  44.55700 8.52100 37.44000
H  44.66600 10.22600 38.09700
Mg 50.02900 44.96300 40.86400
C  47.11600 45.72200 39.06000
C  49.89900 41.76300 39.56100
C  53.41800 44.72800 41.50300
C  50.25200 48.29900 41.77500
N  48.61000 43.86100 39.51400
C  47.52500 44.42300 38.85100
C  46.74900 43.34100 38.08800
C  47.55900 42.02800 38.48700
C  48.79400 42.54100 39.18100
C  46.71000 40.99100 39.36300
C  46.76300 43.63500 36.51000
C  45.35200 43.56800 35.86400
H  45.05800 44.41600 34.59900
N  51.38700 43.39100 40.71400
C  51.11200 42.15300 40.08800
C  52.33900 41.35800 40.11400
C  53.33600 42.15200 40.84600
C  52.73600 43.49700 41.01200
C  52.47200 39.95200 39.54600
C  54.79700 41.70600 41.24000
O  55.17800 40.55400 40.91600
C  55.73500 42.51200 41.99700
N  51.52900 46.26100 41.68700
C  52.80700 45.94400 41.78900
C  53.68400 47.05100 42.26200
C  52.64300 48.21900 42.52300
C  51.35200 47.53500 42.00100
C  54.86000 46.76500 43.32800
C  53.02000 49.61000 42.01500
C  53.21000 50.63300 43.22000
N  48.81700 46.67900 40.75500
C  49.04300 47.98400 41.09700
C  48.04200 48.83900 40.62100
C  47.20900 48.03700 39.86800
C  47.70500 46.72800 39.91500
C  47.92300 50.31200 41.01500
C  46.04100 48.04500 38.99500
O  45.22300 48.89800 38.58800
C  45.93000 46.55200 38.49400
C  44.67100 45.99600 39.06000
O  43.66800 45.70600 38.36400
O  44.64100 45.98200 40.40100
C  43.33700 46.19500 41.15300
H  49.83900 40.72000 39.24300
H  54.48400 44.65700 41.73300
H  50.17200 49.35900 42.02500
H  45.73200 43.30800 38.47900
H  48.00300 41.51100 37.63600
H  46.88700 39.95400 39.07800
H  45.64300 41.17200 39.23400
H  47.00200 41.13900 40.40200
H  47.40600 42.86600 36.08300
H  47.23900 44.56800 36.20900
H  44.59600 43.84100 36.60100
H  45.15900 42.51800 35.64500
H  53.16200 39.89100 38.70400
H  51.51100 39.74800 39.07300
H  52.70000 39.16900 40.27000
H  55.22200 42.99500 42.82900
H  56.16900 43.25700 41.33100
H  56.59100 41.99700 42.43200
H  54.12200 47.36300 41.31300
H  52.49800 48.25900 43.60300
H  55.78100 46.70300 42.74900
H  54.58200 45.77400 43.68800
H  54.88000 47.53500 44.09900
H  52.19200 50.02700 41.44100
H  53.87700 49.62200 41.34200
H  52.51000 51.46800 43.18300
H  54.24000 50.98500 43.27700
H  53.10200 50.07300 44.14900
H  48.81100 50.92200 40.84700
H  47.80100 50.25700 42.09700
H  47.08200 50.80400 40.52700
H  45.92800 46.51700 37.40500
H  43.45000 47.11800 41.72100
H  43.08500 45.34300 41.78400
H  42.42900 46.32300 40.56300

