158

Mg -1.81800 17.27100 27.02000
C  -2.00300 15.20100 29.77300
C  -1.94300 19.90800 29.23400
C  -2.19900 19.27900 24.47100
C  -2.29100 14.44400 24.97600
N  -1.79800 17.53200 29.21400
C  -1.98000 16.53000 30.13400
C  -2.03400 17.08600 31.61000
C  -2.28400 18.62800 31.35000
C  -1.95500 18.69800 29.84100
C  -3.63800 19.15200 31.81400
C  -0.78000 16.72400 32.41200
C  -0.29100 17.66700 33.56700
H  -0.05000 16.81700 34.84600
N  -1.97400 19.39600 26.87100
C  -1.90500 20.30300 27.87400
C  -1.84700 21.63300 27.35500
C  -1.97800 21.48800 25.92400
C  -2.01500 20.02800 25.68500
C  -1.77900 22.93000 28.16600
C  -2.06500 22.60300 24.87500
O  -2.25500 22.25700 23.68800
C  -2.19000 24.08100 25.25400
N  -2.27700 16.87800 25.02600
C  -2.38500 17.93800 24.14300
C  -2.71800 17.42300 22.71000
C  -2.37400 15.88900 22.89200
C  -2.46500 15.69600 24.39400
C  -4.04800 17.80100 22.13700
C  -1.11400 15.32600 22.11100
C  0.16800 15.28200 23.01100
N  -1.92500 15.22000 27.21200
C  -2.19900 14.22000 26.30900
C  -2.29200 12.95700 27.02700
C  -2.23000 13.26600 28.40800
C  -2.04300 14.67400 28.44700
C  -2.68900 11.60800 26.43400
C  -2.38000 12.77300 29.68200
O  -2.45100 11.57700 30.04300
C  -2.29000 14.01000 30.64800
C  -1.21600 13.51800 31.57800
O  -0.00000 13.45600 31.30400
O  -1.79800 13.09900 32.74900
C  -0.80600 12.33400 33.58500
H  -2.08700 20.65300 30.01800
H  -2.34700 19.95100 23.62300
H  -2.45000 13.58600 24.32000
H  -2.88800 16.60600 32.08700
H  -1.52800 19.32200 31.71700
H  -4.10300 19.56900 30.92100
H  -3.57000 19.94100 32.56300
H  -4.27200 18.42300 32.31800
H  0.07400 16.64100 31.74000
H  -0.99300 15.76600 32.88600
H  -1.04100 18.45200 33.66700
H  0.63300 18.14600 33.24200
H  -2.56700 23.60300 27.82700
H  -0.81700 23.39300 27.94700
H  -1.83600 22.66200 29.22100
H  -1.23700 24.30600 25.73300
H  -3.10800 24.17100 25.83400
H  -2.28900 24.79800 24.43900
H  -2.08900 17.90400 21.96000
H  -3.18700 15.31300 22.45000
H  -3.84700 18.10700 21.11000
H  -4.55300 18.60200 22.67800
H  -4.71200 16.93600 22.12900
H  -0.84100 15.92500 21.24200
H  -1.27600 14.31200 21.74700
H  0.10800 15.63000 24.04200
H  1.07000 15.82300 22.72300
H  0.51600 14.25700 23.14100
H  -2.43400 10.90200 27.22400
H  -2.03500 11.24100 25.64300
H  -3.72600 11.51700 26.11000
H  -3.25600 14.05300 31.15000
H  -0.27700 11.55800 33.03200
H  -1.54300 11.88000 34.24800
H  -0.17400 12.95600 34.22000
Mg 2.46600 -1.59100 44.05400
C  5.73000 -0.26100 43.27600
C  1.24700 1.24700 42.49600
C  -0.48300 -2.87600 44.35900
C  4.05100 -4.54900 45.09100
N  3.42800 0.22100 42.85500
C  4.77500 0.59900 42.75100
C  4.92600 1.95700 42.11800
C  3.48300 2.47700 42.03000
C  2.64400 1.29500 42.47400
C  3.30900 3.68500 42.95500
C  5.70400 1.68100 40.75600
C  6.83600 2.63400 40.17300
H  6.53300 2.93600 38.73600
N  0.60900 -0.96100 43.47700
C  0.32900 0.24900 42.90700
C  -1.10700 0.37400 42.85600
C  -1.69800 -0.85600 43.46000
C  -0.50400 -1.60600 43.81100
C  -1.79200 1.74500 42.44300
C  -3.18100 -1.10200 43.74100
O  -3.96500 -0.33700 43.22500
C  -3.68800 -2.34700 44.48700
N  1.95500 -3.46200 44.56400
C  0.61600 -3.77600 44.64200
C  0.42500 -5.28900 44.96300
C  1.79200 -5.73900 45.37700
C  2.67000 -4.51800 44.93900
C  -0.79100 -5.56900 45.92100
C  2.27200 -7.09100 44.69500
C  2.93500 -8.14200 45.53300
N  4.45400 -2.19600 44.33000
C  4.95800 -3.41600 44.81100
C  6.38000 -3.37800 44.98700
C  6.70800 -2.07600 44.40000
C  5.51000 -1.46900 43.98800
C  7.27400 -4.37400 45.62500
C  7.79500 -1.20900 44.05300
O  8.99200 -1.35700 44.18700
C  7.20700 -0.01100 43.31500
C  7.44800 1.14700 44.14100
O  6.81400 1.38500 45.17500
O  8.48500 1.89300 43.64000
C  9.10600 2.84400 44.58400
H  0.80900 2.16700 42.10300
H  -1.50600 -3.25000 44.44500
H  4.59400 -5.37500 45.55400
H  5.52500 2.65200 42.70700
H  3.13700 2.65800 41.01200
H  2.33200 3.63400 43.43600
H  3.30100 4.53100 42.26800
H  4.14900 3.88100 43.62000
H  4.87500 1.63600 40.04900
H  6.08600 0.66100 40.71400
H  7.80300 2.15200 40.31900
H  6.95900 3.59700 40.66700
H  -2.86800 1.81600 42.59900
H  -1.61100 1.87800 41.37600
H  -1.27700 2.54500 42.97600
H  -3.11700 -2.37700 45.41600
H  -3.53100 -3.22700 43.86400
H  -4.71500 -2.01000 44.62800
H  0.14100 -5.70200 43.99500
H  1.77600 -5.83800 46.46200
H  -1.24700 -4.65200 46.29400
H  -0.42900 -6.11700 46.79100
H  -1.57100 -6.09300 45.36800
H  2.99400 -6.83700 43.91900
H  1.41600 -7.63600 44.29600
H  3.51700 -7.72000 46.35300
H  3.70000 -8.60100 44.90700
H  2.26500 -8.89400 45.94700
H  8.27500 -4.06900 45.32100
H  7.05200 -5.36100 45.21700
H  7.14700 -4.30600 46.70500
H  7.66700 0.02200 42.32800
H  8.87400 2.77100 45.64600
H  9.13800 3.89200 44.28600
H  10.08900 2.37400 44.60000

