158

Mg 8.69200 3.03500 27.57100
C  9.87600 1.38700 30.47700
C  7.08900 5.24000 29.58400
C  7.51900 4.47200 24.84400
C  10.08400 0.40900 25.58800
N  8.33800 3.08000 29.93800
C  9.03700 2.38400 30.89200
C  8.82500 3.02600 32.24600
C  7.87500 4.31500 31.93200
C  7.76200 4.24500 30.38300
C  6.43300 4.40800 32.52300
C  10.09800 3.34200 33.06000
C  9.89400 3.75900 34.47800
H  11.03500 3.51600 35.47800
N  7.37500 4.57300 27.25900
C  6.90500 5.41500 28.17300
C  6.00000 6.39400 27.54600
C  6.27100 6.26800 26.16200
C  7.06700 5.03600 26.00500
C  5.02400 7.34500 28.32900
C  5.69200 7.03600 25.01100
O  5.63500 6.63500 23.85800
C  5.03500 8.27700 25.26400
N  8.90700 2.42100 25.49100
C  8.20600 3.26000 24.60700
C  8.19700 2.62500 23.20100
C  9.22000 1.48300 23.39400
C  9.32300 1.35000 24.90200
C  6.81000 2.08900 22.86800
C  10.58700 1.77500 22.68300
C  11.51400 0.56600 22.35300
N  9.93800 1.40700 27.82300
C  10.39700 0.46600 26.94000
C  11.18100 -0.54200 27.62500
C  10.95300 -0.25000 29.04900
C  10.22500 0.95600 29.12100
C  12.06100 -1.55900 27.00700
C  11.23900 -0.67700 30.38600
O  11.91200 -1.62500 30.82700
C  10.60600 0.38200 31.34800
C  9.78000 -0.30100 32.43900
O  8.60400 -0.58700 32.33900
O  10.50000 -0.48000 33.60100
C  9.80200 -0.88300 34.83300
H  6.80200 6.03100 30.27900
H  7.19600 5.05200 23.97700
H  10.57600 -0.36900 25.00000
H  8.20000 2.41400 32.89600
H  8.38100 5.24400 32.19500
H  6.21800 5.34200 33.04300
H  6.29200 3.63800 33.28000
H  5.68400 4.36700 31.73200
H  10.65200 4.21200 32.70900
H  10.79300 2.50400 33.12100
H  8.97800 3.24100 34.76400
H  9.64500 4.81700 34.39200
H  4.92700 7.24200 29.40900
H  3.99600 7.21200 27.99400
H  5.29800 8.39600 28.23200
H  5.63900 8.84600 25.97100
H  4.02000 8.17300 25.64800
H  4.99200 8.92300 24.38700
H  8.38800 3.31000 22.37600
H  8.91500 0.49400 23.05000
H  6.85600 1.03000 23.12400
H  6.62300 2.25600 21.80700
H  5.97500 2.63200 23.31200
H  11.17400 2.38500 23.37000
H  10.33800 2.35400 21.79400
H  11.79900 0.55200 21.30200
H  11.02000 -0.39200 22.51300
H  12.34600 0.68300 23.04800
H  11.42100 -2.32500 26.57100
H  12.67200 -2.03900 27.77200
H  12.74800 -1.09300 26.30000
H  11.47600 0.77700 31.87300
H  8.83900 -1.30900 34.54900
H  9.54100 -0.02700 35.45700
H  10.29300 -1.58000 35.51200
Mg 0.29000 43.97400 25.45900
C  2.08500 43.60900 28.41600
C  -2.52700 42.90900 27.12100
C  -1.34100 43.81700 22.55000
C  3.12200 44.83700 23.88600
N  -0.16500 43.56000 27.57300
C  0.74300 43.42500 28.61000
C  0.07200 43.03700 29.94900
C  -1.43800 42.95400 29.52300
C  -1.42300 43.11700 27.99100
C  -2.05000 41.53800 29.74400
C  0.25100 44.10100 31.07800
C  0.54300 43.57500 32.51800
H  0.23900 42.16100 32.92200
N  -1.72300 43.62300 24.90200
C  -2.65100 43.09800 25.73100
C  -3.86400 42.81400 25.01000
C  -3.58900 43.27100 23.66100
C  -2.14500 43.63400 23.69600
C  -5.04600 42.17700 25.64400
C  -4.45200 43.19300 22.48700
O  -4.10900 43.75900 21.45600
C  -5.73900 42.47000 22.60200
N  0.86800 44.11900 23.49300
C  -0.02100 43.98700 22.47900
C  0.72900 44.22200 21.08400
C  2.13100 44.83200 21.54200
C  2.04600 44.65700 23.11200
C  0.79400 42.88800 20.19000
C  2.47900 46.28800 21.10200
C  1.26100 47.28600 20.85900
N  2.23800 44.05300 25.98200
C  3.29900 44.42800 25.21700
C  4.51700 44.45600 25.97700
C  4.06300 44.14600 27.27400
C  2.68300 43.94400 27.23300
C  5.92100 44.99600 25.59200
C  4.53000 43.96300 28.64000
O  5.64100 44.08200 29.23200
C  3.19100 43.63200 29.39200
C  3.37800 42.43400 30.20200
O  3.32000 41.31200 29.81900
O  3.60600 42.78800 31.50000
C  4.00700 41.73000 32.47200
H  -3.43400 42.94100 27.72900
H  -1.82900 43.58700 21.60100
H  3.99000 45.23800 23.35900
H  0.53000 42.10200 30.27200
H  -1.99700 43.73300 30.04200
H  -1.38300 40.90100 30.32500
H  -2.30900 41.00600 28.82800
H  -3.03700 41.46600 30.20100
H  -0.54200 44.83400 31.23000
H  1.02400 44.82400 30.81700
H  0.03600 44.15200 33.29200
H  1.58700 43.71500 32.79500
H  -5.34700 41.16200 25.38400
H  -5.79900 42.95500 25.52300
H  -4.96300 42.08300 26.72700
H  -6.22100 42.45800 21.62500
H  -6.39900 42.86800 23.37400
H  -5.68500 41.41100 22.85200
H  0.07300 44.88900 20.52500
H  2.91300 44.21500 21.10000
H  0.32700 42.96000 19.20700
H  0.23200 42.15200 20.76500
H  1.83100 42.58500 20.04900
H  3.03800 46.29400 20.16700
H  3.10700 46.87900 21.76900
H  0.74500 47.24600 19.90000
H  1.63300 48.29000 21.06300
H  0.50500 47.09600 21.62200
H  6.52700 45.47400 26.36100
H  5.68300 45.83400 24.93600
H  6.40200 44.18000 25.05400
H  3.16800 44.47800 30.07800
H  5.07100 41.57000 32.29600
H  3.48500 40.79800 32.25400
H  3.71600 42.06900 33.46600

