158

Mg 46.62100 25.41100 28.57100
C  47.83700 27.72600 31.03800
C  45.51200 23.31700 31.00500
C  46.33000 23.16400 26.09900
C  48.37700 27.53000 26.18600
N  46.57800 25.62200 30.74800
C  47.11500 26.63000 31.56100
C  46.80200 26.35200 33.03400
C  46.25300 24.87800 32.98800
C  46.04900 24.54300 31.50500
C  47.25800 23.80100 33.64700
C  45.74100 27.37200 33.57400
C  45.39900 27.50100 35.10700
H  46.12300 26.67900 36.21900
N  45.89700 23.51600 28.54600
C  45.42500 22.84600 29.64000
C  44.91900 21.51600 29.12400
C  45.15700 21.45700 27.70700
C  45.79600 22.75500 27.35200
C  44.23600 20.40600 30.02100
C  44.76300 20.46800 26.61500
O  45.06400 20.60200 25.42000
C  43.72100 19.35800 27.05500
N  47.30600 25.36800 26.44700
C  46.88700 24.34800 25.65300
C  47.20000 24.62200 24.18000
C  47.74700 26.09200 24.16800
C  47.82900 26.39000 25.71300
C  48.13000 23.59600 23.43500
C  46.83400 27.10100 23.45400
C  47.55300 28.36700 22.97800
N  47.77400 27.24900 28.53600
C  48.38400 27.96500 27.51800
C  49.09800 29.11100 28.04900
C  48.87800 29.07800 29.46300
C  48.10700 27.91600 29.67200
C  49.92500 30.09900 27.13400
C  49.15500 29.73100 30.70300
O  49.78700 30.75900 30.95900
C  48.49900 28.82200 31.76800
C  49.58500 28.34900 32.73600
O  50.51500 27.65700 32.45500
O  49.25700 28.91700 33.96100
C  50.21300 28.82200 35.11000
H  45.18900 22.55500 31.71800
H  46.07000 22.53200 25.24700
H  48.71700 28.31500 25.50800
H  47.69100 26.43100 33.66100
H  45.30700 24.73200 33.51000
H  46.86200 23.06900 34.35100
H  48.03800 24.28000 34.23700
H  47.74800 23.27600 32.82700
H  44.86300 27.09900 32.98800
H  46.11800 28.32000 33.19000
H  44.34900 27.20800 35.14400
H  45.42700 28.54300 35.42700
H  43.26000 20.25900 29.55900
H  44.18300 20.59300 31.09300
H  44.79200 19.46900 30.05700
H  42.90300 19.86400 27.56900
H  44.24200 18.69400 27.74400
H  43.24900 18.73700 26.29300
H  46.25000 24.70000 23.65200
H  48.74700 26.05000 23.73700
H  47.36700 22.95900 22.98700
H  48.66700 23.14400 24.26900
H  48.70200 24.14000 22.68300
H  46.13500 27.49000 24.19400
H  46.31300 26.69300 22.58800
H  47.19400 29.22400 23.54900
H  47.46100 28.60900 21.92000
H  48.63100 28.41000 23.13400
H  49.40300 30.83600 26.52500
H  50.65900 29.62200 26.48500
H  50.64800 30.66700 27.71900
H  47.80400 29.54000 32.20300
H  49.68100 28.32000 35.91800
H  50.58300 29.83200 35.29200
H  51.18900 28.38100 34.90800
Mg -5.89900 25.51800 25.92000
C  -4.39100 26.86200 28.58000
C  -7.11300 23.00500 28.10900
C  -7.29300 23.85800 23.35600
C  -4.33400 27.62300 23.77000
N  -5.80000 25.03800 28.09000
C  -5.27100 25.85000 29.04000
C  -5.73400 25.46000 30.48400
C  -6.25900 24.04600 30.25600
C  -6.40300 23.98600 28.74500
C  -5.44400 22.93200 30.81200
C  -6.77500 26.43300 31.06400
C  -6.63800 26.75100 32.52400
H  -7.62200 26.09800 33.48900
N  -7.11800 23.76900 25.75200
C  -7.47700 22.88800 26.78400
C  -8.38700 21.81500 26.20100
C  -8.52500 22.12300 24.82100
C  -7.67000 23.29900 24.54600
C  -8.84600 20.57800 26.93900
C  -9.30400 21.32600 23.69500
O  -9.15300 21.49400 22.48800
C  -10.29400 20.22800 24.10600
N  -5.64700 25.51600 23.81600
C  -6.36800 24.84400 22.99200
C  -6.13200 25.24100 21.49000
C  -5.28800 26.53300 21.67800
C  -5.02900 26.54200 23.16500
C  -5.45000 24.30900 20.54700
C  -6.02600 27.77800 21.19500
C  -5.17200 28.64300 20.33700
N  -4.59700 26.95200 26.05600
C  -4.07700 27.87100 25.12900
C  -3.20500 28.77700 25.79800
C  -3.23900 28.42100 27.13500
C  -4.13200 27.29400 27.27300
C  -2.40200 29.94300 25.14900
C  -2.79100 28.78400 28.46300
O  -1.94200 29.55600 28.94100
C  -3.63300 27.80100 29.43600
C  -2.71000 27.09800 30.34200
O  -1.83500 26.26700 30.03100
O  -2.97900 27.46100 31.64500
C  -1.93000 27.00800 32.63900
H  -7.58100 22.26700 28.76300
H  -7.69300 23.51300 22.40000
H  -3.96300 28.32300 23.01900
H  -4.89900 25.31300 31.16900
H  -7.23700 23.99000 30.73400
H  -5.64300 22.71200 31.86100
H  -4.41400 23.27900 30.88400
H  -5.53700 22.03200 30.20400
H  -7.81100 26.15600 30.86500
H  -6.66000 27.38200 30.54200
H  -6.80000 27.81600 32.68800
H  -5.66400 26.44600 32.90700
H  -9.93300 20.57500 26.85400
H  -8.59800 20.68900 27.99500
H  -8.44200 19.65100 26.53300
H  -9.73200 19.35000 24.42500
H  -10.80100 19.95700 23.18000
H  -11.08900 20.61700 24.74300
H  -7.03900 25.49800 20.94400
H  -4.25500 26.42700 21.34500
H  -4.85400 23.60100 21.12300
H  -4.64600 24.63400 19.88700
H  -6.18600 23.68800 20.03800
H  -6.48100 28.30800 22.03100
H  -6.89400 27.48900 20.60300
H  -5.35200 28.84200 19.28100
H  -4.13800 28.31200 20.44000
H  -5.21700 29.65200 20.74600
H  -2.93400 30.53400 24.40300
H  -1.47100 29.60200 24.69500
H  -2.17700 30.63500 25.96100
H  -4.36800 28.33000 30.04300
H  -2.24400 26.02900 33.00000
H  -2.07800 27.55600 33.56900
H  -0.89500 27.13500 32.32100

