158

Mg 0.55900 7.66800 26.17700
C  1.24900 9.92700 28.79700
C  1.17300 5.11200 28.31500
C  0.17200 5.59200 23.61400
C  0.66400 10.39100 24.02300
N  1.01900 7.57900 28.34700
C  1.15300 8.62500 29.23900
C  1.37300 8.06100 30.59300
C  1.58800 6.54300 30.40100
C  1.32500 6.36700 28.89100
C  2.97500 6.00000 30.80300
C  0.20200 8.48400 31.60800
C  0.29500 7.71700 32.93200
H  1.65600 7.48300 33.63500
N  0.58900 5.63000 25.96800
C  0.64200 4.73300 27.02100
C  0.19700 3.43900 26.56700
C  -0.15600 3.61300 25.19500
C  0.18400 4.98200 24.85100
C  0.08400 2.18100 27.46500
C  -0.72000 2.67100 24.15600
O  -0.83800 2.94300 22.95300
C  -0.87600 1.24800 24.48400
N  0.43300 7.99500 24.16800
C  0.35900 6.91500 23.28100
C  0.46800 7.41600 21.81500
C  0.13600 8.94100 22.02200
C  0.36700 9.13100 23.49700
C  1.74600 7.11000 21.04400
C  -1.25900 9.42400 21.58300
C  -1.16500 10.66600 20.66900
N  0.88900 9.75700 26.33500
C  0.84000 10.74700 25.38100
C  1.10500 12.07500 25.93900
C  1.22600 11.74500 27.30200
C  1.06600 10.36100 27.49700
C  1.17900 13.36700 25.26000
C  1.57600 12.35900 28.54700
O  1.92200 13.48800 28.82400
C  1.48600 11.17500 29.58300
C  2.73600 11.01600 30.43600
O  3.78800 10.43000 30.13300
O  2.59200 11.64100 31.62500
C  3.77200 11.65200 32.52400
H  1.38400 4.31500 29.03200
H  -0.10100 5.02200 22.72300
H  0.50100 11.21400 23.32400
H  2.27400 8.58700 30.91000
H  0.95500 5.88800 30.99900
H  3.70500 6.77900 31.02500
H  3.41300 5.47000 29.95700
H  2.87400 5.24500 31.58200
H  -0.72100 8.22400 31.09000
H  0.25400 9.56200 31.75900
H  -0.24500 6.79000 32.73800
H  -0.31300 8.28900 33.63300
H  0.61300 1.30100 27.09800
H  -0.94000 2.07200 27.82100
H  0.73000 2.38900 28.31800
H  0.06500 0.72800 24.66300
H  -1.35000 0.58300 23.76200
H  -1.44800 1.16100 25.40800
H  -0.33800 7.05800 21.17500
H  0.92500 9.48100 21.49800
H  1.52800 6.41500 20.23400
H  2.37400 6.51000 21.70300
H  2.36100 7.96800 20.77200
H  -1.88800 9.76000 22.40800
H  -1.82800 8.63900 21.08500
H  -1.66700 10.36700 19.74900
H  -0.11300 10.85100 20.45100
H  -1.66100 11.58400 20.98500
H  0.18100 13.80500 25.24400
H  1.57900 13.17900 24.26300
H  1.88200 13.91400 25.88900
H  0.61100 11.34600 30.21000
H  4.53500 12.31300 32.11100
H  4.07200 10.61600 32.68100
H  3.43900 12.16000 33.42900
Mg 16.44800 51.93900 25.49300
C  18.07700 50.78000 28.48300
C  13.77500 52.69300 27.47400
C  14.85800 52.62300 22.85100
C  19.27300 50.63300 23.72100
N  16.12100 52.08700 27.73500
C  16.97600 51.62300 28.70200
C  16.39100 51.95600 30.06100
C  14.90400 52.37900 29.80500
C  14.90400 52.38300 28.27600
C  13.74700 51.50500 30.45700
C  17.28900 53.00000 30.82200
C  17.67800 52.63200 32.27000
H  16.82000 51.68000 33.18500
N  14.55900 52.55500 25.18100
C  13.57300 52.81700 26.09700
C  12.33900 53.18500 25.47100
C  12.63700 53.27500 24.03300
C  14.04300 52.83800 23.96400
C  11.06900 53.53100 26.33200
C  11.66300 53.49400 22.84000
O  12.03300 53.37100 21.71100
C  10.37200 54.12800 23.13800
N  16.98600 51.55800 23.58000
C  16.09200 52.06200 22.65400
C  16.69000 51.87000 21.23900
C  18.18000 51.46700 21.59600
C  18.16100 51.18900 23.08500
C  15.96100 50.81600 20.37800
C  19.25400 52.44900 20.96000
C  19.67200 52.25400 19.50400
N  18.34200 50.85200 25.95000
C  19.32300 50.36800 25.10800
C  20.43200 49.74000 25.85800
C  19.92000 49.82000 27.21000
C  18.69500 50.55100 27.23100
C  21.67300 49.20900 25.32700
C  20.23200 49.55100 28.58800
O  21.20900 48.93600 29.07300
C  19.03200 50.16000 29.50500
C  18.54200 49.12600 30.45000
O  17.89600 48.07200 30.08900
O  19.06400 49.31200 31.70900
C  18.82000 48.15300 32.61800
H  12.91200 52.97000 28.08400
H  14.42200 53.05000 21.94500
H  20.15400 50.43800 23.10700
H  16.44500 51.05400 30.67100
H  14.78600 53.38400 30.21000
H  13.15400 51.13900 29.61800
H  13.18500 52.15000 31.13300
H  14.12500 50.70600 31.09400
H  16.84400 53.99400 30.87000
H  18.21000 53.10100 30.24900
H  17.71000 53.60400 32.76400
H  18.73100 52.35500 32.33100
H  11.09500 54.50900 26.81300
H  10.90200 52.74300 27.06700
H  10.19000 53.59400 25.69100
H  9.66700 53.45200 23.62300
H  9.75400 54.56300 22.35200
H  10.46400 54.97700 23.81500
H  16.71700 52.79000 20.65500
H  18.45400 50.48100 21.22000
H  15.04400 50.51700 20.88500
H  16.59700 49.99100 20.05500
H  15.68700 51.29500 19.43800
H  20.18500 52.45500 21.52700
H  18.79700 53.43800 20.95600
H  18.88600 51.67900 19.01400
H  20.57600 51.69800 19.25300
H  19.69200 53.22900 19.01800
H  21.56000 48.12800 25.23700
H  22.43700 49.47700 26.05700
H  21.84700 49.69900 24.36900
H  19.51100 50.96600 30.06100
H  19.61400 47.42600 32.45200
H  17.79700 47.79300 32.51400
H  19.03300 48.50300 33.62800

