158

Mg 26.93100 50.80600 26.58500
C  25.04500 51.92600 29.25500
C  29.44700 50.16600 28.79100
C  28.96800 50.23600 23.94100
C  24.36200 51.51800 24.39900
N  27.24300 51.05400 28.70400
C  26.27800 51.41800 29.68700
C  26.74700 51.12500 31.17400
C  28.28700 50.92900 30.94300
C  28.33000 50.72400 29.37800
C  29.19600 52.05300 31.43200
C  26.02900 49.87800 31.81600
C  25.34600 50.11700 33.23200
H  26.17500 50.67100 34.38500
N  28.93400 50.10000 26.34900
C  29.85900 49.84200 27.42100
C  31.08300 49.36900 26.86400
C  30.94000 49.33100 25.44800
C  29.56200 49.90700 25.20400
C  32.40500 49.14800 27.64900
C  31.88500 48.87000 24.36600
O  31.55000 48.80600 23.19300
C  33.25400 48.35000 24.72900
N  26.73600 50.99000 24.50900
C  27.64800 50.61500 23.61100
C  27.21400 50.78500 22.16100
C  25.66600 50.94500 22.34400
C  25.55700 51.23900 23.82300
C  28.00800 51.91100 21.37300
C  24.85600 49.62900 21.89400
C  25.22700 48.37600 22.68600
N  25.16400 51.68800 26.69200
C  24.18900 51.86300 25.73300
C  23.02500 52.42200 26.35500
C  23.26100 52.43500 27.71800
C  24.55200 51.97900 27.93700
C  21.77000 52.76700 25.74100
C  22.68700 52.58200 29.01300
O  21.58000 52.91600 29.37300
C  23.80200 52.21700 30.07300
C  24.05200 53.29000 31.00600
O  24.74400 54.28400 30.78500
O  23.45800 53.08400 32.25100
C  23.95000 53.98300 33.31800
H  30.28500 49.93500 29.45100
H  29.56000 50.17900 23.02500
H  23.53100 51.53200 23.69000
H  26.47800 51.93300 31.85500
H  28.61000 50.04100 31.48600
H  28.73100 52.86500 31.99000
H  29.50200 52.53000 30.50000
H  29.95600 51.53200 32.01500
H  26.82500 49.14600 31.68500
H  25.18300 49.69100 31.15500
H  24.83300 49.19200 33.49700
H  24.46600 50.75800 33.19100
H  33.22500 49.66600 27.15300
H  32.56500 48.07000 27.63200
H  32.21700 49.58000 28.63200
H  33.79000 47.83200 23.93300
H  33.10400 47.61900 25.52400
H  33.86400 49.15400 25.14000
H  27.43100 49.84700 21.65100
H  25.31700 51.80000 21.76400
H  28.44600 51.45000 20.48800
H  28.68600 52.47200 22.01600
H  27.30900 52.66700 21.01400
H  25.09600 49.44400 20.84700
H  23.79800 49.87300 21.98700
H  25.74500 48.75000 23.56800
H  25.90200 47.79300 22.06000
H  24.38000 47.81400 23.08000
H  20.90300 52.45500 26.32200
H  21.72700 52.36400 24.72900
H  21.71600 53.84100 25.56200
H  23.36000 51.28700 30.43100
H  24.89900 53.51100 33.57300
H  23.32100 54.04200 34.20700
H  24.08700 54.99500 32.93700
Mg -2.22500 35.01200 26.35100
C  -3.70000 33.18700 28.93600
C  -0.85700 37.00000 28.82600
C  -0.78500 36.79300 23.91500
C  -3.52100 32.77200 24.10900
N  -2.48800 35.20000 28.71200
C  -2.94400 34.22600 29.52400
C  -2.66000 34.40000 30.96900
C  -1.77300 35.74700 30.87300
C  -1.72000 36.09400 29.38400
C  -2.20600 36.94600 31.69700
C  -1.94100 33.20300 31.61600
C  -2.53300 32.83100 32.99500
H  -1.55200 32.84700 34.11100
N  -1.02600 36.68000 26.33600
C  -0.58800 37.32700 27.44200
C  0.10900 38.57500 27.03700
C  0.09900 38.52100 25.63700
C  -0.57000 37.29600 25.22600
C  0.72700 39.67800 28.05700
C  0.73900 39.50700 24.56300
O  0.65700 39.29000 23.37600
C  1.22900 40.79000 25.00900
N  -2.23300 34.81600 24.30800
C  -1.58400 35.64200 23.48300
C  -1.67700 35.14800 21.99000
C  -2.02700 33.64900 22.21900
C  -2.62100 33.72900 23.59400
C  -2.75900 35.96700 21.23400
C  -0.82000 32.54900 22.18900
C  -0.84800 31.70800 20.94000
N  -3.51700 33.42500 26.40800
C  -4.03000 32.58800 25.44600
C  -4.80900 31.48100 26.02200
C  -4.68700 31.70700 27.42100
C  -3.92000 32.90700 27.57900
C  -5.41900 30.26300 25.21500
C  -5.07100 31.12800 28.65700
O  -5.60900 30.11100 28.92900
C  -4.47700 32.10900 29.70800
C  -5.60000 32.74300 30.52100
O  -6.37000 33.55200 30.10900
O  -5.51200 32.22100 31.80000
C  -6.43200 32.70300 32.87000
H  -0.21100 37.46200 29.57500
H  -0.31700 37.35000 23.10100
H  -3.73900 31.99200 23.37600
H  -3.57400 34.59100 31.53100
H  -0.75600 35.48900 31.16600
H  -1.34500 37.40000 32.18800
H  -3.01400 36.82000 32.41700
H  -2.58000 37.69700 31.00100
H  -0.89400 33.47400 31.75400
H  -1.92300 32.31200 30.98900
H  -3.09900 31.89900 32.98400
H  -3.27000 33.60000 33.22700
H  0.53200 40.68800 27.69800
H  1.79200 39.55400 28.25500
H  0.08700 39.74400 28.93700
H  1.61700 41.38500 24.18200
H  1.98200 40.65900 25.78600
H  0.38300 41.31700 25.45100
H  -0.74900 35.32900 21.44600
H  -2.87200 33.46600 21.55500
H  -2.78500 35.94200 20.14400
H  -2.76600 36.97600 21.64700
H  -3.77400 35.68500 21.51300
H  -0.92900 31.78200 22.95600
H  0.12700 33.07400 22.31100
H  -1.06000 32.42400 20.14600
H  -1.68500 31.01200 20.88800
H  0.09300 31.20200 20.72400
H  -5.96200 30.71300 24.38400
H  -6.00100 29.69700 25.94200
H  -4.62200 29.67200 24.76500
H  -3.80500 31.53000 30.34200
H  -7.14200 33.43000 32.47800
H  -5.88200 33.10700 33.72000
H  -7.01500 31.81800 33.12500

