158

Mg 47.04600 34.21600 28.24800
C  45.55100 32.47600 30.97700
C  47.32800 36.98800 30.40600
C  47.94400 36.02600 25.57200
C  46.02800 31.69500 26.25700
N  46.59800 34.62600 30.47700
C  46.02300 33.74600 31.32100
C  46.07900 34.40800 32.75300
C  46.19400 35.90700 32.39400
C  46.76400 35.83800 30.97800
C  44.90000 36.77200 32.51100
C  47.22500 33.94600 33.75100
C  46.79500 33.61100 35.25200
H  46.96800 34.73600 36.24400
N  47.70300 36.19300 28.07200
C  47.70000 37.19500 29.06600
C  48.11500 38.40900 28.38000
C  48.29000 38.13900 26.97900
C  48.05600 36.72100 26.83400
C  48.13500 39.83100 29.03700
C  48.58700 39.06300 25.85100
O  48.63900 38.67200 24.68900
C  48.93300 40.52500 26.20900
N  46.98000 33.87600 26.20100
C  47.37300 34.78000 25.33600
C  47.27100 34.23700 23.84500
C  46.78400 32.82500 24.03000
C  46.63800 32.76200 25.58100
C  46.43200 35.08800 22.82100
C  47.66200 31.76600 23.45400
C  46.93700 30.53000 23.13200
N  45.94600 32.46900 28.50200
C  45.77400 31.42300 27.58000
C  45.03800 30.35100 28.19900
C  44.95000 30.76300 29.52600
C  45.56400 32.01500 29.65200
C  44.43700 29.15800 27.44200
C  44.46300 30.33200 30.82200
O  43.75100 29.39700 31.13100
C  44.99000 31.37000 31.83100
C  45.67500 30.84600 32.97400
O  46.87900 30.55600 32.92400
O  44.79000 30.67900 33.95200
C  45.39800 30.12200 35.19300
H  47.29200 37.90800 30.99400
H  48.24400 36.46400 24.61700
H  45.71800 30.84600 25.64400
H  45.15300 34.19300 33.28600
H  46.94400 36.43700 32.98100
H  45.08900 37.50000 33.30100
H  44.10500 36.15000 32.92100
H  44.66100 37.11800 31.50500
H  48.00100 34.70500 33.84700
H  47.68800 33.07300 33.29100
H  47.23900 32.69700 35.64600
H  45.75200 33.29500 35.22900
H  47.34300 40.47300 28.65000
H  49.09100 40.32900 28.87800
H  47.97700 39.80800 30.11500
H  49.10500 41.13100 25.32000
H  49.81700 40.50500 26.84700
H  48.11300 41.09200 26.65100
H  48.29800 34.15600 23.48900
H  45.76900 32.79400 23.63400
H  45.71100 34.51500 22.23700
H  47.10000 35.67300 22.18900
H  45.92300 35.93000 23.29200
H  48.42800 31.50600 24.18400
H  48.19400 32.04600 22.54500
H  46.96800 30.42600 22.04700
H  45.88500 30.55400 23.41600
H  47.47200 29.66700 23.52700
H  43.51800 29.59100 27.04700
H  44.19400 28.32600 28.10300
H  45.08900 28.72100 26.68600
H  44.04000 31.79300 32.15900
H  45.47500 30.94000 35.91000
H  46.41200 29.72600 35.14600
H  44.61200 29.43000 35.49600
Mg -1.46100 34.87200 26.53800
C  -2.89200 33.10400 29.16700
C  -0.38200 37.21300 28.76800
C  -0.48400 36.86600 24.01100
C  -2.97500 32.75800 24.21700
N  -1.69500 35.13600 28.70000
C  -2.11900 34.22100 29.61400
C  -1.81400 34.65300 31.07400
C  -0.96500 35.95700 30.90500
C  -1.10800 36.15000 29.35400
C  -1.34900 37.09400 31.85300
C  -1.06400 33.51400 31.87300
C  -1.78000 33.25900 33.20000
H  -0.97200 33.29700 34.56600
N  -0.51100 36.78100 26.42400
C  -0.10500 37.55400 27.47100
C  0.64500 38.74600 26.95600
C  0.61700 38.62900 25.52000
C  -0.11800 37.39800 25.27200
C  1.22000 39.82700 27.80400
C  1.17100 39.53400 24.43900
O  1.09800 39.31800 23.27300
C  1.87200 40.78800 24.79200
N  -1.81100 34.89300 24.45100
C  -1.22400 35.75000 23.63900
C  -1.39800 35.41500 22.14500
C  -2.01800 34.01700 22.26800
C  -2.30400 33.82700 23.73200
C  -2.16000 36.36200 21.25100
C  -1.10600 32.96500 21.62700
C  0.23000 32.62800 22.31600
N  -2.63900 33.20000 26.61400
C  -3.24400 32.46300 25.54600
C  -4.05100 31.41200 26.09800
C  -3.97300 31.68000 27.48000
C  -3.14700 32.78500 27.79400
C  -4.83000 30.36200 25.42000
C  -4.36100 31.17200 28.81300
O  -5.21400 30.36800 29.21000
C  -3.53100 31.97200 29.88600
C  -4.42800 32.42400 31.03100
O  -5.01400 33.46600 31.02800
O  -4.40900 31.48500 32.02800
C  -5.36500 31.73700 33.06400
H  -0.11700 38.01400 29.46100
H  -0.20100 37.46100 23.14000
H  -3.41400 31.99200 23.57500
H  -2.77700 34.93500 31.49900
H  0.10100 35.75400 31.01100
H  -1.96000 36.67700 32.65400
H  -1.90100 37.75300 31.18200
H  -0.46300 37.63200 32.18900
H  -0.07200 33.91500 32.08300
H  -1.03400 32.65600 31.20200
H  -1.93300 32.18100 33.26000
H  -2.76600 33.71500 33.28800
H  1.56500 39.32100 28.70600
H  0.53700 40.64100 28.04800
H  2.09500 40.20800 27.27800
H  1.99700 41.37800 23.88400
H  2.88600 40.52800 25.09600
H  1.30800 41.40100 25.49500
H  -0.41300 35.33600 21.68400
H  -2.94100 33.84400 21.71400
H  -1.43500 37.03700 20.79700
H  -2.97200 36.89000 21.75200
H  -2.58700 35.91800 20.35200
H  -0.88200 33.30000 20.61400
H  -1.68300 32.04000 21.64600
H  0.12900 31.64700 22.78100
H  0.31000 33.32400 23.15100
H  1.15300 32.71100 21.74300
H  -5.07300 29.50200 26.04400
H  -4.24000 30.08500 24.54600
H  -5.78600 30.80500 25.14000
H  -2.77500 31.36200 30.38100
H  -5.04300 32.44600 33.82600
H  -5.40400 30.76900 33.56300
H  -6.33200 32.05900 32.67800

