158

Mg 8.91700 48.81600 26.12900
C  7.11600 49.13100 28.93800
C  11.70000 49.98900 27.56600
C  10.58300 48.46200 23.08200
C  5.83100 48.63400 24.18900
N  9.32400 49.49500 28.05600
C  8.50800 49.40800 29.13700
C  9.26900 49.96200 30.42400
C  10.58500 50.57800 29.84700
C  10.51800 50.05700 28.33800
C  10.77900 52.06200 30.01400
C  9.62700 48.81500 31.39300
C  9.01300 48.90700 32.73700
H  8.99000 47.64400 33.49300
N  10.88400 48.99600 25.45200
C  11.92000 49.48800 26.27200
C  13.17200 49.31600 25.50500
C  12.89500 48.78600 24.17000
C  11.37500 48.67800 24.19600
C  14.54000 49.43300 26.16400
C  13.82100 48.23800 23.09800
O  13.36000 47.76200 22.03500
C  15.29700 48.32500 23.26000
N  8.25700 48.62300 23.85000
C  9.16800 48.48200 22.83500
C  8.45100 48.15200 21.46000
C  7.00300 48.60800 21.79800
C  6.94600 48.59600 23.36300
C  8.96400 48.71800 20.10400
C  5.98800 47.52800 21.22400
C  5.27100 47.94800 19.97600
N  6.90300 48.84700 26.44800
C  5.78300 48.62700 25.61100
C  4.55000 48.71000 26.45800
C  5.05400 48.91100 27.77900
C  6.45300 48.96500 27.69700
C  3.21100 48.46600 25.96500
C  4.69100 48.98800 29.12400
O  3.56100 48.89700 29.65000
C  6.00400 49.13100 29.94900
C  6.05200 47.99000 30.92900
O  6.78200 47.00300 30.82100
O  5.13100 48.24300 31.92700
C  4.83900 47.05100 32.72700
H  12.60600 50.37600 28.03700
H  11.08900 48.43300 22.11400
H  4.87700 48.46700 23.68400
H  8.69600 50.63000 31.06500
H  11.48100 50.10400 30.24900
H  10.11800 52.46200 30.78200
H  10.63800 52.62800 29.09300
H  11.78400 52.19100 30.41600
H  10.68500 48.77800 31.65100
H  9.30800 47.86400 30.96600
H  8.05700 49.43000 32.76300
H  9.54400 49.66400 33.31400
H  14.97100 48.43100 26.15500
H  14.33100 49.74000 27.18800
H  15.12200 50.23800 25.71500
H  15.64300 49.35800 23.23000
H  15.79900 47.90900 22.38600
H  15.71200 47.72700 24.07000
H  8.52500 47.06600 21.39700
H  6.80400 49.62300 21.45700
H  9.83100 49.31900 20.37900
H  8.24100 49.44000 19.72400
H  9.21800 47.96900 19.35400
H  5.19500 47.17500 21.88400
H  6.50500 46.59200 21.01100
H  5.39600 49.02200 19.83500
H  4.20800 47.72600 20.06600
H  5.83600 47.48500 19.16800
H  2.49100 48.99500 26.59000
H  2.93600 47.41200 26.00900
H  3.06700 48.76700 24.92700
H  5.95900 50.06100 30.51700
H  3.76600 46.85800 32.74000
H  5.09900 47.35500 33.74000
H  5.40300 46.16000 32.45000
Mg -10.28500 38.53900 41.60800
C  -8.77700 35.62700 40.32300
C  -7.95300 40.39800 39.89700
C  -12.12600 41.33400 42.23100
C  -12.84000 36.59200 42.98700
N  -8.67900 38.00500 40.08400
C  -8.18600 36.76300 39.86200
C  -7.02000 36.85900 38.83100
C  -6.51400 38.30500 39.19500
C  -7.81700 38.99400 39.75100
C  -5.35700 38.38400 40.20600
C  -7.61200 36.68600 37.40400
C  -7.00900 35.53000 36.51200
H  -6.46300 35.98000 35.14400
N  -9.99800 40.54800 41.24000
C  -8.96600 41.10900 40.55300
C  -9.16600 42.59300 40.53200
C  -10.31500 42.96600 41.26100
C  -10.91400 41.61200 41.64500
C  -8.10400 43.57000 39.87500
C  -10.79600 44.25500 41.61700
O  -10.05700 45.24500 41.46300
C  -12.03600 44.42900 42.45900
N  -12.19300 38.81800 42.32400
C  -12.72200 40.12200 42.52100
C  -14.13000 40.12600 43.08300
C  -14.35400 38.53600 43.22800
C  -13.05700 37.94200 42.82500
C  -14.49400 40.95000 44.34100
C  -15.51500 38.06600 42.40300
C  -16.86100 38.12900 43.11100
N  -10.73700 36.51100 41.69100
C  -11.74800 35.83300 42.40500
C  -11.47300 34.40100 42.32700
C  -10.39900 34.31300 41.46300
C  -9.97100 35.61400 41.08700
C  -12.15400 33.28100 43.09800
C  -9.51400 33.29800 40.80600
O  -9.51700 32.12800 40.90500
C  -8.41100 34.12800 40.00300
C  -7.04400 33.79700 40.51500
O  -6.57800 34.31600 41.53300
O  -6.37900 32.95600 39.66600
C  -4.96700 32.61600 39.99500
H  -7.14800 40.91600 39.37100
H  -12.77500 42.19400 42.40700
H  -13.62900 35.96300 43.40400
H  -6.36500 36.00000 38.98000
H  -6.20900 38.83600 38.29300
H  -4.97300 37.36400 40.21200
H  -5.60300 38.57300 41.25100
H  -4.59800 39.08000 39.84800
H  -7.51600 37.66100 36.92600
H  -8.68100 36.47800 37.44000
H  -7.85500 34.86800 36.32600
H  -6.18700 35.03400 37.02800
H  -7.95200 44.44200 40.51100
H  -8.45500 43.89300 38.89500
H  -7.13300 43.07400 39.89900
H  -11.80900 43.87800 43.37200
H  -12.95900 44.14500 41.95500
H  -12.12500 45.48900 42.69500
H  -14.61900 40.56900 42.21500
H  -14.54500 38.37000 44.28900
H  -15.33200 40.64000 44.96500
H  -14.82700 41.93600 44.01800
H  -13.53600 40.92100 44.86100
H  -15.36500 37.07500 41.97400
H  -15.69100 38.83000 41.64500
H  -17.63300 38.76900 42.68300
H  -16.86700 38.28400 44.19000
H  -17.26600 37.12500 42.99100
H  -13.22500 33.14800 42.95100
H  -11.89400 33.32600 44.15500
H  -11.67700 32.36700 42.74300
H  -8.57500 34.02600 38.93000
H  -4.45000 33.42200 40.51600
H  -4.35100 32.42600 39.11600
H  -4.87000 31.70600 40.58700

