158

Mg 47.89200 25.88300 28.93900
C  48.71900 27.99100 31.69800
C  46.81600 23.42600 31.21800
C  47.49200 23.63200 26.40500
C  49.43300 28.19900 26.75100
N  47.69900 25.83500 31.13600
C  48.10800 26.81300 32.13500
C  47.71900 26.35200 33.55900
C  47.37500 24.86400 33.33500
C  47.27100 24.66800 31.81500
C  48.41400 23.87700 33.93600
C  46.55900 27.25600 34.15800
C  46.75900 27.84000 35.57900
H  47.30500 27.03200 36.81500
N  47.06700 23.86100 28.81300
C  46.74100 23.10300 29.86600
C  46.13500 21.85300 29.33900
C  46.27000 21.91300 27.86800
C  46.95300 23.15000 27.64600
C  45.54800 20.77800 30.26900
C  45.79600 20.96800 26.80600
O  45.91800 21.14900 25.62200
C  45.23100 19.69000 27.30700
N  48.56100 25.81200 26.85000
C  48.15800 24.82400 25.99500
C  48.46200 25.18000 24.50900
C  49.00200 26.67000 24.62700
C  49.01900 26.93600 26.17300
C  49.48700 24.20100 23.83900
C  48.04800 27.75000 24.01700
C  48.60300 28.86200 23.07800
N  48.82000 27.71000 29.07400
C  49.38900 28.56100 28.14200
C  49.84200 29.71500 28.73100
C  49.61500 29.53700 30.14100
C  48.96100 28.31400 30.29600
C  50.47800 30.91900 28.11800
C  49.76300 30.13700 31.46000
O  50.30200 31.20500 31.83800
C  49.25300 29.13000 32.50000
C  50.42300 28.73700 33.26500
O  51.31500 28.04500 32.87700
O  50.47200 29.43100 34.46600
C  51.74000 29.33500 35.24600
H  46.39400 22.81900 32.02100
H  47.27900 23.11000 25.47000
H  50.03600 28.82300 26.08800
H  48.55000 26.52900 34.24100
H  46.39000 24.77100 33.79300
H  48.14400 22.96200 34.46200
H  48.98800 24.49600 34.62600
H  49.03900 23.61200 33.08300
H  45.63000 26.71700 34.34100
H  46.34000 28.13900 33.55700
H  45.78800 28.18700 35.93500
H  47.27200 28.79400 35.46300
H  44.58400 20.40700 29.92100
H  45.35700 21.15200 31.27400
H  46.30800 20.00600 30.39200
H  45.91000 19.15600 27.97200
H  44.93300 19.01900 26.50200
H  44.25800 19.86200 27.76700
H  47.53500 25.18300 23.93700
H  49.94100 26.85400 24.10500
H  49.10600 23.74200 22.92700
H  49.67400 23.34700 24.49000
H  50.46000 24.68200 23.73500
H  47.61200 28.27900 24.86400
H  47.25300 27.21600 23.49700
H  48.90500 29.71300 23.68800
H  47.86200 29.07400 22.30600
H  49.45300 28.62600 22.43800
H  50.01400 31.74400 28.65700
H  50.38600 31.05700 27.04000
H  51.52200 30.80300 28.41000
H  48.44500 29.60800 33.05400
H  52.65000 29.31500 34.64700
H  51.60900 28.46400 35.88800
H  51.79300 30.23100 35.86500
Mg 48.77400 35.79700 27.98600
C  46.64500 34.39800 30.17500
C  49.17500 38.49200 30.00000
C  50.47300 37.39500 25.45200
C  48.22200 33.10300 25.72100
N  48.01700 36.28300 29.92400
C  47.19100 35.54600 30.67000
C  47.24900 36.02600 32.12900
C  47.54200 37.61400 31.81300
C  48.33900 37.49100 30.46200
C  46.28900 38.54100 31.64700
C  48.22700 35.18500 33.08300
C  49.49900 35.92500 33.56200
H  49.45000 36.47700 35.00000
N  49.59200 37.66300 27.70200
C  49.74200 38.60700 28.69100
C  50.50900 39.71100 28.21800
C  50.82100 39.50600 26.85000
C  50.27100 38.11600 26.59000
C  50.83400 40.96500 29.07600
C  51.55500 40.38600 25.84800
O  51.71500 40.06000 24.71400
C  52.11000 41.65300 26.35400
N  49.37700 35.27600 25.90200
C  49.99700 36.15900 25.14000
C  50.34700 35.48100 23.77200
C  49.63800 34.09300 23.90300
C  48.99300 34.09700 25.26600
C  49.83700 36.42900 22.60200
C  50.62400 32.93400 23.54100
C  50.83200 32.79100 22.01800
N  47.70700 34.09000 27.91600
C  47.60300 33.03100 26.98200
C  46.80100 31.95800 27.53200
C  46.28300 32.52200 28.70700
C  46.92100 33.77100 28.89300
C  46.57700 30.56500 26.99700
C  45.47400 32.19300 29.83000
O  44.89700 31.13900 30.10000
C  45.58500 33.45000 30.81500
C  45.90900 32.77500 32.07700
O  46.96800 32.21100 32.35900
O  44.84300 32.88100 32.93800
C  45.20700 32.87700 34.37500
H  49.42500 39.30700 30.68200
H  51.16900 37.76600 24.69600
H  47.89900 32.30300 25.05100
H  46.26800 35.84400 32.56900
H  48.14800 38.01300 32.62700
H  46.36900 39.32900 32.39700
H  45.38600 37.94000 31.74900
H  46.25000 38.96200 30.64200
H  48.53000 34.21500 32.68800
H  47.65700 35.01700 33.99700
H  49.91100 36.62600 32.83600
H  50.29700 35.20600 33.74700
H  51.88200 40.98700 29.37600
H  50.21500 41.16800 29.95000
H  50.55300 41.82700 28.47200
H  51.37400 42.44800 26.48300
H  52.74900 41.96200 25.52600
H  52.85800 41.70900 27.14400
H  51.43500 35.49600 23.70600
H  48.80200 34.04200 23.20500
H  49.05700 35.97500 21.99100
H  50.72700 36.48700 21.97500
H  49.42500 37.34300 23.02900
H  50.21600 32.05100 24.03200
H  51.56500 33.22700 24.00800
H  50.42300 33.60700 21.42200
H  50.57600 31.82100 21.59200
H  51.92200 32.79300 22.00800
H  47.13200 30.39700 26.07400
H  45.50800 30.46400 26.81300
H  46.87500 29.78600 27.70000
H  44.63500 33.98000 30.88600
H  46.22300 33.22600 34.55500
H  44.99000 31.92100 34.85200
H  44.62600 33.70100 34.78700

