158

Mg 24.35100 -4.61400 45.98600
C  26.43600 -2.38800 44.48400
C  21.84100 -3.73700 43.66300
C  22.47300 -7.24800 46.96500
C  27.01300 -5.80800 47.94300
N  24.17600 -3.24800 44.20100
C  25.13500 -2.30200 43.96200
C  24.64700 -1.29600 42.92800
C  23.10200 -1.57300 42.78700
C  23.01700 -2.92200 43.60000
C  22.22200 -0.51700 43.45900
C  25.42300 -1.36300 41.54000
C  25.51000 -0.03000 40.82700
H  24.69900 0.01600 39.55200
N  22.33000 -5.31500 45.47600
C  21.48400 -4.82000 44.56600
C  20.23000 -5.47400 44.66400
C  20.40700 -6.61200 45.42700
C  21.85900 -6.44100 45.97800
C  19.00700 -5.07700 43.96900
C  19.44900 -7.74800 45.67500
O  18.31100 -7.67600 45.28400
C  19.82300 -9.03300 46.32800
N  24.74700 -6.43800 47.12100
C  23.77500 -7.24100 47.47100
C  24.30300 -8.39500 48.29600
C  25.59400 -7.78100 48.87000
C  25.91300 -6.62600 47.88800
C  23.37600 -8.96100 49.39800
C  26.76100 -8.85400 48.94700
C  27.77300 -9.05100 50.09500
N  26.28800 -4.24400 46.22300
C  27.23500 -4.71300 47.10200
C  28.45300 -3.93000 46.96900
C  28.18100 -3.05800 45.90600
C  26.87300 -3.26600 45.48400
C  29.59800 -4.03900 47.88600
C  28.80000 -1.92200 45.16600
O  29.90000 -1.31600 45.19800
C  27.65100 -1.48400 44.20300
C  27.40200 -0.06300 44.54000
O  27.23000 0.35700 45.68100
O  27.67900 0.71300 43.46500
C  27.82700 2.10800 43.79900
H  20.93900 -3.37400 43.16600
H  21.89500 -8.05500 47.42000
H  27.73700 -6.14000 48.69000
H  24.75900 -0.33300 43.42500
H  22.74600 -1.79000 41.78100
H  22.75500 0.33600 43.87800
H  21.71700 -0.90900 44.34300
H  21.44900 -0.10300 42.81200
H  24.88500 -2.11500 40.96400
H  26.36100 -1.87300 41.76100
H  26.57800 0.13500 40.68300
H  25.12600 0.76500 41.46500
H  19.02500 -5.68400 43.06400
H  18.88700 -4.03500 43.67100
H  18.06600 -5.46800 44.35600
H  19.78600 -8.93200 47.41300
H  20.84300 -9.31700 46.06700
H  19.02000 -9.72300 46.06900
H  24.57700 -9.26900 47.70600
H  25.33200 -7.27600 49.80000
H  22.41400 -8.45000 49.36700
H  23.72400 -8.78200 50.41500
H  23.35400 -10.03800 49.22700
H  27.39100 -8.77700 48.06100
H  26.25200 -9.81400 48.85600
H  27.64900 -10.10300 50.35100
H  27.63000 -8.23500 50.80400
H  28.81100 -8.88700 49.80400
H  29.35100 -4.46300 48.86000
H  29.85000 -3.06200 48.29600
H  30.51200 -4.36600 47.39100
H  28.01200 -1.50500 43.17500
H  27.71900 2.74900 42.92400
H  28.71500 2.38700 44.36600
H  26.97600 2.39600 44.41700
Mg 35.59200 2.57300 30.07400
C  33.14900 3.63200 32.32800
C  37.86400 2.49800 32.70300
C  37.98800 2.11200 27.94000
C  33.40400 3.47800 27.46800
N  35.47200 3.07900 32.27900
C  34.39300 3.47700 32.95200
C  34.65200 3.59200 34.52800
C  36.27300 3.40000 34.64200
C  36.59700 2.89600 33.12600
C  37.22700 4.61400 34.89700
C  33.85000 2.61500 35.34900
C  33.53700 2.88400 36.88700
H  34.36600 4.01600 37.57100
N  37.61500 2.28400 30.35500
C  38.33900 2.21000 31.47000
C  39.71700 1.90200 31.21800
C  39.75400 1.73200 29.77600
C  38.41500 2.03900 29.31900
C  40.76500 1.59400 32.26000
C  40.93500 1.23300 28.92600
O  40.86500 1.09000 27.70600
C  42.31400 0.88900 29.55400
N  35.67900 2.83600 27.94800
C  36.79300 2.45300 27.28800
C  36.59400 2.52900 25.78900
C  35.09600 2.96500 25.60300
C  34.65600 3.05300 27.06700
C  37.66600 3.37600 24.99200
C  34.27100 1.95600 24.73800
C  33.62200 0.73700 25.39200
N  33.62100 3.23400 29.92300
C  32.83300 3.51500 28.77700
C  31.46700 3.76400 29.24200
C  31.50700 3.85500 30.62400
C  32.85800 3.53100 30.98600
C  30.37700 3.95500 28.31300
C  30.74700 4.21000 31.80900
O  29.56100 4.43100 31.95300
C  31.76500 4.02400 32.96600
C  31.78100 5.34600 33.64800
O  32.52300 6.25800 33.31900
O  30.77100 5.40100 34.57400
C  30.78800 6.62400 35.41600
H  38.55800 2.67500 33.52800
H  38.73300 1.82700 27.19300
H  32.60800 3.64600 26.73900
H  34.47600 4.64300 34.75600
H  36.47300 2.59400 35.34800
H  36.60900 5.49700 35.05600
H  37.84400 4.82000 34.02200
H  37.90100 4.36200 35.71600
H  34.29300 1.62700 35.47700
H  32.89200 2.43700 34.86000
H  33.61400 1.96800 37.47300
H  32.51900 3.26500 36.96000
H  41.80500 1.69400 31.95000
H  40.69200 0.61400 32.73200
H  40.69400 2.38200 33.01000
H  42.79100 0.37200 28.72100
H  42.21500 0.18200 30.37800
H  42.90000 1.79900 29.67900
H  36.78500 1.52500 25.40800
H  35.09500 4.02600 25.35300
H  38.35500 3.84800 25.69200
H  37.09300 4.11400 24.43000
H  38.24000 2.77300 24.28900
H  34.99500 1.60900 24.00100
H  33.62800 2.59000 24.12700
H  34.00700 0.71500 26.41200
H  34.00900 -0.13900 24.87200
H  32.53300 0.73300 25.35800
H  29.42400 4.16400 28.79800
H  30.28300 3.10200 27.64200
H  30.44000 4.87400 27.73100
H  31.29400 3.29900 33.63100
H  30.48500 7.51300 34.86300
H  31.71800 6.82300 35.94900
H  29.97100 6.52400 36.13000

