158

Mg 16.71200 -1.17400 28.09200
C  15.46000 0.65200 30.92800
C  19.02300 -2.48400 30.16300
C  18.25700 -2.38100 25.36700
C  14.42000 0.70400 26.12900
N  17.12000 -0.91600 30.25500
C  16.50200 -0.21500 31.26600
C  17.07500 -0.54800 32.63900
C  18.44100 -1.39200 32.22600
C  18.15400 -1.64200 30.76500
C  19.79600 -0.68700 32.56100
C  16.09900 -1.30800 33.61900
C  15.74300 -0.65900 34.97300
H  16.87500 0.13800 35.71300
N  18.33800 -2.41100 27.78200
C  19.10300 -2.89000 28.78100
C  20.08400 -3.82000 28.23500
C  19.91400 -3.74700 26.81900
C  18.76000 -2.89800 26.56600
C  21.02800 -4.50700 29.04100
C  20.67000 -4.44300 25.64800
O  20.22400 -4.63200 24.52400
C  22.07300 -4.92500 25.88000
N  16.46500 -0.82700 26.14700
C  17.14600 -1.51500 25.14900
C  16.71600 -1.04600 23.76300
C  15.42800 -0.20600 23.98900
C  15.40700 -0.09900 25.48800
C  17.91600 -0.35300 23.02100
C  14.10700 -0.74400 23.35900
C  13.24200 0.02100 22.33300
N  15.17100 0.35700 28.44700
C  14.32700 1.04000 27.52400
C  13.41800 1.96400 28.22800
C  13.79000 1.77700 29.61700
C  14.91600 0.89600 29.66500
C  12.22200 2.74000 27.66100
C  13.49600 2.17900 31.00500
O  12.74700 3.01200 31.45300
C  14.56600 1.38500 31.93600
C  15.29400 2.38700 32.75500
O  16.44400 2.82900 32.53900
O  14.48100 2.82600 33.76700
C  15.10300 3.97900 34.40300
H  19.75000 -2.81400 30.90800
H  18.70200 -2.78000 24.45300
H  13.72800 1.14400 25.40800
H  17.41300 0.38300 33.09300
H  18.52400 -2.39300 32.65000
H  20.57900 -0.92100 31.84000
H  20.11200 -1.05300 33.53800
H  19.64900 0.39100 32.62500
H  16.52400 -2.29800 33.78300
H  15.31500 -1.66200 32.94900
H  15.47000 -1.43700 35.68500
H  14.91700 0.04700 34.87400
H  22.03100 -4.22700 28.71800
H  20.89700 -5.56700 28.82400
H  20.96000 -4.38300 30.12200
H  22.57100 -4.11600 26.41500
H  22.39700 -5.07400 24.85000
H  21.95500 -5.85700 26.43300
H  16.50300 -2.00300 23.28600
H  15.59300 0.82100 23.66500
H  18.89200 -0.27700 23.50100
H  17.68100 0.61100 22.56800
H  18.12300 -1.05900 22.21700
H  13.36900 -0.89800 24.14700
H  14.36400 -1.75200 23.03600
H  12.20300 -0.09300 22.64100
H  13.20600 -0.42100 21.33800
H  13.57900 1.05500 22.26400
H  11.38800 2.43800 28.29500
H  12.06000 2.47400 26.61700
H  12.48500 3.79700 27.68700
H  14.19900 0.71400 32.71300
H  15.31200 4.77900 33.69400
H  16.01800 3.73000 34.94200
H  14.34300 4.30000 35.11500
Mg 45.13700 4.60600 47.04900
C  43.06900 7.22500 46.35500
C  42.50400 2.29000 46.61200
C  47.43000 2.03000 47.22300
C  47.81800 6.92600 47.02600
N  43.10700 4.77100 46.51800
C  42.46200 5.95100 46.37600
C  41.05200 5.68700 46.06400
C  40.83800 4.20900 46.51000
C  42.22000 3.69000 46.50300
C  40.17700 4.02700 47.91500
C  40.67400 5.93800 44.56100
C  39.65600 7.06500 44.17300
H  39.97000 7.79000 42.83000
N  44.98400 2.47500 47.00100
C  43.84300 1.74900 46.78600
C  44.16400 0.28900 46.93500
C  45.58200 0.17900 46.92200
C  46.08300 1.57600 47.04600
C  43.12400 -0.80900 46.63300
C  46.32000 -1.14600 46.63400
O  45.73100 -2.19000 46.55800
C  47.76800 -1.15900 46.20800
N  47.29900 4.45500 47.03600
C  47.98700 3.27100 47.19500
C  49.50300 3.50300 47.35100
C  49.66500 5.07300 47.12700
C  48.18800 5.53300 47.03500
C  49.97200 2.95200 48.75400
C  50.56800 5.46300 46.02200
C  51.79700 6.25200 46.55400
N  45.45900 6.69800 46.84900
C  46.58600 7.53100 46.93300
C  46.21900 8.91100 46.64300
C  44.77100 8.86100 46.50900
C  44.42600 7.47500 46.61000
C  47.15100 10.06000 46.68200
C  43.57100 9.64700 46.23600
O  43.32800 10.81700 46.09000
C  42.47300 8.61600 46.15100
C  41.51200 8.92000 47.30200
O  41.56200 8.53200 48.48200
O  40.65000 9.87200 46.83600
C  39.67900 10.31100 47.88200
H  41.78800 1.46600 46.59500
H  48.23100 1.29900 47.09100
H  48.57100 7.70700 47.15000
H  40.41000 6.33600 46.65900
H  40.27000 3.68800 45.73900
H  40.95200 3.68300 48.60000
H  39.48100 3.23500 47.63900
H  39.65200 4.92400 48.24400
H  40.22700 5.03500 44.14400
H  41.62900 6.10300 44.06200
H  39.55300 7.76700 45.00000
H  38.68100 6.57700 44.16800
H  43.36200 -1.23700 45.65900
H  42.12900 -0.46900 46.34300
H  42.99400 -1.55800 47.41400
H  48.38700 -1.22400 47.10300
H  47.91500 -0.18400 45.74300
H  47.83500 -1.97700 45.49000
H  50.10600 2.92900 46.64800
H  50.06700 5.55300 48.01900
H  50.32500 1.93500 48.58400
H  49.06000 2.83600 49.34000
H  50.75700 3.59400 49.15500
H  50.03100 6.04100 45.27000
H  51.02100 4.59500 45.54200
H  52.72600 6.02600 46.03000
H  52.05400 6.07800 47.59800
H  51.66100 7.32400 46.40500
H  46.70800 11.03100 46.46100
H  47.87500 9.84400 45.89700
H  47.64300 10.05600 47.65500
H  42.01500 8.68600 45.16400
H  38.87600 9.57600 47.84000
H  39.27500 11.26400 47.54000
H  40.21700 10.38500 48.82700

