158

Mg -1.97300 17.29400 26.22000
C  -1.90000 15.06200 28.96900
C  -2.61000 19.86900 28.59400
C  -2.24200 19.50300 23.69900
C  -1.94300 14.67100 24.04700
N  -2.23800 17.38900 28.47500
C  -2.12500 16.35400 29.38400
C  -2.35600 16.80600 30.87800
C  -2.92500 18.18800 30.61000
C  -2.58100 18.52800 29.13100
C  -4.45800 18.48100 31.09100
C  -1.11400 16.72100 31.72300
C  -1.01600 17.58600 32.95300
H  -0.55800 16.93100 34.30500
N  -2.26200 19.41800 26.14300
C  -2.40400 20.28000 27.20800
C  -2.50800 21.64200 26.66600
C  -2.54000 21.47500 25.24500
C  -2.18400 20.10700 25.00300
C  -2.80400 22.78000 27.56300
C  -2.58400 22.55700 24.17900
O  -2.30700 22.37100 23.05300
C  -2.89000 23.97900 24.61200
N  -2.11200 17.08600 24.19600
C  -2.17000 18.13800 23.35200
C  -2.21600 17.67900 21.93000
C  -2.25000 16.10000 22.05700
C  -1.99400 15.92600 23.52500
C  -3.34800 18.27800 21.04200
C  -1.38900 15.29600 21.15100
C  0.12900 15.35900 21.33100
N  -1.86200 15.27200 26.41600
C  -1.81100 14.27300 25.42100
C  -1.74700 12.96400 26.05800
C  -1.67500 13.21500 27.42900
C  -1.80900 14.67600 27.61600
C  -1.80500 11.67900 25.30000
C  -1.63300 12.59700 28.73500
O  -1.55600 11.36800 29.01400
C  -1.78800 13.76000 29.76100
C  -0.67200 13.68600 30.77800
O  0.34500 14.28000 30.51000
O  -0.98400 13.03400 31.98700
C  0.03400 12.92200 33.03300
H  -2.54200 20.56400 29.43400
H  -2.26700 20.12200 22.80000
H  -2.01700 13.84000 23.34300
H  -3.07000 16.21200 31.44800
H  -2.39600 18.91200 31.22900
H  -5.13000 18.86200 30.32200
H  -4.47600 19.32800 31.77700
H  -4.98400 17.73500 31.68700
H  -0.22400 16.78000 31.09600
H  -1.07100 15.74400 32.20500
H  -1.94100 18.12500 33.16100
H  -0.22700 18.28200 32.67100
H  -3.10200 22.45600 28.56100
H  -3.72800 23.23800 27.21000
H  -1.98200 23.49000 27.47500
H  -2.97500 24.56200 23.69500
H  -2.15700 24.24900 25.37300
H  -3.87800 24.17900 25.02700
H  -1.26000 18.02300 21.53400
H  -3.25900 15.76800 21.81100
H  -3.59700 17.50200 20.31800
H  -2.90900 19.11100 20.49200
H  -4.22000 18.59900 21.61100
H  -1.57500 15.68200 20.14900
H  -1.85700 14.32100 21.00900
H  0.35400 16.22600 21.95200
H  0.58200 15.53800 20.35600
H  0.49300 14.44400 21.79800
H  -1.01300 11.74300 24.55500
H  -2.81400 11.46900 24.94500
H  -1.37200 10.89100 25.91600
H  -2.69900 13.70500 30.35700
H  0.95000 13.38100 32.66100
H  0.33600 11.88600 33.18200
H  -0.37200 13.34400 33.95300
Mg 47.85300 24.59600 28.06000
C  48.42900 27.02700 30.33700
C  46.62700 22.63000 30.53800
C  47.32700 22.24000 25.73000
C  49.25600 26.65700 25.60100
N  47.77700 24.77200 30.22900
C  47.90300 25.89800 30.96500
C  47.47200 25.69700 32.44200
C  47.04300 24.26600 32.48500
C  47.13000 23.82800 30.99300
C  47.74400 23.25600 33.39900
C  46.43700 26.76200 32.97100
C  46.71300 27.31400 34.43700
H  45.53900 27.33300 35.41800
N  47.06900 22.68100 28.16100
C  46.55700 21.99000 29.24900
C  46.09600 20.71200 28.85600
C  46.26000 20.63400 27.45300
C  46.96900 21.87300 27.05900
C  45.49700 19.75900 29.80700
C  45.75300 19.57900 26.48300
O  45.97300 19.52700 25.23900
C  44.88500 18.49200 27.00600
N  48.37500 24.40900 26.00100
C  48.05000 23.34600 25.26400
C  48.36400 23.60200 23.75400
C  48.70500 25.13300 23.67700
C  48.81400 25.41200 25.20500
C  49.48200 22.67600 23.11100
C  47.68100 25.91600 22.91100
C  46.47900 26.53000 23.66000
N  48.75900 26.44400 27.92600
C  49.27600 27.18900 26.85000
C  49.75200 28.50000 27.32900
C  49.46600 28.47000 28.71200
C  48.83100 27.21200 28.98800
C  50.19000 29.56700 26.44800
C  49.54500 29.21200 29.96900
O  50.08300 30.26500 30.15100
C  48.75100 28.32300 31.05600
C  49.79900 28.12300 32.13100
O  50.63800 27.28700 32.11200
O  49.44200 28.85700 33.20100
C  50.19000 28.67100 34.45300
H  46.24600 22.06700 31.39200
H  47.10800 21.45900 24.99900
H  49.65400 27.35700 24.86400
H  48.39000 25.85000 33.01000
H  46.02700 24.15800 32.86400
H  48.60100 23.79300 33.80400
H  48.03000 22.35100 32.86200
H  47.09400 22.92900 34.21100
H  45.41800 26.38300 33.04700
H  46.33400 27.57200 32.25000
H  47.04400 28.35000 34.35500
H  47.49900 26.68100 34.85000
H  44.43200 19.95200 29.93700
H  45.89900 19.93000 30.80500
H  45.72600 18.73600 29.50700
H  44.30900 18.12000 26.15900
H  44.14900 18.94700 27.67000
H  45.46100 17.69600 27.47700
H  47.49700 23.30400 23.16500
H  49.66400 25.32400 23.19700
H  50.29500 23.37400 22.91000
H  49.11300 22.03400 22.31200
H  49.88600 22.01300 23.87500
H  47.22000 25.38500 22.07800
H  48.21400 26.73900 22.43300
H  46.52300 27.61900 23.68000
H  46.43700 26.07500 24.64900
H  45.58100 26.27600 23.09700
H  49.75700 29.69500 25.45600
H  51.24200 29.34000 26.27500
H  50.12900 30.50300 27.00300
H  47.87300 28.84900 31.43100
H  49.42500 28.34300 35.15700
H  50.53400 29.65900 34.76000
H  51.02400 27.97500 34.53300

