158

Mg 16.68000 -2.18100 27.71800
C  15.40900 0.02300 30.17400
C  18.77500 -3.47700 30.04800
C  18.09100 -3.99700 25.30000
C  14.80600 -0.31600 25.34700
N  16.98200 -1.79900 29.85000
C  16.31900 -0.94500 30.64000
C  16.63400 -1.17800 32.07200
C  17.93900 -2.04400 32.05100
C  17.96000 -2.49500 30.55500
C  19.30200 -1.32200 32.47600
C  15.46500 -1.71600 32.96400
C  15.11800 -0.86400 34.18000
H  16.19300 -0.05800 34.89100
N  18.10900 -3.59000 27.73100
C  18.89800 -4.03600 28.77100
C  19.80900 -5.04000 28.38700
C  19.56400 -5.23300 27.01000
C  18.52900 -4.25000 26.58800
C  20.80600 -5.71500 29.25100
C  20.24000 -6.14200 26.00000
O  20.08400 -6.10000 24.80000
C  21.04500 -7.43100 26.43200
N  16.53200 -2.07600 25.66300
C  17.20500 -2.97400 24.83400
C  16.94800 -2.75500 23.32200
C  15.75900 -1.77000 23.39600
C  15.70900 -1.27900 24.86500
C  18.16700 -2.13700 22.65800
C  14.38700 -2.20400 22.76800
C  14.21300 -2.02800 21.18200
N  15.34000 -0.50300 27.70000
C  14.68700 0.17700 26.65900
C  13.88200 1.24900 27.19600
C  14.15700 1.24800 28.57900
C  15.01100 0.19800 28.80400
C  12.86400 2.03700 26.42000
C  13.89400 1.90900 29.86400
O  13.24800 2.88900 30.12100
C  14.66900 1.10000 30.89500
C  15.54500 2.10100 31.61600
O  16.69300 2.40900 31.32100
O  14.78500 2.65500 32.59000
C  15.56300 3.78500 33.22500
H  19.44600 -3.96400 30.75900
H  18.43300 -4.53400 24.41300
H  14.28000 0.34200 24.65100
H  16.97800 -0.24400 32.51800
H  17.98700 -2.94700 32.65900
H  20.00000 -1.26400 31.64100
H  19.73200 -1.89500 33.29700
H  19.13300 -0.29400 32.79700
H  15.73400 -2.69800 33.35400
H  14.53000 -1.77300 32.40700
H  14.85100 -1.57100 34.96600
H  14.17900 -0.32400 34.05400
H  21.81200 -5.85000 28.85300
H  20.46000 -6.70400 29.55200
H  20.95200 -5.18400 30.19200
H  20.98200 -8.19000 25.65300
H  20.53700 -7.89100 27.27900
H  22.10900 -7.27400 26.60700
H  16.68700 -3.60900 22.69800
H  15.91700 -0.80300 22.91700
H  18.08800 -2.36300 21.59400
H  19.12100 -2.50500 23.03600
H  18.08600 -1.05100 22.71400
H  13.54100 -1.69400 23.22900
H  14.16600 -3.27000 22.80900
H  14.98900 -1.35700 20.81400
H  13.26600 -1.54400 20.94400
H  14.26100 -2.99900 20.68900
H  12.71500 1.66100 25.40800
H  13.11900 3.09600 26.38000
H  11.89800 1.91200 26.91100
H  13.95500 0.67800 31.60200
H  16.58500 3.52400 33.49800
H  15.06500 4.01700 34.16700
H  15.58100 4.72100 32.66600
Mg 35.06400 3.26400 29.22300
C  32.89700 4.13700 31.82400
C  37.63100 3.26000 31.44100
C  37.03600 2.10800 26.68100
C  32.42800 3.68800 26.99500
N  35.23000 3.59400 31.40200
C  34.18800 3.91900 32.27700
C  34.68700 3.81000 33.69600
C  36.26200 3.90900 33.53900
C  36.43200 3.61100 32.01500
C  36.92800 5.32500 33.97200
C  34.29400 2.54900 34.43900
C  33.61600 2.89700 35.80900
H  34.21400 4.01900 36.69000
N  37.09500 2.73700 29.05600
C  37.99400 2.75700 30.19200
C  39.23800 2.17800 29.77900
C  39.10900 1.83600 28.37100
C  37.73100 2.21000 27.95000
C  40.44600 2.12600 30.68000
C  40.10700 1.27800 27.32900
O  39.89800 0.95200 26.17300
C  41.52400 0.97100 27.82300
N  34.82400 3.07200 27.20500
C  35.76100 2.54500 26.30500
C  35.33200 2.66500 24.85300
C  33.86100 2.98800 25.05300
C  33.66000 3.25600 26.53500
C  36.17600 3.84600 24.05100
C  32.85600 1.90900 24.43200
C  32.25600 0.82000 25.31500
N  33.18100 3.91500 29.32700
C  32.16300 3.98500 28.35200
C  30.90600 4.32600 28.88900
C  31.07600 4.33700 30.28400
C  32.52200 4.10000 30.46900
C  29.63300 4.64600 28.15300
C  30.48900 4.46300 31.61200
O  29.32700 4.72900 31.91400
C  31.69300 4.39200 32.59200
C  31.71200 5.65700 33.29600
O  32.03300 6.78800 32.92900
O  31.33100 5.43600 34.67200
C  30.97000 6.64600 35.43100
H  38.33500 3.27600 32.27600
H  37.61100 1.78600 25.81000
H  31.70400 3.83100 26.19100
H  34.31800 4.73100 34.14800
H  36.77900 3.11500 34.07700
H  36.19900 5.97800 34.45300
H  37.35400 5.93100 33.17300
H  37.69100 5.12200 34.72400
H  35.16500 1.89800 34.51900
H  33.58400 1.96500 33.85400
H  33.61600 2.06000 36.50800
H  32.64000 3.23900 35.46600
H  40.78600 1.11000 30.88200
H  40.24000 2.55000 31.66300
H  41.17800 2.77100 30.19500
H  42.08700 1.85500 28.12000
H  42.13000 0.66800 26.97000
H  41.54200 0.05000 28.40700
H  35.44600 1.76700 24.24700
H  33.70800 3.90200 24.48000
H  35.66000 4.80500 24.00800
H  36.43800 3.45900 23.06600
H  37.12800 4.09300 24.52100
H  33.22900 1.38200 23.55400
H  32.01300 2.52800 24.12400
H  32.98500 0.39800 26.00700
H  32.03100 -0.02500 24.66400
H  31.32500 1.17600 25.75600
H  28.88400 4.58200 28.94300
H  29.48000 3.87400 27.39900
H  29.68300 5.60400 27.63500
H  31.57000 3.53700 33.25700
H  30.08100 7.19200 35.11700
H  31.77900 7.37400 35.49600
H  30.84100 6.26300 36.44400

