158

Mg 30.05500 57.09500 39.25400
C  27.53900 54.76900 38.51600
C  32.43000 54.72100 38.17400
C  32.35200 59.51900 39.18000
C  27.56700 59.50600 39.62500
N  29.92100 54.89000 38.59600
C  28.79600 54.18800 38.25700
C  29.25000 52.77000 37.81100
C  30.82700 52.71300 37.94600
C  31.11600 54.22000 38.19600
C  31.33600 51.84300 39.14000
C  28.79400 52.37100 36.39200
C  29.15900 53.46000 35.31400
H  28.05800 53.83700 34.29700
N  32.11400 57.13400 38.76500
C  32.85800 56.08500 38.41400
C  34.23700 56.55700 38.14700
C  34.30700 57.92400 38.55800
C  32.90600 58.24400 38.93500
C  35.28600 55.68300 37.51900
C  35.56100 58.78400 38.84100
O  36.66400 58.25800 38.60600
C  35.59000 60.17500 39.46500
N  29.99000 59.14400 39.61200
C  31.07500 59.94600 39.44000
C  30.71900 61.44700 39.71400
C  29.15800 61.33500 39.60500
C  28.88100 59.88100 39.72000
C  31.31600 61.92200 41.10000
C  28.74700 62.08600 38.25300
C  27.79700 63.22200 38.50600
N  27.90800 57.07600 39.34600
C  27.05900 58.18600 39.44400
C  25.68200 57.74800 39.34800
C  25.82400 56.39500 38.98100
C  27.16300 56.04300 38.95300
C  24.33300 58.52600 39.43200
C  25.12900 55.24800 38.60300
O  23.90400 55.05900 38.53000
C  26.20900 54.22100 38.21600
C  25.88900 52.96100 39.01300
O  26.18100 52.86400 40.20100
O  25.21700 52.01500 38.22800
C  24.64400 50.92700 38.99900
H  33.18200 54.00300 37.84000
H  33.11200 60.28900 39.02900
H  26.79600 60.27900 39.63900
H  28.76000 52.09900 38.51700
H  31.34600 52.43400 37.02900
H  32.34000 51.42000 39.13300
H  30.65600 50.99500 39.22400
H  31.12600 52.40000 40.05300
H  27.72800 52.15300 36.45700
H  29.27400 51.46400 36.02500
H  30.02800 53.16200 34.72700
H  29.39200 54.33300 35.92400
H  34.84900 55.06900 36.73200
H  35.74800 55.19400 38.37700
H  35.95500 56.37300 37.00300
H  36.57100 60.42900 39.86600
H  34.77500 60.10400 40.18500
H  35.29800 60.79900 38.62000
H  31.13500 62.06300 38.91700
H  28.66800 61.80700 40.45700
H  31.43600 63.00600 41.11200
H  32.25800 61.41600 41.31100
H  30.60500 61.71100 41.89900
H  28.26400 61.33600 37.62700
H  29.55700 62.27600 37.54800
H  26.72500 63.03300 38.43900
H  27.90000 63.89800 37.65700
H  28.08500 63.75500 39.41200
H  24.44000 59.40900 38.80200
H  24.25000 58.95000 40.43300
H  23.49200 57.99900 38.98300
H  26.14500 53.97400 37.15600
H  25.27400 50.03700 38.99800
H  23.67800 50.64000 38.58200
H  24.46900 51.29400 40.01100
Mg -5.77400 26.08100 25.62900
C  -4.31000 26.95200 28.65200
C  -7.70400 23.80900 27.30600
C  -6.90600 24.68600 22.58500
C  -3.30500 27.71600 23.87400
N  -6.07000 25.51200 27.66800
C  -5.36400 26.05800 28.79700
C  -5.85400 25.48900 30.14300
C  -6.81800 24.21700 29.63000
C  -6.87100 24.56100 28.12300
C  -6.30800 22.76600 30.07000
C  -6.58500 26.55100 31.06200
C  -6.14300 26.48300 32.49600
H  -5.58500 25.16700 33.01400
N  -7.11800 24.53000 25.02800
C  -7.88800 23.74700 25.92300
C  -8.85100 22.86100 25.17100
C  -8.70500 23.26700 23.79000
C  -7.51500 24.23100 23.73900
C  -9.77600 21.88700 25.87900
C  -9.38800 22.69100 22.55700
O  -9.19500 23.12300 21.44600
C  -10.34700 21.54800 22.79000
N  -5.21600 26.23400 23.59000
C  -5.78200 25.63100 22.52700
C  -5.11900 26.01200 21.15200
C  -4.08500 27.06300 21.65000
C  -4.19600 27.00900 23.12400
C  -4.51300 24.75500 20.42900
C  -4.33800 28.50800 21.16400
C  -4.59200 28.79600 19.64400
N  -4.27200 27.24300 26.13500
C  -3.36700 27.89900 25.27500
C  -2.52400 28.67900 26.19700
C  -2.79200 28.35700 27.48200
C  -3.90800 27.50500 27.43100
C  -1.48100 29.65000 25.76900
C  -2.33100 28.48300 28.91400
O  -1.40200 29.16100 29.41700
C  -3.40900 27.57800 29.76300
C  -2.61800 26.54200 30.56600
O  -2.27100 25.46400 30.07900
O  -2.34300 26.95700 31.81900
C  -1.44400 26.27000 32.72200
H  -8.38100 23.16300 27.86900
H  -7.13600 24.26000 21.60600
H  -2.42900 28.18900 23.42400
H  -4.90900 25.15100 30.56900
H  -7.83700 24.39200 29.97600
H  -7.00500 22.22500 30.71000
H  -5.40600 22.87600 30.67100
H  -5.85200 22.25800 29.22000
H  -7.66000 26.46100 30.90600
H  -6.43300 27.58300 30.74600
H  -6.92600 26.78600 33.19100
H  -5.34300 27.17900 32.75000
H  -9.62900 20.90200 25.43700
H  -10.82400 22.17200 25.79800
H  -9.43900 21.70500 26.89900
H  -11.20700 21.73600 23.43200
H  -9.88000 20.61300 23.09700
H  -10.70200 21.43400 21.76500
H  -5.94400 26.36600 20.53400
H  -3.11700 26.64100 21.38100
H  -4.92800 24.71800 19.42200
H  -4.76000 23.79000 20.87300
H  -3.44900 24.94500 20.28400
H  -3.43400 29.09100 21.33900
H  -5.05700 29.05900 21.77100
H  -5.58500 29.23900 19.56900
H  -4.50900 27.92300 18.99700
H  -3.87200 29.55200 19.33000
H  -1.75300 30.19700 24.86700
H  -0.51900 29.17100 25.58100
H  -1.26400 30.35900 26.56900
H  -4.03400 28.19700 30.40700
H  -1.38100 25.20000 32.52800
H  -1.92100 26.35500 33.69900
H  -0.42600 26.64900 32.63100

