158

Mg 26.66100 50.21200 26.27700
C  25.04300 51.85100 28.91500
C  29.18400 49.29700 28.63000
C  28.66100 49.16000 23.75600
C  24.56600 51.84900 24.13600
N  27.01400 50.53700 28.52700
C  26.13100 51.14000 29.35600
C  26.53300 50.91300 30.79900
C  28.00000 50.34000 30.68800
C  28.07500 49.97400 29.18900
C  29.12600 51.28400 31.20400
C  25.46400 49.92300 31.44600
C  24.89000 50.43300 32.81700
H  25.74300 50.94300 33.95100
N  28.57500 49.19600 26.23100
C  29.44900 48.94400 27.28200
C  30.56500 48.22700 26.74700
C  30.50900 48.27900 25.32200
C  29.19600 48.89500 25.05300
C  31.75500 47.81900 27.60800
C  31.67500 47.99700 24.28700
O  31.49500 48.04200 23.10500
C  33.08900 47.71400 24.68900
N  26.71300 50.60800 24.26000
C  27.53400 49.88100 23.43400
C  27.05200 49.89600 21.99300
C  25.66400 50.73500 22.18200
C  25.61200 51.08800 23.63200
C  28.10400 50.40200 21.02700
C  24.27500 50.20200 21.60300
C  23.57300 51.10200 20.52400
N  25.04000 51.56300 26.41500
C  24.29200 52.20700 25.50000
C  23.22900 52.99200 26.07300
C  23.49000 52.90200 27.50400
C  24.62000 52.03800 27.60500
C  22.20000 53.82200 25.43800
C  23.09000 53.35200 28.80600
O  22.20500 54.05600 29.12800
C  24.15200 52.70400 29.82400
C  24.77900 53.73500 30.69300
O  25.85100 54.27500 30.50400
O  23.93400 54.01300 31.67300
C  24.49000 54.98100 32.62300
H  29.85300 48.93900 29.41500
H  29.23700 48.76500 22.91700
H  23.77500 52.22000 23.48200
H  26.44100 51.87800 31.29900
H  28.14500 49.35200 31.12400
H  28.74600 52.29700 31.33600
H  29.95400 51.44800 30.51300
H  29.48000 50.91300 32.16700
H  25.83700 48.90500 31.56400
H  24.58800 49.86000 30.80000
H  24.31300 49.54100 33.06100
H  24.22900 51.25300 32.53700
H  31.95100 46.75100 27.50900
H  31.63100 48.09900 28.65400
H  32.62700 48.44200 27.41300
H  33.49700 48.71300 24.83800
H  33.63900 47.20200 23.89900
H  33.16200 47.16000 25.62500
H  26.77500 48.87100 21.74800
H  25.87700 51.71700 21.76000
H  28.71600 49.73100 20.42400
H  28.71700 51.01900 21.68300
H  27.55300 51.08300 20.37800
H  23.57000 50.21200 22.43300
H  24.31000 49.16800 21.26200
H  22.70200 51.52000 21.03000
H  23.29200 50.50200 19.65800
H  24.26300 51.93500 20.38800
H  21.20300 53.41500 25.60900
H  22.29900 53.74600 24.35500
H  22.24300 54.83000 25.85000
H  23.60800 52.02000 30.47500
H  24.93600 55.83700 32.11700
H  25.17200 54.40000 33.24400
H  23.81200 55.35900 33.38700
Mg -4.81500 25.34200 26.03300
C  -3.62900 26.72000 28.87800
C  -6.53300 22.99700 27.90200
C  -5.47900 23.64300 23.18600
C  -2.90000 27.57500 24.14600
N  -4.98600 24.90100 28.13800
C  -4.48300 25.64800 29.16500
C  -5.12800 25.39800 30.46500
C  -5.90300 24.05000 30.17900
C  -5.75500 23.86000 28.68000
C  -5.28200 22.92200 31.02000
C  -6.08300 26.51000 30.93300
C  -6.06100 26.66400 32.47000
H  -5.33200 25.70000 33.44600
N  -5.96600 23.63700 25.61100
C  -6.65100 22.82800 26.49900
C  -7.35300 21.74700 25.74600
C  -6.96700 21.89700 24.35400
C  -6.04100 23.09800 24.39900
C  -8.33100 20.83500 26.54200
C  -7.42600 21.03700 23.16000
O  -6.99700 21.19000 22.04000
C  -8.18100 19.79500 23.47000
N  -4.26700 25.58400 23.98500
C  -4.70400 24.78200 22.95000
C  -4.33100 25.28300 21.48200
C  -3.54000 26.64200 21.85800
C  -3.59500 26.66400 23.38600
C  -3.46700 24.26600 20.72500
C  -3.95300 27.93400 21.07400
C  -3.06100 28.54200 20.03000
N  -3.36900 26.70200 26.39400
C  -2.74000 27.59000 25.55300
C  -1.97600 28.58100 26.30100
C  -2.18000 28.19600 27.66400
C  -3.13700 27.08700 27.62700
C  -1.19300 29.83900 25.80400
C  -1.82700 28.52700 29.08300
O  -1.03400 29.27900 29.56700
C  -2.82000 27.56700 29.87600
C  -1.92800 26.82900 30.75700
O  -1.19500 25.92500 30.37500
O  -1.88900 27.38000 32.09000
C  -1.08900 26.58500 32.95600
H  -6.97300 22.18600 28.48700
H  -5.73800 23.05400 22.30300
H  -2.26600 28.38100 23.77000
H  -4.27400 25.39600 31.14300
H  -6.93900 24.23700 30.46100
H  -4.68600 22.23100 30.42400
H  -6.08000 22.24800 31.33000
H  -4.69000 23.20900 31.89000
H  -7.07400 26.43200 30.48400
H  -5.66700 27.45400 30.58100
H  -7.07500 26.77800 32.85400
H  -5.59700 27.64500 32.56800
H  -7.65100 20.06400 26.90500
H  -9.16500 20.35700 26.02900
H  -8.68700 21.40900 27.39700
H  -9.18000 19.97200 23.86900
H  -7.65900 19.12700 24.15500
H  -8.35300 19.28200 22.52400
H  -5.22900 25.41200 20.87800
H  -2.47500 26.43300 21.75600
H  -3.79600 23.89200 19.75500
H  -3.53200 23.28800 21.20300
H  -2.48700 24.72300 20.59100
H  -4.28100 28.75400 21.71200
H  -4.91400 27.73900 20.59900
H  -3.78800 28.74900 19.24600
H  -2.16900 28.01900 19.68500
H  -2.77600 29.51700 20.42500
H  -0.11100 29.70700 25.78400
H  -1.42600 30.66800 26.47200
H  -1.53400 30.10100 24.80200
H  -3.51800 28.14600 30.48100
H  -1.25800 25.51000 32.88400
H  -1.04000 26.96700 33.97500
H  -0.09900 26.65800 32.50700

