158

Mg 17.34300 -1.56500 28.53600
C  16.73500 0.42800 31.34600
C  19.35800 -3.60800 30.37100
C  18.65000 -2.88500 25.71200
C  15.95300 1.01500 26.48700
N  17.75000 -1.64900 30.66100
C  17.47800 -0.72500 31.62900
C  18.06100 -1.15100 32.93300
C  19.01600 -2.38400 32.62300
C  18.68400 -2.56900 31.12800
C  20.55600 -2.05100 32.86500
C  16.76900 -1.44700 33.71600
C  16.70100 -0.80200 35.09000
H  17.93700 -0.21600 35.76900
N  18.53900 -3.14800 28.12100
C  19.28000 -3.89800 29.00100
C  19.97300 -4.95100 28.30200
C  19.74500 -4.82100 26.92500
C  18.94800 -3.57500 26.86100
C  20.77300 -6.12000 29.04200
C  20.29200 -5.67600 25.73200
O  20.20700 -5.37100 24.55600
C  20.96500 -7.04600 26.00300
N  17.33200 -0.96900 26.37000
C  17.94700 -1.69100 25.46700
C  17.86800 -1.07400 24.07800
C  16.84500 0.11200 24.32000
C  16.62500 0.03700 25.80400
C  19.27800 -0.58800 23.53600
C  15.56500 0.28700 23.32800
C  14.20000 -0.07400 23.89000
N  16.40200 0.30300 28.78500
C  15.86400 1.16000 27.86700
C  15.12300 2.23000 28.54300
C  15.55400 2.03900 29.90700
C  16.24500 0.79800 30.04800
C  14.22300 3.23300 28.00200
C  15.42900 2.62300 31.19900
O  14.81300 3.58300 31.60000
C  16.20000 1.58200 32.25500
C  17.15200 2.43200 32.97500
O  18.23300 2.65700 32.45700
O  16.63400 3.01200 34.06300
C  17.45800 4.02800 34.67000
H  19.90100 -4.31500 31.00200
H  19.06500 -3.39300 24.83900
H  15.66900 1.79700 25.78000
H  18.56900 -0.24100 33.25200
H  18.74200 -3.28600 33.17000
H  21.20700 -2.26200 32.01700
H  20.89000 -2.66000 33.70400
H  20.61600 -0.97800 33.05000
H  16.68400 -2.49500 34.00600
H  15.85200 -1.16000 33.20100
H  16.27700 -1.54000 35.77100
H  16.01900 0.04400 35.00400
H  21.79600 -5.97800 28.69500
H  20.37000 -7.12600 28.92700
H  20.80900 -5.91100 30.11200
H  20.27300 -7.62900 26.61100
H  21.99000 -7.05500 26.37200
H  20.91600 -7.46200 24.99700
H  17.48700 -1.76200 23.32300
H  17.35100 1.04100 24.05600
H  19.13200 0.39700 23.09300
H  19.78000 -1.31400 22.89700
H  19.84300 -0.49200 24.46200
H  15.72100 -0.20900 22.37000
H  15.61300 1.33200 23.02300
H  13.77900 0.71600 24.51200
H  14.22400 -0.87300 24.63200
H  13.55700 -0.42300 23.08300
H  14.65800 4.23200 28.02300
H  13.30100 3.19700 28.58300
H  14.01300 3.03700 26.95000
H  15.52900 1.24300 33.04300
H  18.46400 3.63400 34.81600
H  17.04500 4.37000 35.61900
H  17.56100 4.90500 34.03100
Mg 29.72000 57.26400 40.57000
C  27.15600 55.29500 39.47000
C  32.10400 54.97500 39.24200
C  32.43200 59.28300 41.41400
C  27.45700 59.83200 41.37000
N  29.58900 55.31000 39.53500
C  28.39500 54.81700 39.03700
C  28.71800 53.81900 37.92000
C  30.26200 53.57800 38.11100
C  30.71700 54.69800 39.04900
C  30.67700 52.25400 38.69200
C  28.28000 54.24300 36.45900
C  27.06600 53.54100 35.82200
H  26.28700 54.25400 34.78700
N  32.01300 57.08700 40.52700
C  32.73700 56.03300 39.91800
C  34.06900 56.37000 40.10000
C  34.21400 57.61900 40.67900
C  32.89700 58.05300 40.90600
C  35.19800 55.49000 39.63200
C  35.56700 58.33200 41.01900
O  36.62000 57.72000 40.90200
C  35.68400 59.85700 41.48900
N  29.90900 59.29800 41.25400
C  31.15300 59.88700 41.53200
C  30.99000 61.32100 42.02300
C  29.42600 61.46600 42.17500
C  28.84400 60.17100 41.54400
C  31.79400 61.63900 43.28400
C  28.85100 62.77500 41.58000
C  28.30400 63.95000 42.55500
N  27.72800 57.58100 40.51100
C  26.89100 58.57100 40.94500
C  25.50700 58.14000 40.91500
C  25.57100 56.90000 40.25400
C  26.88500 56.54700 40.03300
C  24.32300 59.00300 41.33500
C  24.80600 55.76800 39.71100
O  23.58000 55.61000 39.64900
C  25.79700 54.74200 39.13100
C  25.36300 53.51200 39.78300
O  25.80800 53.09000 40.84800
O  24.43700 52.86300 38.96900
C  23.88900 51.62300 39.52400
H  32.78500 54.21500 38.85200
H  33.23100 59.99400 41.63500
H  26.71800 60.54700 41.73800
H  28.11900 52.91600 38.04100
H  30.62300 53.56200 37.08300
H  30.81900 52.30700 39.77100
H  31.62800 51.96300 38.24500
H  29.88300 51.53700 38.48500
H  29.13600 54.08500 35.80300
H  28.01000 55.29400 36.35600
H  26.49100 53.18000 36.67500
H  27.38500 52.63300 35.31100
H  34.84100 54.47400 39.80100
H  36.13900 55.53000 40.18000
H  35.33600 55.70000 38.57100
H  35.27500 60.69100 40.91900
H  36.71700 60.11600 41.72000
H  35.25900 59.90700 42.49100
H  31.36600 61.91300 41.18900
H  29.24100 61.29100 43.23500
H  32.47900 60.82100 43.50800
H  31.17100 61.96600 44.11700
H  32.46100 62.47300 43.06800
H  27.99000 62.51700 40.96300
H  29.60100 63.16500 40.89200
H  27.22500 63.88400 42.69900
H  28.52000 64.91500 42.09700
H  28.87000 63.94500 43.48700
H  24.24900 59.93200 40.77000
H  24.29200 59.13900 42.41600
H  23.38700 58.51700 41.05900
H  25.65000 54.63600 38.05600
H  23.13100 51.93800 40.24100
H  24.58800 51.04600 40.12900
H  23.54200 50.93300 38.75500

