158

Mg 24.09500 -5.40300 45.33400
C  26.19100 -3.09200 43.76800
C  21.42800 -4.16100 43.47900
C  22.45500 -8.39500 45.78100
C  26.88700 -6.85800 46.86900
N  23.81500 -3.72400 43.88800
C  24.83800 -2.94100 43.39500
C  24.22700 -1.86200 42.51500
C  22.67900 -1.99200 42.85100
C  22.58100 -3.33000 43.52900
C  22.12100 -0.84500 43.74300
C  24.67700 -2.01600 40.99900
C  25.52500 -0.81700 40.45200
H  25.11800 -0.53500 39.01800
N  22.20400 -6.22600 44.68700
C  21.30000 -5.51000 43.88200
C  20.17300 -6.38200 43.63400
C  20.49300 -7.69900 44.22900
C  21.74900 -7.49400 44.92400
C  18.95500 -5.99500 42.84100
C  19.65000 -9.00400 43.95600
O  18.46600 -8.98600 43.54000
C  20.35400 -10.33700 44.19800
N  24.65700 -7.41400 46.15200
C  23.67900 -8.34800 46.41300
C  24.20100 -9.56600 47.25200
C  25.71500 -9.11400 47.53300
C  25.75000 -7.67100 46.88300
C  23.39900 -9.79600 48.55100
C  26.76300 -10.10300 47.09600
C  27.93700 -10.35100 47.94400
N  26.14500 -4.95000 45.46400
C  27.13800 -5.62800 46.05900
C  28.39000 -4.88200 45.90600
C  28.05900 -3.99100 44.85400
C  26.68900 -4.01100 44.68800
C  29.72900 -5.19700 46.48200
C  28.58200 -2.95800 43.94400
O  29.74300 -2.66100 43.75100
C  27.38400 -2.28100 43.31000
C  27.31900 -0.85700 43.68500
O  26.56900 -0.35300 44.51200
O  28.16600 -0.18200 42.86500
C  28.43900 1.20500 43.19100
H  20.61900 -3.70900 42.90200
H  21.84400 -9.22300 46.14700
H  27.75800 -7.33600 47.32000
H  24.62900 -0.93700 42.92700
H  22.02900 -2.08400 41.98100
H  21.32700 -0.27400 43.26100
H  22.89600 -0.13000 44.01900
H  21.72900 -1.28800 44.65900
H  23.81200 -2.23400 40.37400
H  25.41500 -2.81500 40.93500
H  26.57700 -1.10200 40.41500
H  25.36800 0.14700 40.93700
H  19.01100 -5.92400 41.75400
H  18.70500 -4.96200 43.08500
H  18.08900 -6.46700 43.30400
H  21.40900 -10.11200 44.04300
H  19.98400 -11.00600 43.42000
H  20.19800 -10.67000 45.22400
H  24.20400 -10.48800 46.67100
H  25.92400 -9.04700 48.60100
H  22.80500 -10.70700 48.48600
H  22.72400 -8.94100 48.52300
H  24.08100 -9.74400 49.40100
H  27.02600 -10.03200 46.04000
H  26.21100 -11.04300 47.04900
H  28.88400 -10.11100 47.46000
H  27.99700 -11.40500 48.21400
H  27.98700 -9.77400 48.86800
H  29.70400 -5.43600 47.54500
H  30.33000 -4.30100 46.33100
H  30.12700 -6.03300 45.90600
H  27.39000 -2.25600 42.22000
H  27.83500 1.70100 43.95100
H  28.41700 1.89300 42.34500
H  29.47600 1.22400 43.52700
Mg 47.52500 16.15700 28.90600
C  45.67100 15.59400 31.82400
C  49.60100 18.25200 30.74700
C  49.35000 16.80100 26.12300
C  45.13800 14.60300 27.07200
N  47.50700 16.88300 31.05200
C  46.75300 16.46000 32.05700
C  47.33600 16.82000 33.45400
C  48.37100 17.89500 32.99100
C  48.54300 17.60800 31.49400
C  48.15400 19.41100 33.18500
C  47.86900 15.51000 34.18800
C  47.78500 15.53700 35.71400
H  47.39700 16.91100 36.40400
N  49.32200 17.30800 28.50100
C  50.00600 18.05300 29.40500
C  51.19800 18.47800 28.72900
C  51.09800 18.23000 27.35600
C  49.90700 17.45100 27.24800
C  52.28400 19.20300 29.54200
C  52.13100 18.55400 26.14400
O  51.98700 18.22100 24.99500
C  53.44500 19.22600 26.54500
N  47.30400 15.75900 26.93100
C  48.19600 16.08500 26.00100
C  47.65000 15.74400 24.57500
C  46.43400 14.87000 24.94300
C  46.22300 15.17200 26.38200
C  47.27000 16.98000 23.67200
C  46.51800 13.37400 24.48100
C  45.73900 13.09600 23.11600
N  45.79700 15.19000 29.29900
C  44.89000 14.62100 28.47300
C  43.88800 13.97600 29.22500
C  44.18200 14.27300 30.57600
C  45.33300 15.06300 30.59300
C  42.65000 13.13300 28.74700
C  43.68000 14.08600 31.93000
O  42.66500 13.56000 32.37400
C  44.66400 15.02500 32.80500
C  43.96800 16.15800 33.49100
O  43.75200 17.30800 33.13900
O  43.67000 15.70300 34.76300
C  43.23800 16.73000 35.77200
H  50.29200 18.86000 31.33400
H  49.81700 16.80000 25.13600
H  44.48100 13.95600 26.48700
H  46.41900 17.20500 33.89800
H  49.31400 17.69700 33.50100
H  49.00300 19.92200 33.63900
H  47.28400 19.60300 33.81300
H  47.96400 19.84000 32.20100
H  48.86600 15.30200 33.80000
H  47.19000 14.70400 33.91200
H  48.75600 15.19300 36.06800
H  47.01200 14.85500 36.07000
H  52.99600 19.72200 28.90000
H  52.93100 18.47800 30.03700
H  51.89900 19.96200 30.22300
H  53.94700 18.70500 27.36100
H  53.25500 20.25900 26.83700
H  54.05400 19.35100 25.65000
H  48.41700 15.11700 24.12100
H  45.52900 15.28400 24.49800
H  47.55600 17.85200 24.26100
H  46.22100 16.99400 23.37500
H  47.84900 16.87500 22.75500
H  46.25500 12.72800 25.31900
H  47.54700 13.14300 24.20800
H  45.26100 12.14300 23.34200
H  46.39000 12.90800 22.26200
H  44.88600 13.71100 22.82900
H  42.83800 12.72700 27.75300
H  41.69300 13.65400 28.77200
H  42.57700 12.34900 29.50100
H  45.10500 14.49100 33.64600
H  43.54600 16.41200 36.76800
H  42.15300 16.80900 35.83800
H  43.72100 17.69900 35.64500

