158

Mg 29.28300 57.77600 39.87700
C  26.52300 55.91300 38.91700
C  31.34800 55.52800 38.36400
C  31.86900 60.03100 39.94800
C  27.12700 60.29100 40.80200
N  28.94600 55.96400 38.55100
C  27.71900 55.30700 38.50200
C  27.88600 53.88100 37.89300
C  29.47000 53.65900 38.05200
C  29.96600 55.15200 38.34900
C  29.83000 52.78000 39.22900
C  27.26000 53.67400 36.50100
C  26.75800 54.92500 35.65500
H  26.87700 54.72500 34.11200
N  31.42800 57.69800 39.34400
C  32.03100 56.64600 38.72100
C  33.36300 56.92900 38.48800
C  33.59900 58.26600 38.95200
C  32.26600 58.80200 39.43900
C  34.31600 55.94200 37.93200
C  34.91400 59.09400 38.85300
O  35.95800 58.59700 38.42300
C  35.21800 60.51400 39.17000
N  29.55000 59.81700 40.38000
C  30.68400 60.52300 40.42400
C  30.57700 61.90700 40.99000
C  29.02500 61.91200 41.44000
C  28.52800 60.56800 40.89800
C  31.45700 62.31200 42.20800
C  28.29200 63.23700 41.05700
C  27.39100 63.96200 42.14800
N  27.24800 58.11700 39.81800
C  26.54400 59.12600 40.31200
C  25.11400 58.78000 40.32800
C  25.07200 57.51500 39.82400
C  26.40100 57.15400 39.43700
C  23.89900 59.52700 40.87200
C  24.19200 56.42000 39.31700
O  22.97000 56.38200 39.27900
C  25.09600 55.27700 38.86200
C  24.88700 54.09700 39.61100
O  25.47400 53.68800 40.63500
O  23.92200 53.33700 38.91200
C  23.33900 52.18400 39.53800
H  32.02700 54.69000 38.19500
H  32.66000 60.78000 39.87400
H  26.44500 61.10700 41.05000
H  27.35700 53.19700 38.55700
H  29.97700 53.30900 37.15300
H  28.91400 52.30600 39.58400
H  30.19700 53.42200 40.02900
H  30.54500 52.07200 38.80900
H  26.38600 53.03300 36.61600
H  27.88300 53.05700 35.85300
H  27.34200 55.78200 35.99100
H  25.68700 55.03300 35.82500
H  33.98600 54.93500 38.18900
H  35.26400 56.07600 38.45300
H  34.44900 55.91200 36.85000
H  36.29600 60.66200 39.24200
H  34.80300 60.64400 40.17000
H  34.86200 61.24800 38.44800
H  30.80300 62.58100 40.16400
H  29.08400 61.83000 42.52500
H  32.03000 61.49400 42.64600
H  30.88400 62.87200 42.94700
H  32.19900 63.07300 41.96600
H  27.64400 63.06000 40.19900
H  29.18600 63.83300 40.87300
H  27.28200 63.27700 42.98800
H  26.39800 64.17000 41.74700
H  27.86300 64.84800 42.57300
H  23.95100 59.73100 41.94200
H  23.01900 58.93800 40.61200
H  23.82900 60.50500 40.39700
H  24.79000 55.00600 37.85100
H  22.32600 51.99900 39.17900
H  23.22000 52.49500 40.57600
H  23.89700 51.25900 39.39500
Mg 5.50900 53.48300 41.70500
C  4.56700 50.17700 41.34400
C  8.74600 52.72700 40.91600
C  6.12200 56.77900 41.57600
C  2.17500 54.17200 42.46900
N  6.51000 51.66000 41.14100
C  5.94900 50.44200 40.88200
C  7.02600 49.36800 40.46600
C  8.36000 50.25600 40.73800
C  7.85100 51.68900 41.01700
C  9.27800 49.70200 41.92100
C  6.88200 48.99300 38.89000
C  6.93100 50.17700 37.95300
H  6.76700 49.68100 36.47100
N  7.25900 54.60500 41.25200
C  8.48000 54.09900 40.94000
C  9.39400 55.17700 40.70900
C  8.63500 56.39600 40.85500
C  7.26000 55.96000 41.24200
C  10.76800 54.94900 40.10200
C  9.18500 57.75500 40.57100
O  10.37500 57.87800 40.20200
C  8.40000 59.02900 40.73700
N  4.33100 55.29400 41.93100
C  4.84200 56.52700 42.00600
C  3.71500 57.59600 42.12600
C  2.47900 56.76200 42.62600
C  3.02300 55.30100 42.20400
C  4.03800 58.90000 42.97300
C  1.14700 56.95500 41.87800
C  -0.08000 57.41800 42.74500
N  3.70600 52.38000 41.88800
C  2.49000 52.82000 42.33400
C  1.67900 51.62900 42.63500
C  2.39900 50.54500 42.19900
C  3.62800 51.06700 41.80500
C  0.26300 51.82700 43.07600
C  2.39500 49.14800 41.99300
O  1.47600 48.36000 42.10200
C  3.91900 48.74000 41.57800
C  4.00700 47.90700 40.35600
O  3.71300 48.22200 39.25600
O  4.53100 46.70100 40.67700
C  4.63700 45.74600 39.57700
H  9.72000 52.32500 40.62900
H  6.37300 57.84200 41.54900
H  1.18300 54.39900 42.86600
H  7.01700 48.47500 41.09100
H  9.00000 50.25800 39.85600
H  8.88900 48.73700 42.24400
H  9.29500 50.28700 42.84100
H  10.28100 49.41400 41.60700
H  6.01500 48.37700 38.64700
H  7.73900 48.36400 38.64900
H  7.90800 50.65100 38.04600
H  6.05800 50.80000 38.15100
H  10.71300 55.11100 39.02600
H  11.15000 53.95400 40.32900
H  11.54800 55.56200 40.55500
H  8.96000 59.93300 40.49900
H  8.00700 59.06900 41.75300
H  7.56800 59.07400 40.03400
H  3.58400 57.84000 41.07200
H  2.33900 56.91500 43.69600
H  5.04600 58.82300 43.38100
H  3.35800 59.03700 43.81400
H  3.96000 59.75800 42.30600
H  0.81600 56.10800 41.27800
H  1.36700 57.84400 41.28600
H  0.09200 57.18500 43.79500
H  -0.92600 56.85500 42.35300
H  -0.14100 58.50600 42.76900
H  -0.29000 52.51400 42.43600
H  0.26100 52.28800 44.06400
H  -0.32500 50.92800 43.26100
H  4.33600 48.22600 42.44400
H  5.26800 44.93200 39.93300
H  4.97400 46.10700 38.60500
H  3.61900 45.38800 39.42400

