158

Mg 4.76900 53.84000 41.30800
C  4.46600 50.40900 40.90600
C  7.57600 53.92900 39.55500
C  4.57000 57.24500 41.41900
C  1.43000 53.76400 42.86600
N  5.86900 52.39100 40.41800
C  5.56300 51.01600 40.29200
C  6.64300 50.28200 39.43100
C  7.78300 51.35200 39.31500
C  7.02900 52.66000 39.77400
C  9.00800 51.04200 40.29100
C  6.09200 49.96400 38.01100
C  6.83100 48.90100 37.29500
H  6.28900 48.26600 35.98900
N  5.93900 55.39800 40.62400
C  7.10900 55.21600 40.02800
C  7.80400 56.50500 39.95200
C  6.95900 57.39400 40.55400
C  5.73300 56.71600 40.92900
C  9.10500 56.81100 39.34900
C  7.23400 58.91100 40.48400
O  8.17200 59.41200 39.92300
C  6.30200 59.87300 41.11400
N  3.14300 55.25700 41.82400
C  3.37700 56.60200 41.79300
C  2.12900 57.36100 42.27700
C  1.15600 56.29100 42.80200
C  1.98500 55.00100 42.52500
C  2.46700 58.55700 43.28500
C  -0.19600 56.20700 42.24000
C  -1.19300 55.94300 43.38200
N  3.13600 52.38600 41.81700
C  2.01200 52.48500 42.58300
C  1.51400 51.17000 42.93500
C  2.43100 50.27600 42.29400
C  3.41100 51.08600 41.64400
C  0.35500 50.82600 43.79600
C  2.83000 48.91500 42.00700
O  2.31600 47.87300 42.36900
C  4.10600 48.96400 41.08400
C  3.78000 48.15600 39.90200
O  2.94200 48.48000 39.06000
O  4.57200 46.97900 39.84600
C  4.46000 46.18300 38.61000
H  8.58900 53.87600 39.15200
H  4.50800 58.32500 41.56500
H  0.44000 53.74700 43.32500
H  7.00500 49.39400 39.95000
H  8.15000 51.41000 38.29100
H  8.92600 50.01100 40.63500
H  8.95500 51.75600 41.11400
H  9.95900 51.05100 39.75900
H  6.12100 50.79700 37.30800
H  5.07200 49.58000 38.02900
H  7.19100 48.11300 37.95700
H  7.74600 49.39800 36.97600
H  9.42600 55.91100 38.82500
H  9.78300 56.97500 40.18700
H  9.14300 57.66400 38.67200
H  6.74500 60.83900 41.35700
H  6.04900 59.37500 42.05000
H  5.50100 60.00600 40.38700
H  1.72800 57.95200 41.45300
H  1.19000 56.44500 43.88100
H  2.55000 59.46900 42.69400
H  3.36600 58.40100 43.88100
H  1.56400 58.67300 43.88400
H  -0.46100 55.40200 41.55500
H  -0.37200 57.20000 41.82600
H  -1.48300 56.93500 43.72800
H  -0.89000 55.30100 44.20900
H  -2.11000 55.51200 42.98100
H  -0.17500 50.14100 43.13500
H  -0.27800 51.66500 44.08700
H  0.70400 50.21900 44.63200
H  5.00500 48.48900 41.47500
H  4.12200 46.81800 37.79100
H  3.81400 45.31800 38.76300
H  5.45100 45.82100 38.33700
Mg 1.07700 42.02300 24.99000
C  2.13500 42.13000 28.42400
C  -2.01800 41.12400 26.24700
C  0.08900 41.57700 21.87100
C  4.39700 42.74600 24.02000
N  0.23100 41.53000 27.11400
C  0.80400 41.84600 28.29100
C  -0.17700 41.66500 29.44700
C  -1.55500 41.27600 28.76800
C  -1.13700 41.32300 27.29200
C  -1.89400 39.82700 29.10100
C  -0.24300 42.98300 30.31800
C  -0.31500 42.88100 31.85600
H  -0.47600 41.47100 32.45900
N  -0.80700 41.49700 24.16700
C  -1.88100 41.07300 24.85600
C  -2.95200 40.85000 23.85100
C  -2.41600 40.96400 22.55400
C  -0.99600 41.35700 22.79300
C  -4.36100 40.44600 24.17700
C  -2.98500 40.74800 21.16900
O  -2.33600 41.04200 20.18000
C  -4.38000 40.23600 20.97300
N  2.05000 42.31400 23.26500
C  1.36000 42.05300 22.10300
C  2.28000 42.15800 20.79500
C  3.64700 42.60700 21.51400
C  3.35700 42.53300 23.02500
C  2.26100 40.87400 19.91300
C  4.10700 44.09000 21.11300
C  2.95900 45.12700 21.09800
N  2.92600 42.39400 25.95300
C  4.14200 42.73300 25.45000
C  5.12800 42.74500 26.54100
C  4.28600 42.64900 27.70600
C  3.04500 42.32700 27.30400
C  6.56300 43.04900 26.43100
C  4.30600 42.69100 29.21300
O  5.16200 42.97500 30.07400
C  2.98100 42.36600 29.71500
C  3.34000 41.08200 30.47900
O  3.76300 40.08200 29.95200
O  3.01000 41.20200 31.75500
C  3.41600 40.29700 32.80300
H  -3.04600 41.01900 26.60100
H  -0.16200 41.51300 20.81000
H  5.39200 43.09600 23.73900
H  0.18300 40.90200 30.13600
H  -2.36300 41.98400 28.95500
H  -1.47300 39.48200 30.04600
H  -1.53400 39.22700 28.26600
H  -2.98100 39.87500 29.16800
H  -1.10200 43.53500 29.93400
H  0.68100 43.54700 30.19100
H  -1.16100 43.44800 32.24500
H  0.52100 43.35300 32.37300
H  -5.03000 41.02800 23.54400
H  -4.62100 40.66100 25.21300
H  -4.53500 39.37500 24.06700
H  -4.44100 39.28600 21.50400
H  -4.46900 40.12500 19.89300
H  -5.12000 40.95700 21.32100
H  1.78000 42.98500 20.28900
H  4.38100 41.86400 21.20300
H  1.53300 40.15000 20.27700
H  3.23800 40.38900 19.90100
H  2.12100 41.15200 18.86800
H  4.35600 43.91300 20.06600
H  4.91800 44.44800 21.74700
H  2.07100 44.97100 21.71100
H  2.63000 45.25300 20.06600
H  3.35200 46.09200 21.41700
H  6.62500 43.88700 25.73700
H  7.06100 42.18500 25.99100
H  7.08000 43.27800 27.36300
H  2.63100 43.04000 30.49700
H  4.40000 40.57500 33.18100
H  3.37500 39.21700 32.66400
H  2.75400 40.46500 33.65300

