158

Mg 24.46000 -4.86500 45.37800
C  27.04800 -2.66300 43.93500
C  22.19300 -3.33600 43.25200
C  22.52900 -7.48300 45.88900
C  27.08300 -6.23500 47.41300
N  24.65800 -3.16100 43.78400
C  25.76600 -2.37900 43.39500
C  25.36000 -1.30500 42.45500
C  23.80000 -1.52300 42.39100
C  23.48500 -2.77000 43.21500
C  22.91300 -0.31700 42.91000
C  25.95900 -1.33600 40.96900
C  26.00600 0.00900 40.13800
H  25.20300 -0.06100 38.80300
N  22.54300 -5.35100 44.62700
C  21.75900 -4.55800 43.81100
C  20.62200 -5.34400 43.57800
C  20.69200 -6.55900 44.26800
C  21.97000 -6.56000 44.95400
C  19.49400 -4.92800 42.63700
C  19.58600 -7.68400 44.21700
O  18.61300 -7.57800 43.46100
C  19.72600 -8.94100 45.06000
N  24.69900 -6.47000 46.63400
C  23.72700 -7.44700 46.63500
C  24.14500 -8.57700 47.61200
C  25.40600 -7.99200 48.30700
C  25.79300 -6.85800 47.39500
C  23.08300 -9.11700 48.57500
C  26.52000 -8.96900 48.58400
C  26.97600 -9.21600 50.04900
N  26.56700 -4.54700 45.68100
C  27.53500 -5.19000 46.55100
C  28.81800 -4.53300 46.44700
C  28.58700 -3.51900 45.48500
C  27.27500 -3.62400 44.95000
C  30.10500 -4.86700 47.25900
C  29.30800 -2.45700 44.81000
O  30.42400 -2.08800 45.03600
C  28.30700 -1.87300 43.77400
C  28.15600 -0.44400 44.02300
O  28.06600 0.03000 45.14800
O  28.13500 0.22400 42.85700
C  28.10600 1.69200 42.98900
H  21.44700 -2.81900 42.64500
H  22.00100 -8.43800 45.90000
H  27.83500 -6.62100 48.10400
H  25.50400 -0.36600 42.98900
H  23.53100 -1.59500 41.33700
H  23.55000 0.53700 43.13800
H  22.48200 -0.67200 43.84700
H  22.15100 -0.06400 42.17200
H  25.40500 -2.09800 40.42100
H  26.99500 -1.67300 40.96700
H  27.03400 0.31000 39.93800
H  25.69900 0.86900 40.73200
H  19.49100 -5.47500 41.69400
H  19.55800 -3.84800 42.50300
H  18.55400 -5.16000 43.13700
H  19.73900 -8.79600 46.14100
H  20.58400 -9.48400 44.66300
H  18.84600 -9.55200 44.86400
H  24.53200 -9.39900 47.00900
H  25.13800 -7.44500 49.21100
H  22.19200 -8.50600 48.42800
H  23.33500 -9.07200 49.63400
H  22.81800 -10.16100 48.41000
H  27.46300 -8.73000 48.09300
H  26.33900 -10.00400 48.29300
H  26.40500 -10.01700 50.51900
H  26.90900 -8.25600 50.56100
H  28.02800 -9.49800 50.06000
H  30.73600 -3.97800 47.25700
H  30.59900 -5.72000 46.79400
H  29.67700 -5.08000 48.23900
H  28.70700 -2.03300 42.77300
H  29.09400 2.15200 43.02300
H  27.60900 2.06800 43.88300
H  27.64900 2.04600 42.06500
Mg 49.61600 46.17100 41.98100
C  46.17000 46.49400 41.05700
C  49.66400 43.22100 40.19600
C  52.81400 46.09800 42.47800
C  49.45500 49.62500 42.75200
N  48.07600 45.18200 40.61800
C  46.78400 45.38800 40.52400
C  46.14400 44.32500 39.60100
C  47.18000 43.20400 39.54300
C  48.40900 43.93600 40.12600
C  46.71100 42.01200 40.48500
C  45.67100 44.89700 38.22400
C  44.33300 44.32900 37.60700
H  44.42400 43.39800 36.44900
N  51.09800 44.73200 41.53700
C  50.95900 43.55100 40.84600
C  52.19300 42.82200 40.86400
C  53.13000 43.63000 41.58200
C  52.39500 44.90900 41.85100
C  52.25400 41.38000 40.38400
C  54.53600 43.26700 41.94200
O  54.98100 42.19100 41.52600
C  55.34300 44.00600 42.92200
N  50.90300 47.64200 42.67900
C  52.24000 47.33400 42.74900
C  53.05300 48.63300 42.98200
C  51.96900 49.76400 42.89300
C  50.72400 49.01300 42.70300
C  53.77600 48.47000 44.39600
C  52.16300 50.81000 41.70900
C  51.79300 52.30800 41.96400
N  48.16100 47.74600 41.99600
C  48.21200 49.05100 42.43300
C  46.87200 49.69900 42.34000
C  46.05200 48.61700 41.97500
C  46.87600 47.54300 41.63000
C  46.46500 51.16500 42.58300
C  44.64500 48.37700 41.62400
O  43.61700 49.02800 41.68000
C  44.68200 46.94000 40.98200
C  43.73300 46.12600 41.91500
O  44.15800 45.62800 42.97400
O  42.57000 45.91100 41.29100
C  41.51400 45.20800 42.06300
H  49.71900 42.29000 39.62700
H  53.90600 46.12100 42.48600
H  49.32800 50.69300 42.94000
H  45.28500 44.00500 40.19100
H  47.41400 42.84400 38.54200
H  45.71800 41.68000 40.18200
H  46.71600 42.34200 41.52300
H  47.45700 41.21700 40.48100
H  46.48200 44.71900 37.51700
H  45.59400 45.98400 38.26800
H  43.84900 45.27300 37.35700
H  43.89600 43.85700 38.48600
H  52.60600 41.44300 39.35400
H  51.29500 40.91100 40.60400
H  53.01400 40.77500 40.87900
H  54.82800 44.32700 43.82700
H  55.86400 44.81200 42.40500
H  56.00300 43.26900 43.37900
H  53.87900 48.87400 42.31300
H  51.89100 50.12100 43.92000
H  53.35200 49.16300 45.12300
H  54.81400 48.80000 44.36200
H  53.71300 47.50400 44.89800
H  51.52100 50.47900 40.89200
H  53.20800 50.92400 41.42200
H  51.45900 52.30400 43.00200
H  50.88300 52.70200 41.51100
H  52.57200 53.06800 42.01100
H  46.14700 51.57500 41.62500
H  47.33000 51.72200 42.94400
H  45.63200 51.01100 43.26900
H  44.27100 46.95400 39.97200
H  41.96300 44.46300 42.72100
H  40.86600 44.65700 41.38200
H  41.08700 45.99400 42.68500

