158

Mg 36.23800 49.52300 24.95200
C  36.11900 47.74900 27.91900
C  34.64000 52.06700 26.35800
C  36.27900 50.94200 21.92400
C  37.73700 46.62200 23.43100
N  35.55900 49.78500 26.93800
C  35.66100 49.11700 28.05600
C  35.12000 49.84400 29.27900
C  34.36600 51.03900 28.59400
C  34.86900 50.93200 27.13600
C  32.88300 51.09000 28.78500
C  36.20300 50.16900 30.39100
C  35.88200 49.68900 31.86000
H  34.39500 49.53000 32.23600
N  35.65500 51.35800 24.24200
C  35.08300 52.29100 25.03300
C  35.04200 53.51800 24.37300
C  35.35700 53.21500 22.99300
C  35.80100 51.76200 23.00900
C  34.54700 54.72600 25.07600
C  35.31000 54.11000 21.80200
O  35.61700 53.63600 20.71800
C  34.90300 55.49400 21.89600
N  37.00200 48.91300 22.99900
C  36.90900 49.70700 21.90700
C  37.57800 49.03400 20.72300
C  38.31400 47.87400 21.32900
C  37.70400 47.81700 22.67800
C  36.66600 48.66700 19.48600
C  39.76600 48.21800 21.54800
C  40.57300 48.51200 20.24800
N  36.74800 47.53600 25.44600
C  37.33400 46.46500 24.75300
C  37.37200 45.27400 25.58000
C  36.93800 45.74000 26.84700
C  36.57900 47.11800 26.71400
C  37.86100 43.93900 25.17000
C  36.77100 45.38900 28.25300
O  37.10200 44.34300 28.86700
C  36.35700 46.80000 29.00800
C  35.10200 46.42300 29.74500
O  34.00400 46.49400 29.22000
O  35.32900 45.79300 30.89400
C  34.17100 45.13500 31.50400
H  34.05100 52.85800 26.82900
H  36.29200 51.47200 20.96900
H  38.27700 45.79600 22.96300
H  34.39500 49.17200 29.73700
H  34.74100 51.97300 29.01400
H  32.43300 50.38200 29.48100
H  32.42700 50.90600 27.81200
H  32.47600 52.05400 29.08700
H  36.42600 51.23400 30.44900
H  37.10100 49.61000 30.13200
H  36.28900 50.48000 32.48900
H  36.40000 48.78700 32.18500
H  34.84600 55.69000 24.66500
H  34.76800 54.66900 26.14200
H  33.46700 54.61200 24.98800
H  33.86700 55.47800 22.23400
H  34.94000 56.06900 20.97000
H  35.58600 56.07000 22.52100
H  38.27200 49.75400 20.29000
H  38.18400 46.95400 20.75900
H  35.61800 48.87900 19.69700
H  36.67700 47.62000 19.18400
H  36.93600 49.27700 18.62400
H  40.21300 47.36600 22.06000
H  39.85600 49.11300 22.16300
H  39.80400 48.60400 19.48100
H  41.29400 47.72700 20.01900
H  40.99500 49.51000 20.37100
H  38.07400 43.94400 24.10100
H  37.17700 43.12800 25.41900
H  38.82700 43.79100 25.65300
H  36.96300 47.16900 29.83600
H  34.01000 44.13800 31.09300
H  33.21800 45.64700 31.37000
H  34.28600 44.99800 32.58000
Mg 27.11500 50.27400 25.46500
C  25.09100 51.45900 28.17200
C  29.25300 49.05600 27.71300
C  29.27600 49.70700 22.93500
C  25.05400 52.12100 23.34700
N  27.13500 50.16000 27.72900
C  26.17000 50.72000 28.64400
C  26.52800 50.24300 30.03200
C  28.03600 49.71800 29.87300
C  28.17800 49.61400 28.32900
C  29.09000 50.70200 30.48300
C  25.50500 49.12000 30.49900
C  25.04700 49.29500 31.98300
H  25.87900 49.99700 33.04300
N  28.99700 49.40300 25.35400
C  29.72200 48.94100 26.39800
C  31.04600 48.49100 25.90500
C  31.04900 48.62800 24.47800
C  29.75800 49.34700 24.20900
C  31.97000 47.76200 26.78800
C  32.08300 48.21000 23.43900
O  31.92000 48.48900 22.26100
C  33.37200 47.44800 23.81600
N  27.22900 50.94000 23.42200
C  28.17200 50.47400 22.52300
C  27.80700 50.74800 21.03700
C  26.39700 51.30000 21.20700
C  26.15400 51.46500 22.75100
C  28.91900 51.64200 20.28500
C  25.32400 50.34600 20.48100
C  24.75700 51.01500 19.25100
N  25.42600 51.52900 25.65300
C  24.67100 52.18100 24.70700
C  23.52000 52.85900 25.32200
C  23.69700 52.64100 26.69800
C  24.84300 51.79300 26.84100
C  22.39700 53.63600 24.55900
C  23.15900 52.95100 27.96800
O  22.06300 53.52600 28.17800
C  23.98800 52.15000 28.94300
C  24.39400 53.01800 30.00400
O  25.36700 53.75100 30.02900
O  23.52600 52.78800 31.06700
C  23.83400 53.39900 32.38900
H  30.02400 48.75600 28.42500
H  29.82500 49.57700 22.00000
H  24.31100 52.49800 22.64100
H  26.50600 51.11700 30.68400
H  28.07400 48.78600 30.43800
H  29.41400 50.30000 31.44200
H  28.66200 51.67200 30.73600
H  29.93500 50.71900 29.79400
H  25.97000 48.14500 30.35000
H  24.59200 49.22700 29.91300
H  24.88100 48.35300 32.50600
H  24.06900 49.77400 31.93400
H  31.74300 47.65000 27.84900
H  32.93000 48.27300 26.71200
H  32.15100 46.77000 26.37400
H  33.08000 46.43000 24.07500
H  33.93900 47.87800 24.64100
H  33.97800 47.27600 22.92600
H  27.76500 49.77300 20.55100
H  26.34500 52.32300 20.83600
H  28.53600 52.65900 20.20200
H  29.18300 51.21600 19.31700
H  29.85600 51.73300 20.83500
H  24.46100 50.28200 21.14500
H  25.57200 49.34700 20.12300
H  25.31300 51.90900 18.96900
H  23.84300 51.43400 19.67400
H  24.55500 50.43200 18.35300
H  22.64300 53.86000 23.52100
H  22.45500 54.57700 25.10600
H  21.50900 53.00700 24.61800
H  23.44100 51.32700 29.40200
H  24.80000 53.04700 32.75100
H  22.99500 53.10700 33.02100
H  23.83700 54.48800 32.34200

