158

Mg 47.19400 25.92000 27.62200
C  48.50500 27.84200 30.09300
C  46.50400 23.50000 29.87000
C  46.12100 23.97700 25.09500
C  48.31000 28.24700 25.17600
N  47.46400 25.70800 29.71800
C  47.96500 26.64100 30.56400
C  47.75200 26.24600 32.05000
C  47.11300 24.90900 31.98100
C  46.98800 24.65700 30.42500
C  47.85200 23.80200 32.66600
C  46.91300 27.30500 32.85600
C  47.32800 27.41200 34.41400
H  46.16000 27.62700 35.39200
N  46.26900 24.05100 27.53700
C  46.18700 23.17700 28.53900
C  45.59700 21.92700 28.09400
C  45.34900 22.11600 26.70700
C  45.93900 23.44600 26.35900
C  45.33200 20.72600 28.98400
C  44.63100 21.19000 25.71000
O  44.70700 21.25800 24.49800
C  43.91600 20.01800 26.17300
N  47.33400 26.07500 25.41800
C  46.70300 25.11100 24.56500
C  46.70400 25.54700 23.16200
C  47.24800 27.04900 23.25500
C  47.66000 27.17200 24.67100
C  47.52800 24.59800 22.30700
C  46.31600 28.20500 22.81700
C  46.90200 29.11800 21.69400
N  48.32100 27.59600 27.59100
C  48.60000 28.43700 26.50600
C  49.34700 29.54000 27.06700
C  49.27200 29.43500 28.47700
C  48.66600 28.22100 28.72500
C  49.91700 30.58700 26.22200
C  49.69300 30.02200 29.76800
O  50.19700 31.11700 30.04600
C  49.16400 28.91400 30.86300
C  50.23800 28.52300 31.78700
O  51.07800 27.64500 31.59000
O  49.99400 29.10300 33.05900
C  50.82700 28.54700 34.16400
H  46.26800 22.77100 30.64900
H  45.55700 23.35700 24.39500
H  48.59700 29.02700 24.46700
H  48.72600 26.25400 32.54000
H  46.12100 24.87100 32.43100
H  48.64000 24.31700 33.21400
H  48.18600 23.04000 31.96100
H  47.20600 23.23500 33.33700
H  45.83200 27.17400 32.81800
H  46.92100 28.32500 32.47200
H  47.74600 28.41400 34.32000
H  48.04800 26.70200 34.82100
H  44.28300 20.43000 28.98800
H  45.67900 20.84100 30.01000
H  45.89700 19.87900 28.59200
H  44.64700 19.23600 26.37800
H  43.27000 19.50400 25.46100
H  43.21700 20.32900 26.94900
H  45.66200 25.46900 22.85100
H  48.16500 27.02300 22.66600
H  47.79600 23.69300 22.85100
H  48.40000 25.00100 21.79100
H  46.81500 24.26900 21.55100
H  46.13700 28.80000 23.71300
H  45.34800 27.87200 22.44400
H  46.07700 29.18800 20.98500
H  47.67000 28.57100 21.14700
H  47.04800 30.17400 21.92100
H  49.28300 30.79800 25.36000
H  50.86600 30.17300 25.88200
H  50.17400 31.33700 26.97000
H  48.39400 29.36200 31.49100
H  50.24300 28.16000 34.99900
H  51.33300 29.42300 34.57000
H  51.58800 27.81300 33.89900
Mg -10.60500 38.74000 42.16000
C  -8.66700 36.00500 41.34700
C  -8.28800 40.83600 40.42800
C  -12.84600 41.31000 42.33900
C  -13.15400 36.55000 43.21500
N  -8.72200 38.44600 40.99800
C  -8.14200 37.22600 40.81100
C  -6.81500 37.31500 40.03600
C  -6.54200 38.88800 40.09600
C  -7.96100 39.46200 40.54300
C  -5.44500 39.26800 41.18200
C  -6.93500 36.70900 38.55800
C  -5.86800 35.70900 38.15900
H  -4.85800 36.14700 37.07400
N  -10.47300 40.87200 41.56600
C  -9.41700 41.51800 40.96100
C  -9.74300 42.94100 40.99500
C  -11.11100 43.11400 41.46500
C  -11.52400 41.71400 41.83200
C  -8.77900 43.98500 40.58300
C  -11.88900 44.43200 41.58200
O  -11.20100 45.43400 41.42800
C  -13.32900 44.45500 41.93800
N  -12.75200 38.88700 42.45100
C  -13.36200 40.06400 42.61700
C  -14.75700 39.94500 43.23200
C  -14.91600 38.38500 43.23400
C  -13.49400 37.88900 42.99500
C  -14.84500 40.70200 44.56300
C  -15.83400 37.65000 42.15000
C  -17.14000 36.87300 42.65600
N  -10.88300 36.69500 42.28500
C  -11.93100 35.89100 42.80100
C  -11.56000 34.51100 42.94200
C  -10.21600 34.49100 42.41600
C  -9.88500 35.85200 42.05100
C  -12.31900 33.46600 43.64900
C  -9.08300 33.69900 42.15500
O  -8.85200 32.48600 42.30200
C  -7.99100 34.68400 41.42800
C  -6.74700 34.64600 42.21500
O  -6.03100 33.67100 42.18200
O  -6.39700 35.79100 42.91800
C  -5.20300 35.70500 43.82700
H  -7.46900 41.44400 40.03800
H  -13.67000 42.00100 42.53200
H  -13.91500 35.93500 43.70000
H  -6.02400 36.72600 40.50000
H  -6.38500 39.33500 39.11500
H  -5.86600 39.51400 42.15700
H  -4.88000 40.11200 40.78600
H  -4.82500 38.39100 41.36900
H  -6.89600 37.58100 37.90600
H  -7.90100 36.24900 38.35200
H  -6.41600 34.83700 37.80200
H  -5.30400 35.52500 39.07300
H  -9.06100 44.46500 39.64500
H  -7.76800 43.59000 40.48400
H  -8.66900 44.80300 41.29400
H  -13.48800 44.18000 42.98100
H  -13.72600 43.62000 41.36100
H  -13.89200 45.33700 41.63400
H  -15.46500 40.35100 42.51000
H  -15.27700 37.98400 44.18100
H  -15.10600 41.73600 44.33800
H  -13.89300 40.56800 45.07800
H  -15.67700 40.33900 45.16500
H  -15.24100 37.00400 41.50300
H  -16.15700 38.42900 41.46000
H  -17.04600 36.87300 43.74200
H  -17.23400 35.86000 42.26500
H  -18.00100 37.47300 42.36000
H  -11.65600 32.82900 44.23500
H  -12.78000 32.90000 42.83900
H  -13.15900 33.70600 44.30100
H  -7.87900 34.37800 40.38700
H  -4.29400 35.98000 43.29300
H  -5.05300 34.83900 44.47200
H  -5.55900 36.40800 44.57900

