158

Mg 0.93700 8.60600 27.20700
C  1.56200 10.73900 29.91900
C  0.46400 6.00600 29.39300
C  0.21800 6.69200 24.51300
C  1.59000 11.20900 25.09100
N  1.17300 8.37800 29.44700
C  1.24500 9.42000 30.32400
C  1.03700 8.92400 31.77500
C  0.90400 7.34300 31.64900
C  0.79600 7.20400 30.12500
C  2.23800 6.48600 32.06700
C  -0.24600 9.52100 32.50500
C  -0.77300 8.93800 33.86800
H  0.17100 8.49400 34.93700
N  0.42500 6.60200 27.01500
C  0.31600 5.70800 28.01200
C  -0.12600 4.40000 27.48600
C  -0.05600 4.54900 26.02600
C  0.20800 6.01200 25.80400
C  -0.44700 3.20600 28.41700
C  -0.23500 3.49100 25.04000
O  -0.13100 3.71200 23.83900
C  -0.58800 2.04200 25.46300
N  0.98400 8.92600 25.08500
C  0.52400 8.03900 24.20600
C  0.60200 8.44400 22.73500
C  0.81200 9.94100 22.96600
C  1.24800 10.05000 24.42000
C  1.66300 7.72300 21.82900
C  -0.38900 10.76900 22.62600
C  -0.06600 12.15400 22.05200
N  1.58000 10.58400 27.39100
C  1.85200 11.54100 26.44800
C  2.10600 12.79700 27.09200
C  2.03900 12.51500 28.46100
C  1.73200 11.18800 28.59200
C  2.53600 14.02100 26.42300
C  2.18300 13.09200 29.79100
O  2.58100 14.22100 30.10900
C  1.74900 11.99800 30.77700
C  2.69900 11.86100 31.94300
O  3.80100 11.38600 31.93200
O  2.09700 12.45800 33.05900
C  2.85500 12.26200 34.35100
H  0.48400 5.11200 30.02000
H  -0.02000 6.11400 23.61800
H  1.65500 12.07700 24.43200
H  1.89300 9.23000 32.37500
H  0.03000 7.01900 32.21300
H  2.07800 5.90100 32.97300
H  3.02200 7.16200 32.40700
H  2.55700 5.75200 31.32600
H  -1.08500 9.30300 31.84500
H  -0.09800 10.59600 32.61700
H  -1.39600 8.08400 33.60000
H  -1.51700 9.59400 34.31900
H  -0.98000 2.40000 27.91200
H  -1.10200 3.67500 29.15200
H  0.55100 2.95100 28.77200
H  -0.58800 1.42900 24.56200
H  -1.59600 2.06300 25.87900
H  0.16300 1.70900 26.17900
H  -0.33700 8.18000 22.24800
H  1.62900 10.34100 22.36500
H  1.31300 7.29000 20.89200
H  2.07100 6.92700 22.45100
H  2.36500 8.50500 21.54100
H  -0.93700 10.95200 23.55100
H  -1.14600 10.38600 21.94100
H  -0.19900 12.25600 20.97500
H  0.92000 12.46400 22.39700
H  -0.72900 12.90400 22.48500
H  1.71100 14.61400 26.02800
H  3.14600 13.67600 25.58800
H  3.10500 14.65100 27.10700
H  0.76000 12.28600 31.13300
H  3.14800 13.16900 34.88000
H  3.81600 11.74900 34.36200
H  2.17100 11.75500 35.03200
Mg -5.38100 25.85600 26.43100
C  -3.89900 27.03100 29.40600
C  -7.34000 23.83700 28.26100
C  -6.21200 24.35300 23.55600
C  -3.08800 27.77700 24.63800
N  -5.52700 25.41700 28.62100
C  -4.90100 26.09000 29.61200
C  -5.52100 25.67700 30.90800
C  -6.46800 24.55000 30.56300
C  -6.49300 24.60500 29.08400
C  -6.03100 23.11100 31.04200
C  -6.13100 26.87600 31.70800
C  -5.84200 26.98600 33.25200
H  -5.29100 25.65400 33.92800
N  -6.64900 24.37100 25.92500
C  -7.48500 23.77500 26.84100
C  -8.39300 22.91000 26.16400
C  -8.13000 23.02300 24.78700
C  -6.91300 23.95000 24.67200
C  -9.24800 21.97800 26.89300
C  -8.77300 22.39400 23.62700
O  -8.46000 22.58500 22.45700
C  -9.94600 21.44400 23.82400
N  -4.74300 26.06400 24.47400
C  -5.21700 25.33200 23.39300
C  -4.39400 25.42500 22.13800
C  -3.69500 26.82900 22.44900
C  -3.81400 26.94400 23.98300
C  -3.36700 24.33800 21.90600
C  -4.32100 28.08700 21.74000
C  -3.81100 28.46000 20.33400
N  -3.89900 27.25700 26.88100
C  -2.99400 27.95800 26.05900
C  -2.16800 28.89100 26.87100
C  -2.54000 28.51400 28.15600
C  -3.49400 27.53500 28.17100
C  -1.23100 29.91900 26.40700
C  -2.20100 28.70000 29.56700
O  -1.35300 29.49500 30.01600
C  -3.11500 27.88800 30.43100
C  -2.25900 27.14900 31.36100
O  -1.63600 26.15500 31.01000
O  -2.28200 27.77900 32.58300
C  -1.64400 27.01700 33.63800
H  -8.04000 23.20300 28.81100
H  -6.43600 23.84400 22.61600
H  -2.43400 28.48500 24.12500
H  -4.60600 25.41300 31.43800
H  -7.42500 24.60800 31.08100
H  -5.32600 23.08900 31.87400
H  -5.40000 22.74500 30.23200
H  -6.97200 22.58600 31.20600
H  -7.21700 26.83500 31.62500
H  -5.78600 27.77800 31.20300
H  -6.81000 27.11100 33.73800
H  -5.17800 27.80600 33.52400
H  -10.13200 21.61200 26.37200
H  -9.76000 22.51400 27.69200
H  -8.76600 21.13000 27.38000
H  -9.53700 20.57900 24.34500
H  -10.35700 20.95800 22.93900
H  -10.72900 21.97600 24.36500
H  -4.93700 25.62800 21.21500
H  -2.64800 26.68500 22.18100
H  -3.81000 23.43500 21.48500
H  -2.87800 24.08000 22.84500
H  -2.57300 24.55300 21.19100
H  -4.36700 28.92500 22.43500
H  -5.38800 27.89200 21.63000
H  -3.78500 27.65000 19.60400
H  -2.76200 28.69900 20.51000
H  -4.21100 29.34000 19.83100
H  -1.56200 30.86500 25.97700
H  -0.58400 29.41300 25.69100
H  -0.66900 30.16500 27.30800
H  -3.68900 28.66100 30.94200
H  -2.02800 27.47500 34.55000
H  -0.57300 27.08700 33.44800
H  -1.89400 25.95700 33.67400

