158

Mg 17.15500 -0.72200 28.37300
C  16.17100 1.03300 31.06500
C  19.38900 -2.41700 30.26700
C  18.39000 -2.11100 25.56500
C  15.26400 1.49500 26.33000
N  17.61600 -0.69600 30.45400
C  16.92200 -0.05900 31.39300
C  17.22000 -0.53400 32.86000
C  18.38100 -1.55800 32.58200
C  18.47200 -1.59600 31.02400
C  19.65400 -1.41800 33.49300
C  15.99500 -0.97000 33.65600
C  15.59000 -0.25200 34.98500
H  16.81600 -0.03900 35.92100
N  18.62300 -2.14700 28.00200
C  19.50500 -2.71700 28.90500
C  20.38700 -3.61300 28.20900
C  20.08900 -3.54000 26.84600
C  18.93500 -2.58600 26.73400
C  21.27800 -4.55700 28.98900
C  20.76600 -4.25000 25.69300
O  20.44100 -4.14300 24.52100
C  21.91300 -5.17300 25.87600
N  16.96700 -0.29600 26.16100
C  17.49500 -1.10900 25.21300
C  17.19900 -0.56300 23.78800
C  16.00800 0.38900 24.06500
C  16.05200 0.57400 25.61300
C  18.44300 0.00800 23.01600
C  14.62200 -0.01700 23.37200
C  13.57600 -0.67700 24.26200
N  15.89300 0.87200 28.63500
C  15.09800 1.60000 27.71400
C  14.37400 2.58800 28.45000
C  14.72200 2.35000 29.77900
C  15.72100 1.31700 29.85600
C  13.27600 3.57600 28.04100
C  14.48500 2.87400 31.10500
O  13.72900 3.68800 31.56500
C  15.46900 1.98500 32.05800
C  16.43300 2.84100 32.74700
O  17.44300 3.27600 32.25600
O  15.95900 3.14400 34.07100
C  16.68200 4.09800 34.87800
H  20.06100 -3.00200 30.89800
H  18.85900 -2.51800 24.66600
H  14.58500 2.06900 25.69600
H  17.63100 0.33500 33.37400
H  18.07100 -2.53800 32.94400
H  19.48700 -0.48400 34.03000
H  20.65200 -1.29600 33.07300
H  19.78500 -2.19700 34.24400
H  16.05100 -2.01800 33.95000
H  15.13800 -0.84300 32.99400
H  14.97100 -0.94500 35.55400
H  14.97800 0.64300 34.88000
H  21.33600 -5.55500 28.55400
H  20.92700 -4.61800 30.01900
H  22.33900 -4.30600 29.00500
H  22.53100 -4.71400 26.64800
H  22.46500 -5.32800 24.94900
H  21.55500 -6.14900 26.20300
H  16.81500 -1.34000 23.12800
H  16.20300 1.37000 23.63300
H  18.18400 0.99600 22.63400
H  18.62700 -0.73600 22.24100
H  19.35400 0.09000 23.60900
H  14.77500 -0.73300 22.56500
H  14.34400 0.96300 22.98500
H  14.10800 -1.09400 25.11800
H  13.16200 -1.53100 23.72600
H  12.77300 0.03400 24.45400
H  13.74200 4.44600 27.57800
H  12.67400 3.83800 28.91000
H  12.78800 3.07700 27.20400
H  14.90300 1.33700 32.72700
H  16.06500 4.95600 34.60900
H  17.71100 4.16100 34.52300
H  16.67600 3.74300 35.90800
Mg 9.27400 48.37800 25.25300
C  7.05900 49.12400 27.96600
C  11.98400 48.98700 27.28000
C  11.13300 47.97100 22.62000
C  6.29700 48.16200 23.11000
N  9.44700 49.03000 27.31200
C  8.44800 49.13500 28.28400
C  9.06800 49.37500 29.63400
C  10.58200 49.37600 29.39300
C  10.70500 49.08500 27.87400
C  11.30500 50.75200 29.72700
C  8.61500 48.32400 30.77800
C  9.42800 48.14200 32.05800
H  8.63600 47.79500 33.30100
N  11.23300 48.49300 25.00100
C  12.23200 48.76200 25.91700
C  13.51800 48.71000 25.32900
C  13.31800 48.31100 23.94800
C  11.82800 48.26200 23.78200
C  14.75200 49.00000 26.10300
C  14.38800 48.17200 22.77900
O  14.05700 47.95200 21.63000
C  15.86200 48.23000 23.01000
N  8.80100 48.13900 23.09400
C  9.78500 47.89900 22.26700
C  9.24100 47.51500 20.89800
C  7.72000 47.47500 21.09200
C  7.55000 47.94700 22.48900
C  9.67600 48.33600 19.66800
C  6.83000 46.23200 20.79400
C  5.39900 46.45300 20.31000
N  7.03900 48.56000 25.46200
C  5.99600 48.45600 24.52600
C  4.78400 48.67800 25.19200
C  5.14000 49.01300 26.51300
C  6.52800 48.91000 26.64300
C  3.39600 48.58100 24.58300
C  4.58700 49.34500 27.73800
O  3.40300 49.58500 27.96900
C  5.82700 49.50400 28.81300
C  5.49800 48.34100 29.74500
O  5.68400 47.16200 29.45600
O  4.98800 48.89100 30.87100
C  4.74100 47.90500 31.93200
H  12.79400 49.18500 27.98600
H  11.68400 47.87400 21.68300
H  5.37700 48.09300 22.52500
H  8.69500 50.34300 29.96700
H  11.18000 48.69300 29.99600
H  12.16400 50.63600 30.38800
H  10.53200 51.36300 30.19200
H  11.74600 51.23700 28.85600
H  8.52000 47.37100 30.25800
H  7.60900 48.62200 31.07300
H  10.00400 49.06100 32.16500
H  10.16800 47.37300 31.83600
H  15.12400 48.18300 26.72100
H  14.69800 49.87500 26.75100
H  15.57300 49.33300 25.46900
H  16.20900 49.20800 23.34400
H  16.35300 47.97700 22.07000
H  16.17600 47.45700 23.71100
H  9.59700 46.51100 20.67000
H  7.28000 48.31200 20.55000
H  8.98200 49.12800 19.38500
H  9.72300 47.55800 18.90500
H  10.59300 48.84900 19.95600
H  6.70300 45.75400 21.76600
H  7.39500 45.48000 20.24300
H  5.23400 47.49500 20.03700
H  4.71600 46.16800 21.11000
H  5.21200 45.85100 19.42100
H  3.28200 49.49000 23.99200
H  2.66500 48.48100 25.38600
H  3.42100 47.73100 23.90100
H  5.72400 50.49100 29.26500
H  5.38100 47.02500 31.86400
H  3.70300 47.57200 31.94600
H  5.07500 48.46800 32.80400

