158

Mg 29.93000 59.65100 39.43800
C  27.42100 57.26500 38.43800
C  32.31300 57.29300 38.51800
C  32.20400 62.10300 39.76600
C  27.28300 62.08000 39.48900
N  29.87300 57.47600 38.61800
C  28.74800 56.70200 38.32100
C  29.12100 55.35000 37.71700
C  30.61300 55.28000 38.26900
C  30.98200 56.79200 38.41600
C  30.82300 54.38700 39.51800
C  28.94100 55.27700 36.12000
C  27.78000 54.41300 35.49500
H  26.90100 55.07800 34.46000
N  31.94500 59.71100 39.16700
C  32.78300 58.64100 38.72000
C  34.21700 59.13400 38.64100
C  34.19900 60.49900 39.21200
C  32.76300 60.86400 39.39000
C  35.30400 58.24200 38.25000
C  35.47600 61.30400 39.48700
O  36.61800 60.86700 39.24100
C  35.42900 62.68200 40.11200
N  29.72700 61.69800 39.72200
C  30.83700 62.48400 39.87200
C  30.41400 63.96700 40.08800
C  28.86400 63.90600 39.96200
C  28.60200 62.41800 39.80100
C  31.07200 64.79700 41.32400
C  28.29000 64.80500 38.83200
C  27.20300 65.80000 39.19300
N  27.74000 59.71100 39.22100
C  26.89600 60.77800 39.30500
C  25.56900 60.23900 39.06800
C  25.70300 58.92300 38.76800
C  27.04000 58.60500 38.79300
C  24.30300 61.02900 39.06300
C  24.98300 57.66600 38.42800
O  23.83200 57.38400 38.25800
C  26.04900 56.59600 38.11500
C  25.84300 55.38700 38.94700
O  25.92200 55.34600 40.18000
O  25.30000 54.33900 38.18100
C  24.84800 53.23100 38.94500
H  33.00400 56.49800 38.22800
H  32.82700 62.98600 39.92000
H  26.53500 62.87300 39.42500
H  28.47500 54.69900 38.30700
H  31.39900 54.94000 37.59500
H  30.54000 53.34800 39.35200
H  30.14500 54.66200 40.32600
H  31.83800 54.46000 39.91000
H  29.91200 54.86300 35.84800
H  28.87400 56.31000 35.77900
H  27.15900 54.02100 36.30000
H  28.17100 53.51800 35.01300
H  35.63300 58.46000 37.23400
H  34.93900 57.21900 38.34600
H  36.12400 58.13400 38.96100
H  34.71500 62.59300 40.93200
H  35.14100 63.46600 39.41200
H  36.41000 62.90600 40.53200
H  30.82500 64.45500 39.20400
H  28.41300 64.13800 40.92600
H  31.37600 64.03900 42.04600
H  30.23900 65.36800 41.73400
H  31.99500 65.30900 41.05100
H  27.90700 64.09500 38.09900
H  29.08400 65.29100 38.26500
H  27.57900 66.80600 39.00900
H  27.04700 65.83700 40.27200
H  26.26000 65.61800 38.67700
H  24.34200 61.71700 38.21800
H  24.11200 61.54600 40.00400
H  23.37100 60.48900 38.90000
H  26.08800 56.23500 37.08700
H  24.82000 52.32600 38.33700
H  23.85900 53.44400 39.35000
H  25.40800 52.87100 39.80800
Mg 17.11700 52.40000 26.38800
C  19.10900 50.81500 28.79100
C  14.93300 53.37200 28.92400
C  15.07300 53.79700 24.07400
C  19.19700 51.06500 23.85000
N  17.02600 52.09600 28.52900
C  18.00500 51.55100 29.32200
C  17.78400 51.78100 30.86700
C  16.28400 52.13100 30.84500
C  16.02700 52.56300 29.34300
C  15.39100 51.06700 31.32700
C  18.62900 52.94600 31.39400
C  19.28400 52.65100 32.75900
H  18.36200 52.07100 33.91800
N  15.32300 53.48800 26.47800
C  14.66400 53.80500 27.60500
C  13.50800 54.62700 27.37800
C  13.61500 54.87500 25.95900
C  14.69100 54.03600 25.39500
C  12.53800 55.23800 28.37900
C  12.78800 55.84300 25.25800
O  12.77800 55.94500 24.04900
C  11.88500 56.84800 25.95400
N  17.11600 52.34800 24.35300
C  16.23200 53.06600 23.57600
C  16.38200 52.94300 22.08400
C  17.82000 52.25100 22.04000
C  18.10900 51.92300 23.52200
C  15.25500 52.15200 21.34100
C  18.99900 53.15000 21.30800
C  20.03200 52.45400 20.40800
N  18.84800 51.15700 26.26600
C  19.56300 50.71300 25.18600
C  20.66400 49.90600 25.72600
C  20.53100 49.89600 27.12400
C  19.39400 50.64400 27.39300
C  21.81600 49.21200 24.93200
C  21.13800 49.50100 28.34800
O  22.17400 48.95000 28.62600
C  20.24500 50.21200 29.49100
C  19.81800 49.22400 30.48100
O  18.82600 48.44600 30.38300
O  20.53700 49.44000 31.63700
C  20.00200 48.63000 32.79800
H  14.35200 53.70000 29.78800
H  14.51300 54.36000 23.32500
H  19.70900 50.67400 22.96800
H  17.96000 50.87700 31.45100
H  16.11300 52.96500 31.52600
H  14.61300 51.38700 32.02000
H  16.02900 50.48500 31.99100
H  14.96200 50.47300 30.52100
H  17.95400 53.80100 31.37900
H  19.52700 53.10300 30.79600
H  19.70100 53.60200 33.08900
H  20.10100 51.93400 32.67400
H  12.91800 56.23600 28.59800
H  12.48700 54.62200 29.27600
H  11.48200 55.24100 28.10600
H  10.98600 56.30500 26.24700
H  11.67800 57.58500 25.17700
H  12.41200 57.36300 26.75700
H  16.27400 53.93900 21.65500
H  17.62100 51.28500 21.57600
H  15.73300 51.71600 20.46500
H  14.56300 52.96900 21.13200
H  14.67100 51.46700 21.95600
H  19.57400 53.65900 22.08100
H  18.54300 53.91700 20.68200
H  19.77100 52.40800 19.35100
H  20.24200 51.49500 20.88000
H  21.04000 52.85200 20.52300
H  21.61900 49.39500 23.87600
H  21.74700 48.14800 25.16200
H  22.75400 49.69600 25.20200
H  20.92400 50.91700 29.97100
H  20.25000 47.60100 32.53800
H  18.92800 48.68200 32.97700
H  20.59100 48.92200 33.66700

