158

Mg 35.61600 2.25900 30.19200
C  33.31200 3.25600 32.51100
C  38.05100 2.62400 32.80700
C  38.05900 1.31900 28.06900
C  33.50200 2.73300 27.71700
N  35.65800 2.99600 32.41400
C  34.54800 3.12100 33.13800
C  34.86500 3.15200 34.64000
C  36.36000 3.18800 34.61200
C  36.75500 2.85600 33.21900
C  36.98600 4.56900 35.13400
C  34.19100 1.95000 35.45100
C  33.69500 2.38700 36.86200
H  34.43500 3.47200 37.62800
N  37.75200 1.96900 30.39100
C  38.50900 2.14400 31.55600
C  39.84600 1.86300 31.18900
C  39.96700 1.49700 29.78600
C  38.56500 1.52300 29.36500
C  41.06000 2.04900 32.11100
C  41.10800 1.04800 28.89200
O  40.91600 0.63600 27.76200
C  42.59200 1.05400 29.40200
N  35.84400 2.29700 28.15200
C  36.85200 1.65200 27.53000
C  36.54500 1.43700 26.04300
C  34.97900 1.56700 25.95200
C  34.71800 2.25500 27.32400
C  37.18300 2.47500 25.01900
C  34.27600 0.12600 25.97200
C  32.99600 0.07700 25.14700
N  33.71400 2.81700 30.13200
C  32.96800 3.01800 28.98300
C  31.61900 3.40100 29.38400
C  31.63700 3.40500 30.80600
C  33.03000 3.18100 31.16700
C  30.47600 3.52600 28.49300
C  30.87200 3.63700 31.97600
O  29.69600 3.98300 32.23000
C  31.96800 3.60800 33.15300
C  32.05400 5.00100 33.76700
O  32.52600 5.98100 33.22300
O  31.41000 4.97100 34.99100
C  31.45300 6.26300 35.80500
H  38.76800 2.70700 33.62600
H  38.71500 0.93000 27.28600
H  32.73600 2.76300 26.93900
H  34.43300 4.08100 35.01200
H  36.64700 2.36400 35.26600
H  36.18500 5.30700 35.18500
H  37.80500 4.84000 34.46700
H  37.31800 4.30400 36.13800
H  34.82900 1.07500 35.57900
H  33.28100 1.54200 35.01200
H  33.76600 1.58200 37.59300
H  32.64500 2.67500 36.82800
H  41.59500 1.11900 32.30100
H  40.68200 2.54600 33.00500
H  41.72200 2.78600 31.65500
H  42.62300 0.39000 30.26500
H  42.76500 2.03300 29.84900
H  43.26100 0.79900 28.58100
H  36.76000 0.38100 25.88300
H  34.62500 2.09200 25.06400
H  36.61800 2.65200 24.10400
H  38.15600 2.04000 24.79100
H  37.37300 3.41600 25.53600
H  34.13900 -0.22000 26.99600
H  34.97400 -0.56000 25.49200
H  32.74400 1.06100 24.75100
H  32.20600 -0.34200 25.77100
H  33.07600 -0.60400 24.30000
H  30.16200 2.57400 28.06200
H  30.66400 4.29900 27.74900
H  29.70800 3.89100 29.17500
H  31.79000 2.83900 33.90400
H  30.56600 6.25600 36.43800
H  31.41700 7.03500 35.03600
H  32.41400 6.24500 36.31900
Mg -5.84800 25.32900 26.44300
C  -4.80200 26.72500 29.66300
C  -7.68200 22.97500 28.27600
C  -6.52400 23.98500 23.57100
C  -3.52400 27.54600 25.10300
N  -6.18800 24.96200 28.66500
C  -5.72200 25.67200 29.80200
C  -6.29800 25.10000 31.04900
C  -6.92400 23.70500 30.54400
C  -6.93100 23.91400 29.07100
C  -6.09800 22.43500 30.99300
C  -7.03900 26.02100 31.96200
C  -6.91500 25.88800 33.54800
H  -6.19900 24.60100 34.05500
N  -6.88500 23.75400 26.00000
C  -7.70300 22.95000 26.87100
C  -8.46400 22.05600 26.07000
C  -8.22100 22.34600 24.74700
C  -7.17900 23.39800 24.68600
C  -9.30700 20.94700 26.71000
C  -8.79800 21.73200 23.49000
O  -8.43800 22.07300 22.38400
C  -9.87200 20.72900 23.59800
N  -5.10600 25.70400 24.66900
C  -5.60900 25.06600 23.58800
C  -5.00000 25.61600 22.24200
C  -4.04900 26.73700 22.83100
C  -4.16200 26.62300 24.31600
C  -4.21800 24.63400 21.34000
C  -4.17200 28.19300 22.20200
C  -3.24100 28.45600 20.99100
N  -4.49600 26.93200 27.18100
C  -3.65700 27.71200 26.46200
C  -2.92000 28.69200 27.32600
C  -3.39000 28.30900 28.58900
C  -4.29000 27.26400 28.49000
C  -2.04400 29.78600 26.88400
C  -3.31900 28.72200 29.99200
O  -2.83100 29.67200 30.55800
C  -4.24800 27.70000 30.70600
C  -3.48700 26.89000 31.64000
O  -2.81300 25.92700 31.35800
O  -3.58300 27.44600 32.93500
C  -2.75500 26.94400 33.95400
H  -8.24800 22.31700 28.93900
H  -6.75000 23.53300 22.60300
H  -2.77300 28.17500 24.62100
H  -5.34700 24.85400 31.52200
H  -7.90800 23.56000 30.98900
H  -5.19800 22.71900 31.53800
H  -5.67400 21.95000 30.11400
H  -6.83800 21.85700 31.54500
H  -8.11500 25.86300 31.88300
H  -6.87900 27.03800 31.60300
H  -7.93100 26.05000 33.90800
H  -6.40900 26.77400 33.93100
H  -10.34500 20.89900 26.37800
H  -9.44700 21.16000 27.76900
H  -8.80400 20.00000 26.51300
H  -9.36000 19.79900 23.84300
H  -10.34300 20.55800 22.63000
H  -10.65500 21.12300 24.24600
H  -5.73400 26.11500 21.60900
H  -3.06200 26.34300 22.59200
H  -3.78300 23.79100 21.87700
H  -3.41000 25.19100 20.86600
H  -4.84400 24.26500 20.52700
H  -3.97300 28.95100 22.96100
H  -5.22200 28.36400 21.96700
H  -2.41000 29.12200 21.22600
H  -3.65600 28.89800 20.08500
H  -2.81500 27.47600 20.77500
H  -1.08500 29.53800 26.42700
H  -1.87000 30.37200 27.78600
H  -2.56200 30.45400 26.19600
H  -5.08800 28.10100 31.27300
H  -3.33000 26.25300 34.57100
H  -2.45300 27.75300 34.61900
H  -1.89000 26.40900 33.56300

