158

Mg 47.64000 26.43800 28.15800
C  48.87700 28.50700 30.82100
C  46.42000 24.27300 30.52300
C  47.08900 24.21100 25.74000
C  49.41700 28.52100 25.93600
N  47.72300 26.41600 30.46000
C  48.15700 27.36500 31.35200
C  47.70600 27.08500 32.80700
C  47.08400 25.65600 32.64400
C  47.02900 25.42400 31.10100
C  47.84600 24.54500 33.52500
C  46.64400 28.11700 33.25500
C  45.68200 27.64400 34.44300
H  45.50700 28.52100 35.64200
N  46.89000 24.46000 28.11900
C  46.45900 23.77700 29.23500
C  46.09800 22.44600 28.82200
C  46.30500 22.36200 27.39100
C  46.78200 23.68800 27.00500
C  45.61800 21.41100 29.84000
C  46.22300 21.13700 26.44400
O  46.55400 21.26400 25.26500
C  45.78700 19.79900 26.91800
N  48.07400 26.44300 26.11800
C  47.58600 25.46500 25.34500
C  47.83700 25.88400 23.83800
C  48.65700 27.24300 23.90500
C  48.71200 27.48000 25.37800
C  48.56300 24.91800 22.82500
C  47.99000 28.36500 23.14900
C  48.91600 29.44500 22.54800
N  48.85100 28.21200 28.30300
C  49.51500 28.87400 27.29300
C  50.30600 29.90500 27.84000
C  50.02400 29.89200 29.23000
C  49.16700 28.76200 29.48300
C  51.26500 30.81300 27.08900
C  50.29400 30.55900 30.42000
O  51.06900 31.50600 30.66700
C  49.40000 29.77300 31.48400
C  50.33300 29.35200 32.57900
O  51.23600 28.58500 32.42000
O  50.06500 30.06800 33.69000
C  51.13600 29.93200 34.73100
H  45.98200 23.64800 31.30500
H  46.91100 23.51500 24.91800
H  50.18900 28.95700 25.30000
H  48.61700 27.08400 33.40500
H  46.06300 25.72100 33.02100
H  48.58400 25.08600 34.11600
H  48.36500 23.82400 32.89400
H  47.12200 24.06000 34.18000
H  46.12900 28.41800 32.34300
H  47.20200 29.01700 33.51400
H  46.04000 26.72700 34.91000
H  44.65500 27.55500 34.08600
H  44.54000 21.29300 29.73700
H  45.81000 21.59600 30.89700
H  46.02500 20.42900 29.59600
H  46.60900 19.47000 27.55400
H  45.68900 19.23200 25.99200
H  44.87100 19.79400 27.50900
H  46.82000 26.16400 23.56100
H  49.68600 27.14400 23.55900
H  47.81600 24.56900 22.11200
H  48.95600 24.14300 23.48200
H  49.28500 25.44700 22.20300
H  47.36500 28.87700 23.88100
H  47.31500 27.95800 22.39600
H  48.70900 30.47400 22.84100
H  48.84800 29.38500 21.46200
H  49.96000 29.23000 22.77700
H  51.56500 31.51400 27.86900
H  50.83700 31.25000 26.18700
H  52.14400 30.21000 26.86200
H  48.61400 30.48000 31.75000
H  52.11800 29.89200 34.26000
H  51.00100 29.06800 35.38200
H  51.07500 30.75700 35.44100
Mg 17.58200 53.05400 26.58300
C  19.47400 51.30000 29.00600
C  14.97300 53.26800 28.90500
C  15.63000 54.33400 24.24100
C  19.88000 52.00200 24.15800
N  17.36000 52.40400 28.69200
C  18.36400 51.95600 29.53400
C  17.93300 52.00500 31.01100
C  16.38500 52.27500 30.86700
C  16.26200 52.73100 29.40500
C  15.39400 51.12600 31.25700
C  18.71600 53.06600 31.77500
C  18.60900 53.35400 33.33700
H  17.82200 52.33600 34.12300
N  15.62200 53.96200 26.61700
C  14.75200 53.96300 27.66900
C  13.55000 54.57800 27.23300
C  13.68700 54.89600 25.87500
C  15.01000 54.44000 25.52400
C  12.34500 54.76200 28.18200
C  12.71400 55.60300 24.96600
O  12.99600 55.95500 23.77200
C  11.38000 56.02000 25.42300
N  17.68100 53.16300 24.45900
C  16.78800 53.76800 23.74900
C  17.19400 53.75900 22.22100
C  18.58100 53.15600 22.26000
C  18.76600 52.71800 23.69900
C  16.18000 52.92100 21.33500
C  19.74100 54.12200 21.82700
C  20.32600 55.19500 22.83600
N  19.24900 51.67800 26.55500
C  20.15100 51.47400 25.48100
C  21.23500 50.65000 25.94800
C  21.03300 50.49300 27.33800
C  19.82800 51.25700 27.68100
C  22.36100 50.13000 25.08600
C  21.61400 49.94400 28.55400
O  22.61300 49.27800 28.72500
C  20.53100 50.47900 29.71200
C  20.09600 49.24800 30.44600
O  19.51900 48.24800 29.93600
O  20.38100 49.37900 31.74300
C  20.06100 48.34700 32.74300
H  14.12900 53.16800 29.58900
H  15.25300 54.96700 23.43600
H  20.58600 51.85900 23.33800
H  18.13200 51.01100 31.41100
H  16.05000 53.18400 31.36600
H  15.04300 50.61400 30.36100
H  14.53200 51.59500 31.73200
H  15.83500 50.43400 31.97400
H  18.39400 53.98900 31.29200
H  19.77200 52.86200 31.59700
H  18.23500 54.36000 33.52800
H  19.67100 53.27600 33.57000
H  12.01100 55.79000 28.04200
H  12.65400 54.50200 29.19400
H  11.58100 54.06600 27.83500
H  10.89200 55.13000 25.82000
H  10.90500 56.36100 24.50300
H  11.44600 56.85900 26.11600
H  17.31500 54.80300 21.93300
H  18.79500 52.30000 21.62000
H  16.62100 52.14100 20.71500
H  15.67400 53.60300 20.65200
H  15.35200 52.49600 21.90200
H  19.38300 54.77100 21.02700
H  20.47700 53.46700 21.36100
H  20.08600 54.96400 23.87400
H  19.95000 56.21200 22.72400
H  21.40900 55.18600 22.70700
H  22.00100 49.17900 24.69400
H  23.27800 49.99800 25.66200
H  22.61400 50.84000 24.30000
H  21.11300 51.06400 30.42500
H  20.85900 47.61000 32.82800
H  19.11700 47.88200 32.45900
H  19.93300 48.99500 33.61000

