158

Mg 26.89600 50.39800 26.73900
C  24.64300 51.43700 29.22700
C  29.31900 49.71900 29.25600
C  29.24300 49.92100 24.24200
C  24.64600 51.41000 24.32300
N  26.98700 50.74000 29.01200
C  25.88800 50.89300 29.79500
C  26.19300 50.62600 31.25800
C  27.67200 50.10200 31.24400
C  28.04800 50.16100 29.73700
C  28.63800 50.84000 32.16800
C  25.17800 49.68300 31.88900
C  24.64000 49.97800 33.31200
H  24.72700 48.96400 34.42700
N  28.92900 49.88600 26.73300
C  29.71300 49.58600 27.86700
C  31.00000 49.08800 27.43700
C  31.06500 49.24600 26.01100
C  29.73900 49.72600 25.56500
C  32.02800 48.71400 28.48600
C  32.19000 48.86300 25.09500
O  32.13800 49.03400 23.87300
C  33.50000 48.19200 25.60200
N  26.97800 50.69000 24.60100
C  27.95600 50.23800 23.77500
C  27.60500 50.42000 22.27100
C  26.05100 50.63900 22.38100
C  25.87600 50.97100 23.87000
C  28.42200 51.60100 21.60800
C  25.16700 49.47600 21.90100
C  24.11700 49.84000 20.83400
N  25.12200 51.38300 26.71500
C  24.29000 51.67000 25.67300
C  23.11700 52.32000 26.10500
C  23.19500 52.19700 27.51900
C  24.38300 51.56000 27.83900
C  21.96900 52.96400 25.26900
C  22.44400 52.46000 28.76100
O  21.35000 53.02800 28.90100
C  23.39700 51.95400 29.97100
C  23.79200 53.10400 30.74400
O  24.14500 54.16900 30.34700
O  23.75300 52.79800 32.03500
C  24.33800 53.83700 32.96400
H  29.88600 49.30200 30.09200
H  29.97200 49.75200 23.44700
H  24.02200 51.73500 23.48800
H  26.07000 51.53200 31.85100
H  27.59300 49.05300 31.52900
H  28.56600 50.55500 33.21800
H  28.22600 51.84200 32.28600
H  29.63300 51.04400 31.77300
H  25.71600 48.74600 32.02600
H  24.31300 49.59800 31.23000
H  23.57200 50.16300 33.19900
H  24.97500 50.94500 33.68700
H  32.77200 49.50900 28.43400
H  32.37500 47.69900 28.28700
H  31.63100 48.66400 29.49900
H  34.09600 49.01200 26.00200
H  33.85900 47.70800 24.69400
H  33.24800 47.39000 26.29600
H  27.85700 49.51900 21.71300
H  25.83300 51.59500 21.90600
H  28.98400 51.23800 20.74800
H  29.12800 51.82700 22.40700
H  27.68000 52.35800 21.35700
H  24.73400 48.96300 22.76000
H  25.84300 48.78700 21.39500
H  24.53400 49.80000 19.82800
H  23.77900 50.86900 20.95500
H  23.17600 49.29300 20.89200
H  21.13500 53.13800 25.94900
H  21.51100 52.16600 24.68300
H  22.22800 53.85500 24.69700
H  22.84500 51.24200 30.58500
H  24.76300 53.22600 33.76100
H  23.60300 54.50800 33.41000
H  25.11500 54.54700 32.68200
Mg 17.17200 51.50800 25.95200
C  18.93200 50.16300 28.66400
C  14.70700 52.53600 28.24400
C  15.40100 52.51200 23.38900
C  19.74900 50.38700 23.85000
N  16.82500 51.31500 28.22600
C  17.71100 50.76000 29.09200
C  17.26000 51.05900 30.56200
C  15.82700 51.72300 30.38000
C  15.80300 51.86500 28.85100
C  14.60600 50.96700 30.95800
C  18.28400 51.90600 31.39200
C  18.57600 51.36400 32.78900
H  17.84100 51.98200 33.89500
N  15.41100 52.32800 25.85100
C  14.48700 52.71200 26.84600
C  13.27600 53.23400 26.23000
C  13.46400 53.26600 24.82000
C  14.80400 52.63900 24.65500
C  12.14800 53.88800 26.95200
C  12.51300 53.82900 23.71900
O  12.92500 53.94300 22.56200
C  11.13900 54.33300 23.96900
N  17.45700 51.27700 23.84800
C  16.58500 51.94200 23.03600
C  17.07300 51.83500 21.59000
C  18.48500 51.18900 21.75600
C  18.61800 50.86700 23.19300
C  16.02500 51.13000 20.71900
C  19.50900 52.15800 20.97900
C  20.82500 51.51700 20.47400
N  18.89400 50.45000 26.11700
C  19.86600 50.07300 25.24000
C  21.00400 49.41500 25.87100
C  20.60800 49.48500 27.21500
C  19.40500 50.09600 27.34600
C  22.21100 48.77600 25.17000
C  21.11900 49.20700 28.59200
O  22.14700 48.64900 28.98400
C  20.05800 49.73100 29.52200
C  19.73500 48.60900 30.34300
O  19.10800 47.61000 29.95600
O  20.30300 48.82700 31.58400
C  20.11200 47.67800 32.47800
H  14.00900 53.01500 28.93400
H  14.91900 52.90400 22.49100
H  20.64200 50.13200 23.27400
H  17.17000 50.08600 31.04500
H  15.87000 52.72100 30.81800
H  13.98400 51.66300 31.52100
H  15.05100 50.27200 31.66900
H  14.15900 50.35300 30.17600
H  17.86600 52.89200 31.59400
H  19.21600 52.09300 30.85800
H  19.58600 51.59600 33.12600
H  18.53500 50.27600 32.75500
H  11.20600 53.43200 26.64500
H  12.05600 54.94800 26.71700
H  12.23100 53.80600 28.03600
H  10.74900 54.66300 23.00600
H  11.35800 55.23300 24.54400
H  10.48700 53.60000 24.44400
H  17.15200 52.83400 21.16300
H  18.60200 50.20600 21.30000
H  16.26400 50.15700 20.28900
H  15.66000 51.86200 19.99900
H  15.20700 50.88500 21.39700
H  19.71800 52.98500 21.65800
H  19.05900 52.40800 20.01800
H  20.71000 51.46400 19.39100
H  21.08600 50.57200 20.95100
H  21.57700 52.25600 20.75200
H  22.47600 47.98800 25.87500
H  23.02900 49.49000 25.25500
H  22.22400 48.45100 24.13000
H  20.58700 50.52100 30.05400
H  20.51400 46.72600 32.13100
H  19.04000 47.54900 32.62500
H  20.55900 47.75200 33.46900

