158

Mg 40.36700 8.89900 29.86800
C  42.12500 10.26600 32.70900
C  38.00100 7.75700 32.05500
C  38.94900 7.40600 27.31000
C  43.12900 9.92200 27.83500
N  40.11400 8.98300 32.05100
C  40.87600 9.68400 33.00300
C  40.32800 9.45800 34.37200
C  39.00700 8.64200 34.21300
C  39.05000 8.44100 32.68700
C  38.87200 7.30400 34.99700
C  40.14400 10.76500 35.24000
C  39.43600 10.52200 36.64100
H  40.34200 10.42200 37.95000
N  38.59500 7.84500 29.69200
C  37.75900 7.51900 30.68200
C  36.69200 6.80600 30.13600
C  36.92400 6.64000 28.73500
C  38.18100 7.27300 28.50400
C  35.48500 6.35000 30.96200
C  36.16700 5.87100 27.71700
O  36.64000 5.60500 26.62900
C  34.74000 5.48200 28.02500
N  41.10000 8.57900 27.92900
C  40.25700 8.00800 27.01900
C  40.90400 7.98700 25.59500
C  42.20400 8.80300 25.79100
C  42.14200 9.16700 27.28400
C  41.16500 6.46800 25.07800
C  42.20700 10.01300 24.76700
C  41.21800 11.14800 24.95500
N  42.23300 9.93900 30.16100
C  43.21300 10.29200 29.22700
C  44.21800 11.08100 29.99600
C  43.86100 11.05400 31.33200
C  42.64200 10.36200 31.42800
C  45.36600 11.73600 29.29700
C  44.30000 11.41000 32.67100
O  45.25900 12.07500 32.95800
C  43.19200 10.93500 33.69700
C  43.71400 9.95000 34.64300
O  43.90700 8.76500 34.40700
O  43.88400 10.56300 35.88100
C  44.46700 9.65700 36.92900
H  37.19600 7.46500 32.73400
H  38.52200 7.07600 26.36100
H  43.97800 10.26300 27.23900
H  41.02900 8.75400 34.82300
H  38.20500 9.36900 34.34400
H  39.67900 7.28000 35.73000
H  39.21300 6.45100 34.41200
H  37.88400 7.15300 35.43100
H  39.57200 11.55200 34.74900
H  41.12500 11.16800 35.49300
H  38.85400 9.60400 36.54800
H  38.75200 11.37100 36.66400
H  34.67000 6.77700 30.37900
H  35.39000 6.73000 31.97900
H  35.43000 5.26100 30.94700
H  34.63000 4.98700 28.99000
H  34.49100 4.70400 27.30400
H  34.11700 6.34400 27.78600
H  40.40200 8.55300 24.81100
H  43.09200 8.17800 25.70500
H  42.16700 6.24500 24.71200
H  40.48600 6.22100 24.26200
H  41.01700 5.70200 25.83800
H  42.07200 9.61100 23.76300
H  43.18900 10.48500 24.72900
H  40.37400 10.91100 25.60300
H  40.88700 11.58800 24.01500
H  41.72000 12.00100 25.41200
H  45.85400 12.50900 29.89100
H  45.07400 12.18400 28.34800
H  46.08000 10.97700 28.97600
H  42.85500 11.89900 34.07900
H  45.41000 10.07800 37.27700
H  44.76800 8.68300 36.54200
H  43.76100 9.47400 37.74000
Mg 46.93000 16.33100 28.92500
C  44.78600 15.69500 31.56600
C  49.09600 17.62200 31.25700
C  49.01700 17.06600 26.43500
C  44.61300 15.02700 26.74300
N  46.71600 16.90800 31.06400
C  45.90700 16.33500 31.91900
C  46.18300 16.77100 33.37600
C  47.43000 17.73000 33.19400
C  47.82800 17.41900 31.73700
C  47.19600 19.25800 33.37700
C  46.53600 15.48700 34.19800
C  46.02100 15.50400 35.66400
H  46.04100 16.85300 36.36300
N  48.78700 17.22100 28.84300
C  49.56200 17.55900 29.91700
C  50.90300 17.74500 29.47900
C  50.95100 17.55300 28.01200
C  49.55800 17.23800 27.66700
C  52.06900 17.99400 30.39100
C  52.12800 17.73400 27.05700
O  51.98100 17.56500 25.86000
C  53.42500 18.31300 27.48100
N  46.82300 15.91000 26.82800
C  47.74400 16.49300 25.98800
C  47.26500 16.48900 24.53700
C  45.93200 15.62200 24.68100
C  45.74900 15.47500 26.14600
C  47.04100 17.94500 24.07600
C  46.08000 14.25100 23.93700
C  44.81400 13.80700 23.24700
N  45.04400 15.48900 29.04200
C  44.28700 14.94500 28.11100
C  43.11600 14.35900 28.74900
C  43.22000 14.63900 30.11700
C  44.45300 15.31800 30.24000
C  41.87800 13.75800 28.10000
C  42.61600 14.53400 31.45200
O  41.56700 14.05400 31.74700
C  43.63100 15.15200 32.43000
C  42.99900 16.12600 33.39700
O  42.86100 17.33800 33.12400
O  42.52500 15.48600 34.52100
C  41.78300 16.35800 35.44200
H  49.83200 17.92800 32.00400
H  49.70500 17.48500 25.69700
H  43.93800 14.59600 26.00000
H  45.37500 17.41300 33.72700
H  48.22500 17.48100 33.89700
H  46.17500 19.49100 33.68100
H  47.39100 19.88400 32.50600
H  47.83000 19.58700 34.20100
H  47.59700 15.24500 34.13500
H  46.06800 14.61600 33.74000
H  46.71500 14.85800 36.20000
H  45.04400 15.02500 35.59500
H  53.04400 18.23500 29.96700
H  52.21200 17.13400 31.04500
H  51.69000 18.85600 30.94000
H  54.02500 18.44100 26.58000
H  54.00500 17.74600 28.20900
H  53.22200 19.31200 27.86600
H  48.04700 16.03400 23.92900
H  45.08900 16.15600 24.24400
H  46.31800 17.96000 23.26000
H  48.02900 18.25400 23.73300
H  46.82600 18.64000 24.88800
H  46.54100 13.57100 24.65300
H  46.80200 14.48300 23.15400
H  44.77500 14.18400 22.22500
H  43.85600 14.02100 23.72000
H  44.82000 12.72500 23.11600
H  41.50500 14.28800 27.22400
H  41.08800 13.76900 28.85000
H  42.18400 12.73800 27.86700
H  44.02600 14.44200 33.15600
H  40.91800 16.73900 34.89800
H  42.46600 16.99700 36.00200
H  41.35600 15.64700 36.14900

