158

Mg 16.83400 -1.97400 27.42700
C  16.13000 0.36500 30.05600
C  18.83000 -3.71800 29.63500
C  18.14000 -3.69500 24.78200
C  15.44600 0.40600 25.25000
N  17.48800 -1.63400 29.63800
C  16.90200 -0.75100 30.54200
C  17.28100 -1.16300 31.94900
C  18.17800 -2.43600 31.79900
C  18.17900 -2.61500 30.28600
C  19.53500 -2.53500 32.57800
C  15.98800 -1.49900 32.72400
C  15.93700 -1.32300 34.27800
H  17.24900 -0.76500 34.91000
N  17.99800 -3.61700 27.26600
C  18.71900 -4.22600 28.27500
C  19.33700 -5.49500 27.87200
C  19.08900 -5.49100 26.40300
C  18.38000 -4.19800 26.08800
C  20.06900 -6.56200 28.79700
C  19.51700 -6.60800 25.42000
O  19.21500 -6.55000 24.22400
C  20.15100 -7.79700 25.91500
N  16.80200 -1.66800 25.35200
C  17.42100 -2.51700 24.45500
C  17.28600 -2.09000 22.90600
C  16.48900 -0.75400 23.15600
C  16.16100 -0.64100 24.67300
C  18.68800 -1.85900 22.16100
C  15.18500 -0.45600 22.30900
C  13.97800 -1.33300 22.66000
N  15.91000 0.00200 27.55200
C  15.36200 0.78500 26.56700
C  14.75900 1.96800 27.15700
C  15.03600 1.86100 28.53400
C  15.75500 0.63000 28.74700
C  14.03600 3.06500 26.46900
C  14.90600 2.43200 29.86200
O  14.47200 3.54100 30.17600
C  15.51700 1.46800 30.86100
C  16.47300 2.14400 31.87200
O  17.67400 2.38000 31.72000
O  15.78700 2.57500 32.97400
C  16.46300 3.49100 33.86200
H  19.32400 -4.29500 30.42000
H  18.56400 -4.25500 23.94600
H  15.05400 1.17100 24.57700
H  17.87700 -0.32100 32.30000
H  17.70500 -3.26800 32.32100
H  19.50500 -3.08500 33.51900
H  19.72800 -1.50800 32.88600
H  20.34200 -2.92800 31.95900
H  15.72900 -2.55300 32.62800
H  15.16000 -0.95400 32.27000
H  15.78900 -2.28700 34.76400
H  15.13900 -0.66600 34.62400
H  19.64100 -7.56500 28.79600
H  20.03000 -6.31000 29.85700
H  21.12000 -6.56100 28.50900
H  21.17600 -7.65800 26.25900
H  20.43200 -8.44200 25.08300
H  19.45100 -8.29800 26.58400
H  16.59400 -2.69000 22.31600
H  17.14200 0.07600 22.88700
H  19.05800 -0.83500 22.11000
H  18.71400 -2.19300 21.12400
H  19.51000 -2.40500 22.62500
H  15.35200 -0.46700 21.23200
H  14.95600 0.58000 22.55900
H  13.23000 -0.66700 23.09100
H  14.09800 -2.13700 23.38500
H  13.60200 -1.66100 21.69100
H  13.71700 2.70400 25.49200
H  14.71000 3.91300 26.35000
H  13.16300 3.25400 27.09500
H  14.68800 1.03100 31.41700
H  16.84900 4.29900 33.24100
H  17.30200 3.03500 34.38800
H  15.71200 3.94100 34.51200
Mg 41.73400 7.45400 30.19800
C  43.41600 8.78500 32.78800
C  39.42500 6.06400 32.34500
C  40.31400 5.70900 27.58600
C  44.70100 7.66500 28.32000
N  41.48700 7.34000 32.32000
C  42.21300 8.13000 33.20600
C  41.62100 8.04400 34.62700
C  40.42300 7.04200 34.50700
C  40.46300 6.77700 32.95500
C  40.59400 5.73000 35.28400
C  41.16500 9.43400 35.09800
C  40.77200 9.49900 36.54300
H  41.52000 10.53900 37.45700
N  40.05900 6.22800 30.00700
C  39.25500 5.77500 31.01800
C  38.17800 4.96300 30.44200
C  38.39800 4.86100 29.04000
C  39.65300 5.65100 28.83700
C  37.27300 4.18300 31.26500
C  37.49500 4.20900 27.98600
O  37.73900 4.21800 26.80400
C  36.17100 3.59900 28.47400
N  42.45000 6.71900 28.26300
C  41.65400 6.14100 27.36400
C  42.26700 6.05100 25.94800
C  43.60000 6.76900 26.14900
C  43.60900 7.03100 27.70400
C  42.27900 4.56000 25.47900
C  43.78600 7.99700 25.30800
C  42.81100 9.19500 25.53100
N  43.57500 8.23200 30.41500
C  44.62000 8.28400 29.54900
C  45.65200 9.13400 30.18900
C  45.18300 9.46800 31.44900
C  43.99100 8.79100 31.55100
C  46.94600 9.62700 29.67500
C  45.52900 10.06500 32.75100
O  46.52300 10.72100 33.05900
C  44.26200 9.63500 33.61600
C  44.74900 9.02100 34.79300
O  45.23200 7.91500 34.84600
O  44.82600 10.02200 35.75700
C  45.71000 9.83300 36.91500
H  38.61900 5.75600 33.01400
H  39.88900 5.13200 26.76200
H  45.61200 7.83800 27.74300
H  42.41800 7.72400 35.30000
H  39.62000 7.64200 34.93500
H  40.99300 5.00700 34.57200
H  39.57900 5.44200 35.55600
H  41.31500 5.82900 36.09500
H  40.32500 9.71400 34.46200
H  41.98600 10.11100 34.86200
H  40.87600 8.56400 37.09400
H  39.69500 9.64600 36.62400
H  37.47900 4.17700 32.33500
H  37.15300 3.13700 30.98100
H  36.32700 4.71000 31.14200
H  35.69300 4.21900 29.23300
H  36.42600 2.63300 28.90800
H  35.56800 3.49100 27.57300
H  41.50900 6.56300 25.35500
H  44.38400 6.13500 25.73500
H  41.32200 4.19800 25.10400
H  42.49100 3.92700 26.34100
H  43.05300 4.39300 24.73000
H  43.86400 7.59400 24.29800
H  44.77900 8.36800 25.56300
H  42.14800 9.22000 26.39500
H  42.06500 9.26200 24.74000
H  43.52300 10.00900 25.66700
H  46.95200 9.75600 28.59200
H  47.67600 8.91000 30.04900
H  47.17900 10.62200 30.05300
H  43.72800 10.57200 33.77300
H  45.17600 9.87000 37.86400
H  46.31600 10.73100 37.04400
H  46.37500 8.97200 36.84300

