158

Mg 16.57300 -1.57300 28.01000
C  15.59200 0.31100 30.67300
C  18.34700 -3.55400 30.10900
C  17.87200 -2.96400 25.24900
C  14.75000 0.54900 25.83600
N  16.89600 -1.65800 30.14800
C  16.38100 -0.83700 31.05300
C  16.93200 -1.11600 32.47900
C  17.79200 -2.38100 32.28800
C  17.66400 -2.59600 30.75500
C  19.27100 -2.13100 32.65600
C  15.97500 -1.34200 33.68300
C  16.36900 -0.85600 35.10300
H  17.83300 -0.99900 35.52000
N  18.00900 -2.96200 27.75400
C  18.56200 -3.76600 28.72100
C  19.28800 -4.79500 28.13300
C  19.18500 -4.60700 26.70000
C  18.31700 -3.44400 26.48200
C  19.87100 -5.97100 28.97800
C  19.75700 -5.48800 25.61100
O  19.62700 -5.28800 24.38800
C  20.73100 -6.53600 26.06300
N  16.39500 -1.21900 25.85200
C  16.94100 -2.02000 24.94100
C  16.53900 -1.74400 23.47600
C  15.70800 -0.39100 23.70900
C  15.55300 -0.38300 25.24300
C  17.67900 -1.40400 22.48600
C  14.42000 -0.39200 22.95200
C  13.31700 -1.40000 23.42900
N  15.29800 0.02000 28.16100
C  14.68500 0.83200 27.24800
C  14.09800 2.00000 27.87400
C  14.41800 1.87200 29.22000
C  15.14200 0.68500 29.32100
C  13.36700 3.09900 27.17700
C  14.35800 2.46500 30.44200
O  13.78200 3.44800 30.82600
C  15.04200 1.52400 31.49100
C  16.21900 2.18800 32.19800
O  17.23600 2.50100 31.57500
O  15.82300 2.41300 33.45600
C  16.70500 3.32400 34.15300
H  18.85100 -4.32800 30.69100
H  18.30800 -3.42900 24.36200
H  14.20400 1.18100 25.13200
H  17.43000 -0.18400 32.74700
H  17.49800 -3.29600 32.80100
H  19.52500 -1.16700 33.09800
H  20.03700 -2.23500 31.88700
H  19.47500 -2.86000 33.44000
H  15.84800 -2.42100 33.77800
H  15.03800 -0.83000 33.46900
H  15.83700 -1.50700 35.79700
H  15.95500 0.11600 35.37100
H  20.92400 -6.10900 28.73100
H  19.39300 -6.94300 28.85200
H  19.90000 -5.68700 30.03000
H  21.61000 -6.12800 26.56300
H  21.01700 -6.97700 25.10800
H  20.30300 -7.40400 26.56500
H  15.85800 -2.47600 23.04400
H  16.30800 0.47400 23.42700
H  17.29300 -1.49900 21.47100
H  18.33200 -2.26400 22.63400
H  18.09100 -0.40300 22.61700
H  14.71800 -0.53400 21.91300
H  14.02500 0.61400 23.09200
H  12.55200 -1.00500 24.09700
H  13.82600 -2.22900 23.92200
H  12.77800 -1.86500 22.60400
H  12.29000 2.97800 27.29700
H  13.51300 3.20400 26.10200
H  13.70700 4.00200 27.68400
H  14.26400 1.25800 32.20700
H  16.06200 4.06000 34.63700
H  17.37400 3.85200 33.47300
H  17.21800 2.76500 34.93500
Mg 16.47600 51.83400 26.60100
C  18.32600 50.24200 29.08100
C  14.00600 52.46000 28.83900
C  14.53600 52.83400 23.96700
C  18.91300 50.82500 24.22700
N  16.24100 51.36700 28.61500
C  17.09800 50.75300 29.50000
C  16.64900 50.96000 30.99200
C  15.14700 51.25300 30.80100
C  15.10900 51.74000 29.36000
C  14.15100 50.17400 31.12000
C  17.38500 52.11200 31.81500
C  18.00600 51.78500 33.24600
H  17.08800 51.04000 34.27100
N  14.56000 52.62800 26.47500
C  13.72400 52.90700 27.53700
C  12.65800 53.71500 27.02100
C  12.82400 53.88200 25.59100
C  14.02200 53.10700 25.26200
C  11.56400 54.39700 27.92700
C  12.11400 54.84500 24.59100
O  12.50500 54.93100 23.44000
C  10.96000 55.68600 25.10200
N  16.63700 51.58100 24.43500
C  15.74600 52.21500 23.63200
C  16.23300 52.31300 22.17700
C  17.72300 51.92900 22.30900
C  17.76500 51.33800 23.69300
C  15.34600 51.44200 21.21100
C  18.82400 52.91200 21.81800
C  20.01300 52.33700 21.11500
N  18.18400 50.76400 26.59600
C  19.07600 50.50700 25.58300
C  20.24900 49.87400 26.18100
C  20.02100 49.81700 27.56000
C  18.74800 50.32700 27.70200
C  21.46400 49.54900 25.36900
C  20.64500 49.46400 28.80900
O  21.80700 49.13200 29.18200
C  19.43200 49.56100 29.85500
C  19.12000 48.15000 30.28700
O  18.39800 47.33300 29.74700
O  19.79400 47.97000 31.44400
C  19.51000 46.69800 32.06900
H  13.37000 52.86400 29.62900
H  13.85500 53.08100 23.15000
H  19.75300 50.76600 23.53000
H  16.76600 50.02000 31.52900
H  14.94400 52.12300 31.42600
H  13.52900 49.97200 30.24800
H  13.44000 50.45900 31.89500
H  14.57800 49.19300 31.33200
H  16.73900 52.98800 31.86800
H  18.15000 52.38600 31.08800
H  18.33000 52.70000 33.74000
H  18.93300 51.21200 33.25700
H  11.86000 55.42000 28.16100
H  11.40400 53.91400 28.89100
H  10.62000 54.43300 27.38400
H  10.13500 55.04800 25.41800
H  10.59500 56.29500 24.27500
H  11.39600 56.33300 25.86300
H  16.16600 53.29400 21.70700
H  17.80200 51.01500 21.72100
H  15.94100 50.82500 20.53800
H  14.69800 52.13100 20.66900
H  14.77000 50.73600 21.80900
H  19.23700 53.38600 22.70800
H  18.32800 53.74400 21.31700
H  20.28300 52.81800 20.17500
H  19.91900 51.28700 20.83900
H  20.80900 52.47200 21.84800
H  22.21700 49.27100 26.10600
H  21.84400 50.50500 25.00800
H  21.31700 48.84000 24.55400
H  19.73200 50.13300 30.73300
H  18.48300 46.39900 31.86200
H  19.47000 46.86700 33.14500
H  20.23100 45.90400 31.87100

