158

Mg 46.67200 25.02700 27.78200
C  47.89600 26.97200 30.57700
C  45.65400 22.72700 29.95300
C  45.66400 23.32300 25.12300
C  47.65700 27.55900 25.83100
N  46.76100 24.95200 30.03100
C  47.22500 25.81300 30.94700
C  46.86800 25.39900 32.45700
C  46.42900 23.95300 32.14000
C  46.25300 23.86500 30.62000
C  47.32600 22.80600 32.65000
C  45.83600 26.37800 33.15700
C  46.35300 26.96700 34.47800
H  45.36500 27.11100 35.56700
N  45.79000 23.21700 27.65400
C  45.44300 22.38700 28.63800
C  44.97400 21.20000 28.05900
C  44.90500 21.34800 26.65500
C  45.44200 22.63100 26.37700
C  44.56500 20.00000 28.88200
C  44.42900 20.34200 25.58200
O  44.54100 20.50000 24.40100
C  43.95400 18.92800 25.99300
N  46.91200 25.27400 25.75200
C  46.35900 24.46100 24.85100
C  46.50300 24.96600 23.36500
C  46.99800 26.44100 23.57900
C  47.26600 26.42000 25.13800
C  47.49600 23.99200 22.48300
C  46.08300 27.65400 23.15500
C  46.77900 28.72100 22.33300
N  47.65300 26.79600 28.09300
C  47.99800 27.71900 27.14900
C  48.64200 28.84300 27.71700
C  48.62600 28.68200 29.07100
C  48.03700 27.33900 29.25200
C  49.30500 29.92200 26.96700
C  49.01300 29.20300 30.37800
O  49.53000 30.24600 30.71300
C  48.54400 28.13000 31.41400
C  49.59700 27.58900 32.40100
O  50.34200 26.66800 32.15400
O  49.58400 28.34000 33.58400
C  50.53200 27.92700 34.66500
H  45.13000 21.99800 30.57400
H  45.35200 22.68300 24.29500
H  47.70700 28.45100 25.20300
H  47.82500 25.27100 32.96200
H  45.51300 23.71000 32.68000
H  48.32000 23.22600 32.80100
H  47.25700 21.95200 31.97600
H  47.05800 22.57200 33.68000
H  44.89500 25.88500 33.40300
H  45.58700 27.20100 32.48800
H  46.90000 27.89000 34.28900
H  47.16400 26.27500 34.70300
H  43.51500 19.77700 28.69700
H  44.62900 20.19200 29.95300
H  45.25900 19.20200 28.61800
H  42.97400 18.89500 26.46800
H  44.71400 18.49400 26.64200
H  43.79800 18.31800 25.10400
H  45.56100 24.94700 22.81600
H  48.01900 26.58000 23.22300
H  47.29700 24.23800 21.44000
H  47.21900 22.96400 22.71700
H  48.53300 24.20500 22.74300
H  45.60000 28.25900 23.92200
H  45.28000 27.14500 22.62100
H  46.19300 28.98400 21.45200
H  47.72400 28.35900 21.92800
H  47.00100 29.56800 22.98200
H  50.23300 30.19300 27.47000
H  48.76300 30.84400 26.75700
H  49.43800 29.56700 25.94500
H  47.73600 28.50100 32.04500
H  50.86900 26.91100 34.45800
H  49.98100 28.06200 35.59600
H  51.43300 28.53400 34.57700
Mg 6.40300 55.59200 39.95200
C  5.58600 52.11500 39.62300
C  9.65400 54.80900 39.15300
C  6.95100 58.85500 39.84300
C  2.92600 56.15900 40.73600
N  7.43000 53.63900 39.18900
C  6.97400 52.35900 39.32300
C  8.14400 51.37300 39.19400
C  9.48200 52.24200 39.26600
C  8.79800 53.64300 39.24000
C  10.50900 52.05400 40.41400
C  8.05000 50.46800 37.90000
C  7.41100 51.29800 36.70600
H  7.12000 50.56000 35.35700
N  8.11900 56.65600 39.45100
C  9.35300 56.19800 39.24900
C  10.26100 57.29000 39.07800
C  9.54900 58.52700 39.25100
C  8.12700 58.04200 39.45800
C  11.76600 57.13800 38.99100
C  10.13900 59.91600 39.23900
O  11.38400 59.93300 39.39800
C  9.34500 61.15700 39.04900
N  4.99500 57.33800 39.92200
C  5.65100 58.50400 40.17400
C  4.60800 59.56800 40.67300
C  3.31000 58.67100 40.95800
C  3.77100 57.28300 40.52500
C  4.98000 60.42000 41.82100
C  2.04000 59.03300 40.22100
C  0.76200 59.11400 41.02200
N  4.59700 54.44700 40.15100
C  3.28600 54.79200 40.55500
C  2.54100 53.60100 40.71200
C  3.40100 52.57300 40.39300
C  4.60500 53.10600 39.99500
C  1.06900 53.43700 41.06000
C  3.47500 51.08600 40.28300
O  2.65700 50.22700 40.55600
C  4.91100 50.81200 39.89500
C  4.93500 49.84000 38.72900
O  4.71400 50.04100 37.51100
O  5.34400 48.63200 39.22900
C  5.49600 47.41600 38.38800
H  10.71100 54.60200 38.97100
H  7.16100 59.92700 39.86400
H  1.96000 56.29800 41.22600
H  8.02100 50.75400 40.08200
H  10.12300 52.23700 38.38500
H  10.11500 51.26900 41.06000
H  10.62400 52.88000 41.11600
H  11.48200 51.75100 40.02900
H  7.60100 49.50800 38.15500
H  9.07700 50.20700 37.64500
H  8.15700 52.05500 36.46600
H  6.46200 51.75600 36.98700
H  12.07900 56.10800 38.81800
H  12.23500 57.37300 39.94600
H  12.25500 57.69700 38.19300
H  10.02000 62.00000 38.90400
H  8.78800 61.40300 39.95300
H  8.79300 61.15500 38.10900
H  4.47900 60.24800 39.83000
H  3.24600 58.55100 42.03900
H  4.03900 60.73500 42.27200
H  5.41400 61.35800 41.47600
H  5.61200 59.95400 42.57800
H  1.92000 58.45000 39.30800
H  2.23900 60.05200 39.89000
H  0.11900 59.92800 40.68500
H  1.00900 59.18400 42.08200
H  0.06900 58.29600 40.82700
H  0.78300 52.45500 41.43900
H  0.62300 53.65900 40.09100
H  0.76000 54.22100 41.75200
H  5.41400 50.31200 40.72300
H  4.99100 47.58100 37.43600
H  4.96600 46.59800 38.87700
H  6.54200 47.13500 38.26900

