158

Mg 46.66400 34.71700 27.81700
C  45.20400 32.74500 30.40700
C  46.66600 37.36200 30.06000
C  47.48000 36.71400 25.29800
C  45.98900 32.18500 25.50300
N  45.99800 34.98600 29.95300
C  45.75200 33.95100 30.85700
C  45.80400 34.50300 32.30700
C  45.94600 36.06000 32.07300
C  46.23400 36.17000 30.60900
C  44.76100 36.90700 32.58000
C  47.09100 33.92600 33.05100
C  47.03400 33.64500 34.55300
H  45.98800 34.57600 35.36700
N  47.21100 36.68000 27.71400
C  47.09900 37.65800 28.74900
C  47.60700 38.97400 28.24700
C  47.87100 38.68100 26.83900
C  47.52000 37.30800 26.54800
C  47.96000 40.13200 29.17000
C  48.42000 39.65400 25.78400
O  48.60200 39.40300 24.59800
C  48.75900 41.07200 26.28800
N  46.63400 34.52100 25.70300
C  47.00800 35.48800 24.86700
C  46.99100 35.00400 23.42800
C  46.75000 33.47400 23.50300
C  46.42900 33.36700 25.02400
C  45.82700 35.73700 22.69200
C  47.89600 32.57800 22.94200
C  49.19100 32.49000 23.85300
N  45.77300 32.83600 27.90200
C  45.62100 31.98600 26.83200
C  45.09400 30.72800 27.35700
C  44.79600 31.03100 28.77900
C  45.24800 32.34300 29.05600
C  44.80400 29.42700 26.67500
C  44.23600 30.50400 30.03300
O  43.71800 29.42900 30.21300
C  44.35000 31.68600 31.08800
C  44.74700 31.30400 32.47800
O  45.78400 30.84700 32.88700
O  43.62400 31.57600 33.28000
C  43.88000 31.44900 34.74300
H  46.64800 38.17100 30.79300
H  47.65800 37.35100 24.42800
H  45.85500 31.33500 24.83000
H  44.78900 34.32800 32.66300
H  46.82500 36.39300 32.62400
H  45.22900 37.78900 33.01800
H  44.08500 36.38700 33.26000
H  44.15700 37.20400 31.72300
H  47.91300 34.64000 32.99100
H  47.28300 32.96700 32.57100
H  48.00400 33.91800 34.96700
H  46.86000 32.61400 34.86200
H  48.91400 40.60400 28.93700
H  47.93300 39.75800 30.19400
H  47.19100 40.90300 29.11800
H  49.55100 41.17100 27.03100
H  47.85000 41.50300 26.70800
H  49.11700 41.69100 25.46600
H  47.88200 35.15800 22.81900
H  45.89200 33.23600 22.87400
H  45.78300 36.80800 22.89200
H  44.85300 35.34100 22.98000
H  46.06900 35.70400 21.63000
H  48.19600 32.95300 21.96300
H  47.41500 31.60500 22.84800
H  50.04700 32.54800 23.18000
H  49.28000 31.46700 24.22000
H  49.13600 33.37100 24.49100
H  43.75400 29.17500 26.81900
H  45.47000 28.68600 27.11900
H  45.03400 29.62400 25.62800
H  43.40200 32.19500 31.26400
H  43.39200 30.55100 35.12400
H  43.37100 32.33200 35.12900
H  44.88800 31.43500 35.15800
Mg 15.63100 51.84600 25.94100
C  17.60500 50.77000 28.63900
C  13.02500 52.42300 28.10700
C  13.71800 52.66100 23.32200
C  18.24400 50.91400 23.71400
N  15.43000 51.66000 28.11000
C  16.41700 51.42100 29.04000
C  15.93200 51.77400 30.49700
C  14.34500 51.85600 30.26400
C  14.20800 51.97400 28.73800
C  13.52200 50.66900 30.81900
C  16.49600 53.10600 31.00300
C  16.42700 53.35400 32.54400
H  15.44300 52.55400 33.41600
N  13.68100 52.55900 25.71800
C  12.76700 52.61500 26.73200
C  11.45000 53.00100 26.14300
C  11.64100 53.24200 24.75200
C  13.07100 52.82900 24.55700
C  10.12600 53.14500 26.92000
C  10.74200 53.79800 23.71400
O  11.18400 54.02300 22.61700
C  9.24200 54.03000 23.98700
N  15.95000 51.83700 23.79800
C  14.96700 52.20000 22.92300
C  15.45900 52.16800 21.48700
C  16.92500 51.67300 21.56800
C  17.06800 51.47200 23.11600
C  14.61300 51.25500 20.67800
C  18.11200 52.59300 21.22800
C  19.43900 51.97100 20.58600
N  17.54700 50.93100 26.05000
C  18.48200 50.54100 25.05400
C  19.65900 49.89300 25.71900
C  19.26400 49.91200 27.11400
C  18.04700 50.61000 27.26100
C  21.00200 49.52600 25.05400
C  19.75400 49.56700 28.41300
O  20.82100 49.00500 28.82000
C  18.76700 50.24000 29.47400
C  18.40600 49.22600 30.54700
O  17.58200 48.30700 30.38700
O  19.05700 49.50900 31.71400
C  18.71600 48.59400 32.77400
H  12.25800 52.70800 28.83000
H  13.11100 52.94000 22.45900
H  19.08400 50.70100 23.05000
H  16.32400 51.04600 31.20600
H  13.93400 52.79300 30.64100
H  13.00200 50.32600 29.92400
H  12.83000 50.93500 31.61800
H  14.16800 49.87000 31.18200
H  16.01800 53.90800 30.44000
H  17.56000 53.16000 30.77200
H  16.13600 54.39400 32.69200
H  17.41000 53.10900 32.94500
H  9.81100 54.18900 26.91500
H  10.30200 52.67800 27.88900
H  9.41700 52.45700 26.46100
H  9.22500 54.93200 24.59900
H  8.79600 53.15300 24.45700
H  8.81700 54.09300 22.98600
H  15.37300 53.22500 21.23200
H  17.15500 50.74800 21.03900
H  15.16200 50.51700 20.09200
H  14.20600 51.92300 19.91900
H  13.67800 50.95700 21.15300
H  18.55400 53.05900 22.10900
H  17.67300 53.44600 20.71000
H  20.16600 51.79200 21.37900
H  19.91000 52.60500 19.83400
H  19.00900 51.03700 20.22700
H  21.83900 49.76400 25.71200
H  21.16400 50.01600 24.09500
H  21.13400 48.45500 24.89500
H  19.31500 51.11200 29.83100
H  19.00900 47.62900 32.35900
H  17.67300 48.71700 33.06500
H  19.43600 48.61000 33.59200

