158

Mg 44.84200 3.72400 46.84400
C  42.90100 6.60500 46.41300
C  42.17300 1.82300 46.00900
C  47.01500 0.99400 46.45400
C  47.71400 5.88000 46.83300
N  42.76700 4.20700 46.34700
C  42.17400 5.46400 46.25100
C  40.70800 5.37900 45.84500
C  40.42100 3.78400 46.02100
C  41.85900 3.21500 46.22200
C  39.44700 3.43200 47.24600
C  40.51000 5.82100 44.35300
C  39.47200 6.87700 44.27600
H  39.63700 7.95200 43.16700
N  44.59300 1.59800 46.35400
C  43.35800 1.03600 46.07500
C  43.60600 -0.36600 45.87400
C  44.98200 -0.63700 46.20600
C  45.60700 0.68400 46.33800
C  42.55200 -1.27600 45.35900
C  45.58400 -2.03300 46.35100
O  44.83700 -3.00700 46.25500
C  46.94900 -2.24300 46.78800
N  47.01400 3.43200 46.66300
C  47.59200 2.21200 46.61600
C  49.12400 2.31200 46.81500
C  49.33700 3.89100 46.81000
C  47.91800 4.47400 46.69200
C  49.68600 1.48900 48.02900
C  50.32600 4.28100 45.69700
C  51.55500 5.15800 46.04100
N  45.23900 5.78900 46.78300
C  46.44000 6.49600 46.80400
C  46.18100 7.94800 46.79300
C  44.76200 8.04800 46.78000
C  44.28400 6.70300 46.72400
C  47.12400 9.00200 46.46900
C  43.62200 8.90500 46.65700
O  43.59500 10.09600 46.69900
C  42.38000 8.02000 46.37000
C  41.39300 8.28700 47.45200
O  41.44600 7.85000 48.60800
O  40.31400 8.94500 46.93500
C  39.17900 9.19300 47.79200
H  41.26700 1.24000 45.83100
H  47.72500 0.16500 46.44400
H  48.46000 6.66500 46.97300
H  39.99400 5.82900 46.53500
H  39.96400 3.30100 45.15700
H  39.86300 2.77900 48.01400
H  38.59900 2.94300 46.76700
H  39.04000 4.35300 47.66200
H  40.07700 4.96200 43.84000
H  41.46100 6.15000 43.93500
H  39.47900 7.38500 45.24100
H  38.50200 6.40600 44.11300
H  42.68500 -1.73300 44.37900
H  41.55700 -0.83700 45.42300
H  42.50800 -2.03900 46.13700
H  46.97700 -3.27300 47.14400
H  47.17100 -1.56000 47.60700
H  47.51100 -2.11700 45.86200
H  49.61500 1.97800 45.90100
H  49.76700 4.21500 47.75800
H  50.09000 0.55400 47.64200
H  48.73200 1.42600 48.55200
H  50.43700 2.13100 48.49100
H  49.74200 4.82000 44.95100
H  50.86300 3.42800 45.28100
H  51.99700 4.95500 47.01700
H  51.39300 6.22000 45.86100
H  52.34400 4.79200 45.38400
H  46.87600 9.89000 47.05100
H  46.91400 9.20400 45.41900
H  48.14000 8.67500 46.69100
H  41.92600 8.40700 45.45700
H  39.13500 10.28100 47.73600
H  39.32000 8.92600 48.83900
H  38.30700 8.66500 47.40500
Mg 5.52000 54.31400 41.53800
C  4.92200 50.90900 41.07900
C  8.55600 54.05400 39.95300
C  5.61600 57.75500 41.59200
C  2.06800 54.62100 42.62500
N  6.55200 52.65100 40.54900
C  6.18500 51.32000 40.58100
C  7.30900 50.44300 40.09700
C  8.57500 51.45000 40.13600
C  7.84400 52.79500 40.17800
C  9.64300 51.21900 41.24300
C  7.03700 49.83000 38.72000
C  6.30200 50.62800 37.65500
H  5.50100 49.70800 36.67400
N  6.90800 55.67300 40.91100
C  8.10300 55.35400 40.30200
C  8.68400 56.53800 39.93400
C  7.94100 57.65200 40.47400
C  6.75700 57.04500 41.12100
C  9.96100 56.49400 39.01700
C  8.28500 59.15500 40.19200
O  9.33800 59.39100 39.62700
C  7.34900 60.33700 40.45900
N  4.06400 56.01300 42.12800
C  4.32800 57.33000 41.89700
C  3.16200 58.23400 42.19800
C  2.00700 57.18100 42.53900
C  2.73500 55.85100 42.43500
C  3.41400 59.25900 43.27200
C  0.59100 57.41700 41.83000
C  -0.67600 57.41500 42.79800
N  3.82200 53.03800 41.86200
C  2.59900 53.29200 42.32300
C  1.94300 52.01500 42.50600
C  2.81100 51.04400 42.07600
C  3.95500 51.74700 41.65200
C  0.64900 51.68300 43.08700
C  3.08700 49.67000 42.06700
O  2.47700 48.75000 42.55100
C  4.38400 49.48300 41.29500
C  3.97000 48.74700 40.11100
O  3.49800 49.28000 39.12100
O  4.12000 47.37400 40.30200
C  3.49200 46.46500 39.33100
H  9.58000 54.01200 39.57600
H  5.63300 58.84500 41.53000
H  0.97800 54.63000 42.69500
H  7.49600 49.56800 40.71900
H  9.19100 51.41600 39.23800
H  9.55400 50.28800 41.80300
H  9.76400 52.10000 41.87400
H  10.62600 51.11000 40.78700
H  6.49100 48.89100 38.81800
H  8.04900 49.54800 38.42900
H  7.11200 51.13700 37.13200
H  5.55800 51.31100 38.06500
H  10.41200 57.47900 38.89200
H  9.74800 56.07500 38.03400
H  10.76600 55.94600 39.50600
H  7.86000 61.29900 40.44100
H  7.12400 60.32000 41.52600
H  6.54300 60.33900 39.72600
H  2.92600 58.72600 41.25400
H  1.85600 57.28400 43.61400
H  3.65500 60.20800 42.79400
H  4.40600 59.18000 43.71800
H  2.55600 59.27800 43.94300
H  0.49000 56.63800 41.07500
H  0.60700 58.36800 41.29600
H  -1.50800 56.85900 42.36700
H  -1.10700 58.40800 42.91800
H  -0.30600 56.85500 43.65800
H  0.05500 51.41200 42.21400
H  0.20700 52.54600 43.58300
H  0.86800 50.91100 43.82500
H  5.11500 48.98900 41.93500
H  2.46000 46.36000 39.66800
H  4.01400 45.50800 39.33600
H  3.34600 46.74300 38.28700

