158

Mg 25.98300 0.98900 29.39800
C  27.94400 0.45900 32.30100
C  23.24700 1.51600 31.48100
C  23.98600 1.27900 26.63500
C  28.62200 0.05800 27.50800
N  25.61200 0.93200 31.60900
C  26.60000 0.74100 32.57600
C  25.96800 0.88600 33.94500
C  24.43300 1.01600 33.69700
C  24.38700 1.14500 32.20200
C  23.59400 -0.16500 34.20900
C  26.63400 2.03400 34.73000
C  27.30000 1.59300 36.03300
H  26.93600 2.28500 37.39200
N  23.94300 1.44100 29.06700
C  22.99000 1.64100 30.11700
C  21.73600 1.85100 29.48600
C  21.92400 1.67600 28.09400
C  23.30700 1.45100 27.87400
C  20.37300 1.86100 30.24800
C  20.88500 1.59600 26.99900
O  21.09600 1.28100 25.83900
C  19.49200 2.02900 27.25500
N  26.31300 0.68200 27.34200
C  25.35600 0.97900 26.38500
C  25.91100 0.58200 24.97600
C  27.44700 0.35400 25.22500
C  27.48400 0.31300 26.77500
C  25.11400 -0.54700 24.22500
C  28.33900 1.46900 24.58700
C  28.91700 2.56900 25.50900
N  27.98800 0.48100 29.76300
C  28.91700 0.10300 28.88600
C  30.06400 -0.37200 29.64300
C  29.80500 -0.14500 30.96600
C  28.49900 0.27000 30.99500
C  31.35300 -0.99500 29.13900
C  30.28100 -0.27800 32.31100
O  31.34500 -0.67000 32.71700
C  29.06700 0.12700 33.24700
C  28.72100 -0.96300 34.08400
O  27.99000 -1.87700 33.77400
O  29.48100 -0.96400 35.22400
C  29.18900 -2.05300 36.21600
H  22.36600 1.71900 32.09400
H  23.47500 1.69900 25.76600
H  29.46400 -0.15600 26.84600
H  26.15200 -0.05000 34.47100
H  24.02600 1.93600 34.11700
H  24.14900 -0.97300 34.68600
H  23.00500 -0.59600 33.39900
H  22.84800 0.23500 34.89500
H  25.97300 2.78000 35.17100
H  27.30900 2.58600 34.07500
H  28.33900 1.89900 35.90800
H  27.21100 0.50700 36.03100
H  19.79800 1.02400 29.85200
H  19.96700 2.84200 30.00100
H  20.39100 1.74500 31.33200
H  19.09500 1.19900 27.84000
H  19.02400 2.12900 26.27500
H  19.55300 3.02200 27.70000
H  25.79900 1.49400 24.39000
H  27.85300 -0.52600 24.72700
H  25.92200 -1.18300 23.86500
H  24.54200 -0.19300 23.36700
H  24.58900 -1.10300 25.00200
H  27.69700 1.99100 23.87800
H  29.10700 1.04500 23.93900
H  28.40900 2.70700 26.46400
H  28.71100 3.52100 25.02000
H  29.96500 2.27300 25.55500
H  31.99200 -1.23900 29.98800
H  31.98900 -0.30700 28.58300
H  31.25400 -1.98500 28.69400
H  29.33500 1.02400 33.80500
H  29.00600 -3.00800 35.72300
H  28.35600 -1.71400 36.83100
H  30.16300 -2.14700 36.69500
Mg 26.39400 49.78200 26.90200
C  24.48500 51.35000 29.47100
C  28.83600 49.24000 29.39200
C  28.37400 48.76600 24.52500
C  24.17800 51.35200 24.55800
N  26.50600 50.11000 29.20000
C  25.48700 50.59400 29.97700
C  25.85800 50.38900 31.45700
C  27.36600 49.99700 31.39000
C  27.67100 49.80400 29.89800
C  28.37400 50.98700 32.12700
C  24.95000 49.26300 32.24600
C  24.16100 49.80400 33.35800
H  24.06000 49.02100 34.72700
N  28.20000 48.92800 26.98300
C  29.14100 48.87400 28.04500
C  30.30500 48.27700 27.55300
C  30.20600 48.11000 26.14700
C  28.87000 48.55800 25.84000
C  31.53400 48.03000 28.40400
C  31.29900 47.84000 25.07200
O  31.16600 47.76700 23.83700
C  32.77300 47.57500 25.47300
N  26.31500 49.95000 24.82800
C  27.20800 49.30900 24.04800
C  26.90200 49.55800 22.55700
C  25.57500 50.35600 22.60400
C  25.33700 50.62200 24.12500
C  28.09100 50.29600 21.69900
C  24.39400 49.55400 22.02300
C  23.11900 50.26900 21.52400
N  24.62500 51.05500 26.93600
C  23.91100 51.67400 25.92700
C  22.69600 52.33600 26.51500
C  23.01500 52.25700 27.93600
C  24.16400 51.49300 28.10500
C  21.50800 52.83000 25.74400
C  22.52200 52.60400 29.20200
O  21.50900 53.17000 29.42600
C  23.44600 52.07700 30.31800
C  24.03700 53.18500 31.11100
O  24.68900 54.06900 30.60200
O  23.65700 53.08000 32.41500
C  24.21400 54.10600 33.36500
H  29.70700 49.22300 30.05000
H  28.95700 48.45200 23.65700
H  23.54500 51.74400 23.76000
H  25.80800 51.34500 31.97800
H  27.48600 49.02500 31.86900
H  29.08900 51.36200 31.39500
H  28.82200 50.41500 32.93900
H  27.84000 51.80700 32.60700
H  25.61600 48.51100 32.66900
H  24.41800 48.82400 31.40300
H  23.15200 49.96200 32.97700
H  24.58600 50.77400 33.61600
H  31.90000 47.03300 28.15700
H  31.32400 48.05900 29.47300
H  32.26200 48.79300 28.12900
H  33.49500 47.55200 24.65700
H  33.03700 46.74600 26.13000
H  33.03100 48.53100 25.92900
H  26.72800 48.54000 22.20900
H  25.59800 51.34400 22.14600
H  28.61400 51.06100 22.27300
H  27.57300 50.82000 20.89500
H  28.84600 49.62500 21.28900
H  24.19600 48.88500 22.86100
H  24.67100 48.89000 21.20500
H  22.79800 49.88600 20.55600
H  23.29700 51.33600 21.39000
H  22.33000 50.15200 22.26700
H  20.65500 52.43000 26.29200
H  21.42400 52.55400 24.69300
H  21.43300 53.91500 25.82400
H  22.90400 51.33100 30.89900
H  24.51800 55.03200 32.87600
H  25.11500 53.79000 33.89100
H  23.48600 54.38700 34.12700

