158

Mg 24.91500 1.29400 29.40000
C  27.15900 0.93900 32.13100
C  22.31500 1.23400 31.58600
C  23.10300 1.84000 26.69900
C  27.70500 1.15100 27.20200
N  24.77300 0.92100 31.65700
C  25.81300 1.05200 32.56800
C  25.24200 1.16300 33.98800
C  23.71500 1.12300 33.83300
C  23.54700 1.07500 32.24000
C  22.96100 -0.04800 34.57000
C  25.66100 2.46600 34.72400
C  26.09000 2.35900 36.21700
H  25.84200 3.55300 37.14300
N  23.01600 1.37900 29.17300
C  22.07800 1.39400 30.17400
C  20.81900 1.67900 29.60200
C  20.98300 1.70300 28.17300
C  22.42500 1.66700 27.95700
C  19.50700 1.92200 30.35600
C  19.95300 1.93600 27.05300
O  20.20100 1.83000 25.87400
C  18.53300 2.26000 27.43400
N  25.28200 1.29000 27.15200
C  24.37900 1.68800 26.35500
C  24.91400 2.02200 24.95700
C  26.46800 1.94500 25.14900
C  26.53000 1.48200 26.62700
C  24.39000 1.06600 23.86500
C  27.36800 3.23500 24.86600
C  26.98800 4.57400 25.39700
N  26.97100 0.87100 29.56200
C  27.94200 0.92300 28.60300
C  29.13200 0.47900 29.21000
C  28.91400 0.53700 30.63100
C  27.56200 0.80200 30.76100
C  30.45700 0.21300 28.46800
C  29.54800 0.49400 31.92900
O  30.71900 0.28200 32.13200
C  28.40900 0.73100 32.96200
C  28.43900 -0.30000 33.98200
O  28.16700 -1.50800 33.72200
O  28.96500 0.13200 35.12100
C  29.11800 -0.72600 36.29000
H  21.56500 1.39500 32.36400
H  22.46300 1.90600 25.81700
H  28.62800 1.10900 26.62000
H  25.66800 0.32000 34.53200
H  23.28400 2.08100 34.12200
H  23.67100 -0.75500 34.99900
H  22.24000 -0.60600 33.97200
H  22.27200 0.37100 35.30400
H  24.78500 3.11400 34.75000
H  26.49500 3.01500 34.28700
H  27.15700 2.14900 36.29600
H  25.51000 1.55900 36.67600
H  19.13400 2.88800 30.01600
H  19.61300 2.04700 31.43300
H  18.75200 1.15600 30.18100
H  17.98700 1.49200 27.98100
H  17.93000 2.43500 26.54300
H  18.48500 3.23400 27.92200
H  24.70700 3.07300 24.75600
H  26.98200 1.20300 24.53800
H  23.69700 0.30400 24.22200
H  25.20400 0.56300 23.34200
H  23.89200 1.65300 23.09300
H  27.49200 3.26400 23.78400
H  28.39900 3.15300 25.21300
H  26.85300 5.30300 24.59900
H  27.71200 4.97900 26.10500
H  26.16400 4.55500 26.11000
H  31.11000 1.08500 28.48800
H  30.37400 -0.15600 27.44600
H  31.06100 -0.58500 28.89900
H  28.71000 1.67100 33.42400
H  29.93500 -0.32000 36.88600
H  29.24700 -1.79900 36.14800
H  28.27500 -0.54900 36.95800
Mg 17.38200 52.99800 27.40100
C  19.23600 51.52000 29.90300
C  14.95300 53.88200 29.60900
C  15.49500 54.06400 24.72600
C  19.87000 51.90200 25.08000
N  17.16900 52.73000 29.41200
C  18.08900 52.20000 30.29800
C  17.60700 52.35400 31.75600
C  16.11500 52.77400 31.59200
C  16.07100 53.21800 30.14900
C  15.13700 51.56400 31.75500
C  18.46800 53.49900 32.34600
C  18.83700 53.32700 33.85100
H  17.94400 52.53800 34.81800
N  15.48100 53.91400 27.15400
C  14.69000 54.22200 28.22500
C  13.52600 54.94800 27.74700
C  13.63800 55.07400 26.27400
C  14.94300 54.32500 25.96900
C  12.42300 55.25000 28.69100
C  12.87600 55.87200 25.27100
O  13.16400 56.08700 24.12000
C  11.63200 56.43600 25.84100
N  17.64100 52.92600 25.19300
C  16.66700 53.41900 24.35000
C  17.18200 53.22300 22.90800
C  18.62700 52.68500 23.04200
C  18.74400 52.52400 24.56000
C  16.23700 52.43400 22.02700
C  19.76800 53.59900 22.51200
C  19.73800 55.13700 23.04600
N  19.05500 51.76800 27.43100
C  20.01500 51.53200 26.46800
C  21.06800 50.69600 26.99000
C  20.83000 50.68400 28.39100
C  19.56800 51.28600 28.55100
C  22.29100 50.16200 26.20600
C  21.25300 50.13800 29.70200
O  22.15200 49.41700 30.04300
C  20.29200 50.77200 30.76000
C  19.79900 49.59900 31.57900
O  19.29100 48.58600 31.09500
O  19.94700 49.86600 32.91300
C  19.92500 48.70100 33.81500
H  14.24000 54.05600 30.41800
H  14.96800 54.37600 23.82200
H  20.64500 51.70800 24.33500
H  17.74100 51.39700 32.26100
H  15.81600 53.61600 32.21700
H  14.66300 51.34600 30.79800
H  14.35600 51.72200 32.49800
H  15.68700 50.66400 32.02800
H  18.02200 54.49400 32.34700
H  19.36300 53.41000 31.73000
H  18.89400 54.27500 34.38500
H  19.87900 53.00800 33.88600
H  12.50000 54.76100 29.66200
H  11.44800 55.01200 28.26600
H  12.39500 56.33100 28.82600
H  10.89300 55.66600 26.06400
H  11.09600 57.00300 25.08100
H  11.91100 57.12500 26.63800
H  17.15700 54.15900 22.35100
H  18.68400 51.66200 22.66900
H  16.69100 51.54600 21.58700
H  15.71600 53.12700 21.36600
H  15.38800 51.98400 22.54100
H  19.58300 53.64100 21.43800
H  20.76500 53.16400 22.58200
H  18.82500 55.36100 23.59800
H  19.93900 55.77300 22.18400
H  20.57300 55.23900 23.73900
H  22.59400 50.83500 25.40400
H  22.09900 49.12600 25.92600
H  23.10200 50.06000 26.92800
H  20.76400 51.44400 31.47700
H  20.10300 49.02300 34.84100
H  20.64500 47.90300 33.63400
H  18.93600 48.24400 33.77300

