158

Mg 47.01300 16.73500 28.80200
C  44.99000 16.33100 31.43400
C  49.15100 18.68100 30.56600
C  48.77400 17.32400 25.86600
C  44.50900 15.15800 26.72200
N  47.03500 17.40600 30.72900
C  46.09000 17.11700 31.66900
C  46.55600 17.56000 33.05800
C  47.70800 18.53100 32.68600
C  48.01500 18.21400 31.25300
C  47.58000 20.08800 32.96100
C  47.10300 16.37800 33.92500
C  47.19400 16.58600 35.47000
H  46.93200 17.97100 36.21100
N  48.83700 17.80200 28.32600
C  49.55000 18.54200 29.19600
C  50.70300 19.12800 28.50100
C  50.53900 18.66200 27.11500
C  49.39600 17.79700 27.07100
C  51.75500 20.11100 29.20200
C  51.46600 19.08800 25.96800
O  51.27300 18.97100 24.79200
C  52.79500 19.74600 26.22300
N  46.76000 16.12300 26.55300
C  47.60600 16.62200 25.60100
C  47.05300 16.42200 24.22900
C  45.71900 15.58200 24.46300
C  45.63900 15.61500 26.00800
C  46.91400 17.62800 23.33600
C  45.71500 14.18600 23.97000
C  44.87000 13.87400 22.69500
N  45.18000 15.82300 28.97700
C  44.28300 15.29800 28.08100
C  43.09100 14.99600 28.81600
C  43.36200 15.26400 30.14100
C  44.61700 15.83100 30.18700
C  41.90400 14.36200 28.28400
C  42.72300 15.21300 31.36500
O  41.57600 14.85100 31.70600
C  43.85800 15.81800 32.35600
C  43.31200 16.92400 33.14200
O  43.04400 18.07200 32.73200
O  43.22400 16.48800 34.41100
C  42.60900 17.38900 35.43500
H  49.78600 19.22700 31.26700
H  49.27200 17.50900 24.91200
H  43.69800 14.76500 26.10500
H  45.74900 18.11500 33.53500
H  48.62900 18.25000 33.19600
H  46.66500 20.35200 33.49000
H  47.65400 20.73700 32.08700
H  48.42700 20.37500 33.58400
H  48.07100 16.07300 33.52700
H  46.40600 15.55600 33.76200
H  48.23100 16.37700 35.73000
H  46.53200 15.84000 35.90900
H  52.13200 20.94000 28.60300
H  52.66200 19.56300 29.45700
H  51.29600 20.51800 30.10300
H  53.32700 19.08800 26.91000
H  52.63600 20.80800 26.40800
H  53.50900 19.65200 25.40400
H  47.82900 15.80000 23.78300
H  44.83300 16.02300 24.00500
H  46.69800 18.56200 23.85500
H  46.03100 17.42700 22.73000
H  47.76400 17.49700 22.66700
H  45.36800 13.46300 24.70800
H  46.75500 13.86100 23.93300
H  45.44900 13.99300 21.77900
H  43.98000 14.49800 22.78100
H  44.58900 12.82200 22.73300
H  41.92400 13.29100 28.48400
H  41.71000 14.68700 27.26200
H  41.06000 14.86600 28.75600
H  44.16200 15.04700 33.06500
H  43.38900 18.11700 35.65700
H  42.25900 16.85300 36.31700
H  41.78000 17.89700 34.94200
Mg 1.15300 42.19800 24.89000
C  3.18800 42.28300 27.68300
C  -1.40100 40.95300 26.65000
C  -0.47500 41.64200 21.85900
C  4.11000 42.99000 22.91200
N  0.97700 41.86600 27.01600
C  1.87100 42.01900 27.99100
C  1.26300 41.84400 29.34200
C  -0.24200 41.29500 29.03500
C  -0.19300 41.26100 27.46700
C  -0.73300 39.95500 29.71500
C  1.31400 43.12500 30.18100
C  0.99400 43.10100 31.68800
H  0.64200 41.81200 32.42700
N  -0.68100 41.50100 24.34900
C  -1.63700 41.01300 25.23200
C  -2.83400 40.65600 24.52900
C  -2.67500 41.00000 23.12400
C  -1.23600 41.44400 23.04700
C  -4.03300 39.96800 25.20900
C  -3.61400 40.94600 21.88300
O  -3.26700 41.31300 20.76600
C  -5.00400 40.38100 21.97500
N  1.85300 42.06500 22.65100
C  0.88200 41.97700 21.68400
C  1.49100 42.29000 20.26600
C  2.83800 42.97900 20.65800
C  2.96200 42.63600 22.15700
C  1.61500 41.06400 19.34600
C  2.91400 44.44900 20.30000
C  2.15000 45.45700 21.16000
N  3.08800 42.59700 25.19000
C  4.18500 42.85400 24.29900
C  5.41400 42.97200 25.10700
C  5.00600 42.78500 26.37800
C  3.61300 42.56300 26.40800
C  6.85900 43.18300 24.69100
C  5.53400 42.61400 27.66500
O  6.72400 42.64200 27.99500
C  4.38600 42.44500 28.62700
C  4.72400 41.37500 29.64600
O  5.13100 40.25600 29.35000
O  4.47300 41.83100 30.93100
C  4.70800 40.92400 32.03600
H  -2.19600 40.49600 27.24400
H  -1.04500 41.63400 20.92800
H  4.99300 43.25300 22.32600
H  1.78400 41.07700 29.91600
H  -0.98500 42.04600 29.30700
H  -1.13100 39.24500 28.99000
H  -1.57600 40.22800 30.34900
H  -0.00900 39.44600 30.35200
H  0.76700 43.84500 29.57100
H  2.35800 43.43800 30.19800
H  0.19100 43.82200 31.84300
H  1.77900 43.50200 32.32900
H  -5.00400 40.45000 25.09500
H  -3.80900 39.64700 26.22700
H  -4.31300 39.06700 24.66300
H  -4.94000 39.32800 22.25200
H  -5.59900 40.77900 21.15300
H  -5.48100 40.90400 22.80400
H  0.86600 43.07100 19.83200
H  3.71100 42.60100 20.12500
H  2.67100 41.03500 19.07900
H  1.03200 41.20600 18.43600
H  1.25100 40.20300 19.90700
H  2.78200 44.66400 19.23900
H  3.98300 44.59200 20.45900
H  2.88500 45.92100 21.81900
H  1.36700 44.90000 21.67400
H  1.77300 46.25900 20.52500
H  7.50700 42.39300 25.07000
H  7.30300 44.13400 24.98400
H  7.00300 43.02400 23.62200
H  4.53700 43.41400 29.10300
H  5.76100 40.92000 32.31900
H  4.40400 39.94700 31.66200
H  4.07800 41.10800 32.90700

