158

Mg 23.77500 -5.72500 45.05700
C  25.84500 -3.30700 43.68900
C  21.15700 -4.50800 43.11900
C  22.08800 -8.56100 45.57800
C  26.53700 -7.16400 46.51900
N  23.62700 -4.22400 43.35000
C  24.57200 -3.24900 43.09500
C  23.99200 -2.12800 42.14300
C  22.41500 -2.40900 42.18100
C  22.38400 -3.82900 42.90000
C  21.36500 -1.40800 42.83200
C  24.57900 -2.41000 40.69200
C  25.10300 -1.11400 40.02600
H  24.75100 -0.95000 38.46000
N  21.78200 -6.38000 44.57100
C  20.88500 -5.70200 43.79400
C  19.60400 -6.35200 43.99200
C  19.83500 -7.65300 44.51000
C  21.27000 -7.63200 44.87400
C  18.31500 -5.81600 43.40500
C  18.83500 -8.68600 44.74400
O  17.66300 -8.40100 44.49700
C  19.12800 -10.01600 45.39000
N  24.23300 -7.61600 45.84500
C  23.32900 -8.57700 46.06600
C  23.82700 -9.68000 46.91900
C  25.29200 -9.10500 47.28300
C  25.34500 -7.91700 46.45100
C  22.95800 -10.15400 48.13300
C  26.48900 -10.11200 47.04400
C  27.37500 -10.43500 48.26800
N  25.75600 -5.40900 45.12200
C  26.78300 -6.02500 45.79600
C  27.99800 -5.22700 45.74100
C  27.66100 -4.23800 44.83200
C  26.30700 -4.31500 44.53000
C  29.31800 -5.64100 46.37700
C  28.19800 -3.14800 44.08600
O  29.33600 -2.69900 44.09100
C  27.02700 -2.55700 43.23000
C  26.82500 -1.09700 43.45600
O  26.20400 -0.52000 44.39700
O  27.51500 -0.41000 42.51100
C  27.46300 1.08200 42.50100
H  20.25300 -3.98100 42.80500
H  21.69000 -9.54100 45.84700
H  27.40000 -7.48100 47.10900
H  24.14600 -1.17900 42.65700
H  22.05800 -2.60400 41.16900
H  20.96400 -0.72500 42.08300
H  21.95100 -0.83100 43.54800
H  20.52800 -1.91000 43.31600
H  23.79400 -2.78800 40.03700
H  25.31600 -3.21300 40.67300
H  26.13700 -1.05300 40.36400
H  24.65300 -0.22800 40.47600
H  18.31100 -6.08300 42.34800
H  18.29300 -4.72700 43.40300
H  17.44600 -6.13600 43.98100
H  18.28300 -10.70200 45.33700
H  19.45000 -9.82900 46.41400
H  19.98800 -10.46800 44.89500
H  23.85100 -10.54800 46.26000
H  25.36600 -8.61600 48.25400
H  23.54000 -10.28600 49.04500
H  22.59000 -11.12400 47.79800
H  22.15800 -9.41800 48.22100
H  27.18400 -9.57000 46.40300
H  26.14200 -11.06200 46.63800
H  28.34000 -9.96000 48.09400
H  27.51800 -11.48700 48.51700
H  26.93900 -10.08600 49.20400
H  29.05000 -5.97900 47.37800
H  30.07600 -4.86900 46.24600
H  29.62900 -6.46300 45.73200
H  27.21200 -2.82600 42.19000
H  28.31600 1.61100 42.92500
H  26.70300 1.39000 43.21900
H  27.18000 1.46700 41.52200
Mg 16.99400 52.75800 26.23500
C  18.91400 51.28800 28.68600
C  14.69400 53.70500 28.65000
C  14.99400 53.75900 23.88000
C  19.11200 51.31500 23.86000
N  16.80600 52.41300 28.37600
C  17.76900 51.94400 29.18500
C  17.49400 52.19500 30.69100
C  15.98300 52.59000 30.64900
C  15.76200 52.93600 29.12100
C  15.05800 51.46200 31.14100
C  18.40300 53.34600 31.26200
C  18.82500 53.34000 32.75200
H  17.94300 52.57000 33.68600
N  15.12000 53.58400 26.25600
C  14.40700 53.96000 27.30000
C  13.25300 54.65200 26.89700
C  13.38800 54.79400 25.47500
C  14.58300 54.04900 25.15400
C  12.19000 55.14100 27.87100
C  12.42600 55.47300 24.50600
O  12.62900 55.50600 23.27500
C  11.23000 56.09800 25.01300
N  16.91500 52.31400 24.28300
C  16.04200 53.00200 23.41400
C  16.30100 52.68700 21.98100
C  17.64700 52.02800 22.10400
C  17.96000 51.91600 23.52200
C  15.28000 51.64700 21.42100
C  18.74800 52.70500 21.30300
C  19.22800 54.04900 21.89400
N  18.71900 51.59900 26.23200
C  19.48400 51.03900 25.21200
C  20.60000 50.27400 25.78500
C  20.41300 50.43500 27.11300
C  19.21600 51.14800 27.37400
C  21.68300 49.62900 24.97000
C  20.99700 50.18900 28.41900
O  22.09600 49.67100 28.66300
C  20.00700 50.71600 29.45900
C  19.68200 49.63100 30.39800
O  18.67500 48.97100 30.36800
O  20.72500 49.51300 31.32800
C  20.50400 48.59400 32.45700
H  14.09100 53.96700 29.52200
H  14.52100 54.20700 23.00300
H  19.77700 51.03800 23.04000
H  17.76700 51.29800 31.24800
H  15.73400 53.52900 31.14400
H  14.86300 51.52700 32.21100
H  15.63700 50.54800 31.00600
H  14.06800 51.44200 30.68600
H  17.94800 54.32000 31.08200
H  19.22800 53.46000 30.55900
H  18.99400 54.33500 33.16500
H  19.82200 52.90000 32.78800
H  12.63600 55.59900 28.75400
H  11.82900 54.18600 28.25400
H  11.36500 55.77000 27.53700
H  11.53000 56.90000 25.68700
H  10.73200 55.27700 25.52900
H  10.54500 56.49400 24.26300
H  16.27400 53.63000 21.43500
H  17.63600 50.97000 21.84400
H  15.59000 51.16800 20.49200
H  14.37000 52.13200 21.06800
H  14.98100 50.93200 22.18800
H  18.31300 52.94900 20.33400
H  19.66000 52.16700 21.04700
H  18.35000 54.62800 22.17900
H  19.71900 54.55100 21.05900
H  19.96800 53.78300 22.64900
H  22.40500 50.36700 24.62200
H  21.27000 49.24000 24.03900
H  22.10600 48.83000 25.57800
H  20.52800 51.48700 30.02700
H  19.57900 48.87000 32.96300
H  21.24200 48.79900 33.23200
H  20.40000 47.55000 32.15900

