158

Mg 55.96200 23.16600 43.32700
C  53.90700 26.11000 42.68100
C  53.15600 21.22100 42.73200
C  57.99500 20.65500 42.83400
C  58.69000 25.42300 43.33800
N  53.78600 23.63600 42.63100
C  53.16200 24.91600 42.50300
C  51.64300 24.63500 42.18300
C  51.37800 23.18400 42.68800
C  52.84600 22.59700 42.73100
C  50.74900 23.11600 44.09800
C  51.19100 24.92400 40.67100
C  52.26500 25.20200 39.56200
H  51.92500 24.83500 38.13200
N  55.65100 21.18600 42.85300
C  54.44000 20.57300 42.76200
C  54.69700 19.17600 42.62700
C  56.06200 18.90500 42.68200
C  56.68300 20.23800 42.87000
C  53.54400 18.13000 42.38800
C  56.78000 17.59400 42.55200
O  56.17300 16.54800 42.34900
C  58.21500 17.43100 42.79700
N  58.02300 23.11400 43.06700
C  58.60700 21.90800 42.85000
C  60.14800 22.08600 42.77200
C  60.39600 23.66000 42.89900
C  58.96100 24.08600 43.13400
C  60.89900 21.09400 43.68400
C  61.19700 24.39700 41.69600
C  60.37600 24.80100 40.53800
N  56.23400 25.23200 43.31700
C  57.38200 26.00400 43.33000
C  57.06700 27.41800 43.46900
C  55.67000 27.51000 43.40400
C  55.24900 26.12600 43.14800
C  58.07200 28.50100 43.75600
C  54.51800 28.33800 43.40900
O  54.40900 29.52600 43.65600
C  53.33500 27.48500 43.02800
C  52.47800 28.21200 42.07300
O  52.79100 28.52600 40.93000
O  51.30900 28.49600 42.67000
C  50.19700 29.04200 41.86900
H  52.30900 20.54900 42.88600
H  58.64200 19.79000 42.67300
H  59.57900 26.01100 43.57700
H  50.97300 25.30200 42.72500
H  50.77700 22.53000 42.05600
H  51.42700 22.61700 44.79000
H  49.72400 22.74900 44.16800
H  50.76000 24.10700 44.55100
H  50.58200 25.82700 40.68400
H  50.72000 24.04400 40.23200
H  53.24200 24.80500 39.83800
H  52.48000 26.27000 39.55100
H  52.56700 18.58200 42.55400
H  53.65400 17.22900 42.99200
H  53.48700 17.71800 41.38100
H  58.51700 16.38800 42.70900
H  58.46800 17.89300 43.75100
H  58.84300 17.82400 41.99800
H  60.48000 21.85900 41.75900
H  60.90000 23.89500 43.83700
H  60.28600 20.70700 44.49800
H  61.75800 21.64600 44.06500
H  61.29100 20.25600 43.10800
H  62.06100 23.81900 41.36900
H  61.47000 25.35300 42.14200
H  60.24800 25.88300 40.51200
H  59.35700 24.47700 40.74700
H  60.77900 24.39800 39.60800
H  58.39000 28.81400 42.76200
H  58.87700 28.03900 44.32800
H  57.54700 29.22300 44.38200
H  52.73300 27.46600 43.93600
H  49.25700 28.76400 42.34600
H  50.34000 28.65100 40.86200
H  50.31900 30.12200 41.79300
Mg 26.80100 49.26300 26.68600
C  24.70800 50.34300 29.27700
C  29.19800 48.64700 29.16500
C  28.92200 48.16500 24.25800
C  24.42500 50.30700 24.41900
N  26.76500 49.17800 28.98300
C  25.74300 49.60800 29.80100
C  26.09000 49.28900 31.28300
C  27.62800 48.96900 31.18600
C  27.93000 48.86500 29.65400
C  28.47700 49.89800 32.11000
C  25.10200 48.21900 32.01300
C  24.29900 48.77500 33.19400
H  25.10500 49.34500 34.35200
N  28.73900 48.54200 26.66400
C  29.55600 48.44200 27.76000
C  30.89900 48.06000 27.39500
C  30.92200 47.89500 26.01200
C  29.48000 48.13400 25.58300
C  31.99900 47.72500 28.30500
C  32.04700 47.64100 25.10200
O  31.88700 47.61500 23.88300
C  33.38100 47.41500 25.66600
N  26.66600 49.25600 24.63700
C  27.61800 48.62800 23.83700
C  27.13000 48.59100 22.37400
C  25.61700 49.10300 22.46700
C  25.56400 49.59100 23.93200
C  27.98000 49.37200 21.31800
C  24.63600 47.97700 22.15100
C  23.58100 48.28000 21.06100
N  24.99200 50.15600 26.72600
C  24.11600 50.60200 25.75400
C  23.01800 51.37000 26.29700
C  23.25400 51.24600 27.64000
C  24.45600 50.54000 27.88100
C  21.84300 51.99000 25.46200
C  22.69000 51.65700 28.89100
O  21.64900 52.35800 29.15000
C  23.62000 51.11800 30.03200
C  24.20300 52.24000 30.81700
O  25.02400 53.09000 30.52800
O  23.59400 52.28400 32.10000
C  23.79300 53.51000 32.93600
H  29.92800 48.36300 29.92700
H  29.65900 47.93400 23.48600
H  23.68700 50.40300 23.62000
H  26.03700 50.27100 31.75400
H  27.72700 47.99300 31.66000
H  29.53100 49.78900 31.85200
H  28.45800 49.52000 33.13300
H  28.17800 50.94500 32.06200
H  25.80600 47.40500 32.18800
H  24.32700 47.87500 31.32800
H  23.58700 48.03100 33.55300
H  23.77400 49.63900 32.78800
H  32.83500 48.42500 28.31200
H  32.42500 46.78800 27.94600
H  31.79400 47.63600 29.37100
H  34.17100 47.29300 24.92500
H  33.30200 46.43900 26.14500
H  33.71600 48.19000 26.35500
H  27.19400 47.54800 22.06300
H  25.58300 49.94800 21.78000
H  28.67300 50.03800 21.83200
H  27.44500 50.07700 20.68000
H  28.64000 48.74300 20.72100
H  24.08100 47.53400 22.97700
H  25.15800 47.06800 21.85200
H  23.71300 47.55800 20.25500
H  23.72400 49.32900 20.80100
H  22.56500 48.15300 21.43500
H  20.95000 51.66800 25.99700
H  22.09400 51.57700 24.48500
H  21.86000 53.07500 25.35100
H  23.07900 50.48100 30.73200
H  23.71800 54.42200 32.34500
H  24.55300 53.48900 33.71700
H  22.95200 53.53200 33.62900

