158

Mg -0.25000 6.74400 26.06000
C  0.58800 8.52100 28.80900
C  -0.22300 3.85700 27.94000
C  -0.88500 4.92900 23.20100
C  0.33100 9.58300 24.02200
N  0.03900 6.20800 28.09700
C  0.31500 7.18300 29.05000
C  0.26800 6.58800 30.51200
C  0.03400 5.05600 30.22900
C  -0.12200 4.99500 28.65100
C  1.16000 4.19200 30.66000
C  -0.82500 7.23100 31.37800
C  -0.55400 7.22000 32.95700
H  0.77300 6.86200 33.55400
N  -0.52500 4.66800 25.64300
C  -0.33800 3.65300 26.53500
C  -0.45100 2.34100 25.86900
C  -0.79500 2.66100 24.51000
C  -0.70400 4.13000 24.36900
C  -0.37500 1.07500 26.67400
C  -1.17300 1.68600 23.40300
O  -1.51600 2.10900 22.31100
C  -0.95900 0.26800 23.78900
N  -0.24000 7.14800 23.95100
C  -0.74200 6.29800 23.04700
C  -0.91900 6.96200 21.70100
C  -0.36900 8.34800 21.90200
C  -0.02600 8.37100 23.38300
C  -0.22100 6.22100 20.49700
C  -1.31800 9.52200 21.47100
C  -2.54200 9.87600 22.44400
N  0.33000 8.71600 26.27800
C  0.53700 9.75300 25.39900
C  0.89800 10.91100 26.19000
C  0.91000 10.48400 27.47600
C  0.57400 9.13800 27.51400
C  1.29200 12.26400 25.64800
C  1.15900 10.88100 28.84400
O  1.70800 11.89000 29.29500
C  0.91000 9.69800 29.74400
C  2.01700 9.54300 30.77000
O  3.02200 8.85700 30.70100
O  1.74300 10.19900 31.92400
C  2.89500 10.58800 32.77000
H  -0.31000 2.99300 28.60200
H  -1.05400 4.32800 22.30500
H  0.45400 10.52000 23.47400
H  1.23300 6.87000 30.93100
H  -0.89300 4.70100 30.67900
H  1.90100 4.76700 31.21500
H  1.55300 3.72200 29.75800
H  0.88700 3.40400 31.36100
H  -1.61600 6.49900 31.21300
H  -1.22800 8.22000 31.15800
H  -1.34400 6.56900 33.33100
H  -0.74300 8.22000 33.34600
H  0.31000 0.39700 26.16600
H  -1.37400 0.63800 26.67500
H  -0.00500 1.20700 27.69000
H  -1.70000 0.02100 24.54900
H  0.08600 0.11500 24.06100
H  -1.14100 -0.43700 22.97700
H  -1.98600 7.15000 21.58700
H  0.59000 8.58900 21.44400
H  0.59700 5.57000 20.80500
H  0.25100 6.97200 19.86400
H  -0.90300 5.75300 19.78700
H  -1.70000 9.20300 20.50100
H  -0.71000 10.41500 21.32700
H  -2.47300 9.30700 23.37100
H  -3.42000 9.66100 21.83600
H  -2.43500 10.94900 22.60200
H  0.42600 12.81900 25.28700
H  2.03100 12.24200 24.84700
H  1.78900 12.94400 26.34000
H  0.03500 9.92300 30.35300
H  3.39400 9.79100 33.32300
H  2.60000 11.31100 33.53000
H  3.67000 11.01200 32.13100
Mg 0.66700 42.98200 25.93300
C  2.63100 43.28500 28.62100
C  -1.89000 41.83900 27.82600
C  -1.15700 42.29400 23.05900
C  3.27200 43.84300 23.84000
N  0.43400 42.71100 28.02600
C  1.33100 43.01500 28.96600
C  0.74400 42.79500 30.44600
C  -0.63600 42.18800 30.10600
C  -0.74600 42.30800 28.58000
C  -0.98000 40.82500 30.69500
C  0.69800 44.17800 31.10400
C  0.62400 44.26300 32.63000
H  0.31900 42.86500 33.31900
N  -1.17600 42.05000 25.48900
C  -2.10000 41.71200 26.41000
C  -3.26100 41.27400 25.84700
C  -3.11900 41.46100 24.43400
C  -1.74800 41.92200 24.22500
C  -4.40400 40.85000 26.66800
C  -4.13000 41.22100 23.37900
O  -3.92300 41.31900 22.19900
C  -5.52200 40.71200 23.77400
N  0.90400 43.20000 23.74800
C  0.03500 42.87600 22.72700
C  0.62700 43.11400 21.29500
C  2.00600 43.81300 21.57700
C  2.09300 43.59100 23.17300
C  0.74200 41.76200 20.48900
C  1.97600 45.35800 21.22200
C  3.28300 45.97000 20.74600
N  2.55700 43.59200 26.05200
C  3.51900 43.79300 25.19500
C  4.77700 44.05700 25.89800
C  4.50600 43.84300 27.21400
C  3.09600 43.53100 27.29800
C  6.11200 44.38900 25.23600
C  5.05800 43.88600 28.55200
O  6.21700 44.11900 28.90900
C  3.90500 43.41600 29.51000
C  4.33100 42.14800 30.11800
O  4.89100 41.22400 29.55400
O  3.97800 42.22000 31.38400
C  4.26600 41.04600 32.19000
H  -2.64200 41.52600 28.55300
H  -1.72200 42.13600 22.13800
H  4.05800 44.15700 23.15000
H  1.44200 42.07300 30.86900
H  -1.39600 42.88300 30.46400
H  -1.82800 40.78100 31.37900
H  -0.20600 40.37500 31.31600
H  -1.21700 40.02800 29.99000
H  -0.15700 44.74900 30.74300
H  1.58600 44.74200 30.81700
H  -0.26300 44.86400 32.83200
H  1.47900 44.79400 33.04900
H  -5.27800 41.50000 26.69000
H  -4.19100 40.61800 27.71100
H  -4.62900 39.85800 26.27700
H  -5.53800 39.85100 24.44300
H  -6.14600 40.45800 22.91700
H  -6.10300 41.53300 24.19500
H  -0.03500 43.76400 20.72200
H  2.88300 43.39800 21.08000
H  1.77400 41.41300 20.52400
H  0.28300 41.87400 19.50600
H  0.24600 40.89700 20.93000
H  1.59200 45.91300 22.07900
H  1.20400 45.57200 20.48300
H  3.62000 46.82300 21.33600
H  3.14700 46.35700 19.73600
H  3.99100 45.17000 20.96300
H  6.16900 45.47600 25.16900
H  6.18400 43.98100 24.22800
H  6.92600 43.93000 25.79700
H  3.79000 44.10600 30.34600
H  5.24300 40.95600 32.66500
H  4.13100 40.08100 31.70100
H  3.51300 41.21300 32.96100

