158

Mg 24.65100 -6.11600 45.24000
C  26.91200 -3.60400 43.97600
C  22.18700 -4.62200 43.52400
C  22.97600 -8.96700 45.54800
C  27.44400 -7.58100 46.81900
N  24.59800 -4.35500 43.80700
C  25.60400 -3.51500 43.51700
C  25.04700 -2.38900 42.67600
C  23.46200 -2.50300 42.77600
C  23.39700 -3.95200 43.43300
C  22.80300 -1.46500 43.66700
C  25.60400 -2.47300 41.22600
C  25.87300 -1.07800 40.50200
H  25.22400 -0.85800 39.15200
N  22.84800 -6.59500 44.74500
C  21.94700 -5.87000 44.06400
C  20.73200 -6.52800 43.90400
C  20.89900 -7.80800 44.50200
C  22.29800 -7.80400 44.96400
C  19.59200 -6.07100 43.00000
C  19.87400 -8.97700 44.55800
O  18.81300 -8.83800 43.97800
C  20.19900 -10.39600 45.13600
N  25.18400 -8.10400 46.06600
C  24.33200 -9.11300 46.01700
C  24.80800 -10.36400 46.84000
C  26.08400 -9.75300 47.54500
C  26.29700 -8.46600 46.68000
C  23.83400 -11.03500 47.89600
C  27.35100 -10.79400 47.50800
C  28.04900 -11.05500 48.79700
N  26.73600 -5.68100 45.49700
C  27.72200 -6.30600 46.23700
C  28.95900 -5.52100 46.21900
C  28.70400 -4.49700 45.33600
C  27.32500 -4.59200 44.97500
C  30.26500 -5.84100 46.77300
C  29.28000 -3.32100 44.64000
O  30.41000 -2.88100 44.55200
C  28.11600 -2.75900 43.74600
C  27.91200 -1.33200 44.17000
O  27.33100 -0.90100 45.15800
O  28.54200 -0.50300 43.35400
C  28.53400 0.91000 43.69300
H  21.33900 -4.03900 43.15800
H  22.31500 -9.79900 45.80000
H  28.36100 -7.83800 47.35400
H  25.44800 -1.50800 43.17800
H  23.10700 -2.40600 41.75000
H  23.46200 -0.62700 43.89500
H  22.56900 -1.99000 44.59400
H  21.87600 -1.04200 43.28000
H  24.86000 -2.94100 40.58200
H  26.48400 -3.07200 40.98600
H  26.94200 -0.89500 40.39500
H  25.52400 -0.30100 41.18200
H  18.66300 -5.95100 43.55900
H  19.44300 -6.85400 42.25600
H  19.74800 -5.15900 42.42400
H  19.27100 -10.96100 45.05400
H  20.47000 -10.34400 46.19100
H  21.02700 -10.80400 44.55600
H  25.04800 -11.10400 46.07700
H  25.81900 -9.37200 48.53100
H  23.03700 -10.33600 48.15100
H  24.41200 -11.52800 48.67800
H  23.42800 -11.86100 47.31200
H  28.16300 -10.39200 46.90100
H  26.91900 -11.70800 47.10100
H  27.67200 -12.05100 49.03100
H  27.74700 -10.36700 49.58600
H  29.12400 -11.16100 48.65000
H  30.62900 -6.78300 46.36200
H  30.24700 -5.91700 47.86100
H  30.99500 -5.10100 46.44500
H  28.50300 -2.81600 42.72900
H  27.54300 1.35900 43.63000
H  29.23700 1.29400 42.95300
H  28.99300 1.17700 44.64600
Mg 36.13400 1.50700 30.40000
C  33.57200 2.68500 32.57000
C  38.13400 1.09800 33.06400
C  38.51800 0.45100 28.25100
C  33.89700 1.82400 27.77900
N  35.85800 1.94400 32.57800
C  34.78000 2.48700 33.26700
C  34.96900 2.40600 34.75200
C  36.57100 2.18500 34.85700
C  36.82900 1.62300 33.39200
C  37.42600 3.47000 35.08900
C  34.06600 1.34200 35.48100
C  33.52000 1.82200 36.83900
H  34.24300 2.91900 37.60800
N  38.06100 0.83400 30.64600
C  38.63100 0.61400 31.82900
C  39.92100 -0.00800 31.58600
C  39.99100 -0.26100 30.21100
C  38.81400 0.28600 29.63700
C  40.93600 -0.33800 32.72500
C  40.97200 -1.02600 29.36600
O  40.73200 -1.45200 28.23000
C  42.25700 -1.55800 29.96700
N  36.28100 1.33900 28.25000
C  37.34100 0.95000 27.54400
C  37.00600 0.85200 26.04600
C  35.53400 1.25400 25.93300
C  35.20100 1.53000 27.41300
C  37.89800 1.63200 25.00000
C  34.57100 0.21100 25.33900
C  34.00900 0.56000 23.96500
N  34.15800 2.10600 30.13000
C  33.40800 2.23700 29.02100
C  32.13500 2.75400 29.34200
C  32.10800 2.94300 30.74700
C  33.37400 2.52800 31.20100
C  31.07800 3.09200 28.34200
C  31.31800 3.45400 31.85500
O  30.20900 3.93900 31.92500
C  32.21500 3.22900 33.12100
C  32.38500 4.53900 33.86700
O  33.14100 5.40000 33.60200
O  31.50900 4.61600 34.89500
C  31.51800 5.84400 35.67500
H  38.88300 1.01400 33.85300
H  39.23700 0.22500 27.46000
H  33.19800 1.90000 26.94300
H  34.77300 3.40400 35.14400
H  36.81800 1.50400 35.67100
H  37.11900 3.99700 35.99200
H  37.35300 4.11500 34.21400
H  38.51300 3.42700 35.14900
H  34.65000 0.45500 35.72400
H  33.21400 1.09100 34.85000
H  33.42200 0.91900 37.44100
H  32.50100 2.14100 36.62000
H  41.19600 -1.39300 32.80400
H  40.42500 -0.18600 33.67600
H  41.84700 0.22300 32.51700
H  42.22000 -2.04400 30.94200
H  42.98200 -0.75900 29.81100
H  42.73600 -2.34600 29.38700
H  37.22800 -0.20000 25.86600
H  35.32500 2.26000 25.56700
H  38.71100 2.20600 25.44500
H  37.31100 2.33800 24.41300
H  38.38600 0.87600 24.38500
H  33.72900 -0.04800 25.98000
H  35.02200 -0.75600 25.11300
H  32.92100 0.55900 24.03400
H  34.26200 -0.11600 23.14800
H  34.30400 1.57900 23.71400
H  31.39100 3.17400 27.30100
H  30.55500 4.01100 28.60600
H  30.37600 2.25900 28.33700
H  31.67500 2.48300 33.70500
H  31.71800 6.66400 34.98600
H  32.19600 5.72300 36.52000
H  30.44900 5.94000 35.86700

