158

Mg 0.78700 7.24400 25.59400
C  1.92500 9.27900 28.26800
C  0.80600 4.56500 27.82500
C  0.08300 5.08500 23.02800
C  1.49300 9.71400 23.37700
N  1.46600 6.99800 27.82700
C  1.72900 7.92500 28.73200
C  1.62300 7.39500 30.12700
C  1.51000 5.84000 29.88900
C  1.28800 5.76100 28.39500
C  2.57900 5.04400 30.43400
C  0.40300 7.99300 30.93800
C  0.66500 8.21100 32.45400
H  1.76700 7.42000 33.16400
N  0.46500 5.17700 25.45200
C  0.43400 4.31200 26.48700
C  0.06300 2.98900 26.03400
C  -0.13000 3.06000 24.58800
C  0.12300 4.45200 24.32200
C  -0.11800 1.87300 26.93600
C  -0.57000 1.97000 23.65300
O  -0.89400 2.14200 22.48700
C  -0.61500 0.53900 24.19600
N  0.80400 7.38600 23.56600
C  0.38200 6.39600 22.67300
C  0.16900 6.92500 21.27100
C  0.61800 8.41600 21.33400
C  0.95300 8.53400 22.81200
C  0.75900 6.06700 20.10600
C  -0.40800 9.46300 20.78000
C  0.34100 10.62700 20.10200
N  1.53900 9.06300 25.74100
C  1.85400 9.93800 24.72600
C  2.40900 11.17900 25.30800
C  2.30900 10.94300 26.70700
C  1.89000 9.65800 26.89900
C  2.66500 12.45300 24.54600
C  2.52400 11.62500 28.03500
O  2.97700 12.73400 28.27800
C  2.18300 10.52300 29.08400
C  3.32600 10.52000 30.14200
O  4.53900 10.62800 29.91000
O  2.77800 10.61800 31.37100
C  3.53800 10.93000 32.60100
H  0.89600 3.79700 28.59600
H  -0.28000 4.41300 22.24800
H  1.54300 10.57400 22.70600
H  2.49900 7.68500 30.70800
H  0.70000 5.47500 30.52000
H  3.02200 4.58000 29.55300
H  2.29400 4.25900 31.13500
H  3.33400 5.65600 30.92900
H  -0.47200 7.37400 30.73700
H  0.29400 9.02000 30.59100
H  -0.30500 8.07600 32.93200
H  0.76000 9.26400 32.71700
H  0.72600 1.19200 26.81600
H  -1.05000 1.38200 26.65600
H  -0.12200 2.05300 28.01100
H  -1.58400 0.30600 24.63800
H  0.24300 0.35200 24.84200
H  -0.57600 -0.19800 23.39400
H  -0.90500 7.02200 21.11700
H  1.59700 8.59800 20.88900
H  1.27900 5.20300 20.51800
H  1.49400 6.53600 19.45300
H  0.00100 5.60800 19.47100
H  -1.00800 9.81200 21.62000
H  -1.00800 8.93000 20.04300
H  -0.01500 10.87800 19.10300
H  1.42800 10.59400 20.18300
H  0.02700 11.48800 20.69200
H  1.86700 12.61900 23.82200
H  3.59500 12.14300 24.07100
H  2.72200 13.40200 25.08100
H  1.28400 10.93600 29.54100
H  4.62500 10.87000 32.54600
H  3.21500 10.27300 33.40800
H  3.39800 11.94200 32.98200
Mg 46.65100 34.69300 27.45100
C  45.00700 32.85400 29.98000
C  47.03400 37.18500 29.65200
C  47.72900 36.47100 24.90400
C  45.89200 32.06200 25.21000
N  46.23500 34.85700 29.59800
C  45.60100 34.06500 30.44200
C  45.88400 34.48600 31.88100
C  46.08100 36.07700 31.72800
C  46.46200 36.06300 30.21900
C  44.83200 36.93400 32.07400
C  47.22100 33.73500 32.32100
C  47.51000 33.56100 33.80800
H  46.72000 34.39700 34.82700
N  47.46100 36.50200 27.33500
C  47.58500 37.37800 28.32900
C  48.43600 38.44900 27.90800
C  48.51100 38.33400 26.47300
C  47.88000 37.03800 26.17100
C  49.20400 39.40900 28.80000
C  49.23000 39.19000 25.48200
O  49.37700 38.80800 24.29200
C  49.70000 40.55000 25.84200
N  46.73500 34.30500 25.42900
C  47.32900 35.16500 24.57400
C  47.20800 34.76500 23.08900
C  46.83400 33.28400 23.19700
C  46.43700 33.20000 24.67800
C  46.30900 35.56100 22.14200
C  47.98700 32.24300 22.74100
C  49.33800 32.15900 23.49300
N  45.63400 32.79100 27.53900
C  45.40600 31.83500 26.54800
C  44.84700 30.68800 27.14000
C  44.54300 31.07000 28.47300
C  45.07200 32.35100 28.63500
C  44.44800 29.37100 26.51800
C  43.92200 30.70700 29.74200
O  43.38100 29.66400 30.00800
C  44.08800 31.88000 30.69800
C  44.75500 31.32500 31.94100
O  45.82100 30.75000 31.96000
O  43.88700 31.46800 32.99500
C  44.42700 31.29700 34.37100
H  47.07900 37.98600 30.39300
H  48.01000 36.98900 23.98400
H  45.82400 31.22700 24.51000
H  45.10200 34.20900 32.58800
H  46.83500 36.39200 32.45000
H  43.93700 36.31800 32.16700
H  44.65100 37.68200 31.30300
H  44.90300 37.50400 33.00100
H  47.99500 34.30500 31.80600
H  47.29900 32.76700 31.82600
H  48.57000 33.64900 34.04300
H  47.24400 32.52600 34.02600
H  49.19500 39.03300 29.82300
H  48.77400 40.41100 28.79800
H  50.27100 39.40900 28.57500
H  50.35100 40.47600 26.71300
H  48.82600 41.19400 25.93500
H  50.37800 40.99300 25.11200
H  48.19600 35.02800 22.71300
H  45.96800 33.07200 22.57000
H  46.09500 36.49100 22.66800
H  45.43400 34.97300 21.86500
H  46.85900 35.83600 21.24200
H  48.26400 32.57700 21.74100
H  47.52200 31.26900 22.58800
H  49.36400 31.17600 23.96300
H  49.42200 32.96200 24.22600
H  50.25200 32.39100 22.94700
H  44.88500 29.20400 25.53300
H  43.37300 29.38200 26.33600
H  44.80800 28.58400 27.18000
H  43.17200 32.34000 31.06700
H  45.50400 31.45300 34.31500
H  44.33800 30.31400 34.83500
H  43.86300 31.99900 34.98500

