158

Mg 1.27200 8.55000 27.09500
C  1.87000 10.76200 29.91500
C  1.45700 5.95400 29.32300
C  1.46200 6.49800 24.42900
C  1.51100 11.29100 25.09400
N  1.71000 8.38900 29.39100
C  1.85600 9.35600 30.27900
C  1.69600 8.83600 31.68900
C  1.98700 7.31700 31.57900
C  1.67900 7.21100 30.04300
C  3.33700 6.71400 31.85600
C  0.31800 9.18800 32.30400
C  0.25200 9.26500 33.85000
H  1.29400 8.53400 34.69600
N  1.31400 6.51900 26.90500
C  1.27000 5.62500 27.93300
C  1.20900 4.26800 27.37700
C  1.29600 4.42800 25.95200
C  1.33200 5.85900 25.71800
C  1.11400 3.08200 28.22400
C  1.22000 3.40300 24.82500
O  1.35500 3.68400 23.58900
C  0.76200 2.01300 25.19200
N  1.67800 8.90400 24.98000
C  1.57100 7.85300 24.10000
C  1.55800 8.37900 22.63700
C  1.32300 9.88200 22.88900
C  1.45100 10.07500 24.39600
C  2.82800 7.98700 21.81100
C  0.03100 10.47400 22.25900
C  -1.20500 10.74200 23.09700
N  1.58300 10.59600 27.42800
C  1.63100 11.59000 26.45900
C  1.61600 12.91300 27.12500
C  1.74700 12.59600 28.51400
C  1.66800 11.23000 28.64300
C  1.70300 14.24800 26.61700
C  1.98800 13.15900 29.81800
O  2.17200 14.32400 30.20800
C  1.97900 11.99600 30.81800
C  3.08000 12.04400 31.74400
O  4.23700 11.69300 31.51500
O  2.67300 12.49900 32.95300
C  3.66100 12.47700 34.09400
H  1.50800 5.09100 29.99100
H  1.48700 5.95700 23.48100
H  1.36500 12.23400 24.56200
H  2.47600 9.37000 32.23100
H  1.24800 6.77600 32.17200
H  3.77400 6.14400 31.03600
H  3.18700 5.90100 32.56600
H  4.01100 7.52300 32.13800
H  -0.51900 8.56300 31.99200
H  0.07400 10.14800 31.84800
H  -0.82100 9.18900 34.02900
H  0.42300 10.29100 34.17500
H  0.17000 2.57800 28.01500
H  1.04700 3.33500 29.28200
H  2.01200 2.51200 27.98600
H  0.63500 1.46600 24.25800
H  -0.20500 2.08200 25.69200
H  1.38600 1.43700 25.87600
H  0.70800 7.91000 22.14100
H  2.10300 10.50900 22.45700
H  3.51000 7.55100 22.54000
H  3.32400 8.86400 21.39500
H  2.51300 7.25100 21.07100
H  -0.34700 9.71800 21.57100
H  0.24400 11.36300 21.66500
H  -2.00400 10.22000 22.57100
H  -1.38500 11.81700 23.11600
H  -1.25200 10.45600 24.14800
H  2.69600 14.55600 26.29100
H  1.44200 14.92300 27.43300
H  0.96500 14.58900 25.89100
H  1.03800 12.12800 31.35300
H  4.45200 11.74200 33.94600
H  3.09600 12.29600 35.00900
H  4.12700 13.45400 34.22600
Mg 24.30300 -5.47800 45.69800
C  26.52900 -3.25000 44.19100
C  21.88300 -4.52500 43.45200
C  22.46100 -8.13700 46.58400
C  27.10200 -6.74100 47.58400
N  24.18700 -3.98200 44.04400
C  25.30900 -3.29600 43.54000
C  24.87200 -2.46900 42.30700
C  23.32200 -2.78300 42.16600
C  23.07900 -3.85300 43.29200
C  22.36100 -1.63300 42.52000
C  25.68100 -2.82600 40.98000
C  26.27900 -1.57800 40.24500
H  25.79900 -1.19000 38.89500
N  22.35300 -6.06300 45.26600
C  21.52700 -5.60900 44.26900
C  20.25300 -6.40000 44.35400
C  20.40200 -7.29800 45.32100
C  21.74400 -7.16500 45.78200
C  19.10500 -6.20800 43.42100
C  19.32800 -8.29400 45.75600
O  18.22500 -8.29300 45.22300
C  19.49400 -9.39600 46.88500
N  24.76000 -7.20000 46.88700
C  23.83100 -8.23100 47.00500
C  24.46900 -9.48000 47.60600
C  25.78800 -8.90300 48.25300
C  25.96600 -7.58900 47.49700
C  23.64300 -10.16800 48.80500
C  27.04600 -9.86800 48.11200
C  27.65100 -10.40600 49.40700
N  26.36700 -5.06600 46.00000
C  27.33700 -5.51000 46.87000
C  28.58000 -4.86300 46.57200
C  28.26300 -3.98000 45.54400
C  26.91500 -4.11500 45.24600
C  29.86100 -5.22900 47.12200
C  28.84400 -3.00300 44.68900
O  30.06100 -2.69700 44.60100
C  27.68700 -2.44200 43.83900
C  27.69400 -0.94600 44.12000
O  27.20000 -0.42400 45.10400
O  28.38600 -0.25700 43.14200
C  28.80900 1.12900 43.29600
H  21.15400 -4.29900 42.67100
H  21.86700 -9.04400 46.71300
H  28.02500 -7.06000 48.07200
H  25.06000 -1.42300 42.55000
H  23.10600 -3.15200 41.16300
H  22.69400 -0.69500 42.07400
H  22.41500 -1.38400 43.57900
H  21.40000 -1.92300 42.09600
H  25.08900 -3.37800 40.25000
H  26.48700 -3.45400 41.36000
H  27.35900 -1.70400 40.16900
H  26.02500 -0.78600 40.95100
H  18.99500 -7.11900 42.83400
H  19.43500 -5.38400 42.78800
H  18.26500 -5.87000 44.02700
H  18.47500 -9.48000 47.26200
H  20.07700 -8.92800 47.67900
H  19.84900 -10.37300 46.55800
H  24.81200 -10.09200 46.77200
H  25.61600 -8.70600 49.31100
H  23.15800 -11.10700 48.53700
H  22.96200 -9.37900 49.12500
H  24.33700 -10.31400 49.63200
H  27.80900 -9.41500 47.48000
H  26.75200 -10.71900 47.49800
H  27.45300 -9.79000 50.28400
H  28.70200 -10.67500 49.30600
H  27.20800 -11.32300 49.79500
H  29.85700 -4.87300 48.15200
H  30.66800 -4.62400 46.70900
H  30.14100 -6.26700 46.93900
H  28.04900 -2.59000 42.82100
H  27.95900 1.74200 42.99300
H  29.62400 1.43100 42.63900
H  29.17800 1.61100 44.20000

