158

Mg 2.02200 -1.44000 44.03700
C  5.36900 -1.04100 43.28900
C  1.36800 1.52700 42.26700
C  -1.33700 -2.06600 44.08800
C  2.64200 -4.63100 45.10500
N  3.19300 -0.07200 42.72800
C  4.56300 -0.03800 42.64200
C  5.12000 1.18200 41.76700
C  3.80100 1.98700 41.54700
C  2.72600 1.09600 42.26500
C  3.97400 3.36900 42.21000
C  5.69400 0.54400 40.51200
C  6.79700 1.32800 39.86700
H  6.51000 2.08100 38.56800
N  0.18500 -0.39600 43.31600
C  0.20000 0.88100 42.74400
C  -1.20400 1.42800 42.67500
C  -2.05300 0.32600 43.11800
C  -1.09500 -0.78400 43.59100
C  -1.55400 2.85300 42.16800
C  -3.60700 0.30000 43.00200
O  -4.23600 1.15900 42.39800
C  -4.34400 -0.75800 43.57100
N  0.84100 -3.10800 44.50000
C  -0.55100 -3.18500 44.43600
C  -1.13900 -4.57200 44.80500
C  0.22000 -5.34800 44.99200
C  1.35400 -4.28600 44.86700
C  -2.18000 -4.48300 45.99000
C  0.44800 -6.64300 44.08900
C  0.39400 -8.02000 44.79100
N  3.69600 -2.58000 44.37500
C  3.79300 -3.90300 44.76100
C  5.22000 -4.22500 44.84600
C  5.87400 -3.09900 44.32100
C  4.88800 -2.16500 43.96000
C  5.71000 -5.51100 45.33900
C  7.12500 -2.46900 44.01500
O  8.27700 -2.88800 44.18200
C  6.91600 -1.12600 43.34400
C  7.66700 0.01400 43.91800
O  8.62900 0.45400 43.33000
O  7.00400 0.70300 44.97800
C  7.41400 2.12100 45.27900
H  1.09900 2.54600 41.98100
H  -2.39400 -2.27200 43.90700
H  2.91500 -5.59800 45.53200
H  5.94400 1.62900 42.32300
H  3.43900 2.04800 40.52100
H  4.72100 3.33900 43.00400
H  3.08300 3.74400 42.71300
H  4.28100 4.11900 41.48000
H  4.87500 0.46100 39.79800
H  5.92500 -0.52000 40.56400
H  7.55500 0.63100 39.51000
H  7.24900 2.05800 40.53800
H  -1.66400 2.82000 41.08400
H  -0.82900 3.54700 42.59300
H  -2.53100 3.08200 42.59200
H  -5.39700 -0.52100 43.72200
H  -3.94600 -0.97200 44.56300
H  -4.17200 -1.61300 42.91600
H  -1.74800 -4.79100 43.92800
H  0.18900 -5.73300 46.01100
H  -1.76400 -5.00400 46.85200
H  -3.10800 -4.98100 45.70700
H  -2.31200 -3.42300 46.20200
H  1.41800 -6.50800 43.61100
H  -0.42900 -6.59500 43.44400
H  0.28500 -8.05200 45.87500
H  1.27900 -8.60400 44.54000
H  -0.54700 -8.47800 44.48400
H  5.29200 -6.26200 44.66900
H  5.43200 -5.70900 46.37500
H  6.79600 -5.54800 45.25700
H  7.25300 -1.26200 42.31600
H  7.83000 2.26100 46.27600
H  6.51300 2.71900 45.14100
H  8.19100 2.56000 44.65300
Mg 24.11900 -6.25900 45.27000
C  26.31600 -3.86400 43.93300
C  21.55900 -4.91100 43.49300
C  22.34600 -9.00600 46.04100
C  27.09300 -7.72600 46.71400
N  24.03300 -4.70100 43.88400
C  24.99700 -3.75100 43.44400
C  24.38800 -2.68700 42.51400
C  22.90600 -3.00500 42.62400
C  22.81000 -4.26100 43.39600
C  22.08600 -1.85700 43.35400
C  25.07700 -2.77000 41.06900
C  25.61400 -1.48800 40.30100
H  25.05500 -1.39700 38.86600
N  22.13300 -6.80900 44.98000
C  21.25900 -6.15900 44.17000
C  20.11500 -6.94400 43.99400
C  20.20900 -8.11200 44.79000
C  21.59000 -7.98400 45.29700
C  18.92400 -6.59500 43.21500
C  19.14800 -9.18300 45.05500
O  17.99300 -8.86400 44.67700
C  19.37300 -10.41100 45.77400
N  24.66200 -8.08100 46.06200
C  23.70200 -9.08700 46.25400
C  24.33600 -10.37400 46.78500
C  25.77100 -9.89800 47.17300
C  25.87600 -8.43600 46.63800
C  23.54500 -11.03200 47.89900
C  26.99900 -10.86700 46.82700
C  28.04500 -11.07600 47.88800
N  26.30700 -5.83300 45.38200
C  27.33000 -6.54000 45.97500
C  28.60600 -5.82900 45.84800
C  28.26900 -4.76900 45.03000
C  26.85600 -4.83100 44.80800
C  29.99500 -6.17000 46.30700
C  28.74000 -3.66800 44.17600
O  29.88900 -3.29600 43.98500
C  27.50800 -3.06700 43.47000
C  27.49700 -1.60000 43.86700
O  27.01300 -1.14800 44.93200
O  28.30100 -0.88500 43.00600
C  28.81300 0.38100 43.50000
H  20.76800 -4.25900 43.11700
H  21.79300 -9.94600 46.09600
H  28.00200 -8.19300 47.10000
H  24.63900 -1.76000 43.02800
H  22.40300 -2.97200 41.65800
H  22.50300 -1.80700 44.36000
H  21.05900 -2.21100 43.44200
H  22.11600 -0.87400 42.88500
H  24.34100 -3.27900 40.44800
H  25.98200 -3.36900 41.17600
H  26.69800 -1.57700 40.23200
H  25.27100 -0.66300 40.92600
H  18.72600 -7.32300 42.42800
H  18.95900 -5.56200 42.86900
H  18.02700 -6.60100 43.83400
H  18.51700 -11.02700 45.49800
H  19.30100 -10.17300 46.83500
H  20.25500 -10.99100 45.50500
H  24.37400 -10.97800 45.87800
H  25.76000 -9.65400 48.23500
H  24.23500 -11.19700 48.72700
H  23.12600 -11.99000 47.59000
H  22.70500 -10.45600 48.28600
H  27.38300 -10.67300 45.82500
H  26.48900 -11.83000 46.79100
H  27.86600 -12.03900 48.36600
H  27.85300 -10.37400 48.70000
H  29.04000 -10.97600 47.45400
H  30.04100 -5.96100 47.37600
H  30.80100 -5.66200 45.77800
H  30.15400 -7.24400 46.20300
H  27.72300 -3.21000 42.41100
H  28.81300 0.52400 44.58000
H  28.07200 1.13300 43.22800
H  29.77300 0.64300 43.05600

