158

Mg 17.52000 -0.87300 27.97000
C  16.45900 1.18600 30.57500
C  19.56400 -2.53300 29.99500
C  19.12000 -2.41700 25.26500
C  15.95400 1.25900 25.74600
N  18.05300 -0.53800 30.08600
C  17.41000 0.24600 31.02400
C  17.88300 -0.11900 32.41100
C  18.98700 -1.17700 32.09300
C  18.89400 -1.45200 30.60200
C  20.45400 -0.69500 32.39900
C  16.74500 -0.51500 33.44000
C  17.00700 -0.26500 34.98600
H  18.42500 0.18500 35.53400
N  18.86500 -2.50700 27.73700
C  19.56100 -3.03900 28.69700
C  20.31400 -4.16400 28.23100
C  20.20500 -4.16800 26.85400
C  19.38500 -2.95600 26.53900
C  21.08500 -5.04300 29.15900
C  20.76700 -5.02300 25.74800
O  20.49600 -4.94500 24.55800
C  21.57900 -6.09700 26.19400
N  17.46000 -0.69200 25.78700
C  18.25600 -1.35400 24.90400
C  17.99800 -0.76700 23.46900
C  16.78700 0.09400 23.66000
C  16.78800 0.24400 25.11900
C  19.26400 -0.05700 22.86900
C  15.47300 -0.30700 23.00900
C  14.36900 -0.93500 23.86300
N  16.43200 0.81000 28.04600
C  15.78300 1.55600 27.06400
C  14.95600 2.61100 27.63800
C  15.15800 2.49400 29.00300
C  16.08400 1.39700 29.24100
C  14.14500 3.66800 26.92000
C  14.88200 3.11700 30.34600
O  14.28300 4.10400 30.68800
C  15.65100 2.15400 31.36200
C  16.50700 3.03800 32.24700
O  17.60900 3.42600 31.94900
O  15.84600 3.39500 33.43200
C  16.66200 4.07400 34.48400
H  20.11500 -3.13400 30.72100
H  19.60600 -2.85500 24.39100
H  15.51900 1.92500 24.99800
H  18.32400 0.79300 32.81400
H  18.78600 -2.07900 32.67100
H  20.38600 0.39100 32.34100
H  21.12000 -1.09300 31.63300
H  20.83900 -0.86900 33.40400
H  16.55300 -1.58700 33.46600
H  15.73500 -0.13700 33.27800
H  16.78200 -1.24900 35.39800
H  16.30900 0.47600 35.37400
H  22.15500 -4.84400 29.09500
H  21.19100 -6.11300 28.98200
H  20.86000 -4.86400 30.21000
H  20.95200 -6.66100 26.88600
H  22.47500 -5.64500 26.61900
H  21.93300 -6.72700 25.37800
H  17.75700 -1.52900 22.72800
H  17.01500 1.04300 23.17600
H  20.04900 0.04000 23.61900
H  18.97500 0.91400 22.46600
H  19.65800 -0.64100 22.03700
H  15.78600 -0.98300 22.21300
H  15.06500 0.57600 22.51700
H  14.65300 -1.41800 24.79900
H  14.03100 -1.76600 23.24400
H  13.52500 -0.25100 23.95000
H  13.13000 3.27500 26.96100
H  14.55200 3.84800 25.92400
H  14.22900 4.61000 27.46300
H  15.02600 1.60300 32.06600
H  17.29800 3.31200 34.93700
H  15.86100 4.45200 35.11800
H  17.31000 4.81800 34.02000
Mg 0.91600 43.03900 26.42000
C  2.97300 43.22800 29.11700
C  -1.77600 42.57400 28.82700
C  -1.38000 42.42600 23.95800
C  3.47600 43.35300 24.20500
N  0.65500 42.70800 28.70800
C  1.70900 42.91000 29.61300
C  1.26500 42.71700 31.00500
C  -0.20900 42.24500 30.78400
C  -0.51000 42.52200 29.30900
C  -0.51600 40.75900 31.21900
C  1.33100 44.10000 31.71200
C  1.14200 44.25300 33.19700
H  0.91900 42.93600 34.01200
N  -1.33000 42.61300 26.37400
C  -2.19100 42.57500 27.45800
C  -3.55300 42.27800 26.99700
C  -3.42000 42.17900 25.54900
C  -1.97500 42.44000 25.21600
C  -4.75600 42.12400 27.94000
C  -4.44800 41.69700 24.61500
O  -4.19700 41.39900 23.46800
C  -5.84400 41.59000 25.14200
N  1.06500 42.67700 24.48400
C  -0.00500 42.46700 23.64800
C  0.44200 42.50800 22.16600
C  1.89800 43.03100 22.21000
C  2.18300 43.07100 23.70300
C  0.30700 41.13100 21.44700
C  2.03100 44.41900 21.52500
C  1.94800 45.68800 22.39900
N  2.81700 43.29600 26.54200
C  3.82500 43.48300 25.61600
C  5.13600 43.71000 26.27500
C  4.82000 43.63900 27.60000
C  3.41300 43.36900 27.74700
C  6.58100 43.77600 25.69700
C  5.33500 43.79600 28.96300
O  6.43900 44.12300 29.33300
C  4.23900 43.45000 29.90900
C  4.64100 42.18600 30.54600
O  4.63700 41.10200 30.11100
O  5.00300 42.52000 31.81700
C  5.71800 41.54900 32.68300
H  -2.63500 42.36600 29.46900
H  -2.05800 42.37500 23.10300
H  4.39600 43.61400 23.67900
H  1.89900 41.95600 31.46000
H  -0.87400 42.86100 31.38900
H  -1.10700 40.28900 30.43300
H  -0.96700 40.75000 32.21100
H  0.36100 40.18000 31.50800
H  0.50700 44.71600 31.34900
H  2.28200 44.55600 31.43900
H  0.33900 44.92000 33.51000
H  2.11100 44.58200 33.57300
H  -5.45000 42.91000 27.63900
H  -4.48000 42.26500 28.98500
H  -5.18500 41.12800 27.82900
H  -5.98000 40.65500 25.68500
H  -6.46300 41.55000 24.24600
H  -6.16000 42.48200 25.68300
H  -0.34300 43.15100 21.76800
H  2.52400 42.27400 21.73800
H  1.24700 40.62000 21.23800
H  -0.27200 41.13800 20.52300
H  -0.29300 40.40400 21.99400
H  1.25400 44.45600 20.76100
H  2.95200 44.33400 20.94900
H  1.27100 46.37200 21.88700
H  2.95700 46.08800 22.49400
H  1.67000 45.63200 23.45100
H  7.18000 43.16400 26.37100
H  6.89800 44.81800 25.75100
H  6.58100 43.37100 24.68600
H  4.10700 44.31300 30.56200
H  6.60400 42.02300 33.10500
H  6.11300 40.71500 32.10300
H  5.11300 41.05000 33.44100

