158

Mg -1.68100 17.35600 26.86300
C  -2.34500 15.38100 29.63200
C  -2.36600 20.05800 28.76500
C  -1.46100 19.31700 24.08600
C  -1.65000 14.48000 24.89800
N  -2.14300 17.72300 29.00400
C  -2.27700 16.74700 30.02300
C  -2.56100 17.42700 31.42700
C  -2.79900 18.89000 31.04800
C  -2.41100 18.86900 29.48800
C  -4.29800 19.49300 31.29600
C  -1.41000 17.25900 32.46600
C  -1.84600 16.78600 33.88300
H  -0.87000 16.80300 35.06300
N  -1.75400 19.42700 26.50300
C  -2.04100 20.34300 27.43700
C  -2.01500 21.62300 26.87300
C  -1.64600 21.50900 25.47000
C  -1.52900 20.06300 25.29300
C  -2.11000 22.88400 27.74100
C  -1.35400 22.58700 24.43500
O  -1.05200 22.24700 23.27000
C  -1.74900 23.98600 24.65400
N  -1.45600 16.96900 24.83000
C  -1.37900 17.96900 23.86600
C  -1.12100 17.32300 22.53700
C  -0.98700 15.81000 22.86700
C  -1.47300 15.71700 24.27300
C  -2.21600 17.55000 21.48500
C  0.48100 15.25500 22.63700
C  1.61800 15.66100 23.61900
N  -1.93500 15.33900 27.15000
C  -1.87400 14.30200 26.26400
C  -2.11300 13.07200 26.90500
C  -2.21000 13.41700 28.22700
C  -2.18600 14.82400 28.33500
C  -2.22400 11.68500 26.35300
C  -2.49600 12.90700 29.59500
O  -2.72000 11.76800 29.96600
C  -2.66100 14.15600 30.49500
C  -1.65300 13.78600 31.64000
O  -0.48200 13.99400 31.53900
O  -2.32100 13.25300 32.74200
C  -1.51300 12.95900 33.95800
H  -2.62000 20.94100 29.35500
H  -1.60800 19.93700 23.19900
H  -1.74200 13.60600 24.25000
H  -3.47000 17.04500 31.89200
H  -2.17600 19.55200 31.64900
H  -5.01500 18.77700 31.69700
H  -4.72700 19.96800 30.41400
H  -4.12100 20.27500 32.03500
H  -0.87700 18.20200 32.58500
H  -0.65400 16.65900 31.96000
H  -2.17400 15.75400 33.75700
H  -2.68000 17.42300 34.17600
H  -3.12700 23.27500 27.76400
H  -1.49800 23.71300 27.38600
H  -1.73200 22.82400 28.76100
H  -1.79800 24.63900 23.78300
H  -1.07000 24.41100 25.39300
H  -2.72400 24.00700 25.14100
H  -0.13600 17.66600 22.22000
H  -1.73700 15.23800 22.32000
H  -1.79700 17.47600 20.48100
H  -2.52900 18.59200 21.55500
H  -3.03800 16.87400 21.71700
H  0.75100 15.42100 21.59400
H  0.36800 14.17600 22.73800
H  1.27000 16.37600 24.36400
H  2.26100 16.30700 23.02100
H  2.19500 14.78700 23.92100
H  -1.76200 11.65200 25.36600
H  -3.31200 11.64100 26.30600
H  -1.83500 10.86600 26.95900
H  -3.63200 14.22400 30.98500
H  -1.30700 13.87100 34.51900
H  -0.49000 12.62800 33.78000
H  -1.91000 12.14900 34.57000
Mg 49.04800 46.48900 42.43100
C  45.83000 47.03900 41.21900
C  49.22300 43.59600 40.51900
C  52.43600 46.18200 43.15400
C  49.14400 49.71300 43.57000
N  47.63900 45.44800 41.05000
C  46.37000 45.85800 40.66900
C  45.81000 45.09600 39.53100
C  46.86300 43.84700 39.50000
C  48.05100 44.33200 40.37100
C  46.22000 42.47300 39.88000
C  45.77900 45.91400 38.17100
C  44.45100 45.70500 37.27100
H  44.71300 44.70700 36.18100
N  50.59700 44.94800 42.06500
C  50.44300 43.85700 41.26400
C  51.62000 43.04500 41.36300
C  52.59000 43.75300 42.14800
C  51.91600 45.07300 42.47100
C  51.71900 41.63900 40.72900
C  54.00200 43.22600 42.64600
O  54.42900 42.16400 42.27100
C  54.86600 43.98600 43.68300
N  50.58200 47.81700 43.21800
C  51.87000 47.42900 43.50600
C  52.66100 48.62100 44.04600
C  51.58800 49.80800 44.07900
C  50.35600 49.06000 43.57400
C  53.40400 48.52700 45.32500
C  51.98700 51.10000 43.20100
C  52.36200 52.37400 43.93700
N  47.66500 48.03700 42.62000
C  47.88300 49.32400 43.03900
C  46.67000 50.08000 43.01000
C  45.79500 49.23300 42.23600
C  46.47700 48.04000 42.07200
C  46.42000 51.42900 43.54100
C  44.54000 49.14100 41.61000
O  43.60400 49.88100 41.70500
C  44.53200 47.75000 40.81000
C  43.28600 47.00700 41.04900
O  42.35100 46.98000 40.28500
O  43.19000 46.43900 42.23000
C  41.93100 45.73000 42.54800
H  49.30200 42.67000 39.94600
H  53.51000 46.17800 43.35200
H  49.21700 50.74200 43.92800
H  44.79200 44.77700 39.75500
H  47.27500 43.63800 38.51200
H  45.14400 42.46100 39.70400
H  46.32100 42.28000 40.94800
H  46.67200 41.58800 39.43200
H  46.69200 45.64900 37.63800
H  45.99300 46.95400 38.41700
H  44.10800 46.63800 36.82400
H  43.67900 45.24800 37.88900
H  51.07400 40.91100 41.22100
H  52.73400 41.26000 40.60300
H  51.34500 41.61700 39.70500
H  55.47600 43.24800 44.20300
H  54.16600 44.29600 44.45900
H  55.48400 44.76900 43.24200
H  53.41200 48.70400 43.26000
H  51.20900 49.98000 45.08700
H  54.10600 47.69400 45.28900
H  52.66500 48.38800 46.11500
H  53.91600 49.46600 45.53100
H  51.17500 51.35900 42.52200
H  52.82900 50.92600 42.53200
H  52.88000 53.07700 43.28600
H  52.98200 52.27400 44.82800
H  51.41600 52.89900 44.07300
H  46.77800 52.16200 42.81700
H  46.97300 51.57000 44.46900
H  45.35200 51.47100 43.75200
H  44.53500 47.90200 39.73100
H  41.15300 46.49100 42.60800
H  41.84300 45.28000 43.53700
H  41.76000 44.96600 41.79000

