158

Mg -0.03200 7.92900 24.76700
C  0.87700 9.34100 27.83100
C  0.30800 4.83800 26.40300
C  -0.58600 6.32900 21.89900
C  0.16000 10.93200 23.20100
N  0.77700 7.23800 26.90500
C  0.66800 7.93600 28.05200
C  0.83800 7.16100 29.35200
C  0.78000 5.75300 28.78100
C  0.55100 5.95900 27.27200
C  2.11700 4.96800 29.07000
C  -0.25900 7.54600 30.35900
C  -0.39000 6.89700 31.77200
H  -0.18900 7.69100 33.04500
N  -0.06800 5.84400 24.16700
C  0.04400 4.78800 24.99000
C  -0.04000 3.53500 24.20200
C  -0.32300 3.98000 22.84600
C  -0.36300 5.41600 22.95400
C  0.17100 2.12300 24.72000
C  -0.51600 3.19500 21.51000
O  -0.63000 3.66500 20.41100
C  -0.35400 1.72900 21.62200
N  -0.35900 8.58600 22.83700
C  -0.58200 7.73100 21.82900
C  -0.77200 8.44900 20.49300
C  -0.75600 9.96200 21.04100
C  -0.19500 9.85800 22.43700
C  0.21400 7.98500 19.35900
C  -2.13300 10.63200 20.98000
C  -2.43600 11.58000 19.87700
N  0.37200 9.78600 25.31900
C  0.52000 10.95500 24.55300
C  1.14300 11.93900 25.41100
C  1.22400 11.35000 26.69000
C  0.80100 10.05200 26.60400
C  1.38600 13.39200 25.11100
C  1.54500 11.76300 28.10800
O  1.82400 12.81600 28.67100
C  1.30400 10.45500 28.83300
C  2.66600 10.03500 29.39300
O  3.55700 9.58700 28.74000
O  2.56500 9.99900 30.78200
C  3.57900 9.21500 31.40700
H  0.37700 3.86200 26.88700
H  -0.74600 5.94400 20.89000
H  0.26800 11.88400 22.67700
H  1.83600 7.41900 29.70800
H  -0.06400 5.15800 29.13200
H  2.76700 5.09800 28.20500
H  1.92700 3.90300 29.20100
H  2.59000 5.19400 30.02500
H  -1.18000 7.42900 29.78800
H  -0.02000 8.60100 30.49300
H  0.14700 5.94800 31.77600
H  -1.44400 6.62500 31.73400
H  0.15300 2.01700 25.80500
H  1.14100 1.72500 24.42000
H  -0.70500 1.60700 24.32600
H  0.44500 1.53300 22.33800
H  0.01100 1.43700 20.63700
H  -1.22000 1.17100 21.97700
H  -1.77500 8.11200 20.23100
H  -0.06000 10.53400 20.42800
H  0.97100 7.31200 19.76200
H  0.73300 8.88500 19.02800
H  -0.42600 7.66700 18.53600
H  -2.25700 11.23100 21.88200
H  -2.93000 9.89400 21.07100
H  -1.74100 11.31400 19.08000
H  -2.18900 12.59600 20.18600
H  -3.48400 11.45900 19.60000
H  1.67500 13.49700 24.06500
H  2.24800 13.66800 25.71900
H  0.61600 14.11500 25.37900
H  0.65600 10.72200 29.66800
H  3.32700 9.11900 32.46300
H  4.46800 9.84300 31.34300
H  3.83600 8.29600 30.88100
Mg 30.53200 57.67100 40.09700
C  27.57600 55.77400 39.26100
C  32.40300 54.99100 38.92000
C  33.15900 59.63000 40.18400
C  28.43800 60.52200 40.52700
N  30.03600 55.59900 39.20600
C  28.79000 55.09200 39.01800
C  28.85500 53.72600 38.30400
C  30.41200 53.32500 38.47600
C  31.02600 54.67600 38.96500
C  30.67900 52.25100 39.58500
C  28.15600 53.57400 36.83000
C  29.12700 53.49100 35.64200
H  28.62100 53.92200 34.24100
N  32.52200 57.31100 39.61800
C  33.08300 56.18800 39.22700
C  34.51100 56.44400 39.04100
C  34.75800 57.80200 39.34800
C  33.43200 58.28500 39.80400
C  35.47400 55.40300 38.50700
C  36.15900 58.63100 39.18000
O  37.14800 58.01100 38.77900
C  36.39500 59.95800 39.66800
N  30.77700 59.79700 40.25100
C  31.97800 60.34200 40.41900
C  31.98200 61.84300 40.58600
C  30.45900 62.11700 40.85000
C  29.82600 60.75500 40.49400
C  33.04500 62.46900 41.51800
C  29.85900 63.33500 40.15100
C  29.28300 64.41800 41.03500
N  28.45800 58.07200 39.97200
C  27.77900 59.25700 40.23300
C  26.29400 58.97700 40.23300
C  26.22300 57.66300 39.80400
C  27.50300 57.13400 39.66400
C  25.21500 59.90700 40.53000
C  25.30100 56.61500 39.43000
O  24.07100 56.59700 39.35400
C  26.14500 55.35300 39.11000
C  25.77900 54.18200 39.99800
O  26.33700 53.75400 40.98600
O  24.67400 53.56100 39.43900
C  24.19200 52.39600 40.22500
H  33.00800 54.16300 38.54600
H  34.04800 60.24000 40.35600
H  27.66800 61.26600 40.74200
H  28.35600 52.95600 38.89300
H  30.83400 52.94600 37.54500
H  31.06400 52.67700 40.51100
H  31.35400 51.52400 39.13300
H  29.76500 51.69900 39.80400
H  27.70800 54.55000 36.64800
H  27.55600 52.66700 36.89900
H  29.23700 52.40900 35.56700
H  30.10600 53.92400 35.84700
H  35.33600 55.23500 37.43900
H  35.15400 54.48900 39.00800
H  36.50700 55.57900 38.80900
H  36.14100 59.95300 40.72800
H  35.84700 60.64800 39.02700
H  37.45900 60.18200 39.59000
H  32.14700 62.33800 39.62900
H  30.50000 62.38000 41.90700
H  32.69000 63.08500 42.34400
H  33.65100 63.17100 40.94500
H  33.72500 61.75500 41.98200
H  29.02800 63.01400 39.52200
H  30.56700 63.78100 39.45200
H  29.87800 65.33100 40.99800
H  29.14600 64.14200 42.08000
H  28.24700 64.50900 40.70800
H  25.28000 60.13700 41.59300
H  24.23100 59.54200 40.23400
H  25.50500 60.82800 40.02400
H  26.11000 55.08200 38.05500
H  24.25800 52.48000 41.31000
H  24.70800 51.48900 39.91100
H  23.12900 52.18800 40.10100

