158

Mg 24.12000 -4.42400 45.46700
C  26.64700 -2.41900 43.86400
C  21.81000 -3.22300 43.18900
C  21.97800 -7.00800 46.16400
C  26.56200 -5.90400 47.30000
N  24.21600 -2.97900 43.75600
C  25.33600 -2.27500 43.28000
C  24.89900 -1.31000 42.09900
C  23.29200 -1.35800 42.18900
C  23.09600 -2.58200 43.15900
C  22.78900 -0.06200 42.80700
C  25.38500 -1.85700 40.67600
C  25.90100 -0.73000 39.75500
H  25.40600 -0.76200 38.33300
N  22.11200 -4.92300 44.89700
C  21.36200 -4.29400 43.94300
C  20.03700 -4.94400 43.90400
C  20.00400 -6.04600 44.76300
C  21.36300 -6.00000 45.34700
C  18.92600 -4.38300 42.92500
C  18.85600 -7.01200 45.09200
O  17.78700 -6.81500 44.53400
C  18.92300 -8.00500 46.13500
N  24.22100 -6.24400 46.52500
C  23.19000 -7.08500 46.77300
C  23.65800 -8.28300 47.58800
C  25.03000 -7.72500 48.23100
C  25.31300 -6.49700 47.30500
C  22.54700 -8.52400 48.63100
C  26.16600 -8.85900 48.37200
C  26.82200 -9.00500 49.83000
N  26.15100 -4.23700 45.64300
C  27.03000 -4.89000 46.52100
C  28.34800 -4.27000 46.42800
C  28.21600 -3.34100 45.37200
C  26.86800 -3.33300 44.96600
C  29.50700 -4.51200 47.33200
C  28.89700 -2.30700 44.68700
O  30.08300 -2.10500 44.78700
C  27.97400 -1.71400 43.57600
C  27.87300 -0.19100 43.77900
O  27.11800 0.35300 44.64600
O  28.66100 0.48800 42.91500
C  28.90600 1.93200 43.27700
H  21.08600 -2.79100 42.49500
H  21.34600 -7.87400 46.37300
H  27.33400 -6.50500 47.78600
H  25.42600 -0.37900 42.30600
H  22.79200 -1.58200 41.24600
H  21.94900 0.27200 42.19700
H  23.54500 0.71700 42.71100
H  22.43700 -0.16900 43.83300
H  24.54100 -2.29600 40.14300
H  26.18600 -2.58100 40.82200
H  26.93600 -0.98600 39.52700
H  25.79700 0.23000 40.26000
H  19.02200 -5.18800 42.19600
H  19.13600 -3.34000 42.68500
H  17.90200 -4.47600 43.28500
H  19.35500 -7.59800 47.04900
H  19.57700 -8.78200 45.73900
H  17.89800 -8.34800 46.28000
H  23.93200 -9.16000 47.00200
H  24.75700 -7.31100 49.20100
H  22.03400 -9.44600 48.35400
H  21.85300 -7.68800 48.70700
H  22.99000 -8.68500 49.61300
H  26.98900 -8.77600 47.66100
H  25.65900 -9.78300 48.09400
H  27.88400 -9.23600 49.91000
H  26.29100 -9.88400 50.19700
H  26.48500 -8.08200 50.30200
H  29.20000 -5.24700 48.07500
H  29.77500 -3.52700 47.71600
H  30.46200 -4.74300 46.86000
H  28.35800 -1.98100 42.59200
H  28.53500 2.58000 42.48300
H  29.97600 2.14200 43.29600
H  28.49200 2.28600 44.22000
Mg 6.21900 54.03100 40.87300
C  5.24200 50.69300 40.67500
C  9.28400 53.09600 39.64900
C  6.89400 57.22900 40.16900
C  2.78400 54.82400 41.61300
N  7.15000 52.09600 40.31700
C  6.57500 50.84100 40.36000
C  7.58100 49.76000 39.92800
C  8.92900 50.55900 40.03700
C  8.46300 52.03100 39.97800
C  9.93500 50.12400 41.18400
C  7.41300 49.14400 38.48000
C  6.62300 49.91800 37.43800
H  7.39900 50.67900 36.32200
N  7.91800 55.07600 40.03300
C  9.12200 54.45100 39.68000
C  10.07800 55.42800 39.31200
C  9.39800 56.67100 39.31600
C  7.97900 56.38700 39.78900
C  11.53600 55.10200 38.97100
C  9.95600 57.96400 38.96100
O  11.10600 58.07000 38.61600
C  9.09600 59.27000 38.87800
N  4.88300 55.77000 40.69700
C  5.53300 56.99300 40.55200
C  4.47500 58.11000 40.70400
C  3.18000 57.31800 41.13800
C  3.64700 55.86800 41.17600
C  4.89200 59.08600 41.82900
C  1.84900 57.54100 40.28400
C  0.47000 57.64200 40.92600
N  4.32400 53.00200 41.12100
C  3.06000 53.49200 41.54000
C  2.20100 52.39900 41.79700
C  3.00800 51.28000 41.47900
C  4.27600 51.71000 41.05200
C  0.79200 52.40400 42.19900
C  3.06900 49.81000 41.45500
O  2.20900 48.94300 41.83500
C  4.49800 49.33600 40.94200
C  4.38700 48.48000 39.76000
O  3.79900 48.83300 38.74700
O  5.04600 47.32300 40.06300
C  5.03300 46.25800 39.02100
H  10.25600 52.64900 39.42900
H  7.06900 58.30200 40.27100
H  1.78900 55.16400 41.91100
H  7.54700 48.92500 40.62700
H  9.57500 50.46500 39.16400
H  10.79300 49.56800 40.80500
H  9.44800 49.50500 41.93700
H  10.33600 50.98200 41.72300
H  6.93700 48.16400 38.50800
H  8.32400 49.00600 37.89900
H  6.14400 50.69200 38.03800
H  5.75600 49.38000 37.05500
H  11.71000 54.02600 38.99700
H  12.24700 55.36800 39.75200
H  11.75600 55.41000 37.94900
H  8.13400 58.98100 38.45500
H  9.62300 60.03700 38.31100
H  9.08700 59.77100 39.84600
H  4.54700 58.54000 39.70500
H  2.87900 57.55400 42.15900
H  5.35500 59.94200 41.33700
H  5.63100 58.54600 42.41900
H  4.14900 59.42200 42.55200
H  1.90600 56.65600 39.65100
H  2.03600 58.43800 39.69300
H  -0.02000 58.44400 40.37400
H  0.59600 57.91900 41.97300
H  -0.05500 56.68800 40.89200
H  0.26200 52.15600 41.27900
H  0.47900 53.34200 42.65900
H  0.63100 51.60500 42.92200
H  4.98400 48.86600 41.79700
H  5.92500 45.66800 39.23000
H  5.05900 46.61900 37.99300
H  4.04700 45.79900 39.09700

