158

Mg 44.61100 4.46700 47.25700
C  42.27600 7.21000 46.64800
C  41.77700 2.41800 47.06100
C  46.56100 1.82500 46.85700
C  47.19000 6.64500 46.47600
N  42.35700 4.86300 46.84100
C  41.64600 5.94500 46.68200
C  40.18300 5.64500 46.49700
C  40.01500 4.22900 46.94300
C  41.46600 3.76300 46.97700
C  39.32000 4.01200 48.27800
C  39.63700 5.91500 45.01800
C  38.69900 7.02000 44.66300
H  39.15600 8.09600 43.64800
N  44.15200 2.37600 47.11500
C  42.97000 1.73200 47.14700
C  43.15500 0.31400 47.05200
C  44.56900 0.10300 46.91500
C  45.19000 1.47800 46.96900
C  42.01900 -0.69700 46.97800
C  45.28200 -1.24300 46.79700
O  44.57500 -2.23100 46.94200
C  46.66000 -1.40700 46.43800
N  46.52000 4.29600 46.58400
C  47.11300 3.05100 46.71400
C  48.69400 3.15600 46.53100
C  48.78900 4.72000 46.17500
C  47.41500 5.25000 46.54600
C  49.50500 2.80200 47.85100
C  49.22200 4.98400 44.72800
C  50.73100 4.76600 44.38300
N  44.74900 6.59700 46.86700
C  45.92900 7.33700 46.62700
C  45.59900 8.67900 46.48300
C  44.15300 8.66200 46.58500
C  43.68700 7.36900 46.62700
C  46.61000 9.82500 46.27000
C  42.93000 9.53200 46.66500
O  42.85100 10.75200 46.67900
C  41.72700 8.61100 46.57400
C  40.75600 8.96500 47.68300
O  40.59400 8.25500 48.66300
O  39.94100 10.01600 47.29400
C  38.88900 10.38400 48.20700
H  40.84000 1.85800 47.01100
H  47.32000 1.04000 46.87000
H  48.05700 7.28000 46.28600
H  39.58500 6.26500 47.16400
H  39.48800 3.61200 46.21500
H  39.24900 4.95900 48.81100
H  39.73900 3.28600 48.97400
H  38.36000 3.58000 47.99400
H  39.03300 5.05500 44.72900
H  40.58600 6.03400 44.49500
H  38.48300 7.61600 45.55000
H  37.71100 6.72800 44.30700
H  42.12300 -1.09400 45.96800
H  40.95800 -0.45500 47.04500
H  42.16800 -1.48200 47.71900
H  46.73600 -0.73800 45.58000
H  46.71500 -2.42600 46.05600
H  47.29300 -1.15800 47.28900
H  49.01600 2.52500 45.70200
H  49.45000 5.27700 46.83900
H  49.94700 3.71000 48.26100
H  50.21800 2.00600 47.63600
H  48.82600 2.41000 48.60700
H  49.08100 6.04000 44.50100
H  48.60900 4.31100 44.12800
H  50.87800 4.15600 43.49200
H  51.19100 4.16800 45.17000
H  51.25500 5.71800 44.31000
H  46.28000 10.75500 46.73300
H  46.73200 9.97600 45.19700
H  47.58500 9.58100 46.68900
H  41.18500 8.74900 45.63900
H  39.28800 10.73700 49.15800
H  38.19600 9.59100 48.48700
H  38.31900 11.21700 47.79600
Mg 41.48300 41.83500 26.79900
C  40.84200 44.23100 29.57400
C  42.48100 39.73100 29.24900
C  42.51500 39.81300 24.46600
C  41.18600 44.59000 24.59200
N  41.75700 42.05500 29.19700
C  41.30300 43.01400 30.08400
C  41.24600 42.46600 31.51600
C  41.80500 41.00100 31.34200
C  42.02700 40.90300 29.82100
C  43.14300 40.76600 32.06700
C  39.80600 42.52100 32.05500
C  39.59700 43.24600 33.38800
H  38.75600 42.50600 34.45400
N  42.29300 39.93800 26.78400
C  42.61100 39.26100 27.93800
C  43.13600 37.97300 27.57400
C  42.99900 37.84500 26.13500
C  42.60400 39.21700 25.72400
C  43.56700 36.96700 28.53900
C  43.23500 36.77800 25.13100
O  43.28500 36.94100 23.91500
C  43.53600 35.35900 25.69600
N  41.94700 42.23300 24.85600
C  42.22300 41.12700 24.02600
C  42.23700 41.56300 22.51300
C  41.72400 43.04900 22.63900
C  41.57800 43.31200 24.13600
C  43.57900 41.29900 21.75000
C  40.50600 43.43000 21.87700
C  39.23500 42.97200 22.49900
N  41.04600 43.94100 26.94900
C  40.97000 44.91000 25.99600
C  40.69400 46.15900 26.72800
C  40.51400 45.86700 28.07400
C  40.82500 44.53500 28.18700
C  40.36700 47.37300 25.93500
C  40.08300 46.54800 29.29000
O  39.70100 47.71000 29.48000
C  40.23600 45.43100 30.39300
C  41.11000 46.03200 31.33700
O  42.31800 46.06000 31.25500
O  40.41600 46.60500 32.36800
C  41.20200 47.06500 33.51500
H  42.68400 38.98300 30.01800
H  42.71700 39.18600 23.59600
H  40.96900 45.40500 23.89800
H  41.89200 43.10900 32.11400
H  41.09200 40.30000 31.77600
H  43.93900 40.34900 31.45100
H  42.89600 40.16800 32.94500
H  43.57700 41.72600 32.34700
H  39.40000 41.53900 32.29600
H  39.14400 42.92600 31.29000
H  38.97600 44.12900 33.23600
H  40.51800 43.65200 33.80600
H  44.17800 37.46000 29.29500
H  44.25600 36.24700 28.09800
H  42.69300 36.51900 29.01300
H  42.76800 35.32500 26.46800
H  44.52100 35.33600 26.16200
H  43.45500 34.67900 24.84800
H  41.35600 41.04400 22.13600
H  42.52500 43.60400 22.15000
H  43.34300 40.48300 21.06700
H  44.35900 41.01400 22.45600
H  43.69900 42.21700 21.17500
H  40.68100 42.90500 20.93800
H  40.37100 44.45300 21.52400
H  38.68200 42.46800 21.70500
H  38.54900 43.78700 22.73100
H  39.34600 42.19900 23.26000
H  40.64700 48.27800 26.47500
H  39.36400 47.48900 25.52500
H  41.03400 47.24700 25.08300
H  39.26700 45.18400 30.82800
H  42.09300 47.67900 33.37700
H  41.41100 46.13400 34.04100
H  40.44500 47.59600 34.09100

