158

Mg 49.55500 45.74900 41.86800
C  46.20100 46.26300 41.11900
C  49.42000 42.75800 40.56300
C  52.96800 45.62100 42.32100
C  49.75800 49.22000 42.76900
N  48.09000 44.80000 40.67100
C  46.79500 45.15900 40.48500
C  45.97300 44.07300 39.72300
C  46.93900 42.84400 39.85200
C  48.20600 43.46300 40.48800
C  46.30000 41.70200 40.64600
C  45.59100 44.57100 38.31800
C  44.20100 44.25400 37.66400
H  44.13200 43.21000 36.64300
N  50.97700 44.35100 41.51000
C  50.70600 43.12300 40.99500
C  52.00900 42.31600 40.84000
C  53.05600 43.07000 41.47100
C  52.38600 44.41700 41.86100
C  52.13400 41.04300 40.14900
C  54.46600 42.61600 41.61100
O  54.80300 41.48200 41.21900
C  55.52000 43.48300 42.23500
N  51.14100 47.28600 42.36400
C  52.44000 46.89000 42.58200
C  53.29600 48.06800 43.05800
C  52.27900 49.28900 42.99900
C  50.97300 48.58100 42.67100
C  54.01500 47.95000 44.44200
C  52.61600 50.49600 42.16400
C  51.92400 51.88900 42.61400
N  48.29500 47.39700 42.02400
C  48.48800 48.72200 42.53700
C  47.18400 49.31200 42.66000
C  46.27300 48.37900 42.21800
C  46.98100 47.23500 41.76800
C  46.87300 50.71300 43.12000
C  44.84600 48.05300 42.01100
O  43.87100 48.62900 42.50000
C  44.76200 46.76300 41.18000
C  43.76000 45.76700 41.79600
O  42.86200 45.17800 41.16600
O  43.88900 45.78500 43.20200
C  42.88200 44.91600 43.81200
H  49.20700 41.76300 40.16600
H  54.05700 45.66000 42.39000
H  49.65800 50.25200 43.11100
H  45.07400 43.94300 40.32600
H  47.19900 42.50800 38.84800
H  46.41100 41.69500 41.73100
H  46.62500 40.74800 40.23100
H  45.21300 41.77700 40.65300
H  46.29700 44.20100 37.57400
H  45.78700 45.64200 38.26300
H  43.68400 45.18600 37.43700
H  43.62800 43.85100 38.49900
H  52.90600 40.99700 39.38000
H  51.20100 40.75300 39.66500
H  52.36800 40.25400 40.86300
H  55.12800 43.95500 43.13600
H  55.93800 44.18500 41.51300
H  56.29100 42.77200 42.53100
H  54.10400 48.16000 42.33300
H  52.10200 49.61700 44.02400
H  53.76600 48.82800 45.03700
H  55.09400 47.84000 44.33300
H  53.74900 47.01100 44.92800
H  52.29800 50.23500 41.15500
H  53.68400 50.71100 42.11700
H  52.70600 52.64700 42.65700
H  51.53500 51.76200 43.62400
H  51.13800 52.21200 41.93200
H  47.17400 51.54600 42.48400
H  47.41400 50.81500 44.06100
H  45.80300 50.68200 43.32400
H  44.31900 47.13300 40.25500
H  42.99800 43.93300 43.35500
H  41.88300 45.27200 43.56000
H  43.14600 44.85000 44.86700
Mg 47.88200 34.78700 26.63900
C  45.70600 33.25000 29.04000
C  48.19300 37.59800 28.75000
C  49.71100 36.30600 24.32500
C  47.21300 32.19300 24.51400
N  46.93500 35.28800 28.63800
C  46.26200 34.46600 29.47400
C  46.42200 34.99400 30.95000
C  46.86400 36.55400 30.64500
C  47.40500 36.53900 29.22800
C  45.62700 37.53100 30.89700
C  47.52400 34.32100 31.84700
C  47.30000 34.45900 33.43000
H  46.11500 35.26900 33.92400
N  48.79900 36.70200 26.56500
C  48.77900 37.69800 27.46700
C  49.40000 38.89100 26.97300
C  49.80700 38.52600 25.65200
C  49.43600 37.12000 25.45000
C  49.40700 40.22200 27.79100
C  50.42500 39.43900 24.58200
O  50.65800 39.14100 23.43200
C  50.86500 40.78000 25.03700
N  48.21800 34.42700 24.61300
C  49.14200 35.10400 23.95200
C  49.63200 34.32600 22.72400
C  48.80200 33.04400 22.65900
C  48.03800 33.19800 24.02800
C  49.56900 35.09300 21.42900
C  49.66500 31.67100 22.57800
C  49.64300 31.03100 21.16900
N  46.65300 33.14300 26.66400
C  46.57300 32.11500 25.75000
C  45.64600 31.06800 26.24900
C  45.27800 31.49200 27.46400
C  45.93100 32.74000 27.73200
C  45.18100 29.94700 25.46200
C  44.45400 31.18300 28.63100
O  43.77300 30.19800 28.81400
C  44.71400 32.22300 29.70000
C  45.09700 31.66100 30.95300
O  46.08900 31.04100 31.13600
O  44.13400 31.90800 31.92000
C  44.40000 31.32400 33.25800
H  48.14800 38.40900 29.48000
H  50.43100 36.65700 23.58200
H  46.99500 31.37400 23.82500
H  45.52700 34.94100 31.56900
H  47.68200 36.79000 31.32600
H  44.73100 36.97000 31.16200
H  45.45300 38.09100 29.97800
H  45.87700 38.13500 31.76900
H  48.52600 34.57400 31.50000
H  47.45100 33.24700 31.67500
H  48.20300 34.91700 33.83500
H  47.32300 33.41800 33.75100
H  48.91200 40.96500 27.16600
H  50.44600 40.51500 27.94200
H  48.75900 40.15200 28.66400
H  50.00800 41.43600 25.18400
H  51.64500 41.10100 24.34700
H  51.36100 40.73500 26.00700
H  50.68800 34.13700 22.91900
H  48.00400 33.10700 21.91900
H  49.01300 34.57800 20.64500
H  50.54300 35.38400 21.03600
H  49.06000 36.02900 21.65700
H  49.07200 31.03500 23.23500
H  50.69700 31.65000 22.92900
H  49.26300 31.68300 20.38300
H  49.06200 30.10900 21.19400
H  50.65500 30.88600 20.79000
H  45.90000 29.12700 25.48600
H  44.99200 30.33000 24.45900
H  44.20800 29.62000 25.83000
H  43.67400 32.54500 29.65700
H  43.64500 30.56600 33.46800
H  44.15600 32.00200 34.07500
H  45.45900 31.13700 33.43300

