158

Mg 16.03600 -1.62800 27.92200
C  15.13000 0.38600 30.57500
C  18.06400 -3.36000 30.02300
C  17.32300 -3.25400 25.28500
C  13.97700 0.15200 25.82500
N  16.56400 -1.45500 30.03000
C  16.11300 -0.55000 30.98500
C  16.64700 -0.79600 32.36200
C  17.70700 -1.96400 32.12300
C  17.31900 -2.44800 30.66000
C  19.17500 -1.54700 32.50100
C  15.50700 -1.09600 33.41300
C  15.28900 0.04800 34.49000
H  16.44800 0.92600 35.01900
N  17.36700 -3.24800 27.75300
C  18.13400 -3.81300 28.71700
C  18.91900 -4.90800 28.26900
C  18.67700 -5.02500 26.86400
C  17.76500 -3.80300 26.54700
C  19.77000 -5.63700 29.27600
C  19.23700 -6.03100 25.83200
O  18.89300 -5.94400 24.62800
C  20.13000 -7.18300 26.21800
N  15.69700 -1.45600 25.88800
C  16.52100 -2.12500 24.97500
C  16.23900 -1.73100 23.50400
C  14.94600 -0.89200 23.70200
C  14.74200 -0.77700 25.19900
C  17.43600 -1.06200 22.75700
C  13.68300 -1.21600 22.88100
C  13.70600 -1.19100 21.34400
N  14.84700 0.05700 28.08500
C  14.00100 0.63400 27.13100
C  13.22600 1.65500 27.71500
C  13.58400 1.51300 29.09400
C  14.63400 0.59700 29.23900
C  12.31100 2.69300 27.00500
C  13.32600 2.07000 30.39900
O  12.44900 2.87600 30.68500
C  14.31400 1.42400 31.38500
C  15.15500 2.55900 31.99600
O  16.34500 2.79400 31.76000
O  14.45800 3.37800 32.87400
C  15.25900 4.47100 33.49500
H  18.63600 -3.85300 30.81200
H  17.75100 -3.67600 24.37300
H  13.32900 0.74100 25.17200
H  17.09100 0.18200 32.54900
H  17.43200 -2.79000 32.78000
H  19.75500 -1.39400 31.59200
H  19.57800 -2.38100 33.07600
H  19.26900 -0.76000 33.25000
H  15.59300 -2.09900 33.83000
H  14.49800 -1.13400 33.00100
H  14.84500 -0.45200 35.35000
H  14.52600 0.75600 34.16600
H  20.73500 -5.13100 29.31500
H  19.81600 -6.69000 29.00000
H  19.29200 -5.58800 30.25400
H  20.90600 -6.71900 26.82600
H  20.46100 -7.71800 25.32800
H  19.39600 -7.78300 26.75700
H  15.92500 -2.59200 22.91300
H  15.20400 0.11300 23.36800
H  17.67200 -1.68800 21.89700
H  18.26500 -0.76200 23.39900
H  17.00600 -0.21300 22.22500
H  12.96100 -0.50600 23.28600
H  13.26000 -2.19200 23.11700
H  13.08900 -0.34700 21.03600
H  13.43900 -2.21300 21.07500
H  14.66300 -0.91700 20.89900
H  11.75000 3.24000 27.76300
H  11.60300 2.29700 26.27700
H  12.97700 3.33700 26.43000
H  13.66900 0.93800 32.11700
H  14.91000 5.45500 33.18100
H  16.34600 4.55200 33.48500
H  14.94800 4.42200 34.53900
Mg 54.84000 24.70500 43.54400
C  52.25100 27.08600 43.11800
C  52.71700 22.33400 42.44700
C  57.45000 22.55100 43.41000
C  57.02200 27.32800 44.25000
N  52.75700 24.71100 42.82200
C  51.88500 25.81300 42.73200
C  50.57600 25.34700 42.18600
C  50.64200 23.73600 42.23500
C  52.11100 23.58900 42.55600
C  49.76900 22.88200 43.13300
C  50.25400 25.89700 40.78500
C  51.41100 26.02400 39.79200
H  51.00800 25.84700 38.28100
N  55.04900 22.65700 43.05100
C  54.04400 21.89300 42.65100
C  54.54800 20.63000 42.52700
C  55.89800 20.58400 42.88100
C  56.21000 21.98400 43.18400
C  53.77000 19.43700 42.18000
C  56.77700 19.27800 43.03200
O  56.36800 18.12800 42.81900
C  58.22400 19.42100 43.44500
N  56.95500 24.94700 43.70400
C  57.76800 23.87600 43.78200
C  59.19700 24.26000 44.04400
C  59.12400 25.78200 44.25800
C  57.59700 26.09400 44.03200
C  59.68000 23.46400 45.29100
C  59.98300 26.78900 43.39400
C  59.53500 26.87800 41.90600
N  54.71700 26.79800 43.49800
C  55.61600 27.70900 44.04100
C  54.93400 28.94700 44.33600
C  53.63500 28.72200 44.00600
C  53.54600 27.46500 43.45300
C  55.58900 30.15200 44.94300
C  52.30700 29.33600 43.98000
O  51.97300 30.38200 44.39700
C  51.38500 28.38700 43.22200
C  50.90200 29.08500 41.96300
O  51.63100 29.34400 41.03400
O  49.53300 29.28900 41.99500
C  48.91600 29.53900 40.72800
H  52.03100 21.53700 42.15400
H  58.31000 21.89800 43.25000
H  57.72600 28.01100 44.73000
H  49.83400 25.77700 42.85800
H  50.46900 23.31100 41.24600
H  50.39300 22.51100 43.94600
H  49.31400 21.98400 42.71700
H  48.87500 23.31300 43.58400
H  49.72600 26.83500 40.95800
H  49.55800 25.19300 40.32900
H  52.28700 25.40700 39.99100
H  51.60700 27.09400 39.72900
H  54.24700 19.10800 41.25700
H  52.69500 19.59400 42.09600
H  53.93300 18.59000 42.84700
H  58.76400 18.49500 43.64100
H  58.38300 20.11300 44.27200
H  58.83000 19.77100 42.61000
H  59.71200 23.90700 43.15000
H  59.47000 26.06400 45.25300
H  60.30600 24.11600 45.89900
H  60.28300 22.66400 44.86000
H  58.96400 23.14200 46.04700
H  61.04500 26.74500 43.63800
H  59.91200 27.79900 43.79700
H  58.64300 27.45800 41.67100
H  59.33700 25.87900 41.51900
H  60.41800 27.12700 41.31600
H  56.58200 30.34800 44.54000
H  55.69300 30.01200 46.01900
H  55.08000 31.09700 44.75500
H  50.59800 28.24500 43.96300
H  48.81500 30.62000 40.63500
H  47.88500 29.20800 40.85400
H  49.37600 29.06200 39.86200

