158

Mg 45.52900 17.34000 28.89700
C  44.04500 16.48800 31.83900
C  47.78000 19.40100 30.57600
C  47.01500 18.15600 25.82700
C  43.09100 15.49500 27.18400
N  45.70700 18.00400 30.87800
C  45.13700 17.33500 31.97300
C  45.88600 17.66000 33.25100
C  46.65900 18.94200 32.78800
C  46.73400 18.78800 31.30300
C  46.03500 20.27100 33.23200
C  46.70800 16.58200 33.88400
C  46.65200 16.56900 35.51300
H  46.58500 17.87100 36.23800
N  47.12800 18.51500 28.32800
C  47.89300 19.35000 29.13900
C  48.72900 20.18900 28.33900
C  48.61900 19.79300 26.99800
C  47.56200 18.81200 27.01100
C  49.62700 21.25600 28.85600
C  49.15300 20.44200 25.71200
O  48.61200 20.28000 24.64800
C  50.32700 21.36100 25.77400
N  45.27000 16.73800 26.75200
C  45.93700 17.25300 25.71600
C  45.37200 16.68900 24.41900
C  44.05400 15.85700 24.84100
C  44.12200 16.01400 26.35500
C  45.14800 17.79300 23.34100
C  44.06100 14.31000 24.36200
C  44.61800 13.20900 25.25000
N  43.94700 16.26100 29.36500
C  43.05700 15.57900 28.60300
C  41.92300 14.96100 29.44700
C  42.42000 15.27400 30.74300
C  43.53600 16.06700 30.63000
C  40.69200 14.12600 29.03800
C  42.15500 15.04800 32.14000
O  41.24400 14.34700 32.66000
C  43.15700 15.82000 32.86300
C  42.56700 16.72900 33.75900
O  41.83100 17.65700 33.42400
O  42.89000 16.41400 35.05800
C  42.29900 17.30100 36.11200
H  48.52700 19.99900 31.10200
H  47.55500 18.31000 24.89000
H  42.28200 14.90800 26.74300
H  45.13800 17.99300 33.97000
H  47.68000 19.02800 33.15900
H  45.87200 20.92000 32.37100
H  46.78000 20.76700 33.85500
H  45.20100 20.18200 33.92800
H  47.73200 16.62500 33.51200
H  46.30300 15.61800 33.57800
H  47.59000 16.04100 35.68700
H  45.86300 15.91600 35.88700
H  50.66000 20.97900 28.64700
H  49.45800 21.56500 29.88700
H  49.31600 22.17700 28.36300
H  50.03700 22.36400 26.08800
H  50.63300 21.31400 24.72900
H  51.05700 20.93500 26.46300
H  46.15500 16.01300 24.07800
H  43.16300 16.42000 24.56400
H  45.84300 17.62700 22.51800
H  45.30300 18.79000 23.75200
H  44.14100 17.80400 22.92300
H  44.52400 14.16900 23.38500
H  43.03400 14.00400 24.16500
H  43.83000 12.47900 25.44200
H  45.12300 13.56200 26.14900
H  45.45300 12.76500 24.70800
H  40.78500 13.99500 27.96000
H  39.85800 14.75400 29.35000
H  40.81400 13.19900 29.59800
H  43.80700 15.16100 33.44000
H  42.68900 18.30500 35.94600
H  42.58600 16.81600 37.04500
H  41.21500 17.18800 36.11800
Mg 42.79000 42.06700 27.10100
C  41.67400 44.36000 29.48200
C  43.93700 40.07100 29.72500
C  44.14400 40.04900 24.79000
C  42.60800 44.56400 24.59900
N  42.73100 42.20400 29.36800
C  42.12400 43.20300 30.07400
C  42.08900 42.87600 31.53300
C  43.05200 41.61100 31.62400
C  43.34300 41.30100 30.15200
C  44.37400 41.81800 32.45400
C  40.64700 42.67100 32.06900
C  40.27200 43.43200 33.36200
H  41.20100 43.51700 34.57000
N  43.68500 40.21300 27.31600
C  44.09200 39.58200 28.39200
C  44.58700 38.24700 28.00000
C  44.42400 38.12500 26.60300
C  44.03500 39.48700 26.14200
C  45.10600 37.15200 28.94200
C  44.62500 36.95200 25.70800
O  44.36000 36.99900 24.52500
C  44.93300 35.56400 26.28100
N  43.60400 42.45300 25.11900
C  44.00900 41.37000 24.36700
C  44.16700 41.72000 22.83300
C  43.76000 43.20200 22.79000
C  43.35300 43.45400 24.25300
C  45.47300 41.40400 22.15100
C  42.58400 43.45900 21.81700
C  41.28300 42.66500 22.24700
N  42.15800 44.07800 26.97600
C  42.03500 44.92900 25.88300
C  41.28400 46.10600 26.30200
C  41.17400 45.96700 27.71300
C  41.78000 44.75600 28.11000
C  40.86200 47.26800 25.45400
C  40.59900 46.57800 28.91400
O  40.20500 47.68700 29.13000
C  40.89200 45.52100 30.08000
C  41.70400 46.34700 31.11000
O  42.90600 46.62300 31.02200
O  40.83900 46.79100 32.08700
C  41.45500 47.66500 33.06800
H  44.17600 39.27300 30.43100
H  44.37000 39.39900 23.94200
H  42.50500 45.30300 23.80100
H  42.63400 43.73500 31.92400
H  42.44600 40.86000 32.13200
H  45.15900 41.62600 31.72200
H  44.43300 41.08000 33.25400
H  44.41800 42.85100 32.79900
H  40.43000 41.60800 32.17400
H  39.91400 42.99200 31.32900
H  39.26400 43.13100 33.64900
H  40.12900 44.45700 33.02100
H  46.15100 37.02100 28.66300
H  44.57600 36.23700 28.67600
H  44.96900 37.38100 29.99900
H  44.14600 35.30100 26.98800
H  45.87500 35.59300 26.82700
H  45.07600 34.88500 25.44000
H  43.46200 41.07500 22.30900
H  44.61700 43.84400 22.58600
H  46.05800 40.80500 22.84900
H  46.05100 42.31200 21.97600
H  45.35300 40.81100 21.24400
H  42.83800 43.17900 20.79500
H  42.37500 44.52600 21.75300
H  40.51500 43.38100 22.53900
H  41.41000 41.94200 23.05200
H  40.80900 42.08000 21.45800
H  40.39400 46.79700 24.59100
H  41.79000 47.81500 25.28600
H  40.20100 47.93600 26.00700
H  39.90700 45.17400 30.39400
H  42.39400 48.06900 32.69000
H  41.54800 47.23200 34.06400
H  40.72700 48.45500 33.25500

