158

Mg -1.71700 17.62200 26.94700
C  -1.91100 15.39600 29.61200
C  -2.73600 20.22000 29.09600
C  -1.66000 19.73800 24.29000
C  -1.29100 14.86600 24.69700
N  -1.94800 17.79300 29.11900
C  -2.04400 16.73700 30.04200
C  -2.38100 17.25300 31.46000
C  -2.96500 18.69000 31.16300
C  -2.46300 18.96500 29.64900
C  -4.51600 18.92300 31.30700
C  -1.30500 17.13200 32.56300
C  -1.72100 16.93600 34.00100
H  -0.63300 16.57300 35.03400
N  -2.18100 19.67800 26.73200
C  -2.48600 20.56600 27.71600
C  -2.54200 21.83800 27.11700
C  -2.01200 21.77500 25.82900
C  -1.92700 20.35100 25.55000
C  -3.13800 22.95600 27.96600
C  -1.57400 22.86000 24.81300
O  -1.04500 22.67700 23.70900
C  -1.73400 24.28800 25.26900
N  -1.48300 17.29900 24.88200
C  -1.47000 18.38200 23.96800
C  -1.33400 17.82900 22.55600
C  -0.95300 16.33600 22.71100
C  -1.17000 16.14500 24.20500
C  -2.54300 18.09100 21.58700
C  0.45900 16.05300 22.19600
C  1.51700 16.80200 23.01900
N  -1.62700 15.61800 27.07700
C  -1.50300 14.62100 26.04200
C  -1.53400 13.27400 26.63600
C  -1.64200 13.54400 28.01400
C  -1.68900 14.96600 28.26300
C  -1.38400 11.97600 25.86200
C  -1.65500 12.87700 29.20800
O  -1.59700 11.68200 29.45700
C  -2.14500 13.97600 30.24100
C  -1.41600 13.70000 31.54500
O  -0.23500 13.63400 31.78200
O  -2.44200 13.60200 32.52200
C  -1.84700 13.28600 33.92000
H  -3.11800 20.92400 29.83900
H  -1.79800 20.32600 23.38000
H  -1.27300 13.98800 24.04800
H  -3.25100 16.63100 31.67100
H  -2.58300 19.44900 31.84500
H  -4.80300 19.88100 31.74000
H  -4.82300 18.20900 32.07200
H  -4.99200 18.73800 30.34500
H  -0.84500 18.12000 32.51700
H  -0.59800 16.33900 32.32000
H  -2.44300 16.12000 34.01800
H  -2.07900 17.91400 34.32400
H  -4.01400 22.71000 28.56600
H  -3.62800 23.66600 27.29900
H  -2.41800 23.52500 28.55300
H  -1.27800 24.49200 26.23800
H  -2.80200 24.45600 25.40800
H  -1.31500 24.87800 24.45400
H  -0.55300 18.48200 22.16600
H  -1.73600 15.84100 22.13500
H  -3.44700 18.42600 22.09500
H  -2.82700 17.19900 21.02800
H  -2.34500 18.92300 20.91100
H  0.67300 16.51100 21.23000
H  0.62900 14.97700 22.16500
H  1.21600 16.96000 24.05400
H  1.86600 17.75100 22.61100
H  2.30900 16.05400 23.04300
H  -0.63100 12.23500 25.11800
H  -2.27900 11.56000 25.39900
H  -1.02500 11.19400 26.53100
H  -3.17900 13.77400 30.52300
H  -1.36200 12.33000 33.72300
H  -2.70700 13.10500 34.56500
H  -1.09900 13.96600 34.32600
Mg -5.66300 24.99400 27.72100
C  -3.78100 26.86200 30.11200
C  -6.64800 22.84300 30.13300
C  -7.16300 23.01100 25.26300
C  -4.19900 26.83300 25.23200
N  -5.18000 24.87900 29.77300
C  -4.53500 25.78900 30.64300
C  -4.83800 25.54300 32.12900
C  -5.67100 24.15400 32.07100
C  -5.79900 23.85500 30.56700
C  -5.03200 23.03100 32.85100
C  -5.66000 26.69800 32.74100
C  -5.34100 27.00700 34.17100
H  -6.39900 26.71600 35.21100
N  -6.85700 23.17700 27.75500
C  -7.12300 22.46100 28.82800
C  -7.77100 21.24300 28.41200
C  -7.91000 21.19200 27.01300
C  -7.24100 22.45700 26.61900
C  -8.27100 20.26200 29.45600
C  -8.57700 20.12900 26.12100
O  -8.58400 20.17400 24.87000
C  -9.35100 19.02500 26.80000
N  -5.68400 24.89000 25.58100
C  -6.41200 24.04600 24.78800
C  -6.30800 24.33100 23.27500
C  -5.31300 25.61300 23.30000
C  -5.08500 25.85300 24.80100
C  -5.73900 23.14700 22.48800
C  -5.93300 26.92900 22.63200
C  -5.02400 27.73700 21.78700
N  -4.28400 26.55100 27.65900
C  -3.90800 27.22100 26.57400
C  -2.89800 28.21000 27.00700
C  -2.90800 28.20000 28.37200
C  -3.65100 27.09200 28.73500
C  -2.30000 29.21900 26.14000
C  -2.36900 28.74400 29.60200
O  -1.59100 29.68500 29.76600
C  -3.00500 27.96200 30.78800
C  -1.83100 27.50600 31.61900
O  -0.79500 26.97500 31.26200
O  -2.11800 27.90200 32.88500
C  -0.97400 27.72000 33.79800
H  -6.92100 22.12800 30.91200
H  -7.59300 22.32300 24.53300
H  -3.86800 27.55600 24.48400
H  -3.87900 25.36700 32.61700
H  -6.67300 24.21300 32.49700
H  -5.78400 22.37400 33.28800
H  -4.36300 23.33300 33.65600
H  -4.46100 22.41500 32.15700
H  -6.67500 26.30800 32.66500
H  -5.78500 27.60000 32.14300
H  -5.10200 28.06800 34.24800
H  -4.45000 26.44400 34.45100
H  -9.34500 20.09000 29.38500
H  -7.99800 20.54000 30.47400
H  -7.64000 19.38600 29.30800
H  -9.95900 18.51100 26.05500
H  -10.09900 19.38400 27.50800
H  -8.53900 18.52600 27.32900
H  -7.30600 24.51300 22.87600
H  -4.32100 25.33700 22.94200
H  -4.94600 23.46200 21.80900
H  -6.53000 22.63300 21.94100
H  -5.34800 22.39500 23.17200
H  -6.27100 27.58300 23.43600
H  -6.83700 26.67700 22.07900
H  -5.49100 27.88900 20.81400
H  -4.03300 27.28700 21.72400
H  -4.81400 28.72400 22.19800
H  -1.75800 28.62100 25.40800
H  -1.43600 29.67300 26.62600
H  -2.98500 29.96100 25.72800
H  -3.70400 28.59500 31.33400
H  -0.07800 28.13500 33.33600
H  -0.68900 26.67200 33.89100
H  -1.16800 28.13800 34.78600

