158

Mg 53.35600 24.25700 43.94600
C  50.56400 26.45100 43.50700
C  51.23000 21.51000 43.06700
C  56.01000 22.34500 43.79600
C  55.24500 27.03400 44.82600
N  51.13500 24.06100 42.98500
C  50.24400 25.11600 43.09200
C  48.79600 24.51600 42.85800
C  49.01300 22.95100 43.05900
C  50.54600 22.82000 43.02100
C  48.26800 22.31900 44.30100
C  48.12200 24.81500 41.49400
C  49.01900 24.85000 40.16600
H  48.34300 24.16200 38.93800
N  53.60700 22.25400 43.51400
C  52.63600 21.26800 43.22400
C  53.21300 19.97200 43.24800
C  54.59800 20.14800 43.50400
C  54.80600 21.60400 43.56200
C  52.41800 18.68500 42.99900
C  55.70200 19.02700 43.61900
O  55.32400 17.80500 43.41900
C  57.12100 19.24700 43.90600
N  55.36400 24.60500 44.10400
C  56.32500 23.65500 43.95400
C  57.71200 24.30600 44.21400
C  57.45300 25.86900 44.31700
C  55.95200 25.89300 44.46800
C  58.41700 23.72900 45.47000
C  57.83200 26.80900 43.07100
C  58.59600 28.02300 43.44400
N  53.00800 26.28500 44.23100
C  53.88800 27.27100 44.61700
C  53.14500 28.48900 44.81200
C  51.84000 28.17500 44.49300
C  51.80900 26.84500 44.08200
C  53.84500 29.66600 45.16200
C  50.49200 28.74800 44.36500
O  50.17700 29.87000 44.62800
C  49.64200 27.61000 43.74500
C  49.07800 28.15300 42.45000
O  49.75700 28.49800 41.47900
O  47.72500 28.06500 42.56000
C  46.90200 28.45300 41.32300
H  50.57300 20.64200 43.15200
H  56.92100 21.74300 43.81500
H  55.88700 27.91300 44.91200
H  48.03300 24.88300 43.54400
H  48.64400 22.38800 42.20100
H  47.34700 21.86400 43.93500
H  48.06900 23.12300 45.01000
H  48.87500 21.52800 44.74300
H  47.55700 25.74700 41.49100
H  47.44400 23.99900 41.24100
H  49.98700 24.41400 40.41200
H  49.25100 25.88400 39.91400
H  52.86800 18.17200 42.14900
H  51.36900 18.82900 42.73900
H  52.40300 17.88300 43.73700
H  57.69600 19.72400 43.11300
H  57.52800 18.26100 44.12800
H  57.20700 19.78600 44.85000
H  58.39300 24.10300 43.38700
H  57.94800 26.19700 45.23200
H  59.43300 23.36400 45.32100
H  57.82700 22.88000 45.81700
H  58.30300 24.35000 46.35800
H  56.90300 27.07000 42.56300
H  58.37900 26.24200 42.31800
H  59.64500 27.95000 43.15500
H  58.59100 28.26000 44.50800
H  58.08200 28.85400 42.96200
H  54.39900 29.40400 46.06300
H  53.12200 30.42100 45.47300
H  54.65400 29.92200 44.47800
H  48.91300 27.27900 44.48500
H  46.89400 27.63700 40.60100
H  47.43400 29.29000 40.87300
H  45.85900 28.74900 41.43700
Mg 15.63100 51.84600 25.94100
C  17.60500 50.77000 28.63900
C  13.02500 52.42300 28.10700
C  13.71800 52.66100 23.32200
C  18.24400 50.91400 23.71400
N  15.43000 51.66000 28.11000
C  16.41700 51.42100 29.04000
C  15.93200 51.77400 30.49700
C  14.34500 51.85600 30.26400
C  14.20800 51.97400 28.73800
C  13.52200 50.66900 30.81900
C  16.49600 53.10600 31.00300
C  16.42700 53.35400 32.54400
H  15.44300 52.55400 33.41600
N  13.68100 52.55900 25.71800
C  12.76700 52.61500 26.73200
C  11.45000 53.00100 26.14300
C  11.64100 53.24200 24.75200
C  13.07100 52.82900 24.55700
C  10.12600 53.14500 26.92000
C  10.74200 53.79800 23.71400
O  11.18400 54.02300 22.61700
C  9.24200 54.03000 23.98700
N  15.95000 51.83700 23.79800
C  14.96700 52.20000 22.92300
C  15.45900 52.16800 21.48700
C  16.92500 51.67300 21.56800
C  17.06800 51.47200 23.11600
C  14.61300 51.25500 20.67800
C  18.11200 52.59300 21.22800
C  19.43900 51.97100 20.58600
N  17.54700 50.93100 26.05000
C  18.48200 50.54100 25.05400
C  19.65900 49.89300 25.71900
C  19.26400 49.91200 27.11400
C  18.04700 50.61000 27.26100
C  21.00200 49.52600 25.05400
C  19.75400 49.56700 28.41300
O  20.82100 49.00500 28.82000
C  18.76700 50.24000 29.47400
C  18.40600 49.22600 30.54700
O  17.58200 48.30700 30.38700
O  19.05700 49.50900 31.71400
C  18.71600 48.59400 32.77400
H  12.25800 52.70800 28.83000
H  13.11100 52.94000 22.45900
H  19.08400 50.70100 23.05000
H  16.32400 51.04600 31.20600
H  13.93400 52.79300 30.64100
H  13.00200 50.32600 29.92400
H  12.83000 50.93500 31.61800
H  14.16800 49.87000 31.18200
H  16.01800 53.90800 30.44000
H  17.56000 53.16000 30.77200
H  16.13600 54.39400 32.69200
H  17.41000 53.10900 32.94500
H  9.81100 54.18900 26.91500
H  10.30200 52.67800 27.88900
H  9.41700 52.45700 26.46100
H  9.22500 54.93200 24.59900
H  8.79600 53.15300 24.45700
H  8.81700 54.09300 22.98600
H  15.37300 53.22500 21.23200
H  17.15500 50.74800 21.03900
H  15.16200 50.51700 20.09200
H  14.20600 51.92300 19.91900
H  13.67800 50.95700 21.15300
H  18.55400 53.05900 22.10900
H  17.67300 53.44600 20.71000
H  20.16600 51.79200 21.37900
H  19.91000 52.60500 19.83400
H  19.00900 51.03700 20.22700
H  21.83900 49.76400 25.71200
H  21.16400 50.01600 24.09500
H  21.13400 48.45500 24.89500
H  19.31500 51.11200 29.83100
H  19.00900 47.62900 32.35900
H  17.67300 48.71700 33.06500
H  19.43600 48.61000 33.59200

