158

Mg -1.84300 16.82500 27.11100
C  -2.39100 14.56300 29.96800
C  -2.54200 19.36000 29.33200
C  -1.85700 18.75300 24.56800
C  -1.91000 13.92300 25.10800
N  -2.35200 16.98500 29.42700
C  -2.36700 15.94700 30.34100
C  -2.59300 16.50200 31.79700
C  -2.60500 18.04300 31.59800
C  -2.52000 18.16700 30.00600
C  -3.89500 18.78500 32.20300
C  -1.58600 15.94600 32.88200
C  -1.10500 16.83800 34.03100
H  -0.85000 16.17900 35.37500
N  -2.03600 18.79300 26.99400
C  -2.37900 19.69800 27.96500
C  -2.38000 21.06000 27.40800
C  -2.03100 20.90200 26.03800
C  -2.02100 19.46000 25.80400
C  -2.42100 22.29900 28.23400
C  -1.65100 21.95900 24.99500
O  -1.15600 21.70500 23.90300
C  -1.89200 23.35000 25.24400
N  -1.87500 16.40200 25.12800
C  -1.72300 17.45100 24.18900
C  -1.64300 16.85900 22.71100
C  -1.31800 15.33200 23.04100
C  -1.68300 15.15000 24.53200
C  -2.93600 17.04700 21.85900
C  0.11000 14.85900 22.82800
C  1.20800 15.83500 23.33200
N  -2.05200 14.70800 27.41600
C  -2.17300 13.69700 26.49800
C  -2.45700 12.50100 27.17900
C  -2.46600 12.75800 28.54700
C  -2.30200 14.14200 28.61800
C  -2.57800 11.24200 26.44500
C  -2.76400 12.21600 29.80500
O  -3.03900 11.03300 30.09700
C  -2.58000 13.32000 30.84300
C  -1.33400 12.94000 31.48600
O  -0.20400 13.13700 31.07300
O  -1.66400 12.45700 32.77000
C  -0.65000 12.40400 33.75700
H  -2.58100 20.30400 29.88100
H  -1.78200 19.36500 23.66600
H  -1.86000 13.04300 24.46400
H  -3.58800 16.11400 32.01800
H  -1.72200 18.52500 32.01700
H  -4.45900 18.13800 32.87500
H  -4.58800 19.15400 31.44700
H  -3.56200 19.69800 32.69700
H  -0.69000 15.54500 32.40800
H  -2.08300 15.07600 33.31000
H  -1.85800 17.62200 34.11300
H  -0.23000 17.39400 33.69400
H  -1.47100 22.83200 28.21000
H  -2.83100 22.18300 29.23700
H  -3.23600 22.89000 27.81600
H  -2.80300 23.45400 25.83300
H  -2.05000 23.81800 24.27200
H  -0.96000 23.78700 25.60200
H  -0.82900 17.41100 22.24200
H  -1.91900 14.73300 22.35700
H  -3.58300 17.60500 22.53500
H  -3.21300 16.04700 21.52600
H  -2.71000 17.51800 20.90200
H  0.26700 14.66100 21.76800
H  0.20500 13.89400 23.32400
H  1.52800 16.40100 22.45700
H  2.10300 15.30700 23.66100
H  0.97100 16.54500 24.12500
H  -1.67500 11.21000 25.83500
H  -3.40100 11.48700 25.77400
H  -2.75000 10.42500 27.14600
H  -3.53200 13.39600 31.36800
H  -1.11400 12.78800 34.66500
H  0.26200 12.96700 33.55400
H  -0.18500 11.44000 33.96400
Mg 49.14000 35.98500 27.83700
C  47.10100 34.25700 30.12000
C  49.58100 38.46200 30.39800
C  50.72300 37.96600 25.58800
C  48.49800 33.58600 25.48300
N  48.41900 36.31100 29.94200
C  47.79600 35.35200 30.70100
C  47.82700 35.68300 32.18800
C  48.23400 37.20100 32.22900
C  48.66400 37.44300 30.72100
C  47.06200 38.05600 32.74900
C  48.71800 34.71100 32.93100
C  48.57400 34.49600 34.45400
H  47.79300 35.57900 35.30100
N  50.06000 37.88300 28.00100
C  50.18100 38.72600 29.12000
C  50.96900 39.80100 28.77000
C  51.42700 39.64500 27.45200
C  50.67900 38.42200 26.96100
C  51.19000 40.99400 29.71100
C  52.21000 40.62500 26.56700
O  52.42300 40.24800 25.42200
C  52.66500 42.02500 26.96900
N  49.43300 35.88100 25.73100
C  50.15400 36.76900 25.03600
C  50.31400 36.30100 23.54400
C  49.80800 34.79300 23.56900
C  49.19900 34.70300 24.99100
C  49.58000 37.12900 22.51900
C  50.83500 33.73500 23.24400
C  50.53100 32.81900 22.03400
N  47.99700 34.26300 27.70100
C  47.76500 33.33300 26.62600
C  46.91200 32.19100 27.09300
C  46.58200 32.62600 28.41400
C  47.28400 33.84800 28.73600
C  46.61100 30.91100 26.36700
C  45.76300 32.34300 29.58100
O  45.03700 31.37500 29.76000
C  45.98900 33.36400 30.65300
C  46.15500 32.70300 32.00000
O  46.96000 31.82600 32.30600
O  45.28300 33.21600 32.86400
C  44.98800 32.43900 34.09100
H  49.87200 39.06500 31.26000
H  51.25400 38.42500 24.75100
H  48.53700 32.81900 24.70700
H  46.86200 35.52900 32.66900
H  49.07900 37.36800 32.89800
H  47.36900 38.50900 33.69100
H  46.22700 37.41100 33.02500
H  46.82900 38.81400 32.00100
H  49.76200 35.02300 32.90200
H  48.66200 33.74400 32.43000
H  49.57700 34.43800 34.87700
H  47.98400 33.64100 34.78500
H  52.19600 41.38700 29.56200
H  51.07000 40.84300 30.78400
H  50.47900 41.75500 29.38700
H  51.79400 42.56800 27.33800
H  52.77600 42.46200 25.97700
H  53.60100 42.15400 27.51200
H  51.36400 36.32000 23.25200
H  48.97000 34.70300 22.87800
H  49.40000 38.14500 22.87000
H  48.65500 36.64300 22.20700
H  50.16100 37.24500 21.60400
H  51.02800 33.06000 24.07900
H  51.85000 34.08300 23.05100
H  49.73100 33.20400 21.40200
H  50.33100 31.77300 22.27000
H  51.47600 32.85000 21.49300
H  47.30900 30.13100 26.67300
H  46.67800 31.00800 25.28300
H  45.62400 30.52200 26.61700
H  45.10400 33.99900 30.69400
H  44.22000 31.68500 33.91400
H  44.62400 33.01600 34.94000
H  45.88600 31.92600 34.43400

