158

Mg 8.83300 4.02800 27.25700
C  10.23600 2.41800 30.03900
C  7.02300 5.97400 29.47500
C  7.63700 5.63100 24.61200
C  10.57400 1.84400 25.23700
N  8.71400 4.15500 29.52800
C  9.32800 3.38200 30.43900
C  8.86500 3.72100 31.89800
C  7.64000 4.61900 31.62400
C  7.73800 4.93300 30.09100
C  6.29600 4.04300 32.08600
C  9.94600 4.32800 32.83700
C  9.87200 3.91200 34.34400
H  10.52500 4.79500 35.37700
N  7.52300 5.63400 27.09300
C  6.96200 6.40300 28.13200
C  6.12100 7.45900 27.55800
C  6.21400 7.31000 26.13500
C  7.13800 6.14300 25.86900
C  5.33700 8.38000 28.38300
C  5.63800 8.18600 25.05900
O  5.88200 8.00600 23.84900
C  4.63100 9.18100 25.38900
N  9.11200 3.78500 25.20200
C  8.47800 4.60500 24.29100
C  8.82200 4.17500 22.85300
C  9.77700 2.99500 23.06800
C  9.81100 2.84600 24.59900
C  7.52800 3.89200 22.02800
C  11.19800 3.23800 22.43900
C  11.84000 2.11400 21.59700
N  10.09700 2.46000 27.48100
C  10.71600 1.68200 26.57000
C  11.59000 0.77700 27.15600
C  11.44500 1.00200 28.51000
C  10.50400 2.07100 28.69600
C  12.35600 -0.24800 26.41800
C  11.84100 0.60800 29.83600
O  12.67600 -0.23700 30.18700
C  11.07500 1.49200 30.84000
C  10.28100 0.62900 31.74900
O  9.51300 -0.27300 31.35900
O  10.70500 0.71600 33.01500
C  9.93500 -0.10500 34.04600
H  6.36700 6.45600 30.20300
H  7.43200 6.15600 23.67600
H  10.96500 1.11200 24.52700
H  8.52800 2.82800 32.42600
H  7.76400 5.51400 32.23400
H  5.61400 3.88300 31.25100
H  5.79600 4.79000 32.70200
H  6.47800 3.08400 32.57100
H  10.16400 5.38500 32.68300
H  10.93900 3.98800 32.54400
H  10.38800 2.95400 34.42000
H  8.79700 3.93600 34.52000
H  5.74700 8.31500 29.39100
H  4.26700 8.18200 28.31900
H  5.58100 9.36200 27.97900
H  5.03700 10.02100 25.95300
H  3.75500 8.77400 25.89400
H  4.22700 9.59800 24.46600
H  9.32100 4.93700 22.25400
H  9.35700 2.07200 22.66600
H  7.84500 4.14200 21.01500
H  6.72300 4.54600 22.36300
H  7.29800 2.83800 22.18500
H  11.85500 3.55000 23.25100
H  11.05200 4.02900 21.70200
H  12.87300 1.80100 21.74500
H  11.68500 2.35000 20.54500
H  11.27300 1.18300 21.60800
H  11.91800 -0.48300 25.44800
H  12.41200 -1.16500 27.00400
H  13.43700 -0.10800 26.40700
H  11.82100 2.01600 31.43600
H  10.59100 -0.20900 34.91000
H  9.60000 -1.11100 33.79500
H  9.13100 0.62200 34.16200
Mg 17.43900 52.18600 26.45800
C  19.63800 50.77700 28.76700
C  15.38900 53.05600 28.98100
C  15.42100 53.47700 24.15300
C  19.58800 51.02400 23.90000
N  17.51400 51.93500 28.61800
C  18.56600 51.40500 29.40600
C  18.22300 51.39200 30.87100
C  16.64500 51.78200 30.83300
C  16.50300 52.31600 29.41500
C  15.60200 50.71200 31.23600
C  19.12600 52.42200 31.53500
C  19.14600 52.54100 33.05700
H  18.09500 51.66000 33.84700
N  15.63300 53.23500 26.56000
C  14.96600 53.50100 27.70500
C  13.83300 54.31600 27.40200
C  13.91400 54.57800 26.02300
C  14.97800 53.74200 25.50400
C  12.98700 54.89600 28.52800
C  13.06600 55.42200 25.13700
O  13.37800 55.55300 23.97300
C  11.82500 56.06300 25.59900
N  17.32900 51.88300 24.30000
C  16.46700 52.71300 23.62000
C  16.80700 52.79600 22.11400
C  18.21900 52.14200 22.08100
C  18.38200 51.63600 23.54400
C  15.70500 52.05100 21.27800
C  19.48300 53.11300 21.82800
C  20.55700 52.60700 20.79000
N  19.17000 50.98900 26.31500
C  19.94100 50.68500 25.22300
C  21.05900 49.91400 25.66600
C  20.99900 49.89700 27.01900
C  19.84600 50.62800 27.41100
C  22.19800 49.50700 24.75700
C  21.67600 49.39300 28.23800
O  22.65300 48.76400 28.49500
C  20.87700 50.10900 29.43300
C  20.52000 48.93400 30.33100
O  19.78100 48.00000 30.06100
O  21.11500 49.08400 31.50700
C  20.53700 48.25000 32.58700
H  14.76200 53.39500 29.80800
H  14.98900 54.09900 23.36600
H  20.12100 50.62000 23.03700
H  18.33100 50.46100 31.42800
H  16.44500 52.60700 31.51700
H  14.91700 50.60000 30.39400
H  15.08500 51.08400 32.12000
H  16.09900 49.80600 31.58200
H  18.74600 53.40100 31.24400
H  20.17400 52.34000 31.24700
H  18.98300 53.58900 33.31000
H  20.14200 52.27900 33.41500
H  12.40800 54.08200 28.96400
H  12.22400 55.54400 28.09700
H  13.56800 55.40600 29.29800
H  11.31100 55.26500 26.13500
H  11.17500 56.43200 24.80600
H  12.06100 56.95300 26.18100
H  16.85800 53.83900 21.80000
H  18.16900 51.32600 21.36000
H  16.23900 51.30000 20.69600
H  15.15800 52.72600 20.62000
H  14.91800 51.65000 21.91700
H  19.94800 53.43600 22.76000
H  19.07400 54.06100 21.47700
H  21.45900 52.32100 21.33200
H  20.83800 53.36700 20.06200
H  20.16700 51.69500 20.33800
H  23.13600 49.89900 25.15300
H  22.17500 49.79900 23.70800
H  22.23200 48.41800 24.78600
H  21.53800 50.76200 30.00300
H  19.46800 48.41600 32.71600
H  21.00300 48.45700 33.55100
H  20.71400 47.20500 32.33200

