158

Mg 17.32900 -1.20200 27.54800
C  16.21000 0.87400 30.04800
C  19.75100 -2.39000 29.72200
C  18.62000 -2.91700 25.00800
C  15.23500 0.56400 25.32000
N  18.00200 -0.74800 29.58700
C  17.21100 0.05000 30.47400
C  17.70000 -0.07000 31.96600
C  18.96200 -0.93900 31.83300
C  18.88300 -1.42600 30.29200
C  20.29800 -0.33300 32.23100
C  16.63100 -0.85100 32.85200
C  16.52000 -0.48300 34.35100
H  17.75300 0.06200 35.09200
N  18.81600 -2.66000 27.49100
C  19.76400 -2.95300 28.44000
C  20.52000 -4.09200 27.99700
C  20.31600 -4.10200 26.55800
C  19.16800 -3.18800 26.32900
C  21.59600 -4.86400 28.90100
C  21.06300 -4.94200 25.46700
O  20.80000 -4.84400 24.29000
C  22.10200 -5.97000 25.95600
N  16.97400 -1.20900 25.41100
C  17.63600 -1.99000 24.54000
C  17.31500 -1.68500 23.12200
C  16.13100 -0.66800 23.23900
C  16.08100 -0.41100 24.76500
C  18.52600 -1.07000 22.39600
C  14.82000 -1.09300 22.56100
C  13.79200 -1.84200 23.46000
N  15.94900 0.37900 27.58200
C  15.13100 0.99100 26.65800
C  14.31500 2.00000 27.27400
C  14.69000 1.91200 28.60800
C  15.63600 0.94400 28.75500
C  13.34100 2.91800 26.60200
C  14.39400 2.49600 29.86700
O  13.71200 3.50700 30.11600
C  15.39700 1.85500 30.91900
C  16.26000 2.90400 31.52400
O  17.40800 3.13200 31.38700
O  15.52800 3.53500 32.46900
C  16.20300 4.54300 33.32400
H  20.58400 -2.62100 30.39000
H  19.07400 -3.33200 24.10600
H  14.51000 0.95200 24.60100
H  17.88700 0.94300 32.32300
H  18.95100 -1.94200 32.26000
H  20.43800 -0.61900 33.27300
H  20.34200 0.75600 32.26200
H  21.11000 -0.71600 31.61200
H  16.85400 -1.91600 32.78600
H  15.67500 -0.73400 32.34300
H  16.18700 -1.33100 34.94900
H  15.67700 0.20500 34.40200
H  22.63200 -4.92800 28.57000
H  21.18400 -5.86700 29.01500
H  21.43900 -4.52000 29.92300
H  21.82600 -6.37900 26.92800
H  23.05100 -5.44000 26.02400
H  22.17300 -6.86500 25.33700
H  16.94700 -2.56400 22.59200
H  16.27700 0.30800 22.77700
H  19.26600 -0.73100 23.12200
H  18.24400 -0.21100 21.78800
H  19.04500 -1.82700 21.80900
H  15.15900 -1.70700 21.72700
H  14.42800 -0.16000 22.15700
H  12.77500 -1.45000 23.46000
H  14.12600 -1.96500 24.49100
H  13.69500 -2.90600 23.24500
H  13.02600 2.54400 25.62800
H  13.79300 3.89800 26.44900
H  12.53900 3.03800 27.33000
H  14.82900 1.31600 31.67800
H  16.70000 5.29500 32.71000
H  16.90400 3.99600 33.95500
H  15.45800 4.98800 33.98400
Mg 9.75400 48.22900 25.80200
C  7.74400 48.38300 28.73300
C  12.35200 49.43200 27.62700
C  11.51200 47.94800 23.08800
C  6.76600 47.75100 23.99300
N  9.96000 48.79600 27.97400
C  9.05700 48.77600 28.95400
C  9.67100 49.16400 30.31100
C  11.03200 49.80200 29.92300
C  11.17500 49.38200 28.34800
C  11.14200 51.36100 30.03100
C  9.85100 47.96500 31.23200
C  9.27800 48.10100 32.66400
H  8.97800 46.85000 33.43500
N  11.69900 48.43500 25.51700
C  12.62000 48.92400 26.40900
C  13.88900 48.81100 25.80100
C  13.67600 48.38700 24.42000
C  12.25800 48.19200 24.30300
C  15.14200 49.20400 26.57300
C  14.73700 48.23900 23.29500
O  14.42100 48.04000 22.09600
C  16.15700 48.32600 23.63700
N  9.11700 48.10100 23.74600
C  10.15300 47.79000 22.87100
C  9.58200 47.54800 21.46300
C  8.00400 47.44500 21.74600
C  7.89000 47.84700 23.21800
C  9.90900 48.57800 20.40200
C  7.43000 45.99600 21.51300
C  6.14800 45.91500 20.62000
N  7.62100 48.26100 26.19600
C  6.58500 47.91300 25.36500
C  5.41400 47.70700 26.18400
C  5.80800 48.04200 27.46600
C  7.16900 48.22500 27.47000
C  4.03400 47.37000 25.72100
C  5.26800 48.11900 28.77900
O  4.12900 48.01700 29.17000
C  6.51700 48.30400 29.72900
C  6.57500 47.11000 30.65600
O  7.02000 46.00700 30.31300
O  5.99800 47.39600 31.90300
C  5.69900 46.21800 32.69800
H  13.14300 49.81300 28.27600
H  12.13400 47.83500 22.19800
H  5.87000 47.60500 23.38500
H  8.94500 49.75900 30.86600
H  11.87100 49.40700 30.49500
H  10.10600 51.64700 30.21000
H  11.56700 51.92700 29.20200
H  11.72900 51.68400 30.89200
H  10.91100 47.77500 31.40200
H  9.37400 47.04200 30.90500
H  8.29500 48.55700 32.54200
H  9.98400 48.70300 33.23600
H  15.84900 48.38000 26.47500
H  15.05100 49.42200 27.63700
H  15.64400 50.06900 26.14100
H  16.49100 47.32700 23.91700
H  16.25900 49.03300 24.46000
H  16.61500 48.77500 22.75500
H  9.99000 46.57400 21.19400
H  7.43600 48.19100 21.18900
H  9.10300 49.30300 20.29400
H  9.94900 48.11200 19.41700
H  10.84900 49.10900 20.55100
H  7.28000 45.40700 22.41800
H  8.11900 45.52300 20.81300
H  5.50800 46.73400 20.94900
H  5.59100 44.98700 20.75300
H  6.36500 46.01200 19.55700
H  3.58900 46.63700 26.39400
H  4.19800 46.77500 24.82200
H  3.54200 48.31600 25.49600
H  6.48900 49.30400 30.16300
H  4.62400 46.07900 32.81100
H  6.19100 46.45900 33.64000
H  6.06100 45.24500 32.36700

