158

Mg 2.07900 -1.85400 44.06900
C  5.52300 -1.04500 43.72800
C  1.37100 1.11100 42.34000
C  -1.18700 -2.97900 43.56500
C  2.88800 -4.99800 45.24600
N  3.31600 -0.29500 42.95000
C  4.70100 -0.10000 42.99700
C  5.16100 1.16200 42.29500
C  3.78700 1.91900 42.21300
C  2.71600 0.84700 42.49300
C  3.61500 3.10900 43.16900
C  5.78900 0.79800 40.88800
C  7.12400 1.50000 40.60000
H  7.18300 2.48700 39.41600
N  0.33200 -1.04200 43.11700
C  0.22200 0.24500 42.57000
C  -1.18200 0.47000 42.21400
C  -1.90400 -0.65300 42.71100
C  -0.91300 -1.62900 43.09200
C  -1.56600 1.71600 41.54300
C  -3.35400 -0.69700 42.75200
O  -4.06600 0.14000 42.26500
C  -4.10600 -1.75300 43.58800
N  0.96800 -3.81400 44.32100
C  -0.35700 -3.90300 44.15100
C  -0.81100 -5.27100 44.66900
C  0.48400 -5.96500 45.14700
C  1.55300 -4.86800 44.88900
C  -1.95900 -5.20000 45.70500
C  0.79200 -7.33100 44.52200
C  1.20600 -8.55100 45.38100
N  3.77700 -2.84900 44.54100
C  3.93000 -4.05200 45.11700
C  5.34300 -4.19100 45.40600
C  5.99200 -3.06700 44.89200
C  5.00700 -2.23200 44.38500
C  5.95300 -5.40300 46.05300
C  7.31600 -2.39400 44.64700
O  8.41300 -2.74400 44.96000
C  7.02700 -0.98700 44.00700
C  7.35500 0.00700 45.08300
O  7.02900 -0.06700 46.28600
O  7.89400 1.13000 44.52800
C  8.03000 2.26800 45.42100
H  1.14600 1.96600 41.69900
H  -2.19100 -3.39700 43.46500
H  3.05900 -5.91600 45.81200
H  5.77100 1.63700 43.06300
H  3.52100 2.30900 41.23000
H  2.65400 3.07100 43.68200
H  3.70100 3.98400 42.52500
H  4.37900 3.00600 43.93900
H  5.00500 1.12700 40.20700
H  5.84100 -0.28300 40.75400
H  7.73200 0.61800 40.40000
H  7.59000 1.94400 41.48000
H  -2.48600 1.50400 40.99800
H  -0.99500 2.02800 40.66900
H  -1.81600 2.57700 42.16400
H  -5.00000 -1.21800 43.90700
H  -3.55300 -1.87700 44.51900
H  -4.35600 -2.61000 42.96200
H  -1.24000 -5.85400 43.85400
H  0.50200 -6.06900 46.23200
H  -2.02300 -4.14400 45.97000
H  -1.81700 -5.87100 46.55100
H  -2.88700 -5.42000 45.17600
H  1.53800 -7.19300 43.73800
H  -0.11700 -7.59700 43.98300
H  0.55100 -9.39800 45.17700
H  1.17500 -8.31000 46.44400
H  2.20000 -8.93100 45.14600
H  5.61900 -6.26400 45.47400
H  5.60200 -5.44200 47.08400
H  7.02300 -5.19200 46.05900
H  7.62700 -0.80200 43.11600
H  7.40100 2.31900 46.31000
H  7.70300 3.11400 44.81600
H  9.06800 2.40200 45.72600
Mg 51.55400 45.77200 42.02300
C  48.64900 47.42100 40.98800
C  50.13600 42.89000 41.07900
C  54.64900 44.53200 42.13000
C  52.90300 48.91200 42.94200
N  49.58800 45.25600 41.12900
C  48.49200 46.04700 40.91500
C  47.29800 45.27400 40.45100
C  47.73100 43.83400 40.86100
C  49.25000 43.97500 40.89200
C  47.29000 43.27700 42.22700
C  46.83600 45.39600 38.98900
C  45.25300 45.24600 38.73800
H  44.77900 44.07500 37.89800
N  52.34000 43.94700 41.56100
C  51.58800 42.84600 41.29000
C  52.39500 41.69000 41.37200
C  53.75300 42.18300 41.36700
C  53.67000 43.64500 41.67200
C  51.84300 40.34600 41.06600
C  54.92100 41.32800 41.07100
O  54.85900 40.08900 40.79400
C  56.41200 41.95700 41.07200
N  53.56900 46.71400 42.45100
C  54.67000 45.85300 42.52700
C  55.98800 46.66600 42.93200
C  55.41800 47.99400 43.23900
C  53.86800 47.89100 42.99100
C  56.79500 45.91900 44.05400
C  55.95500 49.15800 42.22300
C  56.37500 50.41200 42.93800
N  50.96300 47.77500 42.10500
C  51.63200 48.94900 42.40600
C  50.78300 50.05200 42.34600
C  49.67400 49.48000 41.65800
C  49.81600 48.12100 41.56200
C  50.92000 51.48900 42.76400
C  48.33500 49.84300 41.15300
O  47.77800 50.94400 41.23600
C  47.69200 48.54300 40.59300
C  46.31000 48.32100 41.01000
O  45.42400 48.52300 40.26100
O  46.20800 48.02700 42.36000
C  44.84200 47.99000 42.84600
H  49.61900 41.93000 41.02100
H  55.66300 44.12800 42.16300
H  53.29200 49.90000 43.19600
H  46.47200 45.51500 41.12000
H  47.34400 43.09600 40.15800
H  46.71900 43.97800 42.83600
H  48.15300 43.13300 42.87700
H  46.76100 42.32400 42.23800
H  47.36600 44.72700 38.31100
H  47.06600 46.38900 38.60300
H  44.83400 46.09200 38.19300
H  44.73500 45.13600 39.69000
H  50.88300 40.16200 41.54900
H  52.55900 39.63300 41.47400
H  51.74800 40.23600 39.98500
H  56.68100 42.27800 42.07900
H  56.40300 42.85900 40.45900
H  57.11400 41.28000 40.58500
H  56.68900 46.62300 42.09900
H  55.67500 48.27500 44.26000
H  56.56300 46.34700 45.02900
H  57.87800 46.02400 43.98900
H  56.58900 44.85500 44.16700
H  55.21900 49.46600 41.48000
H  56.70200 48.74700 41.54400
H  56.25600 50.38400 44.02100
H  55.76300 51.28200 42.69900
H  57.39800 50.62700 42.62900
H  49.99600 51.74400 43.28300
H  51.11700 52.06600 41.86000
H  51.82100 51.58100 43.37100
H  47.71100 48.65300 39.50800
H  44.16000 47.28500 42.37000
H  44.37300 48.96800 42.74700
H  44.85700 47.67100 43.88800

