158

Mg 40.78600 40.59700 26.71000
C  40.29000 43.13800 29.12200
C  41.99200 38.63000 28.99500
C  41.24400 38.40100 24.10900
C  40.06600 43.10400 24.28600
N  41.04200 40.89300 28.90800
C  40.80600 41.93800 29.68700
C  41.12700 41.62100 31.14500
C  41.51900 40.05400 31.13700
C  41.55000 39.81000 29.58200
C  42.81800 39.63200 31.92600
C  40.01400 42.04400 32.09200
C  39.62100 41.06200 33.27000
H  39.48400 41.56800 34.68900
N  41.46300 38.71900 26.58300
C  41.93100 38.05300 27.67800
C  42.28600 36.69900 27.24000
C  42.20700 36.67200 25.82200
C  41.65000 37.90900 25.45400
C  42.74600 35.58000 28.24000
C  42.59400 35.60700 24.80100
O  42.47800 35.71700 23.55800
C  43.29800 34.36500 25.33900
N  40.79300 40.83000 24.57000
C  40.87700 39.64700 23.73800
C  40.71700 40.03000 22.18900
C  39.86700 41.29900 22.43000
C  40.27300 41.82600 23.82400
C  42.11400 40.30500 21.50300
C  38.26200 41.03800 22.46700
C  37.70600 39.53600 22.64000
N  40.24900 42.63000 26.64000
C  40.08400 43.51500 25.59400
C  39.75800 44.78100 26.10900
C  39.74500 44.70400 27.51200
C  40.09600 43.33700 27.75500
C  39.48600 45.98600 25.35000
C  39.60500 45.44400 28.75800
O  39.22600 46.57600 28.97800
C  40.04000 44.41500 29.83900
C  41.24500 45.02100 30.46200
O  42.41700 44.87900 30.09400
O  40.94800 45.80000 31.60100
C  42.08600 46.28100 32.37900
H  42.33000 37.99300 29.81400
H  41.45400 37.68200 23.31400
H  39.83700 43.87300 23.54500
H  41.97400 42.25100 31.41600
H  40.72800 39.37500 31.45500
H  42.64600 38.88500 32.70000
H  43.39400 40.48400 32.28800
H  43.53600 39.27700 31.18700
H  39.09200 42.00200 31.51300
H  40.00100 43.07800 32.43700
H  40.43700 40.36900 33.47200
H  38.70900 40.50700 33.05100
H  42.15400 34.71500 27.94300
H  42.37800 35.89700 29.21500
H  43.82100 35.41700 28.32800
H  42.74300 33.72800 26.02800
H  44.22900 34.70300 25.79500
H  43.37200 33.65300 24.51700
H  40.26500 39.19900 21.64800
H  39.99500 42.15500 21.76800
H  42.98000 40.26800 22.16400
H  42.00000 41.28700 21.04300
H  42.34400 39.58900 20.71400
H  37.75200 41.54000 21.64500
H  37.95700 41.58600 23.35900
H  36.76100 39.51700 22.09900
H  37.34800 39.37900 23.65700
H  38.41300 38.76700 22.32900
H  40.24100 46.04200 24.56500
H  39.51100 46.90200 25.93900
H  38.48400 45.90000 24.92900
H  39.17400 44.35800 30.49900
H  42.00600 47.24900 32.87300
H  42.81700 46.61500 31.64300
H  42.47600 45.52700 33.06300
Mg -2.36000 35.31700 26.19600
C  -4.08900 33.72700 28.83000
C  -1.12200 37.48400 28.43000
C  -0.95200 36.78300 23.66800
C  -4.06400 33.05200 24.03000
N  -2.69900 35.67200 28.38700
C  -3.29500 34.84100 29.24700
C  -2.99900 35.24400 30.67500
C  -2.15400 36.58100 30.51100
C  -1.97000 36.62600 29.03700
C  -2.63200 37.90700 31.12400
C  -2.39700 34.16900 31.61500
C  -2.10300 34.61200 33.03900
H  -2.52100 33.87700 34.30100
N  -1.11700 36.93800 26.03000
C  -0.63000 37.67300 27.09500
C  0.24900 38.80400 26.52100
C  0.24100 38.57700 25.09500
C  -0.65100 37.37600 24.83000
C  0.90300 39.83000 27.37500
C  1.03700 39.37700 23.95100
O  1.07800 38.98000 22.77800
C  2.02900 40.31700 24.41000
N  -2.50900 34.96400 24.13800
C  -1.70700 35.67800 23.27000
C  -1.87700 35.27500 21.76000
C  -2.78500 34.04000 21.97300
C  -3.24200 34.03400 23.43100
C  -2.42500 36.27700 20.73000
C  -1.94600 32.75400 21.60100
C  -1.08200 32.14200 22.72600
N  -3.79600 33.73100 26.35200
C  -4.31100 32.87500 25.35900
C  -5.19800 31.92600 25.99600
C  -5.07500 32.18800 27.38600
C  -4.27000 33.27900 27.52200
C  -5.97400 30.83400 25.31000
C  -5.58300 31.78500 28.67800
O  -6.33000 30.86400 29.00500
C  -4.91700 32.78700 29.64800
C  -6.02200 33.40400 30.45000
O  -6.96900 33.93200 30.00600
O  -5.86100 33.07400 31.76300
C  -7.00200 33.27300 32.65600
H  -0.57700 38.05900 29.18100
H  -0.45600 37.15200 22.76800
H  -4.50400 32.26900 23.41000
H  -3.96600 35.56100 31.06400
H  -1.14500 36.46800 30.90800
H  -1.81200 38.27500 31.74100
H  -3.54300 37.66300 31.67100
H  -2.70700 38.61900 30.30300
H  -1.47800 33.78000 31.17700
H  -3.11600 33.35200 31.66900
H  -2.29900 35.68200 33.09300
H  -1.02700 34.49200 33.16500
H  0.47500 40.82300 27.23900
H  1.96000 39.92200 27.12400
H  0.78900 39.58100 28.43000
H  2.62100 40.84800 23.66500
H  2.74400 39.70000 24.95400
H  1.62500 41.01800 25.14000
H  -0.90000 34.99900 21.36300
H  -3.61500 33.94500 21.27400
H  -3.07300 36.93800 21.30600
H  -2.86700 35.66100 19.94700
H  -1.57000 36.80800 20.31200
H  -1.16800 33.00200 20.87900
H  -2.58800 31.93900 21.26600
H  -1.51900 31.21300 23.09400
H  -1.05200 32.75400 23.62700
H  -0.09700 31.94000 22.30500
H  -5.64300 30.72000 24.27800
H  -7.04300 31.04000 25.35900
H  -5.80100 29.93700 25.90600
H  -4.41100 32.21300 30.42500
H  -6.51200 33.91800 33.38500
H  -7.38700 32.35000 33.09000
H  -7.78500 33.92400 32.26800

