158

Mg 47.71500 44.00700 42.38500
C  44.35500 43.07200 42.58800
C  48.46200 40.62500 41.84000
C  50.86000 44.92500 41.52300
C  46.66400 47.43200 42.19500
N  46.45400 42.02900 42.19700
C  45.08800 41.89400 42.34900
C  44.70600 40.41000 42.18700
C  46.10600 39.66500 42.18100
C  47.10900 40.82700 42.12200
C  46.22200 38.77800 43.39200
C  43.72200 39.98300 41.12900
C  43.76100 40.61600 39.68100
H  44.13700 39.69500 38.49400
N  49.45100 42.88900 41.79400
C  49.55700 41.51200 41.67300
C  50.89300 41.16700 41.43100
C  51.54300 42.40500 41.20900
C  50.60200 43.51600 41.45600
C  51.30700 39.72600 41.30000
C  52.98500 42.46100 40.88500
O  53.71800 41.47600 40.63900
C  53.76800 43.76800 40.76200
N  48.64900 45.91500 42.06100
C  49.94800 46.01300 41.80100
C  50.35200 47.52800 41.79500
C  48.96600 48.21900 41.45600
C  48.02600 47.16400 42.05100
C  51.06700 48.18600 42.92500
C  48.65500 48.44200 39.86900
C  48.19900 49.84700 39.49200
N  45.95700 45.07300 42.52900
C  45.64700 46.48500 42.43000
C  44.27200 46.67100 42.64200
C  43.74100 45.39500 42.69100
C  44.76800 44.46600 42.62100
C  43.63400 48.03200 42.76600
C  42.50100 44.65900 42.86300
O  41.38700 45.12300 42.96600
C  42.87000 43.12600 42.87900
C  42.50700 42.59600 44.23100
O  42.07500 41.43400 44.44000
O  42.96300 43.42800 45.18900
C  42.95100 42.96300 46.61100
H  48.60300 39.55400 41.67900
H  51.85200 45.15000 41.12600
H  46.44100 48.49400 42.31400
H  44.22300 40.16500 43.13300
H  46.29000 39.04200 41.30500
H  47.14700 38.21500 43.26200
H  45.25300 38.30700 43.55600
H  46.37500 39.44800 44.23800
H  42.70700 40.22300 41.44700
H  43.80600 38.90000 41.04700
H  44.38000 41.51100 39.61700
H  42.75100 40.98100 39.49500
H  51.99400 39.56100 40.47100
H  50.52300 39.02100 41.02300
H  51.75800 39.26700 42.18000
H  53.53300 44.24900 39.81300
H  54.79700 43.41600 40.83300
H  53.66200 44.34700 41.68000
H  51.02000 47.68600 40.94800
H  48.73900 49.09100 42.06900
H  52.09600 48.39800 42.63500
H  50.93700 47.56900 43.81400
H  50.75900 49.22700 43.02900
H  47.78100 47.82900 39.64900
H  49.41600 48.03200 39.20500
H  47.57500 50.42100 40.17800
H  47.48700 49.78100 38.66900
H  49.01300 50.54600 39.30100
H  43.82400 48.49400 41.79800
H  44.07500 48.58400 43.59600
H  42.56500 47.83900 42.84900
H  42.26700 42.54700 42.17800
H  42.51100 42.01300 46.91600
H  42.30100 43.66900 47.12700
H  43.96000 42.94600 47.02400
Mg -5.46400 25.04200 25.49200
C  -4.24100 26.60700 28.45500
C  -6.89600 22.69200 27.62200
C  -6.74000 23.65000 22.74700
C  -3.78700 27.45400 23.63600
N  -5.50900 24.79600 27.80300
C  -4.99500 25.52900 28.80300
C  -5.56400 25.08600 30.19900
C  -6.17700 23.70400 29.89200
C  -6.18700 23.71800 28.34200
C  -5.26100 22.52400 30.45200
C  -6.57300 26.21200 30.67100
C  -6.27500 26.81100 32.04600
H  -6.16300 25.89800 33.28100
N  -6.62100 23.33100 25.17200
C  -7.12400 22.49200 26.19900
C  -7.70500 21.41800 25.50100
C  -7.74100 21.71700 24.09100
C  -7.02900 22.92300 23.99600
C  -8.39900 20.29100 26.25200
C  -8.47800 20.95300 22.93000
O  -8.50600 21.30800 21.79200
C  -9.22900 19.69000 23.17100
N  -5.37000 25.53300 23.45900
C  -5.92400 24.78600 22.50000
C  -5.54300 25.25800 21.10800
C  -4.98900 26.64500 21.45300
C  -4.62100 26.52800 22.91900
C  -4.44400 24.29700 20.44100
C  -5.93700 27.88000 21.33600
C  -5.94100 28.59800 19.98300
N  -4.19600 26.67900 25.84100
C  -3.59500 27.53200 25.01100
C  -2.76300 28.41500 25.75200
C  -3.01000 28.06500 27.09700
C  -3.92300 27.04500 27.13400
C  -1.85200 29.42200 25.20800
C  -2.56900 28.41000 28.49900
O  -1.78600 29.27600 28.83100
C  -3.47000 27.52500 29.45200
C  -2.62900 26.66900 30.32800
O  -1.87500 25.83200 29.87000
O  -2.81200 26.93100 31.69400
C  -2.12100 26.06900 32.66700
H  -7.39500 21.97400 28.27600
H  -7.24200 23.25800 21.86000
H  -3.17200 28.14500 23.05500
H  -4.82100 24.95100 30.98400
H  -7.14500 23.58900 30.38000
H  -5.85400 21.63000 30.64400
H  -4.77400 22.88700 31.35700
H  -4.56000 22.15200 29.70500
H  -7.57900 25.79100 30.69200
H  -6.48700 27.02400 29.94900
H  -6.98800 27.62400 32.17800
H  -5.34200 27.29800 31.76000
H  -7.99100 19.33700 25.91900
H  -9.45900 20.26900 25.99700
H  -8.35600 20.16300 27.33300
H  -10.00900 19.98100 23.87400
H  -8.63900 18.89800 23.63300
H  -9.61800 19.31300 22.22500
H  -6.45200 25.30700 20.51000
H  -4.06200 26.86800 20.92500
H  -4.15900 23.45200 21.06800
H  -3.59000 24.76200 19.94800
H  -4.96600 23.76100 19.64800
H  -5.84000 28.68200 22.06700
H  -6.94600 27.47500 21.42300
H  -5.09700 29.28600 20.03700
H  -6.88600 29.06100 19.70100
H  -5.77000 27.85500 19.20400
H  -2.49500 29.97400 24.52100
H  -0.92800 29.07600 24.74500
H  -1.51800 30.10200 25.99100
H  -4.07000 28.28300 29.95600
H  -2.33800 25.00400 32.57500
H  -2.37700 26.40500 33.67200
H  -1.04200 26.14800 32.53400

