158

Mg 17.19100 -0.36500 27.68200
C  16.40000 1.47300 30.65800
C  19.13500 -2.36300 29.53300
C  18.38200 -1.64200 24.83100
C  15.68800 2.19900 25.83600
N  17.95700 -0.20000 29.81600
C  17.33600 0.45600 30.87100
C  17.59500 -0.21700 32.22500
C  18.56600 -1.36400 31.81200
C  18.62000 -1.26300 30.29400
C  20.00300 -1.29400 32.49600
C  16.37100 -0.73900 32.98800
C  16.30900 -0.46200 34.51200
H  17.60600 0.03100 35.22500
N  18.54800 -1.87400 27.23200
C  19.19900 -2.70400 28.18700
C  19.81300 -3.82300 27.53200
C  19.58700 -3.56700 26.07200
C  18.78000 -2.34200 25.99900
C  20.41600 -4.96700 28.32100
C  19.84800 -4.48200 24.90700
O  19.43900 -4.28000 23.75300
C  20.68600 -5.70500 25.08800
N  17.16900 0.23200 25.68900
C  17.68100 -0.49300 24.69600
C  17.58300 0.18400 23.27800
C  16.66200 1.39800 23.64100
C  16.41300 1.27300 25.13500
C  18.98900 0.57300 22.66900
C  15.31700 1.31200 22.79500
C  14.27800 0.40800 23.28300
N  16.02800 1.27800 28.10200
C  15.42900 2.25600 27.24600
C  14.71100 3.23500 27.98900
C  15.09600 2.98000 29.30000
C  15.93300 1.77600 29.34700
C  14.04600 4.48900 27.49100
C  14.92700 3.49200 30.67700
O  14.31000 4.46300 31.05700
C  15.83600 2.55300 31.62900
C  16.87600 3.27600 32.30900
O  18.04200 3.31300 31.96900
O  16.40700 3.93500 33.45700
C  17.35400 4.62500 34.36900
H  19.51800 -3.16600 30.16600
H  18.63000 -2.07900 23.86100
H  15.16100 3.01300 25.33300
H  18.16300 0.39800 32.92300
H  18.25600 -2.37600 32.07300
H  19.90000 -2.24500 33.01700
H  20.09000 -0.42600 33.15000
H  20.86600 -1.22900 31.83300
H  16.23700 -1.78100 32.69600
H  15.48500 -0.24500 32.58900
H  16.00800 -1.38700 35.00400
H  15.48400 0.19400 34.78900
H  19.92600 -5.92400 28.14000
H  20.33200 -4.83800 29.40000
H  21.48900 -5.12300 28.21200
H  21.61300 -5.46300 25.60900
H  20.93000 -6.04800 24.08300
H  20.12400 -6.54500 25.49500
H  17.09700 -0.46700 22.55200
H  17.19900 2.34100 23.53900
H  19.00400 1.58000 22.25400
H  19.36600 -0.21200 22.01300
H  19.71900 0.42200 23.46400
H  15.59600 0.97500 21.79700
H  14.89200 2.31100 22.69300
H  13.78400 -0.04900 22.42600
H  13.57700 0.95200 23.91600
H  14.57200 -0.41900 23.93000
H  14.76200 4.89600 26.77800
H  13.80400 5.13900 28.33200
H  13.21000 4.07200 26.93000
H  15.19800 2.04200 32.35000
H  17.16100 4.27800 35.38400
H  17.29300 5.70600 34.24500
H  18.38500 4.31000 34.20600
Mg 45.44300 3.78000 46.98900
C  43.37400 6.48700 46.62900
C  42.65800 1.60200 46.58100
C  47.40400 1.01800 47.07200
C  48.23200 5.88500 46.82600
N  43.31200 4.02600 46.43400
C  42.65400 5.25300 46.42700
C  41.16500 5.11500 46.31000
C  40.94200 3.58200 46.41800
C  42.43900 3.01000 46.44700
C  40.16600 3.22100 47.67900
C  40.72600 5.63500 44.93800
C  39.69400 6.74700 44.87000
H  39.92500 7.83200 43.80700
N  45.05000 1.52200 46.94300
C  43.86000 0.91500 46.76500
C  44.07200 -0.52000 46.89500
C  45.47500 -0.78300 46.93700
C  46.04200 0.58400 46.98900
C  42.92900 -1.45500 46.66000
C  46.19400 -2.09400 46.82500
O  45.54500 -3.09600 46.84500
C  47.68900 -2.18000 46.89000
N  47.53400 3.47400 46.62400
C  48.08000 2.24900 46.99900
C  49.59800 2.41400 47.28300
C  49.83500 3.96700 47.00000
C  48.44300 4.51500 46.76800
C  50.08200 1.85200 48.60900
C  50.63900 4.25800 45.66100
C  51.71200 5.40100 45.66400
N  45.82400 5.81300 46.79800
C  47.01800 6.53300 46.81800
C  46.63600 7.98700 46.91900
C  45.22400 8.03500 46.77900
C  44.75300 6.67400 46.76500
C  47.57100 9.14600 47.09400
C  44.08700 8.87200 46.75000
O  44.00900 10.11700 46.81800
C  42.86800 7.93400 46.61600
C  41.89400 8.28400 47.61300
O  41.93200 7.90000 48.74600
O  40.82800 9.01300 47.03100
C  39.73200 9.29100 48.00200
H  41.75000 1.00100 46.49800
H  48.18300 0.32100 47.38700
H  49.19100 6.34500 47.07300
H  40.58900 5.69000 47.03500
H  40.48500 3.09900 45.55500
H  39.23200 2.74400 47.38300
H  39.75300 4.07600 48.21300
H  40.67100 2.50200 48.32400
H  40.33700 4.88300 44.25100
H  41.58500 5.96100 44.35100
H  39.71800 7.30000 45.81000
H  38.67200 6.42600 44.66800
H  42.29800 -1.66500 47.52300
H  43.21500 -2.47100 46.38900
H  42.22600 -0.97100 45.98100
H  47.97200 -3.20000 46.63100
H  48.06600 -1.92900 47.88100
H  48.10300 -1.57700 46.08200
H  50.01300 1.91300 46.40900
H  50.38500 4.33500 47.86600
H  50.79600 1.04800 48.43400
H  49.26000 1.60200 49.27900
H  50.71800 2.54500 49.16000
H  49.91100 4.48500 44.88200
H  51.21300 3.37400 45.38400
H  51.51200 6.18900 44.93800
H  52.70800 4.98400 45.51200
H  51.75700 5.76700 46.69000
H  47.04400 10.09600 47.00200
H  48.25100 9.05700 46.24600
H  48.10300 8.98900 48.03300
H  42.41200 8.12300 45.64400
H  39.95600 10.10400 48.69200
H  39.31900 8.41500 48.50200
H  38.93400 9.77300 47.43800

