158

Mg 1.87900 -2.48500 43.63300
C  5.19800 -1.75000 42.85700
C  0.81500 0.31000 42.06200
C  -1.18100 -3.60600 44.12400
C  3.08900 -5.79300 44.67100
N  2.89500 -1.13400 42.30600
C  4.25500 -0.87400 42.23100
C  4.55500 0.37800 41.33800
C  3.15800 1.05200 41.27500
C  2.20500 0.00900 41.92700
C  3.06400 2.53900 41.86600
C  5.16400 -0.02000 39.96200
C  6.46200 0.77500 39.54700
H  6.65100 1.36800 38.12900
N  0.04600 -1.64600 43.32700
C  -0.19000 -0.45500 42.68500
C  -1.60800 -0.30500 42.57800
C  -2.27400 -1.40700 43.27800
C  -1.10800 -2.30500 43.61800
C  -2.15300 0.86600 41.88000
C  -3.73100 -1.51100 43.53400
O  -4.51100 -0.66600 43.10400
C  -4.26200 -2.71900 44.32100
N  1.08400 -4.40400 44.37800
C  -0.17800 -4.52500 44.50300
C  -0.61900 -5.99500 44.86300
C  0.69200 -6.75400 45.02200
C  1.69900 -5.64300 44.64200
C  -1.64300 -6.14100 46.09400
C  0.82100 -8.13500 44.27700
C  1.52300 -9.30800 44.93500
N  3.80600 -3.59500 43.64200
C  4.06600 -4.90200 44.10700
C  5.51200 -5.04300 44.15100
C  6.06400 -3.81400 43.67700
C  4.97400 -3.00800 43.42000
C  6.27700 -6.19200 44.68700
C  7.26100 -2.94200 43.48500
O  8.45400 -3.16800 43.65700
C  6.72700 -1.61900 42.89500
C  7.11600 -0.57400 43.86100
O  6.83200 -0.64100 45.04500
O  7.83000 0.36400 43.17600
C  8.38700 1.55200 43.88200
H  0.46000 1.31100 41.80800
H  -2.20400 -3.98500 44.16200
H  3.53900 -6.75400 44.93000
H  5.22400 1.07100 41.84700
H  2.74100 1.24500 40.28700
H  2.63700 3.17800 41.09300
H  4.00300 2.97300 42.21300
H  2.39500 2.61600 42.72400
H  4.42700 0.07900 39.16500
H  5.30200 -1.10100 39.92900
H  7.18500 -0.03700 39.62400
H  6.66500 1.53000 40.30600
H  -1.47500 1.41200 41.22400
H  -2.51400 1.60500 42.59600
H  -3.05000 0.62400 41.30900
H  -5.27100 -2.55200 44.69600
H  -3.65800 -2.91300 45.20700
H  -4.35000 -3.50600 43.57100
H  -1.14200 -6.37000 43.98300
H  0.82600 -6.89800 46.09500
H  -1.36500 -7.08200 46.56900
H  -2.70200 -6.07000 45.84400
H  -1.46500 -5.42600 46.89700
H  1.41100 -7.88000 43.39600
H  -0.22000 -8.33600 44.02300
H  0.91600 -10.21300 44.89800
H  1.73900 -9.14400 45.99000
H  2.41100 -9.49600 44.33200
H  7.24100 -5.71500 44.86300
H  6.46500 -6.94900 43.92500
H  5.77500 -6.54900 45.58600
H  7.24100 -1.43400 41.95200
H  9.33100 1.87400 43.44400
H  8.49500 1.25600 44.92500
H  7.64600 2.35100 43.92800
Mg 17.73300 -0.91500 27.46000
C  16.29200 0.45100 30.40100
C  19.59900 -2.96800 29.43400
C  18.86000 -2.21600 24.71600
C  15.67400 1.29400 25.51300
N  17.99500 -1.12300 29.67100
C  17.30800 -0.47400 30.70400
C  17.74800 -0.90400 32.11500
C  19.00900 -1.81000 31.73200
C  18.92600 -1.99600 30.18800
C  20.37000 -1.23800 32.21900
C  16.60200 -1.59100 32.86300
C  16.49200 -1.22600 34.38100
H  17.82000 -0.64900 35.11600
N  19.12100 -2.40300 27.12700
C  19.67400 -3.21300 28.02800
C  20.36200 -4.32000 27.35400
C  20.08900 -4.16500 25.95800
C  19.33300 -2.88900 25.88300
C  20.99400 -5.44400 28.11200
C  20.57200 -4.98700 24.81400
O  20.14800 -4.87100 23.68100
C  21.46200 -6.06400 25.23000
N  17.16000 -0.52700 25.43900
C  18.01000 -1.10900 24.53600
C  17.78800 -0.54800 23.12400
C  16.77000 0.62800 23.35800
C  16.48000 0.47600 24.81500
C  19.03600 -0.24600 22.22300
C  15.55400 0.59000 22.39000
C  15.90900 0.63900 20.86900
N  16.30400 0.54000 27.80000
C  15.51600 1.29000 26.94600
C  14.46400 1.99600 27.68500
C  14.77600 1.66000 29.07700
C  15.87000 0.79200 29.08800
C  13.40200 2.99300 27.13700
C  14.30400 1.91700 30.43900
O  13.36700 2.55800 30.92500
C  15.34200 1.14200 31.29200
C  16.12600 2.18800 32.03900
O  17.04300 2.83800 31.58400
O  15.57000 2.27000 33.31400
C  16.05400 3.41800 34.08800
H  20.14600 -3.66700 30.07100
H  19.28700 -2.54900 23.76700
H  15.08900 2.09800 25.06100
H  17.97500 -0.00900 32.69400
H  18.84900 -2.76800 32.22800
H  20.87400 -1.99500 32.82000
H  20.23700 -0.29700 32.75300
H  21.02800 -1.17200 31.35300
H  16.72200 -2.65300 32.64800
H  15.68000 -1.23300 32.40600
H  16.10500 -2.03000 35.00700
H  15.72700 -0.47000 34.20800
H  20.29900 -6.27400 28.23700
H  21.24900 -5.20100 29.14300
H  21.97000 -5.79800 27.78200
H  22.34900 -5.60300 25.66500
H  21.78900 -6.47700 24.27600
H  20.90800 -6.79000 25.82600
H  17.28100 -1.40100 22.67200
H  17.27300 1.59400 23.30900
H  18.95200 0.73200 21.75000
H  19.04900 -1.03300 21.46900
H  19.90800 -0.32900 22.87200
H  14.90400 1.43200 22.62800
H  15.00200 -0.32900 22.58600
H  15.11500 1.24600 20.43300
H  15.90200 -0.41500 20.59200
H  16.90700 0.98300 20.59900
H  12.96000 3.52200 27.98200
H  12.67400 2.38500 26.59900
H  13.78400 3.80800 26.52300
H  14.70000 0.49400 31.88900
H  17.08000 3.70100 33.85300
H  16.11700 3.18200 35.15100
H  15.41400 4.29600 34.00500

