158

Mg 43.91500 3.89200 46.98500
C  42.05300 6.72700 46.87900
C  40.91000 1.98600 46.80400
C  45.76000 1.20300 46.40200
C  46.86100 5.84800 46.46500
N  41.71800 4.37500 46.96100
C  41.19600 5.58700 46.86000
C  39.68000 5.52100 46.80700
C  39.30300 4.02100 46.94700
C  40.73400 3.40200 46.84500
C  38.52400 3.69700 48.26200
C  39.09400 6.22900 45.61400
C  39.44100 5.64600 44.21800
H  39.91400 6.62900 43.17100
N  43.37300 1.85300 46.78000
C  42.12300 1.21600 46.81000
C  42.26000 -0.15600 46.64400
C  43.58700 -0.37100 46.32900
C  44.35300 0.88500 46.44700
C  41.01700 -1.08100 46.73200
C  44.08500 -1.73800 45.92000
O  43.23800 -2.62400 45.86800
C  45.46600 -1.96400 45.56600
N  46.06500 3.59700 46.50000
C  46.48100 2.36900 46.48000
C  48.07100 2.31700 46.55300
C  48.43100 3.79100 46.36900
C  47.09700 4.51000 46.49200
C  48.50700 1.74600 47.92900
C  48.97000 4.15200 44.92300
C  50.44200 4.50100 44.94900
N  44.38600 5.87400 46.67300
C  45.62500 6.54400 46.51300
C  45.37600 8.00900 46.52900
C  43.97600 8.07000 46.64500
C  43.41300 6.81700 46.75100
C  46.30400 9.08000 46.56700
C  42.91500 8.93100 46.79600
O  42.95600 10.18000 46.81100
C  41.58100 8.18500 46.85800
C  40.73000 8.68200 47.92600
O  40.42600 8.04000 48.88900
O  40.18000 9.89400 47.54600
C  38.97100 10.32500 48.25500
H  39.97100 1.44900 46.65400
H  46.40800 0.32800 46.48500
H  47.71600 6.52300 46.38700
H  39.28700 6.13200 47.61900
H  38.72500 3.68000 46.08800
H  39.23400 3.84500 49.07600
H  38.39500 2.62200 48.38400
H  37.62600 4.28100 48.46200
H  39.45600 7.25500 45.56100
H  38.00800 6.27700 45.69800
H  38.58700 5.05200 43.89100
H  40.31000 5.01300 44.39600
H  40.77700 -1.52100 45.76400
H  40.10600 -0.51100 46.91500
H  41.16500 -1.84900 47.49100
H  46.05700 -2.16600 46.45900
H  45.80700 -1.08800 45.01400
H  45.50400 -2.80700 44.87600
H  48.46600 1.81000 45.67200
H  48.99800 4.30800 47.14300
H  47.68700 1.51100 48.60700
H  49.13600 2.50100 48.40000
H  49.01900 0.80200 47.74100
H  48.37500 4.95400 44.48600
H  48.70800 3.30400 44.29000
H  50.95400 3.91800 44.18300
H  50.80900 4.15900 45.91600
H  50.67200 5.56500 44.88900
H  45.87300 10.02900 46.24800
H  47.05300 8.88000 45.80100
H  46.77000 9.20700 47.54400
H  41.10500 8.50600 45.93200
H  38.98300 10.26000 49.34300
H  38.07200 9.83600 47.87900
H  38.79600 11.39200 48.11200
Mg 31.26200 58.72600 39.81200
C  28.17600 57.00500 38.93100
C  32.93200 56.03400 38.61300
C  33.96000 60.64900 39.82000
C  29.26700 61.43800 40.64200
N  30.59200 56.80600 38.89300
C  29.35200 56.26100 38.62700
C  29.52700 54.91100 38.08700
C  30.99700 54.55600 38.26800
C  31.54500 55.86800 38.58100
C  31.36000 53.56100 39.42500
C  29.15600 54.81300 36.60500
C  28.09000 53.72400 36.19700
H  27.25000 54.18600 34.95900
N  33.23200 58.38000 39.37400
C  33.74700 57.19000 38.87100
C  35.13500 57.31200 38.66100
C  35.48300 58.63500 39.01500
C  34.22200 59.31500 39.41900
C  35.99600 56.23300 38.05100
C  36.90200 59.17600 38.83900
O  37.85900 58.47500 38.55100
C  37.21100 60.64700 38.91400
N  31.53400 60.79600 40.08500
C  32.78100 61.33200 40.23300
C  32.72400 62.72200 40.84600
C  31.17700 62.96600 41.00700
C  30.57600 61.62800 40.49700
C  33.68600 62.89800 42.07400
C  30.65200 64.28800 40.16400
C  29.87800 65.31100 41.04000
N  29.14800 59.18300 39.92900
C  28.49200 60.25800 40.31400
C  27.07900 60.08700 40.26400
C  26.95200 58.84600 39.76000
C  28.20300 58.28400 39.54400
C  26.06800 61.10800 40.61300
C  25.89800 57.85400 39.42700
O  24.68900 57.87800 39.43900
C  26.69200 56.59800 38.80400
C  26.30200 55.37300 39.60500
O  26.95800 54.96300 40.52800
O  25.20600 54.68300 38.99900
C  25.04900 53.38400 39.63700
H  33.52900 55.16200 38.34000
H  34.85100 61.27900 39.83000
H  28.62700 62.27800 40.91900
H  29.03500 54.12700 38.66300
H  31.45500 54.20800 37.34200
H  32.04500 54.06400 40.10700
H  31.80700 52.63000 39.07600
H  30.45400 53.29000 39.96800
H  30.03400 54.61400 35.99100
H  28.79400 55.78400 36.26800
H  27.42600 53.65100 37.05900
H  28.60600 52.79200 35.97000
H  36.18100 56.43400 36.99600
H  35.59400 55.23000 38.19900
H  36.86500 56.22700 38.70900
H  36.42400 61.24700 38.45600
H  38.09100 60.97900 38.36200
H  37.23500 60.72200 40.00100
H  33.14000 63.44600 40.14500
H  31.08900 63.03000 42.09100
H  33.25300 63.60900 42.77800
H  34.70400 63.20600 41.83700
H  33.71300 61.92500 42.56500
H  30.00800 63.85700 39.39900
H  31.48000 64.76600 39.63900
H  30.38400 66.25700 40.84300
H  29.88300 65.04400 42.09700
H  28.85000 65.39000 40.68800
H  26.15300 61.89100 39.85900
H  26.08300 61.43400 41.65300
H  25.10600 60.63500 40.41800
H  26.45800 56.43900 37.75200
H  25.86100 52.72000 39.34000
H  24.02000 53.06800 39.46300
H  25.20500 53.60400 40.69300

