158

Mg 43.44700 4.19200 47.84700
C  41.41600 6.92100 47.74300
C  40.61900 2.19900 47.63500
C  45.44600 1.63000 47.10900
C  46.25800 6.40400 47.66400
N  41.26900 4.54700 47.51700
C  40.67700 5.77100 47.67800
C  39.19100 5.58600 47.76800
C  39.04700 4.08200 48.00300
C  40.38700 3.55800 47.68300
C  38.51500 3.41100 49.31800
C  38.42800 6.17600 46.54700
C  39.29200 6.15700 45.19700
H  38.45700 6.07700 43.86800
N  43.09800 2.16100 47.43500
C  41.86600 1.53100 47.45700
C  41.99300 0.14800 47.22900
C  43.36900 -0.05200 46.87200
C  44.05900 1.28300 47.12900
C  40.84300 -0.85600 47.14400
C  43.93100 -1.39500 46.42200
O  43.18600 -2.32000 46.22500
C  45.48000 -1.53800 46.06800
N  45.60500 4.05900 47.29600
C  46.17500 2.87100 47.14000
C  47.64500 2.98400 47.24400
C  47.91600 4.53500 47.54000
C  46.52800 5.04400 47.46300
C  48.31300 1.94200 48.11200
C  49.04000 5.12700 46.65500
C  50.44200 5.20200 47.31600
N  43.84000 6.28000 47.81400
C  44.97500 7.03200 47.81100
C  44.66500 8.39400 47.80000
C  43.22500 8.45200 47.78200
C  42.80000 7.13900 47.77100
C  45.58500 9.57500 47.76400
C  42.05400 9.32000 47.71300
O  41.83800 10.53900 47.61800
C  40.79600 8.34700 47.76600
C  40.04600 8.64400 48.98100
O  40.22700 8.13200 50.10800
O  39.11900 9.61200 48.71800
C  37.96700 9.91900 49.58700
H  39.65600 1.68400 47.61700
H  46.11200 0.80200 46.85800
H  47.15600 7.01700 47.76600
H  38.79900 6.03900 48.67900
H  38.38000 3.71000 47.22500
H  38.06500 4.17600 49.95000
H  39.38600 2.93300 49.76800
H  37.70800 2.69700 49.15200
H  38.19200 7.21600 46.77200
H  37.54300 5.57600 46.33700
H  40.06600 5.39000 45.18100
H  39.73000 7.15300 45.13900
H  40.69000 -1.18000 46.11500
H  39.95300 -0.29300 47.42300
H  41.02100 -1.71600 47.78900
H  46.10500 -1.21500 46.90100
H  45.58000 -0.94200 45.16100
H  45.68400 -2.59000 45.86600
H  47.97700 2.79700 46.22300
H  48.02400 4.77800 48.59700
H  48.71900 1.19300 47.43100
H  47.54700 1.49400 48.74400
H  49.14400 2.43200 48.61900
H  48.72800 6.07900 46.22500
H  49.14300 4.48700 45.77800
H  50.64700 6.26400 47.45200
H  51.14900 4.75200 46.61900
H  50.38400 4.80000 48.32800
H  45.09300 10.47900 47.40600
H  46.22300 9.28300 46.92900
H  46.28700 9.73900 48.58100
H  40.19000 8.55300 46.88400
H  38.33700 10.70600 50.24500
H  37.79000 8.99100 50.12900
H  37.09600 10.19100 48.99100
Mg 36.12600 49.12900 24.98800
C  36.43100 47.57600 28.02900
C  35.20800 52.08200 26.64300
C  35.65100 50.65300 22.09900
C  37.25200 46.19500 23.42200
N  35.96100 49.77200 27.09500
C  36.12100 48.94800 28.16400
C  36.21700 49.82200 29.45800
C  35.71500 51.22600 29.00600
C  35.63600 51.01600 27.46600
C  34.35100 51.63400 29.67500
C  37.56000 49.77300 30.16900
C  37.39400 49.31500 31.63500
H  36.03200 49.43000 32.51100
N  35.51700 51.08300 24.48700
C  35.11900 52.13000 25.27800
C  34.75000 53.30000 24.42600
C  34.80400 52.87400 23.11000
C  35.34000 51.47500 23.16600
C  34.51600 54.64100 25.01600
C  34.51700 53.69200 21.85200
O  34.62100 53.25200 20.72200
C  33.94200 55.00600 22.00400
N  36.33400 48.52300 23.08500
C  36.14600 49.35500 22.00900
C  36.61600 48.80300 20.68500
C  37.23900 47.46000 21.08700
C  36.96500 47.34300 22.65600
C  35.52100 48.59800 19.57100
C  38.72000 47.20500 20.86800
C  38.99900 45.98200 19.95700
N  36.60800 47.25500 25.51600
C  37.02500 46.12700 24.83000
C  37.20900 45.00200 25.67600
C  37.05600 45.59400 26.98400
C  36.64400 46.93100 26.83700
C  37.56500 43.65700 25.20800
C  37.13700 45.26000 28.39900
O  37.47000 44.17900 28.90500
C  36.83200 46.56800 29.17600
C  35.67600 46.31400 30.08400
O  34.52700 46.10100 29.66600
O  35.99800 46.00600 31.37900
C  35.08600 45.25400 32.22900
H  34.81900 52.96300 27.15800
H  35.60700 51.13100 21.11900
H  37.77300 45.35500 22.95800
H  35.48800 49.30300 30.08100
H  36.42800 52.03000 29.18800
H  33.40900 51.35700 29.20100
H  34.27300 52.70300 29.87000
H  34.40200 51.18000 30.66400
H  38.02500 50.75800 30.17500
H  38.27500 49.18300 29.59600
H  38.20500 49.87200 32.10300
H  37.54800 48.23600 31.67100
H  33.45700 54.89800 24.99200
H  35.11200 55.34000 24.42900
H  34.89300 54.72400 26.03500
H  33.00500 54.89500 22.55100
H  33.67200 55.43500 21.04000
H  34.70600 55.65800 22.42800
H  37.31300 49.59600 20.41500
H  36.60500 46.67600 20.67400
H  34.59600 48.22700 20.01200
H  35.84100 47.82000 18.87700
H  35.42200 49.54700 19.04300
H  39.21300 47.10700 21.83500
H  39.09200 48.12000 20.40600
H  39.76600 45.39400 20.46100
H  39.33500 46.54400 19.08600
H  38.10700 45.44200 19.64100
H  38.60500 43.51000 24.91600
H  36.93500 43.26700 24.40900
H  37.31700 43.06500 26.08900
H  37.71000 46.92000 29.71800
H  34.85600 44.34800 31.66800
H  34.20200 45.87600 32.37000
H  35.60400 45.00900 33.15600

