158

Mg 25.20800 -6.52300 48.06300
C  27.81700 -4.51000 46.69700
C  23.05900 -5.47200 45.54500
C  23.15900 -9.18400 48.65300
C  27.65200 -8.02200 49.97200
N  25.46400 -5.19500 46.25100
C  26.57800 -4.32400 46.03100
C  26.19900 -3.33500 44.95000
C  24.60100 -3.52100 44.71000
C  24.32400 -4.80700 45.52100
C  23.63100 -2.37400 45.11400
C  27.03300 -3.53000 43.65600
C  27.43300 -2.17800 42.93300
H  27.06800 -1.93100 41.53800
N  23.34400 -7.23300 47.33600
C  22.65000 -6.61600 46.25900
C  21.49100 -7.43500 45.91200
C  21.45100 -8.50700 46.88000
C  22.70400 -8.34900 47.63700
C  20.52800 -7.28400 44.72400
C  20.42500 -9.62300 46.91700
O  19.46500 -9.69200 46.11600
C  20.39600 -10.67100 47.95600
N  25.34700 -8.27500 49.25100
C  24.33100 -9.16500 49.41200
C  24.71100 -10.27900 50.41700
C  26.17100 -10.02700 50.72000
C  26.44400 -8.68600 49.96600
C  23.68800 -10.25200 51.53500
C  27.20400 -11.10500 50.20200
C  27.75000 -11.94500 51.39300
N  27.27100 -6.13200 48.54000
C  28.13900 -6.86700 49.32200
C  29.35600 -6.20500 49.31300
C  29.27900 -5.20800 48.35800
C  27.99800 -5.31800 47.78600
C  30.56000 -6.66700 49.98100
C  29.94500 -4.14600 47.65600
O  31.07200 -3.74000 47.87500
C  29.07400 -3.68200 46.53100
C  28.77600 -2.17900 46.75400
O  29.47100 -1.29400 46.26800
O  27.64200 -2.01600 47.55100
C  27.23500 -0.72500 47.99300
H  22.34100 -5.10500 44.80900
H  22.56200 -10.09500 48.73300
H  28.45300 -8.48300 50.55300
H  26.25600 -2.35700 45.42700
H  24.39400 -3.68800 43.65300
H  23.63900 -1.66600 44.28600
H  24.20700 -1.81100 45.84800
H  22.63400 -2.71300 45.39400
H  26.44100 -4.04500 42.90000
H  27.88400 -4.20900 43.71800
H  28.47800 -1.97400 43.16600
H  26.83700 -1.42100 43.44100
H  20.93400 -6.60100 43.97900
H  19.55300 -6.91500 45.04300
H  20.43900 -8.22600 44.18400
H  21.28200 -11.28400 47.79400
H  19.55000 -11.35000 47.85300
H  20.35400 -10.24000 48.95600
H  24.65600 -11.20900 49.85200
H  26.36000 -9.86000 51.78100
H  22.70600 -10.53000 51.15200
H  23.64000 -9.34700 52.14100
H  23.81200 -11.10800 52.19800
H  28.08600 -10.55600 49.87400
H  26.63400 -11.56900 49.39800
H  28.70200 -12.24900 50.95700
H  27.10600 -12.73900 51.77100
H  28.05700 -11.39600 52.28300
H  31.16100 -7.06700 49.16500
H  30.32400 -7.32800 50.81600
H  31.04600 -5.74600 50.30400
H  29.57200 -3.88100 45.58200
H  26.75000 -0.90400 48.95200
H  26.51600 -0.34600 47.26700
H  28.10900 -0.07500 48.03400
Mg 0.42200 44.20200 25.30800
C  2.66400 43.89900 27.93500
C  -2.04400 42.90800 27.34300
C  -1.72700 44.11300 22.68200
C  3.02700 44.92500 23.21300
N  0.37900 43.48900 27.48400
C  1.38000 43.52300 28.34600
C  0.85800 43.29600 29.82300
C  -0.68000 42.87700 29.57900
C  -0.80300 43.09700 28.03200
C  -1.06100 41.43000 30.01500
C  0.89800 44.58700 30.68500
C  1.46000 44.40100 32.09500
H  1.30500 43.03000 32.81700
N  -1.60400 43.68100 25.08600
C  -2.44100 43.15200 26.03100
C  -3.75800 42.89700 25.45600
C  -3.66700 43.32000 24.09000
C  -2.30500 43.75300 23.87800
C  -4.89100 42.44800 26.35200
C  -4.76600 43.30700 23.02400
O  -4.67300 43.76700 21.87200
C  -6.13100 42.67100 23.33700
N  0.62900 44.36600 23.20700
C  -0.46000 44.48200 22.36800
C  0.00900 44.83500 20.91300
C  1.53300 45.09500 21.09800
C  1.77500 44.82800 22.59800
C  -0.45300 43.79400 19.90100
C  2.06500 46.43100 20.54500
C  1.76900 47.77600 21.38300
N  2.48700 44.39800 25.51900
C  3.43500 44.67600 24.52900
C  4.78000 44.60000 25.15800
C  4.48100 44.54600 26.52300
C  3.09600 44.23800 26.64000
C  6.08300 44.75100 24.48600
C  5.04900 44.26800 27.74400
O  6.25700 44.13200 28.00500
C  3.88700 44.05700 28.77200
C  4.26500 42.83800 29.47200
O  3.96000 41.68100 29.10300
O  4.75100 43.08900 30.65200
C  5.24700 41.93100 31.45000
H  -2.75000 42.30100 27.91400
H  -2.42300 44.20800 21.84600
H  3.79100 45.19600 22.48200
H  1.29500 42.41700 30.29700
H  -1.43700 43.56400 29.95900
H  -1.44900 41.39700 31.03300
H  -0.12500 40.88400 30.13100
H  -1.78700 40.83500 29.46100
H  -0.10900 44.97300 30.84000
H  1.57700 45.22800 30.12300
H  1.05100 45.26700 32.61700
H  2.53000 44.54700 31.94800
H  -5.02000 41.36600 26.32700
H  -5.84800 42.86200 26.03600
H  -4.83600 42.83300 27.37000
H  -6.06200 41.73300 23.88800
H  -6.73300 42.55600 22.43600
H  -6.58100 43.39600 24.01600
H  -0.30300 45.83100 20.59600
H  2.11600 44.35200 20.55400
H  0.29100 43.03900 19.64900
H  -0.70300 44.28400 18.96000
H  -1.38600 43.30000 20.17200
H  1.67900 46.65600 19.55100
H  3.14900 46.35200 20.47000
H  1.32200 47.57600 22.35700
H  1.04000 48.35300 20.81500
H  2.72000 48.30000 21.47600
H  6.87600 44.89300 25.22000
H  6.00800 45.51000 23.70800
H  6.21700 43.74200 24.09600
H  3.85600 44.84700 29.52200
H  5.93500 41.41200 30.78300
H  4.44500 41.30400 31.83700
H  5.78200 42.32100 32.31600

