158

Mg -1.69300 16.89800 25.82100
C  -2.10100 14.40400 28.34400
C  -2.24800 19.31400 28.18900
C  -1.71700 19.17800 23.30800
C  -1.80400 14.28000 23.50400
N  -2.09500 16.76700 28.09700
C  -2.25300 15.71800 28.92400
C  -2.60600 16.15200 30.33300
C  -2.78200 17.70400 30.17900
C  -2.28400 17.97200 28.77500
C  -4.13600 18.37500 30.63400
C  -1.52600 15.66800 31.43100
C  -1.30100 16.71200 32.55600
H  -1.03200 16.14400 33.99500
N  -1.90100 18.98300 25.78700
C  -2.13300 19.80000 26.85800
C  -2.08500 21.15400 26.39300
C  -1.95500 21.10700 24.97900
C  -1.81100 19.68700 24.63100
C  -2.29900 22.30800 27.35700
C  -1.91100 22.32400 23.97800
O  -1.65700 22.20400 22.81800
C  -2.07900 23.68500 24.48600
N  -1.81000 16.71400 23.73900
C  -1.67900 17.79500 22.90300
C  -1.72600 17.34700 21.40200
C  -1.88300 15.82500 21.52100
C  -1.79300 15.57000 22.99600
C  -2.66600 18.17400 20.49600
C  -0.98000 14.92500 20.54000
C  -1.80400 13.94100 19.65100
N  -1.79500 14.73000 25.90600
C  -1.84900 13.81600 24.84800
C  -2.03200 12.55700 25.37000
C  -2.04000 12.68100 26.75700
C  -1.96500 14.04900 27.00400
C  -2.17000 11.31300 24.54800
C  -2.07500 11.98300 28.01200
O  -2.06100 10.79100 28.27100
C  -2.23000 13.10800 29.12300
C  -1.27600 12.78600 30.15600
O  -0.08600 13.12200 30.16700
O  -1.88400 12.06800 31.15900
C  -1.02200 11.73500 32.29800
H  -2.41800 19.97200 29.04400
H  -1.66100 19.91000 22.50000
H  -1.82800 13.46200 22.78200
H  -3.58500 15.69400 30.47300
H  -2.06200 18.21700 30.81700
H  -4.88100 17.66000 30.98300
H  -4.60200 19.04200 29.90800
H  -3.84700 19.08800 31.40600
H  -0.52700 15.53400 31.01600
H  -1.62500 14.70900 31.93900
H  -2.20800 17.31000 32.64000
H  -0.52000 17.45000 32.36900
H  -3.32400 22.66000 27.24500
H  -1.71100 23.18100 27.07400
H  -2.11000 22.10900 28.41200
H  -2.97500 23.69300 25.10600
H  -2.25000 24.34000 23.63100
H  -1.20600 24.08000 25.00500
H  -0.70600 17.62100 21.13400
H  -2.90500 15.58000 21.23100
H  -3.42500 18.65000 21.11800
H  -3.14300 17.57700 19.72000
H  -2.02200 18.88600 19.97900
H  -0.08700 14.46800 20.96500
H  -0.60900 15.62800 19.79400
H  -1.65500 12.92900 20.02800
H  -1.49600 13.92200 18.60500
H  -2.86100 14.16200 19.50600
H  -1.27600 11.17300 23.94100
H  -3.10300 11.47200 24.00600
H  -2.32000 10.43300 25.17300
H  -3.23400 13.07700 29.54700
H  -1.15100 12.44200 33.11800
H  0.02500 11.56300 32.05000
H  -1.39500 10.80200 32.72200
Mg 9.03200 3.96800 27.15800
C  10.04900 2.26200 30.07000
C  7.09900 6.05500 28.97500
C  7.95700 5.15000 24.26000
C  10.52900 1.24400 25.31300
N  8.64300 4.04700 29.37300
C  9.22100 3.31700 30.37600
C  8.87000 3.98500 31.79000
C  7.75200 5.02900 31.38700
C  7.83900 5.09600 29.82500
C  6.31600 4.81600 31.80700
C  10.07600 4.63800 32.56400
C  10.37900 4.10600 34.02200
H  10.86700 5.15900 35.12300
N  7.64700 5.42300 26.64800
C  6.98200 6.24000 27.55900
C  6.25800 7.28400 26.82400
C  6.53500 7.04500 25.40200
C  7.40900 5.87300 25.36000
C  5.37800 8.33400 27.49500
C  6.12700 7.87100 24.22100
O  6.53500 7.70900 23.11500
C  5.10100 8.96300 24.42000
N  9.37400 3.36100 25.05400
C  8.69500 3.97900 24.08000
C  9.13900 3.45300 22.75200
C  9.68100 2.04900 23.05700
C  9.89500 2.20600 24.57600
C  8.06800 3.32300 21.64600
C  10.96600 1.72100 22.31200
C  11.09000 0.28600 21.83100
N  10.13800 2.14400 27.51900
C  10.73500 1.21900 26.72400
C  11.48300 0.22000 27.51300
C  11.24400 0.63600 28.83600
C  10.44600 1.81700 28.79000
C  12.32800 -0.94900 27.00200
C  11.60100 0.38300 30.23000
O  12.39800 -0.40900 30.71500
C  10.87500 1.38800 31.02200
C  9.95800 0.63200 31.91200
O  8.89300 0.07200 31.57300
O  10.47000 0.74500 33.15100
C  9.74800 0.46400 34.40200
H  6.49800 6.76400 29.54700
H  7.67700 5.58900 23.30000
H  11.09600 0.49500 24.75600
H  8.34100 3.22100 32.36000
H  7.98800 5.97000 31.88400
H  5.73100 4.39400 30.99000
H  5.94000 5.80200 32.08100
H  6.36300 4.22600 32.72300
H  9.94000 5.71000 32.70700
H  10.98100 4.40300 32.00400
H  11.32300 3.56500 33.95500
H  9.56100 3.55600 34.48900
H  5.13600 7.98700 28.50000
H  4.43100 8.35100 26.95500
H  5.70100 9.37500 27.51900
H  4.29500 8.42700 24.92000
H  4.81500 9.30300 23.42500
H  5.56800 9.80400 24.93400
H  9.88400 4.18700 22.44600
H  8.98100 1.21700 22.98000
H  7.18600 3.25100 22.28300
H  8.08400 2.35600 21.14500
H  7.89100 4.21200 21.04000
H  11.85800 1.90000 22.91200
H  11.03200 2.35000 21.42400
H  11.88800 -0.32000 22.26100
H  11.21700 0.34800 20.75000
H  10.22100 -0.33700 22.04600
H  12.71500 -0.81000 25.99300
H  11.73200 -1.86200 27.00500
H  13.19500 -1.15000 27.63000
H  11.55000 2.04600 31.57000
H  10.23400 -0.08300 35.21000
H  8.84000 -0.09300 34.17300
H  9.33800 1.31600 34.94500

