158

Mg -0.06200 43.69500 26.93400
C  2.14900 43.29700 29.50400
C  -2.66900 42.90500 29.24600
C  -2.27500 43.27700 24.41000
C  2.46300 44.06500 24.65400
N  -0.15700 43.12100 29.08700
C  0.83200 43.07600 29.93700
C  0.34900 42.70700 31.36900
C  -1.13800 42.36800 31.14700
C  -1.38200 42.88400 29.77300
C  -1.47800 40.84300 31.16700
C  0.54400 43.96800 32.26300
C  1.01300 43.76300 33.74000
H  0.42700 42.68400 34.62100
N  -2.20800 43.34000 26.85900
C  -3.05000 43.11000 27.93900
C  -4.40100 42.90900 27.45100
C  -4.30300 42.86300 25.98800
C  -2.88900 43.13700 25.66700
C  -5.54800 42.47900 28.26700
C  -5.37400 42.56600 24.92100
O  -5.09900 42.35600 23.75000
C  -6.87600 42.27500 25.28400
N  0.06900 43.73600 24.76600
C  -0.95900 43.57900 24.02000
C  -0.48400 43.70100 22.48400
C  0.98700 44.30500 22.63100
C  1.23500 43.96400 24.08900
C  -0.60500 42.45900 21.58600
C  1.03500 45.92000 22.38300
C  1.70800 46.41200 21.11100
N  1.89800 43.74800 26.97600
C  2.85600 43.96200 26.00100
C  4.12300 44.01100 26.67300
C  3.94200 43.66200 27.99400
C  2.54700 43.53600 28.14000
C  5.44000 44.25200 26.01100
C  4.60200 43.34300 29.29700
O  5.76800 43.34900 29.64600
C  3.48300 43.09900 30.26800
C  3.64300 41.67000 30.82000
O  3.66700 40.60100 30.20300
O  3.71000 41.81600 32.19500
C  3.85700 40.55400 32.81100
H  -3.45400 42.76700 29.99300
H  -2.93000 43.28900 23.53600
H  3.21900 44.37400 23.92900
H  0.91800 41.84700 31.72300
H  -1.88500 42.74900 31.84400
H  -1.92700 40.61100 30.20200
H  -2.24500 40.60600 31.90500
H  -0.60900 40.22000 31.37900
H  -0.43000 44.43100 32.42200
H  1.21800 44.69100 31.80300
H  0.77400 44.75200 34.12900
H  2.09300 43.61400 33.75700
H  -6.46800 42.96000 27.93400
H  -5.48200 42.59800 29.34900
H  -5.64400 41.40000 28.14400
H  -7.42500 43.03800 25.83700
H  -6.81400 41.25100 25.65200
H  -7.34900 42.14200 24.31100
H  -1.13900 44.36800 21.92300
H  1.69300 43.76900 21.99700
H  0.23600 42.22700 20.93200
H  -1.43600 42.44600 20.88000
H  -0.66000 41.55100 22.18700
H  1.45000 46.35500 23.29200
H  0.00400 46.22300 22.20000
H  2.61200 45.88000 20.81500
H  1.93100 47.47200 21.23700
H  1.03900 46.27300 20.26200
H  5.37500 44.15700 24.92700
H  6.14400 43.46000 26.26600
H  5.90800 45.18900 26.31300
H  3.53400 43.86000 31.04600
H  3.10600 39.86400 32.42700
H  3.62300 40.53800 33.87600
H  4.81100 40.09000 32.56300
Mg -2.18900 35.32900 26.85700
C  -3.47800 33.16000 29.30300
C  -0.84400 37.13800 29.26200
C  -0.97800 37.12700 24.42300
C  -3.85200 33.20800 24.36300
N  -2.21300 35.11000 29.09300
C  -2.56000 34.10900 29.84900
C  -2.25700 34.29100 31.31900
C  -1.50500 35.69600 31.29300
C  -1.57900 36.04300 29.78500
C  -2.08500 36.84000 32.23600
C  -1.50000 33.02800 31.83200
C  -1.96700 32.47000 33.17100
H  -0.94800 32.23700 34.28500
N  -1.18900 36.93300 26.80900
C  -0.65000 37.57400 27.94400
C  0.30200 38.61800 27.53200
C  0.37100 38.54000 26.14300
C  -0.62200 37.49700 25.70700
C  1.12900 39.53900 28.52900
C  1.20500 39.32900 25.19200
O  1.26400 39.19700 23.99200
C  2.12800 40.33500 25.73800
N  -2.62400 35.32600 24.74300
C  -1.92600 36.17600 23.94800
C  -2.25300 35.93900 22.46400
C  -3.06500 34.70100 22.45700
C  -3.22900 34.40400 23.94700
C  -2.95700 37.06300 21.69100
C  -2.44100 33.48300 21.62900
C  -1.23900 32.73500 22.29600
N  -3.49700 33.60200 26.75700
C  -4.08400 32.84900 25.71000
C  -4.81300 31.72200 26.23800
C  -4.70000 31.84500 27.67400
C  -3.79100 32.92000 27.93900
C  -5.47400 30.62300 25.48500
C  -5.03200 31.33000 28.90600
O  -5.79200 30.39900 29.17300
C  -4.21500 32.06000 30.04500
C  -5.11700 32.65200 31.04000
O  -5.87300 33.59900 30.85800
O  -5.03900 31.97700 32.22300
C  -6.12800 32.24100 33.14000
H  -0.27600 37.73300 29.98000
H  -0.68300 37.76400 23.58700
H  -4.32200 32.67100 23.53700
H  -3.19600 34.41000 31.86000
H  -0.52700 35.60000 31.76300
H  -2.95900 36.60300 32.84300
H  -2.35800 37.67800 31.59500
H  -1.36000 37.25200 32.93800
H  -0.43300 33.22600 31.93100
H  -1.47600 32.23300 31.08700
H  -2.53200 31.55300 33.00500
H  -2.65300 33.18400 33.62700
H  2.14700 39.79000 28.23000
H  1.08400 39.11600 29.53200
H  0.63500 40.49800 28.67800
H  2.96500 39.76400 26.13900
H  1.59100 40.94800 26.46200
H  2.45500 41.06900 25.00200
H  -1.25700 35.88900 22.02400
H  -4.12300 34.82600 22.22700
H  -3.64900 36.71700 20.92400
H  -2.17500 37.75400 21.37800
H  -3.51800 37.59800 22.45800
H  -2.23600 33.87300 20.63200
H  -3.23100 32.78100 21.36000
H  -0.92100 33.17800 23.23900
H  -0.31900 32.87700 21.72900
H  -1.48800 31.67900 22.40400
H  -4.93000 30.34400 24.58300
H  -6.47900 30.99500 25.28800
H  -5.59500 29.88200 26.27500
H  -3.56900 31.31600 30.51200
H  -7.02700 32.70100 32.73000
H  -5.74700 32.75500 34.02200
H  -6.42500 31.28800 33.58000

