158

Mg 47.26200 24.66500 27.62600
C  47.77500 26.90900 30.36000
C  46.25200 22.32900 29.81000
C  46.79300 22.82200 25.04300
C  48.28100 27.41000 25.48400
N  46.89600 24.60300 29.86000
C  47.24100 25.61300 30.73800
C  46.92100 25.24900 32.14000
C  46.53600 23.67800 32.00300
C  46.54300 23.48900 30.51300
C  47.39100 22.68300 32.90900
C  45.79200 26.25800 32.69000
C  45.99000 26.84000 34.11700
H  44.91200 26.78200 35.15700
N  46.60900 22.70700 27.40700
C  46.20700 21.92900 28.37700
C  45.63900 20.72900 27.79600
C  45.81200 20.79600 26.41500
C  46.48300 22.12000 26.22100
C  45.14000 19.57400 28.65300
C  45.37700 19.83600 25.30700
O  45.73100 20.10600 24.15100
C  44.66600 18.48000 25.58900
N  47.73500 25.03300 25.54000
C  47.37500 24.07200 24.72000
C  47.46800 24.52200 23.20900
C  47.75300 26.05900 23.30500
C  48.03100 26.17000 24.82400
C  48.44600 23.64700 22.28600
C  46.57600 26.93400 22.88600
C  45.38800 27.10300 23.78700
N  47.89700 26.68500 27.83800
C  48.33800 27.63700 26.89500
C  48.62000 28.94100 27.57400
C  48.49300 28.59300 28.96800
C  48.03200 27.28700 29.03500
C  49.16500 30.20500 27.01300
C  48.58100 29.17100 30.29100
O  48.91100 30.31200 30.61000
C  48.13900 28.04100 31.23600
C  49.26900 27.72100 32.12300
O  50.18200 27.01000 31.77300
O  49.08000 28.11500 33.45600
C  49.97600 27.42500 34.43100
H  45.83100 21.64500 30.54900
H  46.47500 22.29800 24.14000
H  48.61200 28.26500 24.89100
H  47.85200 25.40600 32.68500
H  45.52900 23.68600 32.42100
H  48.42000 23.00500 33.06600
H  47.44400 21.75100 32.34800
H  46.81900 22.57200 33.83000
H  44.86000 25.70400 32.80100
H  45.76500 27.15800 32.07600
H  46.33600 27.87000 34.20500
H  46.86900 26.40900 34.59500
H  45.64400 18.68200 28.27900
H  44.05700 19.53700 28.54000
H  45.35600 19.51100 29.72000
H  45.32600 17.79800 26.12600
H  44.29700 17.99800 24.68400
H  43.76100 18.64700 26.17300
H  46.48000 24.33200 22.78900
H  48.67300 26.25100 22.75300
H  47.82900 23.26500 21.47300
H  48.86100 22.76700 22.77700
H  49.18800 24.23200 21.74300
H  46.22900 26.42800 21.98500
H  46.90000 27.91100 22.52900
H  45.16500 28.12200 24.10000
H  45.59500 26.45100 24.63600
H  44.53200 26.71500 23.23500
H  49.56400 30.94700 27.70500
H  48.30100 30.69800 26.56800
H  49.80200 29.94900 26.16600
H  47.40900 28.59000 31.83200
H  49.94100 26.36100 34.19700
H  49.60600 27.54200 35.45000
H  51.02000 27.70100 34.27900
Mg 41.17200 41.73100 27.21800
C  39.85200 43.94600 29.75200
C  42.02700 39.56600 29.71800
C  42.01300 39.70200 24.90300
C  40.18500 44.19600 24.86500
N  41.10300 41.87900 29.48600
C  40.39800 42.75100 30.27100
C  40.33800 42.32300 31.76900
C  41.13400 40.98400 31.67100
C  41.46100 40.80200 30.18300
C  42.40300 40.82900 32.60100
C  38.86900 42.27100 32.21800
C  38.59400 41.55900 33.49600
H  37.96000 42.44700 34.63200
N  42.05600 39.89700 27.32700
C  42.33900 39.16000 28.43400
C  42.91200 37.91700 28.01900
C  42.94300 37.95100 26.55400
C  42.36800 39.23100 26.18100
C  43.42800 36.89300 28.99500
C  43.51600 36.88600 25.65800
O  43.51100 36.98300 24.40000
C  44.07800 35.66200 26.25400
N  41.11000 41.91300 25.16900
C  41.47300 40.87400 24.41500
C  41.11800 41.10600 23.01400
C  40.26700 42.48000 22.99400
C  40.47900 42.88300 24.43800
C  42.32500 40.97400 22.00600
C  38.75900 42.29700 22.60400
C  37.88000 41.47100 23.46400
N  40.32300 43.70700 27.25400
C  40.04200 44.58000 26.23900
C  39.52500 45.86300 26.78200
C  39.39700 45.61100 28.14800
C  39.88900 44.33500 28.40200
C  39.17200 47.01300 25.93800
C  39.02100 46.25800 29.37500
O  38.56500 47.39000 29.57900
C  39.32400 45.14300 30.42400
C  40.34200 45.71800 31.31700
O  41.46800 46.10800 31.05200
O  39.88300 45.90100 32.59100
C  40.84900 46.65400 33.47400
H  42.31200 38.85000 30.49200
H  42.14800 38.98100 24.09400
H  39.82000 44.84500 24.06700
H  40.86400 43.05900 32.37800
H  40.48300 40.14100 31.90000
H  42.81700 41.76800 32.96900
H  43.16300 40.40000 31.94700
H  42.36600 40.11200 33.42100
H  38.36100 41.72800 31.42200
H  38.51200 43.29700 32.31500
H  39.53300 41.33800 34.00300
H  37.93400 40.71500 33.29800
H  42.90800 35.97300 28.72800
H  43.23600 37.13100 30.04100
H  44.49000 36.83800 28.75800
H  44.96400 35.90300 26.84100
H  44.36300 35.06000 25.39100
H  43.28800 35.28000 26.89900
H  40.39100 40.31900 22.81500
H  40.79300 43.17500 22.34000
H  42.19900 40.00700 21.51900
H  43.23200 40.86500 22.60100
H  42.38000 41.83400 21.33900
H  38.85900 41.84900 21.61500
H  38.35800 43.24900 22.25800
H  38.25300 41.02500 24.38600
H  37.59300 40.62000 22.84700
H  37.10600 42.21900 23.63400
H  38.97900 47.91300 26.52100
H  38.31500 46.72400 25.32900
H  39.96500 47.26300 25.23300
H  38.41400 44.93100 30.98500
H  41.82300 46.90200 33.05300
H  40.96100 46.10000 34.40700
H  40.39000 47.63500 33.58900

