158

Mg -0.02400 7.19600 26.29400
C  0.88900 9.15100 29.02800
C  0.11600 4.33200 28.22300
C  -0.32700 5.41400 23.47200
C  0.49600 10.03400 24.31700
N  0.49700 6.84100 28.32200
C  0.64600 7.77800 29.32500
C  0.59800 7.14900 30.66100
C  0.28200 5.65400 30.42500
C  0.25100 5.61000 28.89000
C  1.25100 4.54100 31.06200
C  -0.56300 7.84900 31.54500
C  -0.19200 8.13200 33.01700
H  1.01500 7.27500 33.53700
N  -0.05000 5.10400 25.91500
C  0.05400 4.10200 26.82500
C  -0.15400 2.87400 26.10500
C  -0.35000 3.19100 24.74500
C  -0.21700 4.60100 24.63500
C  -0.32700 1.52900 26.80800
C  -0.58100 2.23100 23.55600
O  -0.71300 2.55600 22.36300
C  -0.87300 0.79400 23.86300
N  0.02200 7.68600 24.27500
C  -0.20500 6.78600 23.30100
C  -0.17300 7.39600 21.88800
C  -0.24700 8.91700 22.21600
C  0.17800 8.89100 23.65300
C  0.99400 7.05500 20.93900
C  -1.59800 9.66800 21.86300
C  -2.92900 9.08800 22.40100
N  0.46900 9.25100 26.62400
C  0.63500 10.22900 25.71900
C  1.12400 11.49300 26.31700
C  1.12600 11.11100 27.68600
C  0.83400 9.71600 27.77600
C  1.45600 12.76600 25.72500
C  1.39600 11.70700 28.96600
O  1.73500 12.82000 29.35700
C  1.22200 10.41000 29.92300
C  2.35700 10.22400 30.85900
O  3.38400 9.71000 30.41300
O  2.09400 10.75600 32.11200
C  3.36100 11.10400 32.77800
H  -0.01200 3.39000 28.76100
H  -0.29700 4.96800 22.47600
H  0.61800 10.95700 23.74700
H  1.49800 7.51300 31.15700
H  -0.72200 5.45200 30.79800
H  1.83400 3.99200 30.32200
H  0.82200 3.70600 31.61600
H  2.03000 5.03300 31.64400
H  -1.45800 7.23200 31.61400
H  -0.87300 8.78500 31.08000
H  -1.10300 8.02300 33.60600
H  0.05500 9.18600 33.15200
H  -1.27400 1.22200 26.36200
H  -0.52300 1.61500 27.87700
H  0.52100 0.90400 26.53000
H  -1.71900 0.58700 24.51900
H  -0.00100 0.26900 24.25200
H  -1.05400 0.26700 22.92600
H  -1.16100 7.13700 21.50800
H  0.53500 9.45500 21.68100
H  1.44600 7.92900 20.47000
H  0.73500 6.35100 20.14800
H  1.76500 6.65700 21.59900
H  -1.77000 9.93000 20.81900
H  -1.63900 10.53900 22.51800
H  -3.60800 9.11900 21.55000
H  -3.41900 9.62600 23.21300
H  -2.95200 8.04200 22.70800
H  2.05300 12.52200 24.84700
H  1.99400 13.47100 26.35800
H  0.53200 13.25200 25.41200
H  0.44800 10.67500 30.64400
H  3.51200 10.46200 33.64500
H  3.16100 12.12600 33.10000
H  4.29000 11.07400 32.20900
Mg 54.13400 24.45100 45.43500
C  51.58300 26.51100 44.59300
C  52.26800 21.68500 44.20700
C  56.83000 22.48200 45.22900
C  56.10400 27.11000 46.36900
N  52.37400 24.19000 44.33700
C  51.38200 25.15400 44.26700
C  50.18100 24.62600 43.54900
C  50.12800 23.16400 43.87900
C  51.68800 22.98200 44.17300
C  49.22200 22.78800 45.06700
C  50.12500 24.96500 42.03000
C  51.40400 25.29800 41.37600
H  52.31900 24.15400 40.94900
N  54.48800 22.31600 45.01000
C  53.58500 21.36200 44.49900
C  54.29100 20.14000 44.34100
C  55.59100 20.32100 44.59500
C  55.73800 21.75200 44.94900
C  53.51900 18.95600 43.72800
C  56.72200 19.27200 44.48200
O  56.35900 18.14900 44.11700
C  58.14100 19.49800 44.88400
N  56.16500 24.77400 45.53800
C  57.02300 23.78100 45.61100
C  58.44800 24.30800 45.94800
C  58.26300 25.80900 46.33600
C  56.78000 25.93500 46.05300
C  59.23400 23.43700 46.97800
C  59.23000 26.78200 45.50100
C  60.35700 27.43900 46.23900
N  53.96500 26.41900 45.34100
C  54.76800 27.40600 45.99500
C  53.98900 28.61500 46.15200
C  52.76800 28.32100 45.53900
C  52.78800 26.99500 45.18700
C  54.35800 29.86700 46.89000
C  51.37400 28.85000 45.27200
O  50.94100 29.95800 45.43300
C  50.65000 27.71100 44.43900
C  50.55800 28.25600 43.04900
O  51.46900 28.81300 42.45000
O  49.30700 28.03200 42.49500
C  49.26400 28.47800 41.08400
H  51.51300 20.93700 43.95600
H  57.80200 21.98800 45.29800
H  56.72300 27.85800 46.86900
H  49.31700 25.06900 44.04600
H  49.89400 22.60300 42.97400
H  49.90000 22.64700 45.90800
H  48.65300 21.89800 44.80000
H  48.51000 23.55400 45.37600
H  49.40700 25.77300 41.89000
H  49.74900 24.15500 41.40500
H  51.93300 26.07000 41.93400
H  51.20500 25.69100 40.37900
H  53.93800 18.88800 42.72400
H  52.44600 19.12600 43.63900
H  53.57200 18.06900 44.36000
H  58.67200 18.54800 44.85000
H  58.07400 19.81600 45.92500
H  58.60000 20.26200 44.25600
H  59.05400 24.33400 45.04200
H  58.39400 25.93700 47.41100
H  58.53600 22.71900 47.40800
H  59.46100 23.98500 47.89300
H  60.04000 22.82000 46.58100
H  58.68400 27.64600 45.12300
H  59.51400 26.32300 44.55400
H  60.42500 27.12300 47.28000
H  60.18200 28.51500 46.25300
H  61.28600 27.26600 45.69700
H  53.86000 29.75900 47.85300
H  53.98500 30.77700 46.41900
H  55.42900 29.93700 47.07600
H  49.65400 27.51900 44.83600
H  50.11800 27.99400 40.61100
H  49.23000 29.56800 41.06300
H  48.36500 27.97000 40.73700

