158

Mg 24.27500 -7.35600 46.70300
C  27.00900 -5.47100 45.85900
C  22.32600 -5.45100 44.62300
C  21.99900 -9.69800 46.93500
C  26.47900 -9.46200 48.61700
N  24.72400 -5.83300 45.14900
C  25.94700 -5.14000 45.05700
C  25.75900 -3.98500 44.05400
C  24.26800 -4.00300 43.75200
C  23.69300 -5.11800 44.58400
C  23.63300 -2.63000 43.99600
C  26.66200 -4.23200 42.88000
C  26.86700 -2.89200 42.02900
H  25.95500 -2.76700 40.73400
N  22.41000 -7.58200 45.91900
C  21.69700 -6.64700 45.17700
C  20.40100 -7.21800 44.75700
C  20.38500 -8.50700 45.28300
C  21.59500 -8.66000 46.08300
C  19.40400 -6.48100 43.91000
C  19.16900 -9.42600 45.13000
O  18.15600 -9.12000 44.56000
C  19.21000 -10.78500 45.75400
N  24.28000 -9.26100 47.71100
C  23.16700 -10.01900 47.68800
C  23.34500 -11.36800 48.35400
C  24.76600 -11.29400 48.96000
C  25.19900 -9.87600 48.41400
C  22.22400 -11.80900 49.33700
C  25.86100 -12.42300 48.36300
C  26.27700 -13.42700 49.43400
N  26.33600 -7.44400 47.31600
C  27.06600 -8.27900 48.10900
C  28.38800 -7.74500 48.36400
C  28.42100 -6.63600 47.45900
C  27.15200 -6.53400 46.79800
C  29.50600 -8.23900 49.27800
C  29.32400 -5.53100 46.88200
O  30.52800 -5.26700 47.10200
C  28.38300 -4.71900 45.86500
C  28.26500 -3.35700 46.44100
O  27.83200 -2.96000 47.51900
O  28.62900 -2.48900 45.41600
C  28.41400 -1.10200 45.69000
H  21.66200 -4.77500 44.08000
H  21.31200 -10.53300 47.09000
H  27.21100 -9.94400 49.26900
H  26.10300 -3.07700 44.54900
H  24.13800 -4.24700 42.69800
H  23.00000 -2.61500 44.88300
H  22.87000 -2.46300 43.23600
H  24.29800 -1.76900 43.92600
H  26.19400 -4.91900 42.17500
H  27.65500 -4.61600 43.11300
H  27.90400 -2.79400 41.71000
H  26.83700 -2.03800 42.70500
H  19.89600 -6.18800 42.98200
H  19.19000 -5.53800 44.41300
H  18.43500 -6.93800 43.71200
H  20.11400 -11.28600 45.40800
H  18.34700 -11.34900 45.40100
H  19.12500 -10.66900 46.83500
H  23.41800 -12.05800 47.51300
H  24.63900 -11.32600 50.04200
H  21.45700 -12.32800 48.76100
H  21.90400 -10.88500 49.81800
H  22.64300 -12.41500 50.14000
H  26.78100 -11.95500 48.01100
H  25.45700 -12.93800 47.49200
H  26.29000 -14.39900 48.94000
H  25.58600 -13.50100 50.27500
H  27.30900 -13.31900 49.76700
H  29.93400 -9.12700 48.81400
H  28.84500 -8.54300 50.09000
H  30.22600 -7.59400 49.78300
H  28.85500 -4.77500 44.88300
H  27.49200 -0.83700 46.20900
H  28.27600 -0.59800 44.73400
H  29.24800 -0.61900 46.19900
Mg 26.31800 51.73600 25.72300
C  23.89000 52.49500 28.21100
C  28.51900 51.19000 28.31200
C  28.80300 51.63400 23.48800
C  24.12600 52.52300 23.30400
N  26.27200 52.14000 28.00600
C  25.14000 52.21700 28.77900
C  25.43300 52.09600 30.27700
C  26.97700 51.82600 30.33200
C  27.32700 51.74800 28.78500
C  27.90300 52.59300 31.32600
C  24.46500 51.17600 31.07100
C  24.99900 50.33300 32.31900
H  24.20200 50.23000 33.57000
N  28.28300 51.39600 25.85800
C  29.01200 51.18600 27.02600
C  30.37300 50.91300 26.64500
C  30.54600 50.99000 25.22700
C  29.19000 51.39200 24.79400
C  31.41900 50.47600 27.60800
C  31.77200 50.89000 24.33800
O  31.77700 50.92700 23.12600
C  33.20400 50.77800 24.95900
N  26.41900 52.00400 23.69700
C  27.54700 51.86500 22.94800
C  27.29200 52.05600 21.48000
C  25.72400 52.18300 21.40500
C  25.41200 52.25300 22.88600
C  28.15000 53.20700 20.87400
C  25.03500 51.19000 20.51000
C  23.70500 51.67900 19.85500
N  24.47500 52.47000 25.72700
C  23.62000 52.69800 24.64600
C  22.35300 53.12000 25.05900
C  22.41200 53.04900 26.45000
C  23.73100 52.65400 26.82200
C  21.13200 53.51000 24.24000
C  21.60300 53.18600 27.65200
O  20.45200 53.57100 27.80200
C  22.56000 52.82500 28.85600
C  22.66400 53.96300 29.73800
O  23.30800 54.96000 29.48000
O  21.90500 53.80400 30.84700
C  21.99400 54.89700 31.85600
H  29.20200 50.99300 29.14100
H  29.43800 51.44600 22.62000
H  23.37300 52.68400 22.53000
H  25.22400 53.06900 30.72200
H  27.10600 50.78500 30.62600
H  28.57400 53.24000 30.76000
H  28.50400 51.85100 31.85000
H  27.38000 53.19300 32.07100
H  24.20100 50.37800 30.37700
H  23.49000 51.59200 31.32600
H  25.78800 51.03500 32.59200
H  25.49500 49.37200 32.18600
H  31.77200 49.47700 27.35400
H  31.09100 50.46500 28.64800
H  32.34200 51.05600 27.60700
H  33.98500 50.94000 24.21600
H  33.26100 49.78100 25.39500
H  33.27700 51.56800 25.70600
H  27.58300 51.11900 21.00500
H  25.52000 53.19500 21.05400
H  27.47200 54.02000 20.61000
H  28.75400 52.82500 20.05100
H  28.84200 53.75000 21.51700
H  24.58500 50.45300 21.17400
H  25.65200 50.74400 19.73000
H  23.56700 51.35600 18.82300
H  23.65900 52.76800 19.81300
H  22.77900 51.53900 20.41200
H  20.20600 53.06200 24.60000
H  21.11800 53.17600 23.20200
H  20.86900 54.56500 24.16800
H  22.17200 52.01400 29.47400
H  21.78800 54.41700 32.81300
H  21.24900 55.64800 31.59200
H  22.96900 55.38500 31.83900

