158

Mg 16.62200 51.76900 25.35900
C  18.26100 50.65700 28.23300
C  13.94400 52.73600 27.36000
C  15.01400 52.80100 22.55700
C  19.26000 50.32300 23.41300
N  16.13300 51.64300 27.48300
C  17.01400 51.23800 28.50500
C  16.36200 51.35600 29.92200
C  14.86500 51.76700 29.59800
C  14.92600 52.08800 28.05200
C  13.70200 50.84000 30.06900
C  17.04700 52.32300 30.86700
C  17.38900 51.73300 32.26500
H  16.33200 51.91000 33.49200
N  14.75300 52.66200 25.00600
C  13.86300 53.11000 26.00100
C  12.76500 53.83400 25.32600
C  12.96900 53.71000 23.93000
C  14.27500 52.98600 23.75600
C  11.63400 54.55500 26.01000
C  12.11300 54.24700 22.78400
O  12.46800 54.11100 21.63200
C  10.83200 54.89400 23.07800
N  17.12100 51.77200 23.34800
C  16.24900 52.20800 22.33300
C  16.89100 52.02600 20.94000
C  18.33000 51.47000 21.29100
C  18.24400 51.18700 22.79000
C  16.16300 51.06100 20.02000
C  19.58500 52.29600 20.86000
C  20.76900 51.56700 20.22900
N  18.38500 50.53400 25.66100
C  19.30900 50.04100 24.80300
C  20.29500 49.29300 25.55500
C  20.02300 49.63300 26.94000
C  18.79900 50.37100 26.95000
C  21.49500 48.56600 25.02000
C  20.43100 49.44300 28.27800
O  21.42100 48.83300 28.74500
C  19.34500 50.07000 29.20900
C  18.98600 49.03900 30.20500
O  18.36200 48.04700 29.89000
O  19.44600 49.26700 31.47000
C  19.18500 48.27500 32.54900
H  13.10500 53.07200 27.97300
H  14.44600 53.19500 21.71200
H  20.10900 50.08100 22.77000
H  16.30700 50.32800 30.28100
H  14.66200 52.75500 30.01100
H  13.97100 49.85100 30.43800
H  13.18000 50.81700 29.11200
H  13.08000 51.33900 30.81200
H  16.37300 53.16700 31.01700
H  17.89900 52.77500 30.35900
H  18.33400 52.16700 32.59300
H  17.53100 50.65900 32.14600
H  10.66000 54.11000 25.80400
H  11.70500 55.63300 25.86200
H  11.92600 54.30900 27.03000
H  10.17400 54.23400 23.64300
H  10.40700 55.11200 22.09900
H  10.86200 55.85400 23.59500
H  16.90000 53.03500 20.52900
H  18.55500 50.51300 20.81900
H  15.91400 50.14100 20.54900
H  16.90300 50.65900 19.32800
H  15.32400 51.53900 19.51500
H  19.85700 52.67800 21.84400
H  19.42900 53.18100 20.24200
H  20.82800 52.02100 19.24000
H  20.68700 50.48200 20.17400
H  21.67800 51.75600 20.80100
H  21.61800 48.60300 23.93800
H  21.52800 47.49400 25.21500
H  22.39700 49.00900 25.44400
H  19.75100 50.89900 29.78800
H  18.87400 48.78800 33.45900
H  20.14200 47.78600 32.73400
H  18.43100 47.51400 32.35200
Mg -2.09300 35.07500 26.52900
C  -3.41700 33.66500 29.39300
C  -0.73400 37.58200 28.53700
C  -1.16200 36.79200 23.79600
C  -3.71600 32.80100 24.57900
N  -2.20200 35.66800 28.68100
C  -2.66400 34.75100 29.70800
C  -2.27400 35.39500 31.01500
C  -1.51700 36.66900 30.76900
C  -1.44400 36.62700 29.25300
C  -2.25700 37.97000 31.31100
C  -1.56000 34.35200 31.95900
C  -1.67600 34.61600 33.49900
H  -2.51600 33.70000 34.41700
N  -1.04500 36.97500 26.18800
C  -0.58300 37.84200 27.13600
C  0.19700 38.86800 26.45300
C  -0.02300 38.75900 25.06800
C  -0.70900 37.45600 24.93400
C  0.96400 39.85900 27.30500
C  0.48600 39.61700 23.96000
O  0.39800 39.18400 22.77800
C  1.20900 40.91200 24.24000
N  -2.31300 34.76300 24.48400
C  -1.83400 35.62300 23.53400
C  -2.01900 35.01300 22.11200
C  -2.53800 33.57800 22.40400
C  -2.94300 33.72500 23.84500
C  -2.70200 35.82600 21.06300
C  -1.58600 32.37400 22.16600
C  -0.14500 32.30800 22.77000
N  -3.34100 33.54600 26.85400
C  -3.91800 32.70200 25.94300
C  -4.71500 31.74000 26.72000
C  -4.56200 32.12400 28.03100
C  -3.74800 33.23100 28.05800
C  -5.37100 30.56600 26.23200
C  -4.92600 31.71700 29.36000
O  -5.60200 30.79300 29.78200
C  -4.41000 32.83700 30.26000
C  -5.52900 33.61800 30.78200
O  -5.97000 34.65300 30.30600
O  -5.99500 33.00600 31.85900
C  -7.25300 33.40800 32.44700
H  -0.28100 38.32300 29.19900
H  -0.90200 37.33100 22.88300
H  -4.10700 31.95700 24.00600
H  -3.16900 35.61400 31.59800
H  -0.53600 36.67500 31.24400
H  -2.55300 38.65600 30.51700
H  -1.56400 38.44000 32.00900
H  -3.15400 37.75800 31.89200
H  -0.50900 34.28600 31.67600
H  -1.83900 33.31100 31.79900
H  -2.18000 35.58000 33.57000
H  -0.63700 34.66500 33.82200
H  0.98500 39.78700 28.39200
H  0.55200 40.86200 27.19100
H  1.99300 39.80200 26.95100
H  0.53200 41.68400 24.60500
H  1.75800 41.31300 23.38800
H  1.94800 40.59400 24.97600
H  -0.97400 34.95700 21.80600
H  -3.42000 33.39600 21.78900
H  -2.85300 36.83100 21.45800
H  -3.59300 35.37100 20.62900
H  -1.98300 35.92100 20.25000
H  -1.55400 32.22900 21.08600
H  -2.02600 31.42100 22.46000
H  -0.17700 31.77800 23.72200
H  0.17700 33.33700 22.93100
H  0.49700 31.86900 22.00600
H  -6.39500 30.58300 26.60500
H  -4.83600 29.69300 26.60600
H  -5.28900 30.58100 25.14500
H  -4.00000 32.21900 31.05800
H  -7.13700 34.26700 33.10700
H  -7.65700 32.54900 32.98200
H  -8.06600 33.55000 31.73400

