158

Mg 53.55900 24.55100 43.79500
C  50.72900 26.48500 43.30600
C  51.88800 21.96200 42.24100
C  56.30800 22.79700 43.88400
C  55.11000 27.28000 45.29700
N  51.59900 24.29000 42.80700
C  50.67500 25.25400 42.64100
C  49.43800 24.81900 41.76700
C  49.66300 23.24400 41.74700
C  51.12000 23.12000 42.22400
C  48.72900 22.28300 42.48800
C  49.40300 25.37800 40.31900
C  50.68400 26.04500 39.71700
H  51.57600 25.30200 38.79200
N  54.01000 22.53000 43.26800
C  53.14900 21.62200 42.73100
C  53.77000 20.32500 42.70400
C  55.16100 20.53200 43.11300
C  55.22700 21.95500 43.42500
C  52.91900 19.12100 42.35700
C  56.21200 19.40700 43.22700
O  55.89700 18.22900 42.87800
C  57.63100 19.63300 43.67200
N  55.53500 25.08900 44.37300
C  56.51000 24.12900 44.31800
C  57.87000 24.76800 44.79600
C  57.33900 26.08700 45.52800
C  55.91400 26.19000 45.05500
C  58.82500 23.80300 45.61000
C  58.12500 27.35100 45.14900
C  59.64600 27.21800 45.03100
N  53.07000 26.49200 44.22600
C  53.76800 27.44400 44.88700
C  52.91800 28.58400 45.17000
C  51.70400 28.23600 44.54500
C  51.83000 26.97300 44.05600
C  53.34900 29.94800 45.72000
C  50.35700 28.68800 44.31900
O  49.81700 29.69700 44.72400
C  49.73200 27.54900 43.45800
C  49.34800 28.24400 42.20200
O  50.08100 28.65500 41.30000
O  48.01500 28.45000 42.27200
C  47.36500 29.13400 41.16600
H  51.27000 21.13600 41.88600
H  57.20400 22.20400 44.08000
H  55.58000 28.14200 45.77600
H  48.46600 25.07600 42.18900
H  49.55900 22.90800 40.71500
H  49.21500 21.31900 42.63900
H  47.87600 22.13500 41.82500
H  48.57100 22.79500 43.43700
H  48.64300 26.14400 40.47900
H  48.92800 24.70900 39.60200
H  51.34000 26.18700 40.57600
H  50.42000 27.01300 39.29000
H  53.01100 18.73700 41.34100
H  51.87500 19.30800 42.60700
H  53.17400 18.35800 43.09300
H  58.13900 18.66800 43.69400
H  57.67500 20.18500 44.61100
H  58.09200 20.24700 42.89800
H  58.48800 24.96900 43.92100
H  57.26400 25.99900 46.61200
H  58.30500 22.88700 45.89300
H  59.06100 24.30000 46.55100
H  59.70700 23.46000 45.06900
H  57.91700 27.99500 46.00300
H  57.62100 27.85000 44.32100
H  59.97700 27.21500 43.99200
H  59.87200 26.28800 45.55300
H  60.23800 27.99700 45.51300
H  53.02900 30.07400 46.75400
H  52.98500 30.67500 44.99300
H  54.40700 30.17300 45.58000
H  48.84800 27.12700 43.93700
H  47.92100 28.95600 40.24500
H  47.48900 30.18200 41.43700
H  46.35700 28.74200 41.02900
Mg 1.36900 42.07100 24.90000
C  3.42200 42.26300 27.81700
C  -1.24000 41.01800 26.82300
C  -0.37400 41.85300 22.12800
C  4.40700 42.31500 23.07600
N  1.14800 41.74300 27.02400
C  2.06700 42.09700 28.02900
C  1.37600 42.15700 29.35100
C  -0.05600 41.69500 29.02300
C  -0.11000 41.49200 27.55800
C  -0.49500 40.50200 29.81500
C  1.53600 43.57600 30.01400
C  1.50500 43.72100 31.55500
H  1.25700 42.64000 32.57500
N  -0.55900 41.58300 24.47700
C  -1.43700 41.07600 25.43900
C  -2.67200 40.62800 24.76800
C  -2.49300 40.93700 23.38000
C  -1.13900 41.50700 23.26400
C  -3.77200 39.88300 25.40200
C  -3.37000 40.73900 22.22600
O  -2.91300 40.80900 21.06700
C  -4.75400 40.44200 22.46500
N  1.84300 42.05800 22.96800
C  0.95300 42.11100 21.89300
C  1.70500 42.25900 20.54400
C  3.05300 42.70300 21.01400
C  3.11900 42.38900 22.48500
C  1.64200 40.92900 19.66500
C  3.36100 44.26900 20.86000
C  3.25600 44.93000 19.45600
N  3.50500 42.24600 25.32400
C  4.60300 42.31800 24.44600
C  5.85500 42.40200 25.18800
C  5.46700 42.39500 26.50200
C  4.04500 42.29500 26.55100
C  7.14500 42.25400 24.39900
C  5.90100 42.45300 27.85100
O  7.03800 42.46400 28.28400
C  4.62100 42.43800 28.78800
C  4.77600 41.53300 29.96700
O  5.08000 40.31700 29.91600
O  4.72100 42.25800 31.16700
C  4.98800 41.42500 32.35800
H  -2.04800 40.62300 27.44300
H  -0.80300 41.84100 21.12400
H  5.25800 42.43000 22.40200
H  1.79400 41.57600 30.17300
H  -0.74700 42.52200 29.18800
H  -1.52400 40.64100 30.14700
H  0.10100 40.39800 30.72100
H  -0.51100 39.52800 29.32600
H  0.78800 44.27800 29.64600
H  2.45400 43.99100 29.59900
H  0.74900 44.44300 31.86500
H  2.47900 44.12800 31.82700
H  -3.49800 39.51700 26.39100
H  -3.96100 38.97100 24.83600
H  -4.68000 40.48400 25.36000
H  -5.14100 41.21500 23.12800
H  -4.72500 39.42500 22.85800
H  -5.36800 40.44000 21.56500
H  1.28900 43.10200 19.99100
H  3.87300 42.24500 20.46200
H  1.19100 40.99200 18.67500
H  1.21700 40.10500 20.23700
H  2.63500 40.50000 19.53000
H  4.41100 44.32300 21.14900
H  2.85900 44.88500 21.60600
H  2.83500 44.26400 18.70300
H  4.20600 45.16100 18.97400
H  2.78300 45.91200 19.45800
H  7.01800 41.84900 23.39500
H  7.78300 41.63300 25.02700
H  7.74500 43.16300 24.35300
H  4.52600 43.47300 29.11500
H  5.79900 40.70200 32.26600
H  4.11700 40.84800 32.67000
H  5.25000 42.04000 33.21900

