158

Mg 8.96900 4.12800 27.86400
C  10.32700 2.39300 30.58700
C  7.14000 6.01000 30.10900
C  7.30000 5.73800 25.25200
C  10.21400 1.78200 25.68500
N  8.68100 4.07000 30.08900
C  9.47800 3.41800 30.99000
C  9.17200 3.94200 32.43500
C  8.12400 5.01300 32.19900
C  7.97000 5.08200 30.68400
C  6.69600 4.77300 32.93400
C  10.44900 4.39200 33.26900
C  10.28600 5.44400 34.41400
H  10.83900 5.24400 35.78600
N  7.58300 5.81100 27.72800
C  7.03100 6.45500 28.74900
C  6.22300 7.54200 28.24100
C  6.21200 7.42200 26.82500
C  7.06100 6.29700 26.49900
C  5.47500 8.61000 29.16400
C  5.51100 8.26600 25.84100
O  5.75000 8.06200 24.66800
C  4.77500 9.51200 26.27300
N  8.74600 3.74300 25.74900
C  8.01400 4.56400 24.91900
C  8.05100 4.04800 23.47500
C  8.94000 2.78700 23.55300
C  9.36500 2.75200 25.02300
C  6.62800 3.80900 22.83800
C  10.12500 2.81100 22.59900
C  10.42400 1.42000 22.03400
N  10.02900 2.46300 28.07400
C  10.58200 1.66100 27.06500
C  11.54100 0.78200 27.71100
C  11.48200 1.06900 29.04700
C  10.50100 2.04900 29.22900
C  12.22400 -0.35300 26.88200
C  12.00300 0.72900 30.36200
O  12.92700 -0.06200 30.68300
C  11.28900 1.66100 31.42400
C  10.82400 0.89900 32.58900
O  9.87200 0.08800 32.59700
O  11.77300 0.97200 33.58600
C  11.50200 0.26100 34.79300
H  6.72700 6.81000 30.72600
H  6.91500 6.20600 24.34300
H  10.66400 1.07600 24.98400
H  8.69500 3.13600 32.99300
H  8.46800 6.03400 32.36500
H  6.70000 4.32200 33.92700
H  6.11300 4.19100 32.22000
H  6.21000 5.73500 33.09900
H  11.21300 4.79500 32.60400
H  10.81000 3.56400 33.88000
H  9.21200 5.48700 34.59400
H  10.77000 6.32800 33.99800
H  4.41800 8.68900 28.91200
H  5.87000 9.62100 29.06400
H  5.59800 8.19300 30.16400
H  3.74000 9.43500 26.60800
H  4.76800 10.15600 25.39300
H  5.41000 10.06500 26.96500
H  8.54500 4.87500 22.96500
H  8.36300 1.89000 23.32800
H  5.88200 3.75400 23.63200
H  6.55400 2.85000 22.32600
H  6.38900 4.66700 22.21000
H  10.97800 3.07300 23.22500
H  9.94500 3.48800 21.76400
H  11.30200 1.09000 22.58900
H  10.65000 1.48400 20.97000
H  9.65600 0.64800 22.07900
H  13.15200 -0.58800 27.40300
H  12.53600 -0.16300 25.85500
H  11.53100 -1.19400 26.90100
H  12.06400 2.29600 31.85200
H  10.90100 0.97500 35.35500
H  12.39800 0.06400 35.38200
H  10.97700 -0.69400 34.81000
Mg 45.18300 5.19900 47.00900
C  42.85500 7.83400 46.58400
C  42.55000 2.99300 46.40900
C  47.43300 2.88800 46.56300
C  47.83200 7.65500 46.85500
N  43.00900 5.46900 46.45800
C  42.24400 6.61400 46.30800
C  40.73400 6.37700 46.28200
C  40.65600 4.80000 46.11000
C  42.11000 4.38000 46.38600
C  39.56900 4.13700 47.17700
C  39.85800 7.09500 45.13900
C  40.62000 7.44600 43.78000
H  39.88400 6.96100 42.49000
N  44.99400 3.18000 46.59200
C  43.87800 2.45200 46.49800
C  44.20800 1.02700 46.43100
C  45.66200 1.02000 46.24000
C  46.11400 2.35500 46.45800
C  43.19400 -0.07100 46.29500
C  46.43100 -0.22600 45.81300
O  45.85200 -1.30800 45.57000
C  48.00400 -0.12000 45.49900
N  47.31100 5.29200 46.86300
C  47.99300 4.12000 46.76200
C  49.54100 4.28300 46.94800
C  49.71800 5.79200 47.01500
C  48.26800 6.27800 46.89100
C  50.19100 3.61000 48.23300
C  50.74300 6.34600 46.01600
C  51.98000 6.97200 46.63100
N  45.35000 7.27100 46.84200
C  46.45400 8.11700 46.82900
C  45.99600 9.52000 46.82900
C  44.59300 9.37000 46.90700
C  44.24900 8.06900 46.79100
C  46.84400 10.71800 46.92500
C  43.46000 10.18700 47.04300
O  43.36200 11.37400 47.33200
C  42.23100 9.18400 46.66200
C  41.22400 9.18300 47.78000
O  41.18200 8.38700 48.69100
O  40.36200 10.29000 47.53400
C  39.29500 10.56200 48.47300
H  41.78500 2.25600 46.15400
H  48.23100 2.15900 46.40900
H  48.65800 8.34000 47.05800
H  40.15900 6.64200 47.17000
H  40.29900 4.65300 45.09100
H  39.05600 4.83500 47.83800
H  40.06900 3.41000 47.81600
H  38.79000 3.56300 46.67500
H  39.69800 8.11000 45.50100
H  38.89900 6.58500 45.04900
H  41.56100 6.93000 43.97400
H  40.75000 8.52800 43.74800
H  43.38600 -0.69300 45.42100
H  42.16700 0.28500 46.21400
H  43.16500 -0.65100 47.21700
H  48.61000 -0.09600 46.40500
H  48.12200 0.80600 44.93700
H  48.26000 -0.96900 44.86400
H  50.03200 3.85300 46.07500
H  49.91400 6.15700 48.02400
H  51.08000 4.15800 48.54800
H  50.47000 2.58700 47.98100
H  49.34900 3.59200 48.92500
H  50.19300 7.12100 45.48100
H  50.96000 5.53400 45.32200
H  51.75700 8.03900 46.65300
H  52.86900 6.69300 46.06600
H  52.11300 6.56900 47.63600
H  47.74500 10.59000 47.52500
H  46.26500 11.57200 47.27700
H  47.21200 10.99700 45.93700
H  41.77800 9.53800 45.73600
H  39.10900 11.63500 48.51100
H  39.63600 10.31800 49.47900
H  38.40600 9.99000 48.20700

