158

Mg 26.93600 50.64800 26.76100
C  24.94300 51.72600 29.36900
C  29.40700 49.73300 29.18100
C  29.06500 49.83000 24.23700
C  24.67000 51.86800 24.46100
N  27.17600 50.83600 28.98000
C  26.16600 51.21800 29.82200
C  26.56600 50.88300 31.30200
C  28.06600 50.31800 31.24700
C  28.23800 50.31000 29.69000
C  29.11200 51.21600 31.92000
C  25.64200 49.84800 31.78800
C  25.04400 50.10500 33.15700
H  25.87300 50.57900 34.40900
N  28.93900 49.84700 26.69100
C  29.72700 49.54900 27.76100
C  31.04300 48.95700 27.29600
C  31.05100 49.18500 25.84800
C  29.65500 49.64300 25.51800
C  32.10900 48.36000 28.24300
C  32.13700 48.88600 24.87500
O  32.08700 49.21900 23.73000
C  33.35800 48.21600 25.40500
N  26.86400 50.63200 24.67300
C  27.81400 50.25800 23.84000
C  27.43100 50.41000 22.32500
C  26.04400 51.02900 22.44300
C  25.86300 51.23700 23.95800
C  28.46200 51.22100 21.48100
C  24.90700 50.16900 21.76000
C  24.08900 49.11900 22.64400
N  25.15800 51.52500 26.86200
C  24.33600 51.98000 25.81900
C  23.19000 52.56900 26.38200
C  23.32200 52.42600 27.79600
C  24.59100 51.82000 28.03900
C  21.93600 53.14100 25.64300
C  22.73600 52.76500 29.08300
O  21.69900 53.37700 29.30000
C  23.71300 52.22800 30.11500
C  24.03000 53.36700 31.11800
O  24.91400 54.20000 30.92400
O  23.25300 53.18200 32.20900
C  23.41900 54.18200 33.23900
H  30.03200 49.21200 29.90900
H  29.70300 49.45600 23.43400
H  23.96300 52.23100 23.71200
H  26.46200 51.81300 31.86100
H  28.17700 49.30200 31.62800
H  28.62600 52.12300 32.28000
H  29.67100 51.55900 31.05000
H  29.76400 50.84200 32.71100
H  26.05600 48.86500 32.01400
H  24.85800 49.71200 31.04200
H  24.57200 49.18000 33.48500
H  24.24900 50.82400 32.95600
H  32.18700 47.27600 28.16200
H  31.90100 48.55500 29.29600
H  33.14500 48.68900 28.16100
H  33.06900 47.36600 26.02200
H  33.97300 48.96700 25.90000
H  33.90400 47.98000 24.49200
H  27.36600 49.37300 21.99500
H  25.99400 52.01800 21.98700
H  28.75100 50.65800 20.59400
H  29.26800 51.69700 22.04100
H  27.97400 52.04800 20.96500
H  25.29700 49.57400 20.93500
H  24.26100 50.94500 21.34900
H  23.03800 49.40900 22.64300
H  24.42900 49.03900 23.67700
H  24.25200 48.14200 22.19100
H  21.69500 52.57700 24.74200
H  22.20500 54.16100 25.36900
H  21.16200 53.03200 26.40300
H  23.20300 51.43200 30.65700
H  23.72700 53.70500 34.17000
H  22.43300 54.58900 33.46000
H  24.23700 54.88700 33.08800
Mg 7.54600 53.87400 41.60300
C  6.37700 50.61100 41.43800
C  10.60300 52.86600 40.64100
C  8.47500 57.15300 40.85700
C  4.25900 54.96500 41.73000
N  8.32800 51.97200 40.92000
C  7.74800 50.77500 41.06900
C  8.77100 49.57700 40.82200
C  10.11000 50.37200 40.67200
C  9.65500 51.82900 40.86900
C  11.17600 49.96900 41.74300
C  8.46000 48.72900 39.55900
C  8.42800 49.52400 38.19300
H  7.45800 49.14600 37.14800
N  9.31100 54.86400 41.04000
C  10.48000 54.23700 40.69600
C  11.52200 55.22700 40.47900
C  10.93800 56.51500 40.46700
C  9.55000 56.24800 40.82300
C  12.93600 54.87800 40.23500
C  11.72300 57.82400 40.03400
O  12.92000 57.81100 39.74100
C  11.02700 59.16900 40.12200
N  6.53500 55.72200 41.46900
C  7.10300 56.92600 41.24200
C  6.22800 58.08200 41.69800
C  4.82700 57.41700 41.63800
C  5.22600 55.92300 41.66400
C  6.58900 58.74900 43.05300
C  3.86200 57.80300 40.47500
C  3.94700 59.30900 40.05800
N  5.66900 53.04100 41.74100
C  4.44500 53.61400 41.86800
C  3.42400 52.61700 42.17900
C  4.14600 51.39900 41.97100
C  5.53000 51.72100 41.68700
C  1.90400 52.71500 42.26200
C  4.07200 49.94000 41.93700
O  3.14600 49.19200 42.13000
C  5.44700 49.35900 41.65700
C  5.17700 48.49800 40.45400
O  4.92800 48.86900 39.33300
O  5.23000 47.14900 40.79400
C  5.03700 46.18500 39.72900
H  11.61400 52.45600 40.59800
H  8.61500 58.22700 40.71300
H  3.19600 55.19000 41.83400
H  8.82500 48.81300 41.59800
H  10.51300 50.19700 39.67500
H  11.22900 50.72900 42.52300
H  12.17900 49.90700 41.32100
H  10.99700 49.05000 42.30000
H  7.55700 48.16600 39.79500
H  9.35700 48.11000 39.52800
H  9.43600 49.45600 37.78400
H  8.34800 50.58200 38.44500
H  13.21200 55.34000 39.28700
H  13.05400 53.79500 40.22800
H  13.53000 55.12700 41.11400
H  10.12600 59.23100 39.51200
H  11.76200 59.88800 39.76100
H  10.82600 59.39000 41.17000
H  6.38700 58.96100 41.07300
H  4.32000 57.66300 42.57000
H  7.33400 58.08000 43.48400
H  5.76000 59.02000 43.70600
H  7.10000 59.68500 42.82700
H  2.82900 57.45600 40.51000
H  4.18200 57.24100 39.59800
H  4.38400 59.86800 40.88500
H  2.97000 59.60300 39.67300
H  4.56600 59.42500 39.16900
H  1.42100 52.33100 41.36400
H  1.58700 53.73400 42.48400
H  1.56500 52.17500 43.14600
H  5.70700 48.79500 42.55300
H  5.91800 45.56800 39.55000
H  4.75900 46.50000 38.72200
H  4.30600 45.44200 40.04800

