158

Mg 8.32300 2.97500 28.00600
C  9.95600 1.64400 30.91700
C  6.42900 4.86300 30.15500
C  6.90700 4.07800 25.26200
C  10.21000 0.65900 26.10300
N  8.21800 3.12500 30.30200
C  9.04600 2.64500 31.23100
C  8.73000 3.24200 32.61400
C  7.46400 4.15100 32.33100
C  7.39400 4.08500 30.85400
C  6.19000 3.80000 33.01600
C  9.98400 4.01100 33.20400
C  9.78400 4.65400 34.58300
H  10.73900 4.29800 35.77200
N  6.83100 4.30800 27.77700
C  6.17900 5.03200 28.75600
C  5.25700 6.01000 28.04000
C  5.41900 5.70700 26.66300
C  6.36100 4.60300 26.50900
C  4.29900 7.02300 28.73900
C  4.64100 6.37900 25.44100
O  4.70600 6.04800 24.23400
C  3.81200 7.55700 25.70300
N  8.66000 2.53300 25.97300
C  7.90200 3.13300 25.00300
C  8.43800 2.73500 23.62300
C  9.42300 1.59200 23.86400
C  9.49000 1.61000 25.38900
C  7.36200 2.32100 22.61300
C  10.75600 1.68900 23.08500
C  11.06200 0.45200 22.25900
N  9.70900 1.43900 28.38700
C  10.44000 0.57400 27.51700
C  11.22500 -0.33300 28.27100
C  11.11300 0.05800 29.59800
C  10.18600 1.13400 29.64000
C  12.04800 -1.39000 27.73200
C  11.58300 -0.17600 30.95700
O  12.41700 -0.94100 31.39600
C  10.90000 0.90400 31.85300
C  10.14600 0.11400 32.88400
O  9.02800 -0.41100 32.71400
O  10.93300 -0.03900 33.96200
C  10.48700 -0.85900 35.05200
H  5.83500 5.54900 30.76300
H  6.48600 4.45100 24.32600
H  10.77500 -0.13200 25.60600
H  8.56600 2.34000 33.20300
H  7.69500 5.18200 32.59800
H  6.40400 3.28200 33.95100
H  5.63600 3.05400 32.44700
H  5.58300 4.68100 33.22400
H  10.14500 4.73700 32.40600
H  10.87100 3.38000 33.18200
H  8.79600 4.61000 35.04100
H  10.09300 5.65900 34.29300
H  4.33000 6.97000 29.82700
H  3.26600 6.78400 28.48900
H  4.64800 8.03000 28.51200
H  3.38500 8.02000 24.81400
H  4.52700 8.31100 26.03300
H  2.98600 7.22900 26.33500
H  8.97800 3.55100 23.14300
H  8.91400 0.66200 23.61200
H  7.44900 1.27400 22.32400
H  7.40000 2.94300 21.71800
H  6.32800 2.35200 22.95800
H  11.56400 1.76300 23.81200
H  10.70400 2.50200 22.36000
H  10.22600 0.02400 21.70400
H  11.55900 -0.35400 22.79900
H  11.89000 0.74000 21.61200
H  12.50700 -1.11900 26.78100
H  11.31900 -2.18100 27.55700
H  12.86700 -1.60500 28.41800
H  11.63300 1.55700 32.32500
H  9.99300 -0.36900 35.89200
H  11.34900 -1.35200 35.50300
H  9.89900 -1.75200 34.84100
Mg 49.95900 45.29000 42.66100
C  46.79800 45.95200 41.58600
C  49.86000 42.29300 41.03200
C  53.17600 45.08700 43.04700
C  50.29900 48.95200 43.15600
N  48.45600 44.24300 41.48400
C  47.22700 44.69600 41.21900
C  46.37200 43.66700 40.41900
C  47.32100 42.39800 40.53400
C  48.66700 42.95000 41.04700
C  46.85900 41.17900 41.39000
C  46.09200 44.14500 39.00700
C  44.56700 44.04700 38.51100
H  44.25600 43.62800 37.01200
N  51.24100 43.80200 42.31000
C  51.09100 42.63900 41.61500
C  52.27700 41.89700 41.68500
C  53.27700 42.64400 42.38000
C  52.59900 43.91000 42.61000
C  52.38900 40.47800 41.10500
C  54.72500 42.21800 42.66800
O  55.03600 41.01200 42.42700
C  55.79500 43.19100 43.13300
N  51.56400 46.87800 43.02700
C  52.78900 46.38300 43.26900
C  53.75700 47.59500 43.37600
C  52.81200 48.81100 43.73700
C  51.50200 48.21000 43.28300
C  55.05600 47.45500 44.18400
C  53.10400 50.23600 43.08000
C  52.93400 51.43500 43.92600
N  48.72300 47.12700 42.58000
C  49.01900 48.50800 42.72600
C  47.76200 49.22300 42.64800
C  46.80700 48.26400 42.18800
C  47.51200 47.02700 42.17300
C  47.69100 50.63000 43.15300
C  45.43000 48.17200 41.92100
O  44.47700 48.94800 41.92100
C  45.38300 46.61600 41.51000
C  44.35000 45.86600 42.30300
O  44.49800 45.60200 43.46100
O  43.28900 45.50800 41.49800
C  42.21600 44.85200 42.24800
H  49.84600 41.27500 40.63600
H  54.25000 45.03200 43.23600
H  50.32500 49.99100 43.49100
H  45.49400 43.52400 41.04800
H  47.49900 42.06700 39.51100
H  45.77700 41.18200 41.52100
H  47.30900 41.46800 42.34000
H  47.34700 40.22600 41.18200
H  46.63500 43.59700 38.23800
H  46.42900 45.18200 39.00800
H  44.19600 45.07100 38.55300
H  44.05600 43.48900 39.29600
H  53.01800 40.44300 40.21600
H  51.44900 39.98200 40.86100
H  52.82400 39.88800 41.91200
H  55.68300 44.05700 42.48200
H  56.68200 42.56900 43.01000
H  55.81600 43.48100 44.18300
H  54.11900 47.58400 42.34800
H  52.85300 48.86200 44.82500
H  55.84300 47.16100 43.49000
H  54.81400 46.81200 45.03000
H  55.32700 48.44100 44.56200
H  52.39900 50.32900 42.25300
H  54.11400 50.26700 42.67100
H  52.44100 52.24200 43.38300
H  53.93300 51.77400 44.19900
H  52.30800 51.19400 44.78500
H  48.08700 50.60700 44.16800
H  46.64200 50.90900 43.24300
H  48.30600 51.35300 42.61700
H  44.97600 46.76800 40.51000
H  41.25400 44.83900 41.73600
H  42.06700 45.34200 43.20900
H  42.58400 43.82600 42.27400

