158

Mg -2.73900 16.61900 26.15400
C  -3.32000 14.45800 28.91600
C  -3.63800 19.22900 28.19900
C  -2.42600 18.64000 23.53000
C  -2.58600 13.78800 24.12300
N  -3.15200 16.85700 28.36600
C  -3.40700 15.79800 29.24000
C  -3.78900 16.39500 30.64700
C  -3.91000 17.94200 30.36400
C  -3.61400 18.03400 28.87400
C  -5.31400 18.55600 30.73500
C  -2.89900 16.06100 31.91500
C  -2.92600 16.88900 33.17600
H  -2.64500 16.22000 34.51000
N  -2.98600 18.66000 25.83600
C  -3.29700 19.57300 26.81200
C  -3.22100 20.92800 26.24700
C  -2.82200 20.74800 24.82200
C  -2.79700 19.31100 24.64300
C  -3.67300 22.19200 26.91900
C  -2.62300 21.70600 23.77000
O  -2.36800 21.38700 22.63400
C  -2.52400 23.17300 24.09400
N  -2.80200 16.32100 24.08400
C  -2.36900 17.26400 23.23800
C  -2.03200 16.73300 21.83500
C  -1.94800 15.15800 22.07800
C  -2.46300 15.07900 23.55400
C  -3.06100 17.22700 20.74500
C  -0.59400 14.46400 21.94700
C  -0.48200 13.01600 21.44200
N  -2.82900 14.54100 26.44300
C  -2.75000 13.56100 25.51200
C  -2.88500 12.30500 26.19300
C  -3.02600 12.55600 27.55100
C  -3.05900 13.96900 27.56700
C  -2.81200 10.94900 25.46700
C  -3.10200 11.99500 28.85800
O  -3.10700 10.85200 29.25700
C  -3.35100 13.20400 29.79200
C  -2.15800 13.15800 30.61200
O  -1.08400 13.59700 30.35300
O  -2.45800 12.53100 31.79000
C  -1.48700 12.63200 32.85800
H  -3.79400 20.19500 28.68300
H  -2.02500 19.17700 22.66800
H  -2.50600 12.89000 23.50700
H  -4.77000 16.03500 30.95800
H  -3.20100 18.64800 30.79900
H  -5.49400 18.71100 31.79800
H  -6.11200 17.89500 30.39600
H  -5.42900 19.47800 30.16500
H  -1.84600 15.99700 31.64200
H  -3.26900 15.09300 32.25400
H  -3.83800 17.47400 33.05800
H  -2.12800 17.62100 33.05400
H  -4.40100 22.66800 26.26200
H  -2.76500 22.78700 27.02000
H  -4.01100 22.09800 27.95100
H  -3.50600 23.54300 24.38600
H  -2.21600 23.67200 23.17500
H  -1.69200 23.30400 24.78600
H  -1.04700 17.10900 21.55900
H  -2.64400 14.58700 21.46300
H  -2.73600 16.68100 19.85900
H  -2.80700 18.28400 20.67100
H  -4.06500 17.08500 21.14400
H  -0.17700 14.35000 22.94700
H  0.21500 14.98200 21.43200
H  0.33900 12.48500 21.92300
H  -0.14200 13.08200 20.40800
H  -1.46100 12.54300 21.51600
H  -2.68100 10.17800 26.22700
H  -1.87400 10.99700 24.91300
H  -3.67400 10.64300 24.87500
H  -4.17000 13.12600 30.50700
H  -0.71400 11.86300 32.85900
H  -2.08100 12.57100 33.77000
H  -0.97200 13.59100 32.88900
Mg 2.13600 -1.01100 44.91400
C  5.49300 -0.18300 43.91400
C  1.18600 1.62900 43.03800
C  -0.94200 -2.11700 45.32200
C  3.41400 -3.96500 46.11400
N  3.31300 0.61100 43.68700
C  4.62900 0.78900 43.51200
C  4.96900 2.18500 42.91600
C  3.48900 2.76500 42.68000
C  2.57600 1.61900 43.15600
C  3.27100 4.16600 43.39500
C  5.75500 2.23900 41.61700
C  5.46400 1.23000 40.52600
H  5.11900 1.70500 39.04700
N  0.30900 -0.29500 44.28300
C  0.09100 0.80000 43.50200
C  -1.37500 0.91700 43.22000
C  -2.03600 -0.09300 43.94300
C  -0.87600 -0.84700 44.62000
C  -1.99400 2.03600 42.38900
C  -3.58400 -0.27200 44.08600
O  -4.36500 0.49400 43.50900
C  -4.19700 -1.50800 44.85700
N  1.33600 -2.76200 45.60400
C  0.05700 -2.93900 45.75900
C  -0.32600 -4.27100 46.48500
C  1.12000 -5.04000 46.43600
C  2.01400 -3.79700 46.18000
C  -0.94600 -4.10800 47.96200
C  1.30000 -6.11600 45.28900
C  1.78200 -7.57100 45.74300
N  4.07500 -1.84000 45.15700
C  4.40900 -3.09800 45.57100
C  5.88000 -3.28800 45.62500
C  6.30200 -2.20000 44.83000
C  5.22300 -1.33100 44.72200
C  6.53300 -4.49100 46.16600
C  7.38900 -1.64500 44.23200
O  8.48500 -2.15700 44.09600
C  6.99000 -0.25800 43.70600
C  7.66400 0.96000 44.31000
O  7.23300 1.60700 45.27400
O  8.67300 1.42800 43.48600
C  9.48500 2.40800 44.21000
H  0.74400 2.48800 42.53000
H  -1.91400 -2.56900 45.53400
H  3.75000 -4.80800 46.72100
H  5.42000 2.85500 43.64800
H  3.28200 2.83700 41.61200
H  4.28700 4.43400 43.68600
H  2.74800 4.15400 44.35100
H  2.86400 4.87900 42.67800
H  6.81400 2.26700 41.87500
H  5.52800 3.20300 41.16100
H  4.66900 0.53800 40.80300
H  6.31800 0.57700 40.35100
H  -2.99300 1.81900 42.01100
H  -1.34700 2.33800 41.56500
H  -2.14700 2.85900 43.08700
H  -3.59000 -2.38200 44.62000
H  -5.25800 -1.70200 44.69800
H  -4.18400 -1.32500 45.93100
H  -1.03500 -4.92900 45.98500
H  1.39100 -5.64200 47.30200
H  -0.22400 -4.51100 48.67200
H  -1.66600 -4.92700 47.97200
H  -1.37300 -3.12800 48.17400
H  1.99800 -5.68100 44.57300
H  0.32000 -6.30100 44.84900
H  1.12000 -8.28900 45.25900
H  1.83800 -7.68600 46.82500
H  2.78500 -7.71200 45.34000
H  5.92200 -5.38900 46.06900
H  6.81900 -4.15900 47.16400
H  7.40800 -4.64000 45.53300
H  7.29000 -0.14900 42.66400
H  9.72100 2.06200 45.21600
H  8.99600 3.37700 44.31400
H  10.36400 2.76500 43.67500

