158

Mg 47.38700 25.71300 29.49500
C  48.41100 28.17000 31.97400
C  46.15200 23.74600 31.92800
C  47.29800 23.33500 27.23200
C  49.21200 27.73100 27.19300
N  47.14700 26.08400 31.63500
C  47.66700 27.07800 32.40300
C  47.14900 26.89000 33.81900
C  46.57300 25.41600 33.83600
C  46.55700 25.07300 32.33800
C  47.60100 24.50800 34.59100
C  46.09900 27.96900 34.13700
C  46.15800 28.77400 35.50700
H  46.85900 27.91700 36.65800
N  46.64900 23.76700 29.63100
C  46.19100 23.16000 30.67200
C  45.63500 21.92600 30.32600
C  45.97200 21.76200 28.90700
C  46.69800 22.97800 28.51100
C  44.79300 21.04500 31.27600
C  45.58900 20.62300 27.97500
O  45.86400 20.67900 26.78800
C  44.81300 19.47900 28.39800
N  48.09500 25.58900 27.47900
C  47.78900 24.50300 26.75100
C  48.21800 24.71100 25.26100
C  48.66200 26.20600 25.24600
C  48.60600 26.59600 26.69800
C  49.13400 23.65700 24.66900
C  47.80900 27.05300 24.32500
C  48.57500 27.69100 23.15800
N  48.55400 27.67600 29.48400
C  49.28900 28.25500 28.50700
C  49.89600 29.50000 28.94400
C  49.53100 29.54800 30.34300
C  48.77600 28.37800 30.59900
C  50.74100 30.49000 28.08100
C  49.70500 30.23700 31.53100
O  50.25500 31.27200 31.81800
C  49.05000 29.30900 32.71200
C  50.08900 28.95000 33.67600
O  51.15900 28.44800 33.34000
O  49.72600 29.44400 34.91400
C  50.63200 29.17000 36.03600
H  45.70200 23.20200 32.76000
H  47.19700 22.63300 26.40200
H  49.64100 28.25700 26.33800
H  48.08500 27.01300 34.36400
H  45.59100 25.35100 34.30400
H  48.54300 25.02200 34.78200
H  47.92300 23.73900 33.89000
H  47.24900 23.96000 35.46500
H  45.12500 27.48700 34.06100
H  45.99900 28.77300 33.40700
H  45.19400 29.08200 35.91100
H  46.73200 29.70100 35.51100
H  43.87800 20.69400 30.80000
H  44.49300 21.45500 32.24000
H  45.36400 20.22000 31.70200
H  43.74600 19.69500 28.35600
H  45.09400 19.13800 29.39500
H  44.97900 18.66500 27.69200
H  47.32100 24.58300 24.65500
H  49.67800 26.14600 24.85800
H  49.89000 23.45600 25.42800
H  49.54600 24.09700 23.76100
H  48.45800 22.84400 24.40100
H  47.26500 27.77800 24.93000
H  46.96900 26.55700 23.83900
H  48.05500 27.54500 22.21100
H  49.59400 27.31600 23.06700
H  48.43700 28.76900 23.24700
H  50.99400 30.06800 27.10900
H  51.67100 30.53400 28.64900
H  50.16000 31.40700 27.99100
H  48.26600 29.85700 33.23500
H  51.53800 29.67300 35.69700
H  50.80500 28.09500 36.07900
H  50.26700 29.52800 36.99900
Mg -6.61400 24.58500 25.31800
C  -5.42400 26.24100 28.01600
C  -8.49400 22.53800 27.38000
C  -7.77000 23.21200 22.67200
C  -4.51300 26.85500 23.21800
N  -6.87400 24.35300 27.45400
C  -6.31600 25.23300 28.39300
C  -6.84300 24.94400 29.81300
C  -7.46700 23.44800 29.64100
C  -7.68500 23.41100 28.06800
C  -6.86700 22.25200 30.27400
C  -7.71400 26.03000 30.41100
C  -7.48000 26.27400 31.92900
H  -7.06600 25.08400 32.83000
N  -8.05200 23.15200 25.06200
C  -8.70000 22.42500 25.97100
C  -9.62400 21.56400 25.34500
C  -9.54700 21.75900 23.94100
C  -8.46100 22.78100 23.84000
C  -10.56300 20.59700 26.19000
C  -10.37700 21.17800 22.81300
O  -10.39300 21.52600 21.64800
C  -11.39200 20.08900 23.20600
N  -6.13200 24.94800 23.20500
C  -6.76600 24.09200 22.35200
C  -6.26000 24.31500 20.87500
C  -5.31900 25.56500 21.01200
C  -5.36600 25.84500 22.55300
C  -5.67300 22.93400 20.33900
C  -5.71200 26.85400 20.20700
C  -4.54000 27.55200 19.58800
N  -5.22100 26.24800 25.52900
C  -4.53000 27.04200 24.60800
C  -3.66000 27.98100 25.41200
C  -3.98500 27.71600 26.75700
C  -4.95000 26.68300 26.77600
C  -2.62400 29.03100 24.95700
C  -3.74700 28.05800 28.10300
O  -2.94600 28.88200 28.59400
C  -4.71400 27.18000 28.91600
C  -3.89400 26.32500 29.92000
O  -2.93500 25.57200 29.63100
O  -4.17800 26.64700 31.18000
C  -3.33700 26.22400 32.29000
H  -9.07800 21.86700 28.01300
H  -8.27600 22.75500 21.81800
H  -3.96900 27.53400 22.55800
H  -5.96000 24.79700 30.43600
H  -8.47200 23.44700 30.06200
H  -6.29900 22.52400 31.16400
H  -6.09000 21.84300 29.62800
H  -7.57500 21.52100 30.66300
H  -8.76200 25.80200 30.21600
H  -7.51700 26.91800 29.81100
H  -8.34900 26.86500 32.21600
H  -6.61000 26.93100 31.91100
H  -11.55300 20.39000 25.78300
H  -10.86600 21.07600 27.12100
H  -9.94700 19.72000 26.38700
H  -11.97200 19.69200 22.37300
H  -12.12800 20.63600 23.79500
H  -10.86500 19.34300 23.80100
H  -7.19000 24.55500 20.36100
H  -4.32800 25.15900 20.81000
H  -5.93500 22.10300 20.99500
H  -4.59700 23.06200 20.22000
H  -6.03700 22.58300 19.37300
H  -6.33200 27.48300 20.84500
H  -6.42500 26.51200 19.45600
H  -4.75900 27.52800 18.52000
H  -3.65200 26.92100 19.60200
H  -4.25900 28.50600 20.03500
H  -3.04700 30.01100 24.73400
H  -2.01700 28.55900 24.18500
H  -1.88000 29.15000 25.74400
H  -5.40100 27.77300 29.52100
H  -3.73700 26.71800 33.17500
H  -2.28000 26.43900 32.13600
H  -3.40400 25.14200 32.40900

