158

Mg -2.03300 16.91100 26.45400
C  -2.37000 14.56000 29.07300
C  -2.96800 19.31700 28.74000
C  -2.34200 19.05900 23.87700
C  -1.92900 14.25700 24.16900
N  -2.71900 16.90600 28.73400
C  -2.56700 15.86200 29.59000
C  -2.73400 16.24300 31.06300
C  -2.86300 17.80500 30.91200
C  -2.96300 18.03600 29.37600
C  -4.08600 18.42900 31.73600
C  -1.73900 15.74200 32.23700
C  -1.67000 16.59100 33.47800
H  -1.24900 15.98500 34.76400
N  -2.32000 18.90600 26.36400
C  -2.72000 19.72400 27.40400
C  -2.71400 21.06400 26.88600
C  -2.61500 21.02800 25.53500
C  -2.35700 19.64500 25.17800
C  -2.98700 22.26600 27.78900
C  -2.84600 22.20300 24.54400
O  -2.98000 22.03500 23.34800
C  -3.13800 23.64600 24.94900
N  -2.26800 16.67000 24.33100
C  -2.32300 17.73900 23.53400
C  -2.30700 17.27700 22.06000
C  -1.78700 15.84300 22.16900
C  -1.95900 15.55800 23.63100
C  -3.68100 17.45900 21.33700
C  -0.36800 15.57400 21.75700
C  0.87600 16.08800 22.50100
N  -2.15500 14.82500 26.49100
C  -2.03000 13.85700 25.48000
C  -2.10800 12.53800 26.03800
C  -2.18500 12.75400 27.40200
C  -2.23700 14.13700 27.65000
C  -2.11500 11.27000 25.15700
C  -2.34200 12.08600 28.68800
O  -2.41400 10.90200 28.98000
C  -2.49000 13.26700 29.79900
C  -1.39500 12.97200 30.80200
O  -0.24500 13.44200 30.81000
O  -1.87800 12.05300 31.72400
C  -1.10900 11.57000 32.85600
H  -3.12800 20.13600 29.44400
H  -2.35600 19.69400 22.98900
H  -1.69900 13.54400 23.37500
H  -3.68700 15.89800 31.46500
H  -1.94700 18.33400 31.17300
H  -4.46300 17.69200 32.44500
H  -4.89900 18.66500 31.04900
H  -3.76100 19.31600 32.27900
H  -0.71700 15.67200 31.86400
H  -2.15000 14.77400 32.52300
H  -2.69700 16.90700 33.65800
H  -1.03400 17.46300 33.32600
H  -2.74400 22.15200 28.84600
H  -4.03600 22.55700 27.73000
H  -2.33700 23.09800 27.51900
H  -2.41300 23.91900 25.71700
H  -4.08500 23.54000 25.47800
H  -3.17600 24.32300 24.09600
H  -1.52900 17.89000 21.60600
H  -2.37300 15.06600 21.68000
H  -4.20800 18.14100 22.00400
H  -4.32500 16.58200 21.39200
H  -3.61500 17.78100 20.29700
H  -0.15200 15.69700 20.69600
H  -0.23900 14.49200 21.77000
H  1.44200 16.73500 21.83100
H  1.59000 15.30100 22.74700
H  0.57300 16.58000 23.42400
H  -1.43400 11.34100 24.30800
H  -3.12700 10.91400 24.96200
H  -1.62400 10.49100 25.74000
H  -3.51300 13.17000 30.16300
H  -0.14800 12.05500 33.02400
H  -0.84200 10.52300 32.71300
H  -1.68600 11.66200 33.77600
Mg 30.35600 57.56700 39.85500
C  27.54500 55.48600 39.24100
C  32.46000 55.09600 39.12700
C  32.87900 59.84500 40.10600
C  28.01800 60.15600 40.54900
N  30.01700 55.53300 39.26600
C  28.81500 54.93600 38.81100
C  29.14100 53.55000 38.23300
C  30.66900 53.42200 38.36600
C  31.06500 54.76200 39.02800
C  31.09700 52.21800 39.25300
C  28.42900 53.34900 36.86200
C  28.75300 54.35800 35.75600
H  27.61400 55.17300 35.20900
N  32.33300 57.48100 39.57600
C  33.04200 56.36200 39.33400
C  34.40600 56.65300 39.19100
C  34.57600 58.02700 39.46100
C  33.24400 58.52200 39.75800
C  35.49200 55.62600 38.96200
C  36.01300 58.69400 39.65400
O  36.93200 58.03700 39.27200
C  36.33500 60.05800 40.16200
N  30.44300 59.77700 40.15200
C  31.62000 60.47300 40.23700
C  31.34600 62.02000 40.48400
C  29.75900 62.03400 40.56900
C  29.39100 60.55200 40.48200
C  32.06600 62.63100 41.71700
C  29.08600 62.77700 39.37900
C  28.74400 64.23400 39.69500
N  28.21900 57.75900 39.98900
C  27.45800 58.85200 40.31000
C  26.08300 58.55100 40.27000
C  26.06600 57.18600 39.85200
C  27.37600 56.77800 39.68100
C  24.89500 59.36300 40.55600
C  25.18100 56.10000 39.62100
O  23.93700 56.07800 39.75500
C  26.13200 54.92900 39.20100
C  26.04400 53.80100 40.18600
O  26.55800 53.67900 41.30300
O  25.40200 52.84100 39.56800
C  25.33000 51.59900 40.34100
H  33.22200 54.36000 38.86500
H  33.72900 60.52700 40.02400
H  27.24500 60.91500 40.69200
H  28.58600 52.83700 38.84400
H  31.11600 53.36300 37.37400
H  31.73700 51.51900 38.71400
H  30.21500 51.72300 39.65900
H  31.56000 52.51400 40.19400
H  27.35700 53.26700 37.03900
H  28.67800 52.34000 36.53300
H  29.04200 53.77500 34.88200
H  29.52000 55.03500 36.13200
H  35.86400 55.87400 37.96800
H  35.21400 54.57300 38.92100
H  36.22100 55.68400 39.77100
H  36.22600 60.71500 39.29900
H  37.40800 60.15900 40.32400
H  35.76600 60.41700 41.02000
H  31.76200 62.49300 39.59400
H  29.42500 62.52400 41.48300
H  32.39800 63.66700 41.64600
H  32.93700 62.06200 42.04200
H  31.22800 62.77400 42.40000
H  28.29700 62.19200 38.90800
H  29.81300 62.91500 38.57800
H  29.29300 64.91700 39.04800
H  28.88800 64.52300 40.73600
H  27.73400 64.40100 39.32000
H  24.50000 58.99600 41.50400
H  24.19500 59.37000 39.72200
H  25.33400 60.33300 40.78800
H  25.85400 54.53600 38.22300
H  26.23200 51.01400 40.16600
H  24.41500 51.13200 39.97700
H  25.30000 51.76400 41.41800

