158

Mg 16.52300 -1.91400 27.85100
C  15.47500 0.31200 30.37400
C  18.79200 -3.31500 30.12000
C  17.71000 -3.72800 25.35900
C  14.43300 0.02400 25.59200
N  17.11100 -1.42300 29.94000
C  16.49500 -0.51600 30.83300
C  16.96900 -0.85100 32.26400
C  18.16400 -1.75400 32.06700
C  18.11000 -2.15400 30.61600
C  19.54700 -1.07700 32.31900
C  15.88300 -1.43500 33.21800
C  15.41300 -0.50900 34.29900
H  16.45300 0.37000 35.10600
N  17.88800 -3.36900 27.83700
C  18.65800 -3.84200 28.85600
C  19.26200 -5.13100 28.50100
C  19.05000 -5.26000 27.12000
C  18.21600 -4.10500 26.71700
C  20.04500 -6.14200 29.38700
C  19.52600 -6.41600 26.17400
O  19.30200 -6.31800 25.00200
C  20.34700 -7.48200 26.72100
N  16.33800 -1.62200 25.72400
C  16.93300 -2.57800 24.91100
C  16.45700 -2.34800 23.46500
C  15.29500 -1.33900 23.61600
C  15.35300 -1.00600 25.10800
C  17.55300 -2.00600 22.44300
C  13.87300 -1.83400 23.12000
C  12.87400 -2.56400 24.07500
N  15.24400 -0.11900 27.91600
C  14.43800 0.44000 26.93500
C  13.60400 1.42700 27.51000
C  13.93100 1.32500 28.89700
C  14.98600 0.44400 29.05200
C  12.63600 2.32900 26.74600
C  13.56300 1.92200 30.17500
O  12.75600 2.82600 30.49400
C  14.56000 1.24900 31.20600
C  15.39200 2.27400 31.94700
O  16.58200 2.58400 31.83300
O  14.59000 2.80300 32.94700
C  15.15500 3.94500 33.57500
H  19.27600 -3.89100 30.91100
H  18.19100 -4.28200 24.55000
H  13.83600 0.53800 24.83600
H  17.30000 0.15600 32.51900
H  18.12300 -2.68900 32.62600
H  19.37500 -0.15400 32.87300
H  20.25300 -0.99500 31.49300
H  20.04100 -1.77000 33.00000
H  16.17800 -2.44000 33.51900
H  14.97500 -1.69300 32.67400
H  14.94000 -1.20700 34.98900
H  14.54200 0.10500 34.07000
H  19.47800 -7.06000 29.54200
H  20.19800 -5.68700 30.36500
H  21.08600 -6.32100 29.11600
H  21.33600 -7.18600 27.07200
H  20.63100 -8.06500 25.84500
H  19.67900 -7.95900 27.43800
H  16.08500 -3.34300 23.22200
H  15.51100 -0.42000 23.07300
H  18.54500 -2.14400 22.87200
H  17.27100 -0.99600 22.14700
H  17.56000 -2.56700 21.50800
H  14.07900 -2.56700 22.34100
H  13.39300 -0.99700 22.61300
H  13.20700 -2.49000 25.11000
H  12.70000 -3.55600 23.65800
H  11.88400 -2.11000 24.04100
H  12.53600 1.93600 25.73400
H  13.03300 3.33600 26.62100
H  11.67000 2.27200 27.24600
H  13.97900 0.64700 31.90400
H  15.25600 4.76100 32.85900
H  16.06800 3.79600 34.15200
H  14.39400 4.44000 34.17900
Mg -2.68100 33.70600 26.09400
C  -4.44000 32.15600 28.77700
C  -1.32800 35.93300 28.55400
C  -1.52400 35.66500 23.75600
C  -4.29900 31.66400 23.92700
N  -2.90900 34.00800 28.42500
C  -3.58200 33.19500 29.26400
C  -3.41200 33.57900 30.73200
C  -2.53300 34.92300 30.57000
C  -2.19900 34.98000 29.08100
C  -3.12100 36.20800 31.20300
C  -2.77300 32.40900 31.57000
C  -3.58600 31.76500 32.64700
H  -2.91100 31.87900 34.01200
N  -1.45200 35.46200 26.08500
C  -1.01100 36.21600 27.17700
C  -0.15200 37.35200 26.72000
C  -0.18700 37.25100 25.28900
C  -1.04500 36.07600 24.95500
C  0.35200 38.42400 27.68100
C  0.53000 38.06600 24.18600
O  0.61500 37.84500 22.97100
C  1.40600 39.20500 24.69000
N  -3.08300 33.78100 24.10400
C  -2.36300 34.63800 23.32100
C  -2.51000 34.29000 21.84100
C  -3.02800 32.86000 21.99100
C  -3.53900 32.73900 23.43300
C  -3.41900 35.30600 21.07400
C  -1.89400 31.75600 21.62000
C  -1.19600 30.86800 22.62000
N  -4.07700 32.18600 26.28700
C  -4.65900 31.41800 25.27300
C  -5.45100 30.34100 25.78100
C  -5.45100 30.58300 27.17900
C  -4.57400 31.74200 27.44400
C  -6.20100 29.32100 25.08100
C  -5.86700 30.15400 28.44900
O  -6.47900 29.12900 28.70300
C  -5.25000 31.14700 29.56200
C  -6.40300 31.63700 30.29200
O  -7.20800 32.44600 29.81700
O  -6.46200 31.02000 31.59700
C  -7.59600 31.15300 32.45400
H  -0.66300 36.49500 29.21400
H  -1.16800 36.22400 22.88800
H  -4.79100 30.90100 23.31900
H  -4.41000 33.79000 31.11700
H  -1.57600 34.71900 31.05000
H  -2.41400 36.60300 31.93300
H  -3.98500 35.99800 31.83300
H  -3.31600 36.96500 30.44300
H  -1.81500 32.72800 31.98200
H  -2.47700 31.57900 30.92900
H  -3.83500 30.74200 32.36700
H  -4.63700 32.05300 32.64600
H  1.35600 38.77300 27.43600
H  0.25500 38.31300 28.76100
H  -0.27100 39.24700 27.33200
H  0.72800 39.89800 25.18800
H  1.99500 39.71100 23.92600
H  2.07900 38.77700 25.43400
H  -1.54300 34.41000 21.35200
H  -3.85500 32.71000 21.29800
H  -3.47400 36.16800 21.73900
H  -4.42300 34.90100 20.94800
H  -2.92200 35.73200 20.20200
H  -1.10000 32.33100 21.14400
H  -2.21300 31.10300 20.80800
H  -1.82300 30.95500 23.50800
H  -0.16000 31.12600 22.83700
H  -1.26000 29.83800 22.27000
H  -5.47700 29.13600 24.28800
H  -7.08200 29.77800 24.63100
H  -6.40100 28.40200 25.63200
H  -4.64900 30.54000 30.23900
H  -7.25600 31.76000 33.29300
H  -8.06300 30.30500 32.95500
H  -8.40200 31.79300 32.09500

