158

Mg 27.51100 50.46900 26.05300
C  25.64900 51.23700 28.83000
C  29.86100 48.98500 28.23900
C  29.32500 49.60500 23.41000
C  25.15600 51.90100 23.97100
N  27.78300 50.25700 28.29100
C  26.82700 50.61900 29.21400
C  27.11900 50.21600 30.62900
C  28.53400 49.70300 30.45600
C  28.75300 49.53100 28.87000
C  29.70900 50.43300 31.06500
C  26.15200 49.31600 31.39700
C  25.67600 49.81200 32.77300
H  25.39900 48.86600 33.89300
N  29.40700 49.55000 25.87200
C  30.19500 49.01900 26.86500
C  31.38500 48.34200 26.25000
C  31.21900 48.44400 24.82000
C  29.93700 49.20200 24.61500
C  32.48700 47.64400 27.04900
C  32.06000 47.76600 23.67500
O  31.69900 47.72300 22.48600
C  33.27900 47.06400 24.05300
N  27.32400 50.83900 23.95400
C  28.21400 50.40900 23.09700
C  27.81200 50.79200 21.68200
C  26.34100 51.36200 21.79000
C  26.26100 51.35000 23.33600
C  28.75000 51.63100 20.78500
C  25.22800 50.38500 21.19300
C  23.89400 51.05900 20.64800
N  25.81100 51.49800 26.26700
C  24.93700 52.02900 25.37400
C  23.83400 52.62300 26.08000
C  24.01400 52.27600 27.39800
C  25.23000 51.62100 27.47200
C  22.65900 53.20200 25.48900
C  23.43400 52.31400 28.75700
O  22.31300 52.73900 29.11600
C  24.45400 51.65400 29.73200
C  24.85900 52.71600 30.71100
O  25.66600 53.60600 30.47400
O  24.13200 52.48400 31.84600
C  24.30900 53.40600 33.00000
H  30.47100 48.41800 28.94600
H  29.86100 49.25900 22.52300
H  24.47900 52.35300 23.24300
H  27.21500 51.21700 31.04900
H  28.56200 48.73900 30.96300
H  29.62300 51.52000 31.05000
H  30.60600 50.15200 30.51200
H  29.80000 50.27000 32.13900
H  26.57600 48.34300 31.64300
H  25.31000 49.13900 30.72800
H  24.66200 50.13600 32.53600
H  26.29600 50.63600 33.12800
H  32.39100 46.56400 26.93100
H  32.27500 47.80500 28.10600
H  33.48900 48.00600 26.81900
H  33.86400 47.80200 24.60200
H  33.77000 46.73900 23.13500
H  32.97300 46.23000 24.68500
H  27.70100 49.80600 21.23100
H  26.35100 52.39300 21.43700
H  28.60300 51.12400 19.83100
H  29.80900 51.74300 21.01800
H  28.27100 52.58700 20.57200
H  25.02700 49.57500 21.89300
H  25.62200 49.89800 20.30100
H  23.79800 50.66600 19.63600
H  23.81100 52.14500 20.60700
H  22.99800 50.68700 21.14600
H  22.69600 54.14200 26.04000
H  21.73700 52.65800 25.69400
H  22.90600 53.32100 24.43400
H  23.98700 50.78500 30.19500
H  24.66100 54.34900 32.58100
H  25.03500 53.00000 33.70600
H  23.34000 53.51500 33.48600
Mg -1.41400 33.90700 26.38500
C  -3.32200 32.50100 28.94600
C  0.08600 35.96000 28.66000
C  0.25900 35.49500 23.74800
C  -2.86700 31.79200 24.15900
N  -1.73100 34.28300 28.59200
C  -2.46800 33.51100 29.47500
C  -2.34800 34.00500 30.88700
C  -1.24400 35.13600 30.75700
C  -0.86200 35.12900 29.25400
C  -1.66400 36.48800 31.38100
C  -1.91200 32.83400 31.85400
C  -1.19500 33.19700 33.09500
H  -1.66200 32.51000 34.39100
N  -0.12200 35.59300 26.22800
C  0.40100 36.24600 27.30800
C  1.24200 37.33000 26.77400
C  1.17200 37.26400 25.32700
C  0.36100 36.09300 25.01300
C  2.08600 38.25600 27.68700
C  1.79900 38.16500 24.32800
O  1.67800 38.08600 23.13100
C  2.53100 39.39900 24.82300
N  -1.16700 33.55400 24.27300
C  -0.44600 34.29100 23.38300
C  -0.71700 33.79000 21.91900
C  -1.55500 32.42100 22.20000
C  -1.82500 32.53700 23.65100
C  -1.46200 34.80000 20.97600
C  -0.76700 31.11300 21.77900
C  0.17800 30.40400 22.75500
N  -2.93100 32.59400 26.46500
C  -3.39200 31.75300 25.46100
C  -4.42300 30.91000 25.95200
C  -4.44000 31.12800 27.35300
C  -3.44500 32.10100 27.61300
C  -5.29300 30.01200 25.13300
C  -5.06100 30.84300 28.57000
O  -6.04100 30.10900 28.78000
C  -4.27200 31.64000 29.74900
C  -5.22600 32.44400 30.54600
O  -5.75800 33.53100 30.28900
O  -5.33600 31.70300 31.70200
C  -6.09000 32.39500 32.77100
H  0.52100 36.68200 29.35400
H  0.50500 36.10900 22.87900
H  -3.37200 31.23100 23.37000
H  -3.33500 34.40200 31.12500
H  -0.37600 34.79500 31.32200
H  -0.78900 36.95700 31.83200
H  -2.51900 36.20200 31.99400
H  -2.05700 37.08300 30.55700
H  -1.31100 32.10300 31.31300
H  -2.82200 32.34800 32.20400
H  -1.35100 34.25800 33.29300
H  -0.14200 32.93800 32.98500
H  3.10400 38.43600 27.34100
H  1.97800 37.81100 28.67600
H  1.62500 39.24200 27.74400
H  1.94000 39.85400 25.61800
H  2.73900 40.14800 24.05900
H  3.46600 39.01700 25.23100
H  0.25000 33.55800 21.47300
H  -2.52100 32.37600 21.69600
H  -1.67900 35.70300 21.54600
H  -2.43400 34.57200 20.53900
H  -0.84200 35.12000 20.13900
H  -0.15800 31.48700 20.95500
H  -1.58600 30.53500 21.35100
H  0.27300 30.84000 23.75000
H  1.20900 30.35200 22.40600
H  -0.11300 29.35600 22.83200
H  -5.32400 29.06700 25.67500
H  -4.82900 29.91600 24.15200
H  -6.32200 30.37200 25.16400
H  -3.69300 31.00000 30.41600
H  -6.76200 31.67500 33.23900
H  -6.62300 33.31500 32.53200
H  -5.35000 32.74600 33.49100

