158

Mg 1.09100 7.67900 25.52000
C  1.76800 9.72600 28.22500
C  0.98800 4.97700 27.59400
C  0.53300 5.72200 22.85800
C  1.32400 10.45500 23.43800
N  1.27000 7.39200 27.64400
C  1.53500 8.34500 28.58700
C  1.65500 7.76000 29.98900
C  1.59800 6.18700 29.66600
C  1.19500 6.15100 28.25500
C  2.93000 5.42900 29.92300
C  0.50700 8.17200 30.91900
C  0.62100 7.91900 32.47800
H  1.90500 7.28800 33.04400
N  0.86800 5.66500 25.24400
C  0.82400 4.66200 26.23900
C  0.41500 3.37300 25.67700
C  0.51500 3.60400 24.23700
C  0.65600 5.03500 24.07600
C  0.22000 2.07600 26.38300
C  0.46500 2.69000 23.05500
O  0.80000 2.99300 21.88400
C  0.25700 1.19200 23.40500
N  1.20900 8.08500 23.38500
C  0.83100 7.11000 22.47100
C  0.53100 7.61800 21.06100
C  0.75000 9.17700 21.27300
C  1.10000 9.29000 22.77900
C  1.36500 7.00700 19.88600
C  -0.32100 10.21600 20.80200
C  0.18700 11.01100 19.49800
N  1.55000 9.68100 25.71000
C  1.55900 10.71800 24.83100
C  1.77400 12.00800 25.52400
C  1.95000 11.57400 26.81000
C  1.72000 10.23200 26.91600
C  1.73900 13.38400 24.96000
C  2.29100 12.11400 28.10200
O  2.64100 13.20800 28.40800
C  1.95400 10.95700 29.12600
C  3.04000 10.88100 30.08400
O  4.19700 10.44000 29.87100
O  2.64300 11.42100 31.27400
C  3.67700 11.38200 32.26800
H  0.89600 4.06400 28.18600
H  0.03500 5.27200 21.99600
H  1.12000 11.26400 22.73300
H  2.60100 8.02000 30.46500
H  0.91300 5.74500 30.38900
H  2.85600 4.65200 30.68400
H  3.67900 6.13300 30.28600
H  3.38200 4.97600 29.04000
H  -0.34200 7.65300 30.47400
H  0.33300 9.23900 30.78000
H  -0.19300 7.24900 32.75300
H  0.54100 8.89400 32.95800
H  -0.63700 1.75200 25.79300
H  -0.12800 2.04600 27.41600
H  1.03800 1.36300 26.27600
H  1.08000 0.81300 24.01100
H  0.41200 0.71800 22.43500
H  -0.75500 0.88500 23.66800
H  -0.52300 7.48800 20.81300
H  1.67500 9.44600 20.76300
H  2.34500 6.69600 20.24800
H  1.61500 7.71700 19.09800
H  0.92500 6.08400 19.50900
H  -0.45100 10.90600 21.63600
H  -1.22700 9.65300 20.57700
H  -0.59700 11.68500 19.15100
H  0.57900 10.33500 18.73900
H  0.99700 11.71300 19.69800
H  0.75700 13.78900 25.20400
H  1.79600 13.34400 23.87300
H  2.56200 14.01200 25.30200
H  0.97000 11.24700 29.49500
H  3.52700 11.96200 33.17800
H  4.57800 11.71500 31.75100
H  3.74200 10.35400 32.62300
Mg 41.97500 40.81900 26.63200
C  41.61500 43.56000 28.88100
C  42.86900 38.87200 29.39100
C  43.07500 38.46800 24.50600
C  41.67000 43.11600 24.08200
N  42.01500 41.15200 28.91900
C  41.72600 42.30800 29.54700
C  41.84800 42.06400 31.08000
C  42.70000 40.68000 31.18200
C  42.51200 40.15000 29.81400
C  44.15000 40.69400 31.70600
C  40.39200 41.96000 31.70600
C  40.15700 43.02500 32.82800
H  39.69700 42.49500 34.21800
N  42.67900 38.85200 26.90200
C  42.90900 38.19800 28.13100
C  43.42500 36.91000 27.81800
C  43.56400 36.78300 26.41900
C  43.17600 38.09500 25.87500
C  43.76500 35.88500 28.91500
C  44.13100 35.57500 25.55500
O  44.35600 35.86900 24.38000
C  44.43100 34.28100 26.04400
N  42.51500 40.88700 24.53900
C  42.72200 39.70700 23.89400
C  42.51900 39.95400 22.40900
C  42.02900 41.45500 22.24500
C  42.01100 41.83800 23.71800
C  43.87800 39.61600 21.62200
C  40.65100 41.51500 21.52400
C  39.39200 41.37000 22.47500
N  41.67200 42.90300 26.45300
C  41.56400 43.67600 25.35900
C  41.26300 45.03100 25.66100
C  41.28600 45.01600 27.05900
C  41.54400 43.74200 27.50400
C  40.93100 46.10600 24.67100
C  41.04500 45.87700 28.21100
O  40.71700 47.06100 28.28500
C  41.22700 44.94600 29.46400
C  42.27700 45.56400 30.31400
O  43.48400 45.58700 30.08800
O  41.68300 46.16200 31.38800
C  42.58800 46.77700 32.33100
H  43.38200 38.24300 30.12200
H  43.11700 37.71900 23.71300
H  41.33000 43.78900 23.29200
H  42.38300 42.89700 31.53500
H  42.13100 40.03700 31.85400
H  44.80500 39.99700 31.18400
H  44.09800 40.65900 32.79400
H  44.56500 41.67300 31.46300
H  40.19000 40.99900 32.18000
H  39.59200 41.96200 30.96600
H  39.35700 43.66500 32.45800
H  41.04900 43.63500 32.97000
H  43.16800 34.99700 28.70900
H  43.48200 36.33200 29.86800
H  44.81500 35.62100 29.03900
H  45.20700 33.88700 25.38900
H  43.53900 33.79000 25.65600
H  44.61200 34.24100 27.11900
H  41.69600 39.27200 22.19300
H  42.74800 42.09100 21.73000
H  43.84100 39.86800 20.56300
H  44.06000 38.54100 21.64000
H  44.67900 40.19900 22.07700
H  40.62900 40.74100 20.75800
H  40.60500 42.46100 20.98400
H  38.64800 40.71100 22.02700
H  38.94700 42.35500 22.61000
H  39.62700 40.98900 23.46900
H  41.23400 45.78000 23.67600
H  41.51500 46.97100 24.98300
H  39.86800 46.31600 24.78600
H  40.28800 44.77600 29.99200
H  42.00200 47.17700 33.15800
H  43.04200 47.59700 31.77500
H  43.36100 46.07500 32.64300

