158

Mg 2.86400 -0.70600 44.38700
C  6.34900 0.10400 43.91400
C  2.15000 2.13200 42.68200
C  -0.21800 -1.92500 43.93800
C  3.93800 -3.88800 45.54700
N  4.17100 0.96600 43.35300
C  5.50700 1.11500 43.39400
C  5.87500 2.56900 43.10400
C  4.56800 3.27700 42.87300
C  3.56500 2.09300 42.96200
C  4.20900 4.42300 43.87800
C  7.00100 2.89800 42.06100
C  6.70300 2.43600 40.61900
H  6.30900 3.53600 39.61800
N  1.16000 0.05200 43.54000
C  1.04500 1.24300 42.85200
C  -0.31500 1.44700 42.47200
C  -1.03300 0.23400 42.77900
C  -0.02000 -0.61600 43.46800
C  -0.76100 2.70200 41.83000
C  -2.46300 0.05200 42.36600
O  -3.09800 0.84500 41.77700
C  -3.12100 -1.27500 42.52000
N  1.95800 -2.58400 44.90300
C  0.63300 -2.75200 44.64600
C  0.24700 -4.21900 45.04500
C  1.55200 -4.94200 45.42500
C  2.57200 -3.75100 45.37600
C  -0.89600 -4.30200 46.14700
C  1.90600 -6.17100 44.45500
C  2.72900 -7.36300 44.96000
N  4.71700 -1.60200 44.94800
C  4.94400 -2.91700 45.36700
C  6.33300 -3.15400 45.37100
C  6.95600 -2.01000 44.88600
C  5.91000 -1.10100 44.53000
C  7.02600 -4.39500 45.90000
C  8.27100 -1.38800 44.68800
O  9.39500 -1.86500 44.88400
C  7.87600 -0.02300 43.99600
C  8.39200 1.13100 44.81700
O  9.17300 1.97500 44.47500
O  7.83900 0.99300 46.07800
C  8.31600 2.01700 47.03600
H  1.83800 3.14800 42.42900
H  -1.21500 -2.36800 43.89800
H  4.16300 -4.92300 45.81300
H  6.40700 2.98600 43.96000
H  4.40300 3.68500 41.87600
H  5.15200 4.91400 44.12000
H  3.74000 4.18000 44.83100
H  3.63400 5.17600 43.33800
H  7.92700 2.45500 42.42800
H  7.19800 3.97000 42.02100
H  5.97000 1.63500 40.52100
H  7.64200 1.97800 40.30900
H  -0.40600 3.61200 42.31300
H  -1.82000 2.87700 42.02100
H  -0.62600 2.68000 40.74800
H  -3.55800 -1.33100 43.51700
H  -2.47700 -2.12300 42.28500
H  -3.98000 -1.37100 41.85600
H  -0.08900 -4.70600 44.12900
H  1.59400 -5.39800 46.41400
H  -1.68200 -4.95200 45.76500
H  -1.38500 -3.36000 46.39400
H  -0.40500 -4.71500 47.02900
H  2.48000 -5.86800 43.57900
H  0.99000 -6.64400 44.10400
H  2.94700 -7.36900 46.02800
H  3.71500 -7.39700 44.49800
H  2.30700 -8.32300 44.66200
H  6.40900 -4.96800 46.59100
H  7.87000 -4.15000 46.54400
H  7.32500 -5.12100 45.14300
H  8.26300 0.11800 42.98600
H  7.65700 2.88600 47.05200
H  9.29100 2.48700 46.90700
H  8.25000 1.57000 48.02800
Mg -2.73900 34.82500 26.67800
C  -3.84800 33.19400 29.57300
C  -0.96000 36.91000 28.67200
C  -1.89200 36.57700 23.86000
C  -4.62800 32.54800 24.83700
N  -2.43300 34.94800 28.95200
C  -2.92100 34.22900 29.92400
C  -2.37700 34.60900 31.31300
C  -1.48300 35.88700 30.94500
C  -1.61200 35.95300 29.41900
C  -1.82900 37.07500 31.71800
C  -1.65400 33.39900 31.96900
C  -2.39600 32.89800 33.32800
H  -1.49600 32.74600 34.54400
N  -1.59300 36.49000 26.26200
C  -0.94400 37.19700 27.26200
C  -0.14100 38.19000 26.63700
C  -0.19400 37.90900 25.26700
C  -1.20400 36.92100 25.06400
C  0.81100 39.17200 27.37500
C  0.63400 38.48100 24.05900
O  0.33700 38.29300 22.94600
C  1.92400 39.36700 24.34000
N  -3.57100 34.83700 24.70100
C  -2.94900 35.60300 23.72300
C  -3.53400 35.20300 22.38600
C  -4.06300 33.75100 22.67600
C  -4.12300 33.71800 24.19500
C  -4.51500 36.21800 21.71800
C  -3.19200 32.58300 22.15700
C  -3.29900 32.24700 20.67500
N  -3.99000 33.21900 27.07700
C  -4.67300 32.40100 26.25500
C  -5.48300 31.45000 26.92300
C  -5.17500 31.76700 28.28700
C  -4.24400 32.81800 28.25800
C  -6.50500 30.57800 26.39600
C  -5.35800 31.31800 29.67200
O  -5.98200 30.38600 30.15000
C  -4.57800 32.28000 30.54100
C  -5.54800 32.92500 31.49500
O  -6.31300 33.86600 31.23800
O  -5.52400 32.33900 32.70700
C  -6.50800 32.63700 33.69400
H  -0.33700 37.71300 29.07300
H  -1.62100 37.05800 22.91700
H  -5.11900 31.80600 24.20400
H  -3.21300 34.90700 31.94600
H  -0.47500 35.80000 31.35100
H  -0.92200 37.58800 32.03600
H  -2.47400 36.85800 32.56900
H  -2.36500 37.77800 31.08100
H  -0.60200 33.60800 32.16000
H  -1.51300 32.61200 31.22800
H  -2.73000 31.87100 33.17900
H  -3.26800 33.52500 33.51500
H  1.80300 38.74100 27.51100
H  0.45800 39.39300 28.38300
H  0.94200 40.02500 26.70900
H  2.59500 38.90800 25.06600
H  1.57400 40.36800 24.59500
H  2.46100 39.37700 23.39100
H  -2.67700 35.21000 21.71300
H  -5.03700 33.65600 22.19700
H  -5.47600 35.76700 21.47100
H  -4.24300 36.59100 20.73100
H  -4.80900 37.02300 22.39200
H  -3.46600 31.65300 22.65600
H  -2.17000 32.92300 22.32600
H  -4.14400 32.72200 20.17500
H  -3.46800 31.18200 20.52000
H  -2.39300 32.55600 20.15300
H  -6.17900 29.54700 26.54000
H  -6.66300 30.76600 25.33400
H  -7.42200 30.80700 26.93700
H  -3.98300 31.79300 31.31300
H  -6.04700 33.30500 34.42100
H  -6.78200 31.69200 34.16300
H  -7.36700 33.13500 33.24300

