158

Mg 45.49800 4.61400 47.72100
C  43.26900 7.37700 47.32200
C  42.81200 2.53600 47.15000
C  47.72400 1.98700 47.50300
C  48.28600 6.88500 47.59200
N  43.28500 4.97200 47.31600
C  42.59100 6.17900 47.21700
C  41.10900 5.95800 46.72600
C  41.08700 4.39700 46.91300
C  42.53500 3.92700 47.14900
C  40.16600 3.91400 48.12900
C  40.94000 6.48300 45.28200
C  39.89700 7.50600 44.97000
H  39.16900 7.12900 43.69600
N  45.27000 2.54700 47.46300
C  44.09100 1.95500 47.27800
C  44.39200 0.51600 46.93400
C  45.80200 0.27400 47.02300
C  46.33700 1.62900 47.35400
C  43.31500 -0.48400 46.52000
C  46.47500 -1.01300 46.70300
O  45.73900 -2.01500 46.44800
C  48.04200 -1.16900 46.72100
N  47.69800 4.50900 47.22800
C  48.34900 3.27100 47.50300
C  49.82300 3.47500 47.67600
C  49.97500 5.02500 47.70500
C  48.54000 5.50100 47.59800
C  50.38400 2.81200 48.96800
C  50.92700 5.60900 46.70900
C  50.58800 5.30000 45.25400
N  45.78900 6.65600 47.65800
C  46.96700 7.42600 47.51600
C  46.56300 8.82400 47.48300
C  45.18100 8.83400 47.52700
C  44.71200 7.49200 47.47900
C  47.57500 9.94200 47.38300
C  43.98200 9.68400 47.50000
O  43.91800 10.92600 47.46200
C  42.74000 8.77900 47.23100
C  41.74500 9.08000 48.34200
O  41.55300 8.38900 49.38600
O  40.91600 10.05500 47.95300
C  39.68600 10.23200 48.70200
H  41.89900 1.97100 46.95200
H  48.43800 1.18900 47.71400
H  49.18600 7.50400 47.57600
H  40.28000 6.33600 47.32500
H  40.73300 3.85400 46.03700
H  39.61900 3.03600 47.78700
H  39.44900 4.66300 48.46600
H  40.78900 3.70300 48.99900
H  40.67700 5.60000 44.70000
H  41.92400 6.81500 44.95100
H  40.29500 8.49100 44.72700
H  39.20900 7.62900 45.80700
H  42.35700 -0.03800 46.25100
H  43.27100 -1.04400 47.45400
H  43.65500 -1.16800 45.74300
H  48.31400 -1.00400 47.76400
H  48.31500 -0.41500 45.98300
H  48.44300 -2.15000 46.46700
H  50.36100 3.04000 46.83400
H  50.29100 5.40700 48.67600
H  49.49700 2.38600 49.43600
H  50.70300 3.54300 49.71000
H  51.16100 2.04800 48.91900
H  51.86500 5.10000 46.93200
H  51.21200 6.62400 46.98700
H  49.66900 4.73100 45.11700
H  51.38700 4.71700 44.79600
H  50.52800 6.23300 44.69300
H  48.07500 9.81900 46.42200
H  48.36200 9.83400 48.12900
H  46.94900 10.83400 47.40600
H  42.30500 8.98700 46.25400
H  39.79800 10.09600 49.77800
H  38.97800 9.43500 48.47500
H  39.10000 11.12600 48.48800
Mg -4.77900 25.81600 26.10700
C  -3.56900 27.62800 28.84900
C  -6.41400 23.67100 28.24000
C  -5.84100 24.02100 23.35100
C  -2.57500 27.61600 24.00400
N  -4.80500 25.58800 28.22800
C  -4.36700 26.48100 29.19600
C  -4.79100 25.90300 30.64200
C  -5.27200 24.50900 30.34600
C  -5.52700 24.57800 28.85800
C  -4.43200 23.34300 30.89800
C  -5.91600 26.88000 31.10700
C  -6.60400 26.64400 32.48500
H  -5.97100 25.66200 33.53300
N  -6.08600 24.11600 25.80100
C  -6.69700 23.45100 26.82600
C  -7.63700 22.52200 26.24500
C  -7.48900 22.53300 24.79000
C  -6.47300 23.60300 24.51400
C  -8.54300 21.71200 27.12700
C  -8.10800 21.61400 23.76000
O  -7.79400 21.61800 22.54800
C  -9.03500 20.47900 24.13800
N  -4.25500 25.81500 23.94700
C  -4.73600 24.87500 23.09900
C  -4.15200 25.10200 21.71500
C  -2.97000 26.16500 21.94100
C  -3.30400 26.58200 23.39100
C  -3.63300 23.75200 20.98700
C  -3.04800 27.42700 20.98500
C  -2.43000 27.24300 19.58100
N  -3.40500 27.35900 26.30000
C  -2.62600 28.06500 25.40200
C  -1.88000 29.11000 26.11300
C  -2.20500 28.99700 27.47500
C  -3.09900 27.91000 27.50700
C  -1.07000 30.10700 25.48700
C  -2.01700 29.52900 28.80600
O  -1.28600 30.46200 29.18400
C  -2.91300 28.66300 29.72400
C  -2.02200 28.07400 30.77500
O  -1.00500 27.49700 30.61600
O  -2.73900 28.25500 31.98600
C  -2.09500 27.62800 33.22400
H  -6.82500 22.94200 28.94100
H  -6.22500 23.55700 22.43900
H  -1.73800 28.10800 23.50500
H  -3.98100 25.80000 31.36500
H  -6.30200 24.42700 30.69300
H  -4.94200 22.91300 31.76100
H  -3.49100 23.73800 31.28100
H  -4.30000 22.57900 30.13200
H  -6.67900 26.78300 30.33500
H  -5.55300 27.90600 31.05600
H  -7.65400 26.42600 32.29100
H  -6.59100 27.65100 32.90300
H  -9.54400 21.80500 26.70400
H  -8.62300 22.14200 28.12500
H  -8.25600 20.66000 27.11200
H  -10.05600 20.82800 24.29000
H  -8.61600 19.89600 24.95900
H  -9.12900 19.86200 23.24500
H  -4.91800 25.47900 21.03800
H  -2.00700 25.65400 21.95000
H  -2.55200 23.65300 20.88500
H  -4.05300 23.65000 19.98700
H  -3.96500 22.94400 21.63900
H  -2.45700 28.24200 21.40100
H  -4.05200 27.80700 20.79000
H  -1.38500 27.55300 19.61000
H  -3.00000 27.85600 18.88300
H  -2.42700 26.18000 19.34100
H  -1.62500 31.03600 25.36300
H  -0.76800 29.71400 24.51600
H  -0.14100 30.23400 26.04300
H  -3.65300 29.32300 30.17800
H  -2.02600 26.57100 32.96500
H  -2.82600 27.66900 34.03100
H  -1.06600 27.91300 33.44500

