158

Mg 8.18000 3.63900 27.31600
C  9.43600 1.98900 30.20600
C  6.50100 5.79700 29.48600
C  6.74400 4.84700 24.59200
C  9.67900 1.06400 25.31600
N  7.94000 3.76300 29.58800
C  8.62900 3.09900 30.51800
C  8.43100 3.73600 31.89900
C  7.41600 4.90200 31.62600
C  7.27800 4.79400 30.10500
C  5.99500 4.72200 32.24500
C  9.81500 4.25500 32.56200
C  10.11700 3.71100 33.93300
H  10.54200 4.67000 35.08400
N  6.91100 5.15000 27.05200
C  6.38200 5.95400 28.04000
C  5.48900 6.89000 27.42800
C  5.52600 6.58500 26.01800
C  6.38400 5.48400 25.79300
C  4.63900 7.75800 28.26500
C  4.75100 7.29900 24.89900
O  4.83100 7.03300 23.71100
C  3.82100 8.45100 25.23200
N  8.15000 3.08700 25.23500
C  7.46600 3.72900 24.29800
C  7.71100 3.19500 22.87800
C  8.65000 1.97400 23.16700
C  8.88600 2.04400 24.65200
C  6.45200 2.83800 22.04800
C  9.91300 1.95200 22.18000
C  9.64900 1.39800 20.77800
N  9.33000 1.90400 27.64300
C  9.83400 0.97700 26.78200
C  10.61000 -0.04800 27.53700
C  10.52800 0.33300 28.84300
C  9.79900 1.57100 28.89700
C  11.09900 -1.32300 27.05700
C  10.93600 -0.02100 30.16000
O  11.49900 -0.97100 30.62100
C  10.34200 1.08600 31.09600
C  9.55600 0.41400 32.14300
O  8.40700 -0.01600 31.99900
O  10.09100 0.52900 33.35900
C  9.41100 0.06200 34.57600
H  5.88200 6.43800 30.11700
H  6.14900 5.07200 23.70400
H  10.00000 0.25500 24.65600
H  7.99900 3.01400 32.59200
H  7.77700 5.90800 31.83800
H  5.23000 4.34400 31.56600
H  5.69900 5.74200 32.48900
H  6.00600 4.04300 33.09800
H  9.90400 5.34000 32.51600
H  10.56500 3.92500 31.84300
H  10.94300 3.01000 33.81300
H  9.34900 3.08000 34.38100
H  5.07700 7.96700 29.24200
H  3.63700 7.33600 28.34200
H  4.45600 8.69800 27.74500
H  3.04400 8.20700 25.95700
H  3.29400 8.72700 24.31900
H  4.38300 9.32100 25.57100
H  8.37300 3.96500 22.48000
H  8.05000 1.08900 22.95900
H  5.51900 2.96800 22.59600
H  6.44900 1.79500 21.72900
H  6.35000 3.53100 21.21400
H  10.68200 1.37100 22.68800
H  10.16100 3.00000 22.00900
H  10.32700 0.57400 20.55500
H  9.76900 2.18400 20.03200
H  8.64300 0.99400 20.67100
H  11.04400 -1.61100 26.00700
H  10.79400 -2.20800 27.61500
H  12.18100 -1.38700 27.17200
H  11.19800 1.56600 31.57000
H  8.99800 0.89900 35.14000
H  10.07800 -0.49500 35.23500
H  8.61200 -0.66700 34.43900
Mg 48.33100 35.29400 27.68800
C  46.10700 33.57700 29.81500
C  48.62800 37.79200 30.10400
C  50.20700 36.94300 25.52300
C  47.97900 32.50800 25.42200
N  47.35500 35.68500 29.71900
C  46.68300 34.71300 30.47300
C  46.84200 35.05800 31.97400
C  47.25600 36.58100 31.92900
C  47.81300 36.74600 30.48700
C  46.08100 37.55800 32.30500
C  47.90600 34.16900 32.59200
C  47.97900 34.08700 34.09000
H  47.07200 34.94800 34.94100
N  49.23600 37.14200 27.77600
C  49.27900 38.05100 28.86500
C  50.16300 39.11000 28.46800
C  50.59400 38.91100 27.10900
C  49.95700 37.62900 26.77400
C  50.39600 40.30700 29.39700
C  51.36100 39.78300 26.25100
O  51.60000 39.49400 25.06800
C  51.78700 41.15200 26.72000
N  48.76300 34.91500 25.58600
C  49.75000 35.72100 25.05800
C  50.19700 35.12500 23.71600
C  49.70000 33.61600 23.81100
C  48.70900 33.64800 24.98200
C  49.68200 35.86400 22.45200
C  50.80700 32.60300 24.12600
C  51.57600 32.14300 22.87600
N  47.28200 33.43300 27.55700
C  47.19000 32.46900 26.56800
C  46.17800 31.53100 26.92300
C  45.67300 31.85200 28.18000
C  46.38000 33.05500 28.48500
C  45.84400 30.24700 26.13100
C  44.78900 31.49200 29.26500
O  43.96100 30.61800 29.42200
C  45.11600 32.52900 30.39700
C  45.56700 31.89800 31.65400
O  46.54500 31.18400 31.73500
O  44.70400 32.23900 32.65200
C  45.07600 31.72500 33.96200
H  48.62100 38.50700 30.93100
H  51.08800 37.34000 25.01500
H  47.99300 31.64600 24.75100
H  45.89200 34.77900 32.42900
H  48.01100 36.78800 32.68700
H  45.20700 36.94800 32.53200
H  45.69300 38.03300 31.40300
H  46.31700 38.27100 33.09500
H  48.90800 34.37600 32.21400
H  47.77000 33.16100 32.20100
H  48.99000 34.39900 34.35500
H  47.96500 33.00500 34.22300
H  49.84600 40.21600 30.33400
H  50.05000 41.19600 28.87000
H  51.45300 40.35700 29.65800
H  50.86200 41.72000 26.81000
H  52.54900 41.68200 26.14800
H  52.14600 40.94700 27.72800
H  51.28400 35.14500 23.78700
H  49.27000 33.31600 22.85500
H  49.21200 35.16300 21.76100
H  50.47600 36.37700 21.91000
H  48.96700 36.64600 22.71000
H  50.50600 31.66700 24.59700
H  51.52400 33.18400 24.70600
H  52.63700 32.34400 23.02400
H  51.16900 32.58900 21.96900
H  51.54600 31.05500 22.81700
H  45.14500 29.68500 26.75000
H  46.68300 29.58300 25.92500
H  45.38600 30.35000 25.14700
H  44.21600 33.05200 30.72000
H  44.60000 30.78300 34.23400
H  44.79000 32.47400 34.69900
H  46.14000 31.59400 34.16200

