158

Mg 16.95700 -1.71400 27.07400
C  16.16200 0.36800 29.97200
C  18.84800 -3.70800 29.12600
C  18.06300 -3.16100 24.28000
C  15.26100 0.75400 25.02400
N  17.35900 -1.66000 29.29500
C  16.89900 -0.77300 30.26300
C  17.41600 -1.16700 31.69300
C  18.33100 -2.36100 31.39100
C  18.23500 -2.62100 29.81400
C  19.80900 -2.07200 31.90400
C  16.32900 -1.46600 32.75600
C  16.45100 -0.74700 34.12400
H  17.64600 -1.34600 34.96700
N  18.08800 -3.35200 26.80000
C  18.80300 -4.04100 27.70900
C  19.49100 -5.12500 27.08100
C  19.22600 -4.97500 25.66000
C  18.38500 -3.82000 25.51500
C  20.26100 -6.20200 27.83200
C  19.74400 -5.94800 24.58200
O  19.40000 -5.79000 23.42600
C  20.75200 -7.00000 24.92900
N  16.84400 -1.13800 25.02500
C  17.44100 -1.95800 24.03800
C  17.18400 -1.44300 22.61900
C  16.00200 -0.41800 22.89100
C  16.06300 -0.23900 24.41000
C  18.47300 -0.98300 21.85600
C  14.62900 -0.75500 22.29600
C  13.75000 -1.82100 22.98500
N  15.94800 0.17300 27.42300
C  15.25400 1.02000 26.42700
C  14.55100 2.03900 27.21000
C  14.88000 1.78800 28.53900
C  15.73600 0.73200 28.64600
C  13.74700 3.12900 26.59900
C  14.70000 2.30900 29.83600
O  14.03400 3.27100 30.16300
C  15.44600 1.45500 30.88400
C  16.32100 2.31600 31.66300
O  17.30700 2.90800 31.25500
O  15.82100 2.54300 32.92700
C  16.56700 3.56900 33.63500
H  19.45600 -4.34700 29.77000
H  18.63600 -3.51600 23.42100
H  14.64200 1.29100 24.30200
H  17.97800 -0.31200 32.06900
H  18.03400 -3.27000 31.91300
H  20.09700 -1.02300 31.97200
H  20.49100 -2.25500 31.07400
H  20.06600 -2.59300 32.82600
H  16.20600 -2.53500 32.92600
H  15.41400 -1.05000 32.33500
H  15.51000 -0.71500 34.67300
H  16.63600 0.29600 33.86700
H  20.24600 -6.01200 28.90500
H  21.27500 -6.18900 27.43300
H  19.87400 -7.21900 27.77100
H  20.42200 -7.79300 25.60100
H  21.69300 -6.62000 25.32500
H  20.95800 -7.51800 23.99200
H  16.79800 -2.32600 22.10900
H  16.25200 0.55700 22.47200
H  18.40100 0.04300 21.49300
H  18.86100 -1.61500 21.05800
H  19.22400 -0.91100 22.64300
H  14.84800 -0.98400 21.25300
H  14.13100 0.21300 22.23900
H  13.00900 -1.15500 23.42700
H  14.20000 -2.33900 23.83300
H  13.34100 -2.56100 22.29700
H  14.19600 3.45100 25.65900
H  13.62700 4.00700 27.23400
H  12.76400 2.67800 26.46800
H  14.71500 0.91800 31.48900
H  16.35800 4.58800 33.30700
H  17.59200 3.20700 33.70500
H  16.00700 3.50500 34.56800
Mg 35.63800 49.65800 25.58300
C  36.10200 47.86800 28.59500
C  34.24600 52.15700 27.39100
C  34.81500 51.05700 22.62900
C  36.66400 46.78100 23.87800
N  35.26200 49.99200 27.74300
C  35.61000 49.18700 28.79500
C  35.29900 49.83300 30.19300
C  34.31900 51.02900 29.77700
C  34.69700 51.17100 28.24900
C  32.74900 50.69800 30.05500
C  36.53900 50.29300 30.98100
C  36.67400 49.62900 32.36300
H  35.47400 49.65100 33.32000
N  34.79100 51.42900 25.09300
C  34.34500 52.35700 25.98100
C  33.90100 53.55400 25.25700
C  33.98100 53.21200 23.90900
C  34.54400 51.83100 23.77500
C  33.44700 54.85500 25.95800
C  33.50500 54.07300 22.67300
O  33.76700 53.80800 21.50100
C  32.84900 55.38600 22.93800
N  35.69300 48.96200 23.62000
C  35.37200 49.77400 22.55800
C  35.56900 49.08200 21.17100
C  36.42200 47.82600 21.63000
C  36.22300 47.83200 23.16100
C  34.20000 48.76700 20.48500
C  37.89600 47.66900 21.11700
C  39.03400 48.40500 21.82100
N  36.24400 47.68900 26.04600
C  36.57700 46.64900 25.26500
C  37.03800 45.49300 26.09500
C  36.89800 45.94600 27.41700
C  36.35100 47.25700 27.37700
C  37.65200 44.17100 25.51800
C  37.11100 45.58800 28.79700
O  37.66200 44.64800 29.36900
C  36.51800 46.86800 29.61400
C  35.37200 46.29900 30.40200
O  34.27500 46.09800 29.90500
O  35.80300 45.93000 31.62800
C  34.81200 45.20000 32.47100
H  33.80600 53.00600 27.91800
H  34.49500 51.44200 21.65900
H  36.88000 45.95500 23.19700
H  34.78900 49.10600 30.82400
H  34.51200 51.91800 30.37700
H  32.20800 51.03500 29.17100
H  32.43400 51.26100 30.93400
H  32.60600 49.65100 30.32400
H  36.52300 51.36300 31.18500
H  37.42700 50.04100 30.40100
H  37.43500 50.20400 32.88900
H  37.08000 48.62800 32.21600
H  33.94600 55.71300 25.50600
H  33.78400 54.86800 26.99500
H  32.36400 54.96600 26.00600
H  31.94000 55.32600 23.53600
H  32.63600 55.88100 21.99000
H  33.63700 55.92900 23.46000
H  36.13400 49.74200 20.51300
H  35.80100 47.01800 21.24200
H  33.46500 48.57300 21.26600
H  34.35600 47.88700 19.86200
H  33.95900 49.62800 19.86000
H  37.99500 47.91700 20.06000
H  38.19700 46.62200 21.09000
H  39.49900 47.83600 22.62600
H  38.54300 49.25300 22.29800
H  39.77300 48.83400 21.14400
H  38.69600 44.34900 25.25900
H  37.04200 43.77600 24.70500
H  37.62800 43.27300 26.13500
H  37.27800 47.21700 30.31300
H  33.84100 45.69200 32.53300
H  35.14600 45.10100 33.50400
H  34.75200 44.17500 32.10400

