158

Mg 47.22900 34.30300 27.25000
C  45.58400 33.20100 30.14400
C  47.93000 37.27700 29.02100
C  48.27300 35.84900 24.46300
C  45.94500 31.69900 25.60300
N  46.88800 35.08400 29.35700
C  46.27400 34.39500 30.39200
C  46.34300 35.23500 31.70000
C  46.78100 36.61200 31.12400
C  47.19000 36.33300 29.72600
C  45.82200 37.81000 31.29000
C  47.34700 34.56900 32.63400
C  46.90200 34.50500 34.09600
H  47.99200 34.59800 35.18000
N  48.25100 36.18700 26.85100
C  48.47700 37.22400 27.73900
C  49.18100 38.26200 27.03800
C  49.21100 37.88600 25.64700
C  48.61300 36.60800 25.60100
C  49.73100 39.52000 27.67700
C  49.81800 38.55100 24.45800
O  49.97700 37.99300 23.36200
C  50.31700 39.96100 24.67800
N  47.09600 33.90100 25.29800
C  47.75800 34.58800 24.32700
C  47.58700 33.93700 23.03500
C  46.94100 32.52800 23.29200
C  46.62700 32.69400 24.79100
C  46.94500 34.64100 21.86100
C  47.77100 31.28000 22.86100
C  48.88900 30.96500 23.78900
N  46.06900 32.76500 27.77100
C  45.62200 31.71500 26.99100
C  44.95200 30.68900 27.76000
C  44.79500 31.32200 28.99100
C  45.58400 32.50900 28.95700
C  44.35200 29.40700 27.26600
C  44.17800 31.21700 30.24700
O  43.43400 30.36200 30.68800
C  44.55400 32.43300 31.03200
C  45.06400 31.94100 32.33100
O  46.14200 31.49800 32.61000
O  43.95100 31.82100 33.13200
C  44.08100 30.89900 34.28900
H  48.20300 38.17900 29.57300
H  48.71300 36.20100 23.52800
H  45.62000 30.81400 25.05300
H  45.32400 35.27500 32.08300
H  47.68200 36.94600 31.63900
H  45.29800 37.53300 32.20500
H  45.17800 37.92300 30.41800
H  46.30300 38.77900 31.42000
H  48.29900 35.09400 32.71100
H  47.57200 33.58100 32.23200
H  46.40000 33.54100 34.17600
H  46.28400 35.39000 34.25300
H  49.02500 40.29500 27.37600
H  50.75300 39.83200 27.46300
H  49.58100 39.46600 28.75500
H  49.62700 40.59300 25.23700
H  50.41200 40.34600 23.66200
H  51.29100 39.92000 25.16400
H  48.63800 33.77100 22.79700
H  45.94300 32.48000 22.85600
H  46.22300 35.28300 22.36500
H  46.47400 33.89100 21.22700
H  47.51400 35.42100 21.35400
H  48.04900 31.36000 21.81000
H  46.98300 30.52700 22.88700
H  48.94300 31.69500 24.59700
H  49.82600 30.76700 23.26900
H  48.62400 30.08000 24.36800
H  44.11000 28.84400 28.16800
H  44.87300 28.78000 26.54200
H  43.35500 29.62600 26.88300
H  43.66300 33.03100 31.22300
H  43.17700 30.34400 34.54200
H  44.14500 31.60800 35.11400
H  45.01500 30.33700 34.30400
Mg 41.45500 41.40000 27.28300
C  40.72900 43.84000 29.73600
C  42.48000 39.26000 29.64400
C  42.63700 39.46700 24.76100
C  41.03200 44.13700 24.82500
N  41.58400 41.56000 29.35900
C  41.11200 42.55600 30.18100
C  41.12100 42.17200 31.62900
C  41.75500 40.72600 31.59800
C  42.01700 40.47600 30.14000
C  43.16100 40.66500 32.29300
C  39.64800 42.26600 32.38300
C  39.50900 43.12300 33.63500
H  39.06900 42.50500 34.94200
N  42.36400 39.67500 27.21100
C  42.63200 38.84200 28.29900
C  42.98200 37.51200 27.81800
C  43.06500 37.56400 26.40700
C  42.67100 38.98500 26.08300
C  43.26500 36.34400 28.73200
C  43.51300 36.50700 25.36200
O  43.61500 36.79700 24.16900
C  43.87100 34.98900 25.80700
N  41.84700 41.79300 25.11800
C  42.26700 40.75100 24.34000
C  41.98700 41.06400 22.87300
C  41.22900 42.45400 22.92400
C  41.36400 42.81200 24.39500
C  43.22200 40.99200 21.98300
C  39.75300 42.30100 22.44300
C  38.63800 42.32100 23.45500
N  40.89400 43.46000 27.23700
C  40.82200 44.40800 26.21400
C  40.40100 45.69400 26.69500
C  40.33500 45.51300 28.05200
C  40.70700 44.13800 28.35400
C  40.19900 46.98500 25.91200
C  40.14400 46.19500 29.32100
O  39.83700 47.34700 29.58600
C  40.36800 45.11800 30.42500
C  41.49200 45.60800 31.30000
O  42.60900 45.76200 30.98000
O  41.00300 46.03300 32.55300
C  41.87500 46.98600 33.28000
H  42.68300 38.52200 30.42300
H  42.73200 38.81900 23.88800
H  40.73800 44.86600 24.06700
H  41.83300 42.77000 32.19900
H  41.15300 39.91500 32.00700
H  43.05100 40.38600 33.34100
H  43.52000 41.69100 32.37800
H  43.92400 40.03000 31.84300
H  39.37400 41.23600 32.61000
H  38.94400 42.53000 31.59400
H  38.75600 43.86200 33.36000
H  40.43000 43.69800 33.72900
H  43.14500 36.54100 29.79800
H  44.33300 36.18200 28.58400
H  42.60500 35.53100 28.42700
H  42.96500 34.45000 26.08300
H  44.61100 35.03500 26.60600
H  44.30300 34.44400 24.96700
H  41.33000 40.34300 22.38500
H  41.76200 43.15700 22.28300
H  43.99600 40.63900 22.66300
H  43.47600 41.95900 21.54900
H  42.98300 40.31000 21.16600
H  39.76400 41.39900 21.83000
H  39.68700 43.24100 21.89500
H  37.87100 41.57200 23.25500
H  38.25200 43.34000 23.41400
H  38.92800 42.18900 24.49700
H  40.26100 47.78300 26.65200
H  39.19400 46.80400 25.53200
H  40.91500 47.20300 25.12000
H  39.49000 45.00700 31.06100
H  41.91700 47.94700 32.76700
H  42.83900 46.54200 33.52900
H  41.45300 47.23300 34.25400

