158

Mg 35.66700 0.62500 29.68500
C  33.35700 1.86700 32.17400
C  38.14000 0.72600 32.06000
C  37.94500 -0.01600 27.30400
C  33.22300 1.36000 27.27200
N  35.69300 1.29900 31.82900
C  34.62800 1.53100 32.69900
C  35.12800 1.68200 34.10400
C  36.70400 1.46400 34.02200
C  36.87600 1.15900 32.57500
C  37.60400 2.57000 34.56000
C  34.33000 0.89000 35.23700
C  34.02000 1.65000 36.46700
H  35.15500 2.52200 36.93500
N  37.71700 0.50700 29.65800
C  38.58400 0.42300 30.75900
C  39.91900 -0.03600 30.38700
C  39.90100 -0.27200 28.99100
C  38.49500 0.03900 28.56500
C  41.02500 -0.16400 31.46200
C  41.08900 -0.66000 27.99400
O  40.86800 -0.70200 26.77200
C  42.46200 -0.75700 28.59500
N  35.59600 0.69900 27.60400
C  36.70300 0.39900 26.82200
C  36.36700 0.61700 25.30900
C  34.82700 0.97000 25.39400
C  34.49400 0.95500 26.85200
C  37.31200 1.56700 24.50700
C  33.82300 0.31600 24.42100
C  33.25200 -1.03700 24.88900
N  33.75500 1.33900 29.65700
C  32.81600 1.55300 28.57700
C  31.53000 1.93500 29.08200
C  31.69500 2.06700 30.47300
C  33.00700 1.76300 30.77600
C  30.35000 2.31400 28.19600
C  31.06300 2.40000 31.71900
O  29.90800 2.71800 31.97800
C  32.03100 2.21600 32.95000
C  32.14700 3.42200 33.79200
O  33.03100 4.21400 33.64800
O  31.27500 3.42800 34.91100
C  31.51500 4.73800 35.67900
H  38.74400 0.51200 32.94400
H  38.68900 -0.31000 26.56100
H  32.37300 1.58700 26.62500
H  35.00000 2.73800 34.34100
H  36.86300 0.54800 34.59300
H  37.25700 3.26200 35.32800
H  38.25700 3.06800 33.84300
H  38.18600 1.88700 35.17900
H  34.94000 0.05300 35.57500
H  33.41600 0.52100 34.77100
H  33.74800 1.00200 37.30000
H  33.18700 2.31800 36.24700
H  41.67600 0.69500 31.62300
H  41.67700 -1.00400 31.22100
H  40.58000 -0.37300 32.43500
H  42.44400 -1.66500 29.19800
H  42.76000 0.13500 29.14600
H  43.17200 -0.88800 27.77800
H  36.55600 -0.34800 24.83900
H  34.82700 1.99900 25.03600
H  38.08400 1.83400 25.22900
H  36.80700 2.41700 24.04800
H  37.80500 1.04300 23.68800
H  34.30200 0.13300 23.45900
H  33.01800 1.03100 24.24900
H  33.54800 -1.67400 24.05600
H  32.17600 -1.00900 25.06300
H  33.76100 -1.30800 25.81400
H  30.65900 2.65700 27.20800
H  29.79800 3.00700 28.83100
H  29.75600 1.43800 27.93700
H  31.60400 1.34000 33.43700
H  31.33000 5.63300 35.08500
H  32.56100 4.64300 35.97000
H  30.89300 4.67200 36.57200
Mg 40.54800 8.16800 29.49900
C  42.82400 9.63100 31.99000
C  38.67600 7.00600 32.03700
C  38.92400 6.33600 27.22900
C  43.13500 8.89200 27.11700
N  40.84900 8.24200 31.70300
C  41.65600 8.98900 32.50200
C  41.12900 9.08000 33.91300
C  39.89800 8.11100 33.89300
C  39.79800 7.69800 32.44000
C  39.80000 6.99300 34.88400
C  40.81800 10.55000 34.31400
C  39.79700 10.65800 35.49800
H  40.09000 11.82900 36.41300
N  38.85400 7.06100 29.60300
C  38.23600 6.64400 30.75800
C  37.08500 5.90300 30.41400
C  37.06200 5.75100 28.98800
C  38.29000 6.37900 28.53700
C  36.08400 5.49600 31.46200
C  36.17100 5.07400 28.08800
O  36.38200 4.96100 26.89200
C  34.92200 4.55500 28.58800
N  41.05300 7.60200 27.48800
C  40.18700 6.87600 26.70300
C  40.57600 6.87400 25.20800
C  41.65900 8.03100 25.20900
C  41.99300 8.24200 26.67000
C  41.07500 5.45300 24.70800
C  41.26600 9.40700 24.58800
C  40.09500 10.12700 25.15900
N  42.57600 8.99100 29.54900
C  43.39800 9.19900 28.41500
C  44.58200 9.90700 28.94900
C  44.41000 10.05000 30.35500
C  43.14600 9.57200 30.61600
C  45.81500 10.25100 28.15000
C  44.95200 10.66000 31.62900
O  45.91800 11.38200 31.80300
C  43.91600 10.40200 32.69500
C  44.41400 9.67300 33.83200
O  44.90800 8.58500 33.76600
O  44.08400 10.39600 34.92900
C  44.08200 9.66800 36.19400
H  38.09800 6.56600 32.85300
H  38.30700 5.78800 26.51400
H  43.89000 9.23300 26.40600
H  41.87200 8.80600 34.66200
H  38.97000 8.64100 34.11000
H  40.73500 6.97200 35.44400
H  39.66100 6.09300 34.28600
H  38.93900 6.99800 35.55200
H  40.29100 10.88100 33.42000
H  41.75400 11.09200 34.44600
H  39.58300 9.75900 36.07600
H  38.89000 10.89700 34.94200
H  35.03800 5.63300 31.19000
H  36.22500 5.85900 32.48000
H  36.29700 4.44000 31.62900
H  35.14100 3.79300 29.33600
H  34.35000 3.92400 27.90800
H  34.39500 5.38800 29.05100
H  39.75700 7.16100 24.54800
H  42.59600 7.73100 24.73900
H  42.16200 5.48700 24.62500
H  40.66800 4.99400 23.80700
H  40.90600 4.75700 25.53000
H  41.08600 9.26300 23.52300
H  42.11300 10.09000 24.52100
H  40.43700 11.14100 25.36600
H  39.84300 9.66100 26.11200
H  39.21200 10.10700 24.52100
H  46.68300 9.59700 28.22900
H  46.15800 11.04600 28.81300
H  45.74700 10.53600 27.10000
H  43.67100 11.41900 33.00100
H  44.91100 9.98600 36.82600
H  44.03400 8.58500 36.08200
H  43.09200 9.75200 36.64100

