158

Mg 35.57500 2.50400 30.41300
C  33.03700 3.47000 32.63400
C  37.76700 2.79500 32.95400
C  38.02600 1.67400 28.16200
C  33.26900 2.59900 27.82000
N  35.34600 3.20400 32.53000
C  34.22700 3.28100 33.24500
C  34.54200 3.23800 34.79300
C  36.09300 3.39000 34.77900
C  36.46200 3.03000 33.34100
C  36.61500 4.83500 35.04500
C  34.04600 1.89800 35.39600
C  33.97200 1.90100 36.85300
H  34.59700 2.99500 37.70500
N  37.60100 2.35400 30.51200
C  38.29700 2.47800 31.68400
C  39.70400 2.22100 31.41000
C  39.79700 1.63200 30.10100
C  38.43900 1.89600 29.53500
C  40.85900 2.26100 32.50100
C  40.97300 0.98900 29.34200
O  40.90500 0.74000 28.15500
C  42.29700 0.79300 30.20900
N  35.67400 2.23300 28.34600
C  36.80200 1.93000 27.64100
C  36.50400 1.51700 26.17000
C  34.95000 1.68900 26.12400
C  34.59000 2.27500 27.50000
C  37.12600 2.56700 25.03500
C  34.20100 0.30500 25.92300
C  34.13700 -0.32200 24.49600
N  33.61300 2.98000 30.19900
C  32.79500 2.93700 29.08400
C  31.47800 3.32200 29.47900
C  31.54400 3.52100 30.87300
C  32.86900 3.29100 31.28300
C  30.24600 3.52700 28.59400
C  30.72800 3.90300 31.98700
O  29.55800 4.24200 32.04800
C  31.68800 3.75400 33.25700
C  31.73000 5.06100 33.97600
O  32.02100 6.13400 33.47100
O  31.41200 4.89600 35.32300
C  31.68600 6.10900 36.14500
H  38.49000 2.85000 33.77100
H  38.82300 1.45500 27.44800
H  32.61000 2.52000 26.95300
H  34.00600 4.09900 35.19500
H  36.41300 2.72600 35.58200
H  35.85100 5.44200 35.53200
H  37.06100 5.24800 34.14100
H  37.40500 4.73500 35.79000
H  34.64100 1.05700 35.04100
H  33.05400 1.84300 34.94900
H  34.51900 1.01100 37.16700
H  32.94700 1.88300 37.22300
H  41.14400 1.26400 32.83600
H  40.46200 2.76600 33.38100
H  41.66500 2.88000 32.10700
H  42.95600 1.65100 30.34300
H  42.83200 0.04400 29.62700
H  42.08100 0.17400 31.08000
H  36.89200 0.51100 26.01100
H  34.65300 2.39100 25.34500
H  37.39900 3.53800 25.44900
H  36.37200 2.84500 24.29700
H  38.05900 2.18400 24.62200
H  33.19600 0.36200 26.34100
H  34.73300 -0.43600 26.52000
H  34.24000 0.44200 23.72600
H  33.22600 -0.91900 24.50600
H  34.86100 -1.13500 24.43700
H  29.28800 3.59200 29.11000
H  30.16400 2.75500 27.83000
H  30.36300 4.44800 28.02200
H  31.39200 2.93100 33.90700
H  32.43300 6.79300 35.74200
H  31.93700 5.74300 37.14100
H  30.68500 6.52200 36.27300
Mg 4.94100 53.76500 40.75700
C  4.67500 50.30200 40.68400
C  7.87800 53.39700 39.06200
C  4.85200 57.09600 40.34800
C  1.75100 53.87600 42.19800
N  6.00700 52.02300 39.76400
C  5.76000 50.75100 39.95900
C  6.80800 49.87500 39.23200
C  8.00800 50.89000 39.19600
C  7.24400 52.19800 39.30000
C  8.93200 50.67100 40.41200
C  6.43200 49.22300 37.79400
C  5.20200 49.77300 37.05500
H  5.39800 50.36800 35.62800
N  6.20800 55.04000 39.80500
C  7.41000 54.74800 39.28200
C  8.13300 55.94000 38.87100
C  7.29000 57.03700 39.22800
C  6.05700 56.41100 39.82600
C  9.51500 55.84400 38.23900
C  7.67300 58.41900 39.05000
O  8.81000 58.67600 38.62000
C  6.78200 59.60600 39.31400
N  3.37100 55.31700 40.96000
C  3.68400 56.60700 40.89200
C  2.55000 57.50100 41.47200
C  1.52200 56.46500 42.01800
C  2.25100 55.15200 41.72400
C  3.02300 58.43700 42.59100
C  0.07600 56.58600 41.48100
C  -0.99000 56.90900 42.53600
N  3.56200 52.42700 41.48200
C  2.25500 52.59300 42.00100
C  1.66200 51.33500 42.31200
C  2.65700 50.40200 41.85300
C  3.69700 51.12500 41.26100
C  0.36400 51.05500 43.03000
C  2.86100 48.93900 41.73100
O  2.24600 47.92700 42.05300
C  4.19000 48.84600 40.97300
C  3.96400 48.00700 39.81000
O  3.16900 48.29500 38.94400
O  4.62900 46.73800 39.85700
C  4.24600 45.59900 38.99400
H  8.94300 53.35400 38.82400
H  4.82900 58.18800 40.35200
H  0.75100 53.93300 42.63300
H  7.13600 49.00400 39.79800
H  8.56200 50.65800 38.28700
H  8.65200 51.34000 41.22500
H  9.87200 50.82100 39.88000
H  8.94500 49.63300 40.74400
H  6.36400 48.14200 37.91800
H  7.32700 49.38000 37.19200
H  4.77300 50.58000 37.64900
H  4.50000 48.95400 36.90300
H  9.84900 56.73700 37.71000
H  9.42900 55.15500 37.39900
H  10.24000 55.65000 39.03000
H  7.12000 60.58700 38.97900
H  6.64100 59.63800 40.39500
H  5.84400 59.26500 38.87500
H  2.18800 58.14000 40.66700
H  1.41500 56.56200 43.09800
H  2.20600 58.59200 43.29600
H  3.34600 59.40700 42.21400
H  3.79700 57.95800 43.19200
H  -0.29100 55.75400 40.87900
H  0.04400 57.39900 40.75600
H  -0.76600 56.89100 43.60200
H  -1.79300 56.20900 42.30400
H  -1.39400 57.90600 42.35800
H  -0.18400 51.97800 43.22000
H  0.58800 50.45500 43.91200
H  -0.18300 50.38000 42.37200
H  4.92900 48.35000 41.60200
H  4.54500 44.70100 39.53600
H  4.93500 45.68900 38.15500
H  3.16500 45.49100 38.90600

