158

Mg -0.10500 7.18600 26.55700
C  0.30800 9.37600 29.20800
C  0.52900 4.56700 28.86800
C  -0.59500 5.02400 24.24800
C  -0.05100 9.77200 24.38300
N  0.21700 6.94500 28.74100
C  0.21700 8.04200 29.62500
C  0.01000 7.54200 31.06400
C  0.74300 6.10300 30.85900
C  0.62400 5.87400 29.40200
C  2.22200 6.01300 31.26100
C  -1.48400 7.48400 31.39500
C  -1.78000 7.64900 32.91400
H  -0.64700 7.38700 33.88200
N  -0.03700 5.05200 26.53400
C  0.16900 4.20900 27.57000
C  0.09700 2.91000 27.07500
C  -0.30700 2.97300 25.70800
C  -0.31400 4.37200 25.42600
C  0.41700 1.69800 27.84700
C  -0.56400 1.88900 24.70000
O  -0.82400 2.10700 23.54000
C  -0.34200 0.46100 25.14800
N  -0.33500 7.34700 24.56700
C  -0.54000 6.30300 23.79100
C  -0.85600 6.70700 22.31300
C  -0.73700 8.28000 22.44900
C  -0.38500 8.53000 23.88300
C  0.16100 6.19800 21.27400
C  -1.97600 9.10000 21.95500
C  -1.85700 10.06200 20.77700
N  0.21100 9.20000 26.68300
C  0.32400 10.15900 25.69000
C  0.59600 11.42400 26.28200
C  0.49200 11.19800 27.70400
C  0.31200 9.80800 27.88100
C  0.63800 12.76700 25.65900
C  0.54400 11.83000 29.01100
O  0.70900 13.00900 29.39800
C  0.34100 10.60400 29.98500
C  1.47000 10.59200 30.92100
O  2.55100 10.08500 30.69100
O  1.21800 11.22800 32.13300
C  2.37200 11.43700 33.01100
H  0.65400 3.73300 29.56200
H  -0.89700 4.33900 23.45300
H  -0.11100 10.65900 23.74900
H  0.54200 8.20700 31.74400
H  0.20100 5.35500 31.43800
H  2.24900 5.27600 32.06400
H  2.59000 6.98700 31.58200
H  2.72700 5.58900 30.39300
H  -1.99300 6.62100 30.96500
H  -2.00200 8.29500 30.88400
H  -2.68400 7.11600 33.20800
H  -2.12800 8.66300 33.11000
H  -0.44300 1.03100 27.78400
H  0.44800 1.86400 28.92400
H  1.34800 1.20600 27.56300
H  0.67100 0.27800 25.50600
H  -0.46500 -0.19000 24.28300
H  -1.15600 0.38100 25.86800
H  -1.91400 6.45400 22.24400
H  0.08600 8.59000 21.80400
H  0.38800 5.15000 21.47400
H  1.09000 6.76800 21.27300
H  -0.35900 6.26500 20.31800
H  -2.44000 9.63300 22.78500
H  -2.74800 8.37400 21.69900
H  -2.04900 11.10700 21.02200
H  -2.56300 9.86400 19.97100
H  -0.88900 9.94900 20.29000
H  0.09700 13.47600 26.28600
H  0.27700 12.83600 24.63200
H  1.67400 13.10600 25.63600
H  -0.54800 10.68400 30.61000
H  2.81800 12.38100 32.69800
H  3.02700 10.56500 33.01900
H  2.02600 11.64000 34.02400
Mg 47.76000 25.33600 29.55700
C  48.76900 27.40200 31.97500
C  46.41600 23.25500 31.98300
C  46.93600 22.95000 27.19100
C  49.38600 27.21600 27.15600
N  47.56400 25.39800 31.69700
C  47.98600 26.39100 32.48700
C  47.78800 26.11600 33.92700
C  47.06000 24.74200 33.90100
C  46.97900 24.42700 32.43500
C  47.84500 23.61300 34.75400
C  46.93500 27.20500 34.79500
C  47.30700 27.25600 36.33300
H  46.16700 26.97700 37.30300
N  46.56200 23.40400 29.52900
C  46.11500 22.75500 30.64600
C  45.49300 21.48600 30.26600
C  45.60600 21.38700 28.83200
C  46.44100 22.56800 28.44500
C  44.79900 20.60600 31.23200
C  45.06400 20.28100 27.90600
O  45.36700 20.18200 26.74500
C  44.24200 19.18600 28.44000
N  48.20400 25.02100 27.46300
C  47.61600 24.11700 26.71800
C  47.61500 24.49200 25.20100
C  48.36400 25.85800 25.20100
C  48.70400 26.04700 26.69500
C  48.12100 23.51000 24.10100
C  47.50200 27.09800 24.73200
C  48.26100 28.03300 23.65100
N  48.84000 26.91500 29.50300
C  49.51700 27.60900 28.49100
C  50.10100 28.79500 28.99800
C  49.88700 28.72300 30.34200
C  49.15400 27.62200 30.60800
C  50.83700 29.79200 28.12300
C  50.14000 29.38500 31.61700
O  50.62000 30.47200 31.90400
C  49.43300 28.48800 32.75700
C  50.53700 27.97300 33.59000
O  51.61500 27.52100 33.21900
O  50.19700 28.24000 34.87500
C  51.24600 27.84300 35.83200
H  46.10800 22.59100 32.79300
H  46.59300 22.38500 26.32200
H  49.72800 27.88200 26.36100
H  48.74500 25.97800 34.43100
H  46.08100 24.58500 34.35300
H  48.13100 22.73800 34.17000
H  47.13500 23.28800 35.51500
H  48.77700 23.98800 35.17800
H  45.87700 27.16800 34.53400
H  47.23800 28.19600 34.45600
H  47.68900 28.25700 36.53400
H  48.03000 26.45200 36.47500
H  43.76200 20.64600 30.90000
H  44.84000 20.87100 32.28900
H  45.14400 19.59400 31.02000
H  43.74400 18.57900 27.68300
H  43.57700 19.60300 29.19600
H  44.98200 18.59200 28.97600
H  46.55900 24.67000 24.99600
H  49.35800 25.81500 24.75600
H  48.67600 22.67600 24.52900
H  48.68900 24.08200 23.36600
H  47.26600 23.13400 23.53900
H  47.28500 27.69300 25.61900
H  46.62300 26.73800 24.19800
H  49.29100 27.67700 23.63000
H  48.06300 29.03300 24.03600
H  47.95100 27.84500 22.62300
H  50.99900 29.58100 27.06600
H  51.81900 29.94500 28.57100
H  50.26500 30.71300 28.23800
H  48.74500 29.10400 33.33500
H  51.34200 26.76000 35.75600
H  50.76700 27.99500 36.79900
H  52.23600 28.25500 35.63600

