158

Mg 36.36700 1.67000 29.53500
C  34.19200 2.58800 31.91400
C  38.91600 1.65100 31.90700
C  38.60200 1.11300 27.07600
C  33.86600 2.00500 27.13500
N  36.52000 2.12100 31.67100
C  35.48400 2.45300 32.48200
C  35.83300 2.35400 33.93700
C  37.42400 2.33000 33.86900
C  37.65300 1.94100 32.41600
C  38.06500 3.68900 34.28000
C  35.20800 1.07500 34.56400
C  34.75900 1.20700 35.98200
H  35.10900 2.50300 36.74500
N  38.45800 1.40400 29.52900
C  39.32700 1.48900 30.61700
C  40.68300 1.17400 30.14200
C  40.66000 1.01000 28.74100
C  39.20400 1.17900 28.37300
C  41.86300 0.95900 31.16600
C  41.80800 0.72800 27.78800
O  41.64400 0.74000 26.57800
C  43.23900 0.53300 28.26500
N  36.33400 1.81900 27.39300
C  37.34100 1.31100 26.65900
C  36.98900 1.22200 25.18200
C  35.45700 1.46700 25.18100
C  35.17800 1.80700 26.60600
C  37.77400 2.13100 24.23500
C  34.67400 0.30100 24.48300
C  33.80000 -0.68600 25.34700
N  34.41600 2.14800 29.47800
C  33.51900 2.25900 28.45300
C  32.22600 2.65700 28.96000
C  32.43000 2.74300 30.32800
C  33.78900 2.48800 30.50500
C  31.01900 2.81400 28.23900
C  31.75400 2.92500 31.60100
O  30.58600 3.23100 31.89700
C  32.88200 2.88700 32.63700
C  32.95700 4.22100 33.41500
O  33.33700 5.24700 32.87600
O  32.33500 4.10700 34.65700
C  32.12200 5.30700 35.38600
H  39.67800 1.60600 32.68800
H  39.32700 0.92300 26.28100
H  33.06000 2.11100 26.40700
H  35.49100 3.31200 34.32900
H  37.80500 1.48200 34.43700
H  37.33300 4.35100 34.74200
H  38.51500 4.12600 33.38800
H  38.89600 3.65800 34.98500
H  35.93400 0.28000 34.39400
H  34.31100 0.77800 34.02100
H  35.12700 0.36900 36.57500
H  33.66900 1.24400 35.99300
H  42.38400 0.07800 30.79300
H  41.58900 0.72800 32.19600
H  42.48200 1.85600 31.17700
H  43.83200 0.51900 27.35100
H  43.22100 -0.51400 28.56900
H  43.55700 1.30200 28.96800
H  37.30900 0.20300 24.96600
H  35.20700 2.42500 24.72700
H  38.22800 2.86700 24.89900
H  37.08200 2.56600 23.51500
H  38.50100 1.55100 23.66700
H  35.52300 -0.26400 24.09900
H  34.08100 0.73200 23.67700
H  32.75600 -0.49000 25.10100
H  33.89800 -0.76500 26.42900
H  34.06900 -1.73200 25.19900
H  30.97900 3.68400 27.58400
H  30.20900 2.84700 28.96800
H  30.88300 1.99700 27.53000
H  32.56600 2.11500 33.33900
H  31.64200 5.08900 36.34000
H  31.43400 5.94700 34.83300
H  33.05100 5.86600 35.49600
Mg 29.43800 58.52400 41.14800
C  26.25200 57.02100 40.42100
C  30.93300 55.83800 39.74500
C  32.25800 60.28300 41.08900
C  27.60600 61.53200 41.88500
N  28.72000 56.73600 40.06500
C  27.36700 56.24900 39.97000
C  27.34300 55.03000 39.11000
C  28.76200 54.49300 39.25500
C  29.54400 55.74100 39.69800
C  28.92100 53.35400 40.27900
C  26.88400 55.45700 37.63300
C  25.85500 54.47300 36.95900
H  26.09200 54.00500 35.49300
N  31.34200 58.04500 40.69900
C  31.79500 56.86400 40.12600
C  33.22400 56.93400 40.07200
C  33.71700 58.16800 40.58200
C  32.43600 58.87900 40.81600
C  34.00800 55.72000 39.56200
C  35.18700 58.72400 40.72700
O  36.17800 58.00900 40.56300
C  35.42500 60.21700 41.16400
N  29.86300 60.61400 41.45500
C  31.14700 61.04900 41.42700
C  31.20300 62.47000 41.81400
C  29.73600 62.91100 42.18500
C  28.98400 61.65100 41.73700
C  32.37100 63.00300 42.65400
C  29.17700 64.29800 41.65000
C  28.50600 65.28800 42.68900
N  27.40000 59.12900 41.22300
C  26.83800 60.36500 41.51100
C  25.39300 60.25100 41.51500
C  25.14600 58.94700 41.04700
C  26.39700 58.32700 40.85300
C  24.36700 61.38800 41.84100
C  24.09100 58.00800 40.73700
O  22.88300 58.14800 40.71100
C  24.78500 56.72400 40.31500
C  24.49800 55.66900 41.27700
O  24.94600 55.70600 42.39500
O  23.89900 54.61000 40.66200
C  23.58100 53.49000 41.53300
H  31.35000 54.89600 39.38000
H  33.20400 60.82900 41.10900
H  26.91000 62.35300 42.06900
H  26.65100 54.32700 39.57400
H  29.02500 54.03400 38.30200
H  28.00700 53.11100 40.82100
H  29.58400 53.54900 41.12200
H  29.25700 52.44600 39.77900
H  27.77800 55.44500 37.01000
H  26.42900 56.44700 37.59400
H  24.82200 54.82100 36.93400
H  25.92200 53.53300 37.50800
H  34.28200 55.95700 38.53400
H  33.43400 54.79400 39.56300
H  34.86800 55.57800 40.21600
H  35.22700 60.85600 40.30300
H  36.49000 60.30800 41.38100
H  35.04600 60.46100 42.15600
H  31.36000 62.99200 40.87100
H  29.68800 62.96600 43.27200
H  32.88700 62.12300 43.03800
H  32.20600 63.56000 43.57600
H  33.01500 63.59000 42.00000
H  28.41900 64.11200 40.88800
H  29.92400 64.85900 41.08900
H  27.54300 65.72000 42.41700
H  29.19700 66.08700 42.95600
H  28.20400 64.83000 43.63100
H  24.80900 61.98900 42.63600
H  23.35900 61.15300 42.18300
H  24.05600 62.01500 41.00500
H  24.37300 56.36100 39.37400
H  22.60700 53.58100 42.01400
H  24.47700 53.23700 42.10000
H  23.39500 52.64200 40.87400

