158

Mg 46.42400 16.89200 28.10700
C  44.26700 16.67100 31.08600
C  48.56400 18.76400 29.97800
C  48.37300 16.96900 25.38200
C  43.95200 15.30000 26.29600
N  46.25700 17.83100 30.26400
C  45.44700 17.46800 31.31000
C  46.02200 17.94400 32.69100
C  47.33000 18.71400 32.17300
C  47.38300 18.46300 30.68100
C  47.28600 20.27600 32.50900
C  46.38400 16.69500 33.52700
C  47.49000 16.88800 34.65500
H  47.59800 18.33500 35.24900
N  48.15900 17.79400 27.74900
C  48.98300 18.49100 28.64400
C  50.22600 18.78600 28.05800
C  50.07200 18.50700 26.65800
C  48.81500 17.70400 26.54900
C  51.41900 19.34200 28.77600
C  51.03800 18.82200 25.43600
O  50.75500 18.66000 24.24700
C  52.41000 19.43200 25.75500
N  46.11600 16.32800 26.04500
C  47.14600 16.31100 25.19700
C  46.78000 15.71000 23.81100
C  45.35100 15.07100 24.11600
C  45.13000 15.60300 25.58900
C  46.69900 16.78800 22.63500
C  45.27700 13.53600 24.06100
C  44.26800 12.90000 22.96000
N  44.51400 16.16900 28.50300
C  43.65100 15.52300 27.67600
C  42.47600 15.03100 28.40800
C  42.75400 15.48800 29.79400
C  43.93200 16.21900 29.77600
C  41.38300 14.16900 27.87100
C  42.16900 15.55000 31.09400
O  41.06900 15.14800 31.46700
C  43.17400 16.21200 31.98900
C  42.48500 17.22400 32.75700
O  42.05200 18.29400 32.36200
O  42.48900 16.77200 34.03100
C  42.10100 17.64600 35.11600
H  49.29700 19.22400 30.64400
H  48.93900 17.22900 24.48500
H  43.21000 14.70200 25.76400
H  45.31800 18.60600 33.19500
H  48.31800 18.44600 32.54800
H  48.10500 20.58200 33.16000
H  46.41300 20.63900 33.05200
H  47.35900 20.85700 31.59000
H  46.63800 15.91000 32.81500
H  45.49000 16.32200 34.02800
H  48.46400 16.52600 34.32800
H  47.16700 16.33500 35.53700
H  52.20400 18.72000 28.34600
H  51.47900 19.17700 29.85200
H  51.46700 20.41800 28.61000
H  52.82600 19.75000 24.79900
H  52.94900 18.62600 26.25300
H  52.29400 20.30100 26.40200
H  47.45000 14.92700 23.45700
H  44.55900 15.49900 23.50200
H  47.66400 16.83700 22.13200
H  46.48700 17.77600 23.04400
H  45.91300 16.66500 21.89000
H  45.06000 13.09800 25.03500
H  46.27000 13.15100 23.82900
H  43.70100 13.75600 22.59600
H  43.67300 12.16500 23.50200
H  44.85800 12.44300 22.16600
H  41.50800 13.92500 26.81600
H  40.47900 14.77700 27.91400
H  41.25800 13.42000 28.65200
H  43.39400 15.34600 32.61400
H  41.15100 18.07100 34.79200
H  42.81900 18.45700 35.24100
H  42.10400 17.13900 36.08100
Mg 49.24700 36.08500 27.58800
C  47.48300 34.25400 30.06200
C  49.97400 38.53900 30.05900
C  51.13100 37.67000 25.30500
C  48.26300 33.81600 25.26100
N  48.69100 36.33300 29.81800
C  48.08000 35.41300 30.61500
C  48.09100 35.90300 32.10400
C  48.54400 37.37100 31.92700
C  49.03900 37.47400 30.45000
C  47.38700 38.39400 32.41800
C  49.19600 34.95500 32.87100
C  49.08000 34.72600 34.39500
H  48.29600 35.64300 35.24700
N  50.33400 37.86900 27.63300
C  50.52700 38.71000 28.75000
C  51.41900 39.80300 28.41700
C  51.72300 39.61300 26.98600
C  51.06300 38.36000 26.56100
C  51.55200 40.94900 29.37500
C  52.47400 40.53200 26.05100
O  52.65000 40.35300 24.88200
C  53.27700 41.72300 26.67300
N  49.57400 35.84500 25.53400
C  50.42800 36.60400 24.81000
C  50.35900 36.31500 23.32500
C  49.44200 35.08400 23.23600
C  49.08800 34.83500 24.77800
C  49.86500 37.44400 22.48400
C  50.05800 33.79100 22.59600
C  49.51300 33.42000 21.19100
N  48.21700 34.30800 27.59200
C  47.83600 33.56900 26.56900
C  46.80000 32.58300 27.00400
C  46.67100 32.81200 28.35000
C  47.53000 33.89800 28.68700
C  46.16900 31.57300 26.15500
C  46.05600 32.35700 29.51900
O  45.27800 31.43800 29.68300
C  46.48600 33.34500 30.61900
C  46.85300 32.63700 31.92300
O  47.83700 31.93800 32.05100
O  45.85000 32.89200 32.81500
C  45.91600 31.98400 34.00800
H  50.18800 39.30500 30.80800
H  51.62000 38.16300 24.46200
H  47.81400 33.10800 24.56200
H  47.12500 35.77800 32.59300
H  49.49700 37.55900 32.42100
H  46.42600 37.88400 32.48400
H  47.30300 39.27400 31.78100
H  47.69200 38.70700 33.41700
H  50.22600 35.15700 32.57700
H  49.20400 33.95500 32.43500
H  50.10100 34.65100 34.76900
H  48.83300 33.68500 34.60100
H  52.19500 41.76300 29.04100
H  52.08600 40.63500 30.27200
H  50.62300 41.49200 29.54900
H  53.85900 41.44300 27.55100
H  52.59100 42.53200 26.92300
H  53.89000 42.07800 25.84400
H  51.36600 36.00200 23.05000
H  48.45600 35.20100 22.78700
H  49.10800 37.96000 23.07500
H  49.34700 37.06800 21.60200
H  50.71900 38.06900 22.22200
H  49.82800 32.90400 23.18700
H  51.13800 33.93200 22.58700
H  48.78800 34.13900 20.81100
H  49.06500 32.42800 21.24700
H  50.30100 33.51500 20.44300
H  45.25800 32.02300 25.76000
H  45.86600 30.76200 26.81700
H  46.82000 31.26400 25.33700
H  45.58000 33.92900 30.78000
H  45.32200 32.49300 34.76700
H  46.89200 31.72300 34.41700
H  45.36700 31.07800 33.75000

