158

Mg 44.34300 5.88300 48.05200
C  42.40400 8.75900 47.31500
C  41.63900 3.91100 47.09300
C  46.33600 3.14200 48.18200
C  47.14600 8.02100 48.22300
N  42.30800 6.31000 47.22100
C  41.68300 7.52900 47.12600
C  40.22800 7.37500 46.93100
C  39.96900 5.84000 46.73500
C  41.40500 5.27100 47.08200
C  38.87600 5.24400 47.62900
C  39.69800 8.23900 45.76700
C  40.52200 8.23600 44.47400
H  39.82800 7.95900 43.13500
N  44.00800 3.79500 47.77000
C  42.82700 3.19000 47.39700
C  42.99700 1.76300 47.49500
C  44.38200 1.50900 47.71800
C  44.96700 2.85600 47.93500
C  41.87400 0.84500 47.49600
C  45.04000 0.07400 47.77800
O  44.31800 -0.90400 47.56500
C  46.49300 -0.14000 48.05300
N  46.41700 5.63300 48.00200
C  46.96100 4.37700 48.18400
C  48.50300 4.42000 48.44100
C  48.77700 5.98000 48.34200
C  47.35000 6.57900 48.24100
C  48.89400 3.62800 49.76000
C  49.66800 6.28200 47.05900
C  51.17400 6.28000 47.31000
N  44.76500 8.04400 47.82600
C  45.93100 8.76100 47.91200
C  45.59200 10.18400 47.82700
C  44.27600 10.25100 47.51500
C  43.80600 8.90900 47.54700
C  46.55300 11.40900 48.07600
C  43.06500 11.11600 47.35700
O  42.90100 12.32700 47.40200
C  41.80400 10.12300 47.28000
C  40.79500 10.50600 48.28800
O  40.34000 9.78600 49.16900
O  40.17000 11.69400 47.93100
C  38.86500 12.10200 48.55700
H  40.82400 3.23900 46.81300
H  46.98000 2.26500 48.28600
H  48.01900 8.67600 48.27200
H  39.69300 7.68300 47.83000
H  39.68200 5.62900 45.70500
H  38.11400 6.02300 47.65000
H  39.28000 5.00800 48.61400
H  38.42500 4.42800 47.06500
H  39.42200 9.25700 46.04200
H  38.75700 7.74500 45.52500
H  41.18200 7.38600 44.64800
H  41.01100 9.21000 44.44100
H  41.82500 0.17800 46.63600
H  40.92400 1.38100 47.49900
H  41.93400 0.29200 48.43300
H  47.07600 0.39100 47.30100
H  46.60000 -1.21400 47.90100
H  46.75000 0.25200 49.03700
H  48.93500 3.86300 47.60900
H  49.30100 6.29900 49.24300
H  48.41700 2.64900 49.73200
H  48.52700 4.20000 50.61200
H  49.96400 3.43300 49.83200
H  49.42900 7.29100 46.72200
H  49.41100 5.57700 46.26900
H  51.75200 5.93000 46.45400
H  51.43500 5.69200 48.19100
H  51.54500 7.27700 47.54700
H  46.34100 12.15600 47.31200
H  47.61600 11.17800 47.99900
H  46.46400 11.83200 49.07700
H  41.28100 10.42100 46.37100
H  37.94800 11.74500 48.08900
H  38.68500 13.17500 48.62000
H  38.84900 11.66600 49.55600
Mg 49.41100 34.89300 26.62400
C  47.32300 33.53800 29.30500
C  50.09700 37.59400 28.66600
C  50.90900 36.26700 24.07000
C  48.76500 31.92600 24.95100
N  48.77900 35.44800 28.73700
C  48.00800 34.71200 29.65700
C  47.99300 35.46100 30.98600
C  48.47100 36.87600 30.58100
C  49.14300 36.64900 29.21000
C  47.37300 38.01600 30.76400
C  48.99700 34.84700 32.00100
C  48.65900 34.99900 33.51200
H  47.43500 35.90000 33.82200
N  50.38500 36.66600 26.32800
C  50.60100 37.65700 27.33800
C  51.34300 38.75000 26.79400
C  51.62500 38.36000 25.45000
C  50.99400 37.01700 25.26800
C  51.72600 40.02000 27.56500
C  52.56100 39.06100 24.34700
O  52.75900 38.57200 23.22200
C  53.32900 40.31400 24.70900
N  49.82400 34.21700 24.79600
C  50.43800 34.98800 23.86900
C  50.63000 34.26200 22.53100
C  50.02800 32.82900 22.77400
C  49.50700 33.01000 24.31100
C  49.95600 35.03500 21.37200
C  50.92200 31.60800 22.75300
C  50.64200 30.75900 21.54300
N  48.31000 33.06900 26.94800
C  48.17000 31.96300 26.20800
C  47.20500 31.03500 26.78500
C  46.85100 31.67600 27.95400
C  47.59000 32.90700 28.08300
C  46.57300 29.74500 26.17700
C  45.93000 31.53900 29.04600
O  45.06500 30.68200 29.18200
C  46.19800 32.80300 29.98000
C  46.41300 32.24000 31.39600
O  47.36800 31.67800 31.77400
O  45.28100 32.43100 32.13200
C  45.03200 31.75600 33.41300
H  50.26700 38.45800 29.31200
H  51.36500 36.62300 23.14400
H  48.65800 31.06600 24.28600
H  46.95400 35.50100 31.31100
H  49.30800 37.14300 31.22700
H  47.59000 38.72700 31.56100
H  46.39200 37.56800 30.92200
H  47.18800 38.68300 29.92200
H  49.96000 35.34900 31.91600
H  49.16300 33.77000 31.98900
H  49.50400 35.38800 34.07900
H  48.27200 34.02000 33.79600
H  50.99600 40.19800 28.35500
H  51.49500 40.83300 26.87700
H  52.79100 40.04400 27.79500
H  52.79200 41.21000 24.39800
H  54.33100 40.21900 24.28900
H  53.44900 40.16000 25.78100
H  51.68200 34.13000 22.27700
H  49.19100 32.74700 22.08100
H  50.09800 34.52100 20.42100
H  50.33900 36.05500 21.35600
H  48.87200 35.04100 21.48100
H  50.87400 31.07300 23.70200
H  51.95900 31.93500 22.68200
H  51.41800 30.94500 20.80000
H  49.62000 30.88900 21.18800
H  50.90700 29.75200 21.86300
H  47.03000 28.94500 26.76000
H  46.85500 29.73700 25.12400
H  45.50000 29.61000 26.31300
H  45.38300 33.51200 30.12900
H  45.02900 32.52500 34.18600
H  45.80300 31.02400 33.65300
H  44.11200 31.17100 33.44100

