158

Mg 48.17300 16.72500 28.92000
C  46.23100 16.39900 31.93400
C  50.29000 18.52800 30.63800
C  49.48500 17.48700 26.08500
C  45.41400 15.27300 27.19800
N  48.24200 17.38900 31.00700
C  47.45400 17.03500 32.07700
C  48.01200 17.56000 33.44800
C  49.11300 18.56700 32.84900
C  49.19800 18.16700 31.40000
C  48.83600 20.07200 32.97600
C  48.62700 16.47300 34.38000
C  48.16200 16.48600 35.89800
H  47.76000 17.84700 36.54200
N  49.73900 17.71800 28.44600
C  50.59400 18.32000 29.29500
C  51.77200 18.75900 28.63300
C  51.56900 18.49900 27.30000
C  50.22200 17.86300 27.22600
C  53.07400 19.11400 29.35400
C  52.49900 18.84100 26.12400
O  52.25400 18.51400 25.00800
C  53.81700 19.44600 26.26400
N  47.48200 16.53700 26.90400
C  48.27500 16.86100 25.86500
C  47.72600 16.46800 24.46000
C  46.47500 15.60800 24.92200
C  46.46800 15.80300 26.42900
C  47.34900 17.62900 23.70000
C  46.47200 14.10500 24.51500
C  45.85800 13.66600 23.13200
N  46.20200 15.91500 29.41900
C  45.20700 15.42300 28.56800
C  44.08300 15.01300 29.42700
C  44.46800 15.29400 30.70400
C  45.73100 15.82300 30.68800
C  42.70900 14.53400 28.97600
C  44.05100 15.27100 32.12600
O  43.03700 14.88400 32.64300
C  45.14600 15.97100 32.92300
C  44.49100 17.04500 33.69300
O  44.24200 18.11200 33.19000
O  44.01000 16.56600 34.95600
C  43.16200 17.53600 35.73800
H  51.00700 19.12500 31.20600
H  50.04200 17.73100 25.17700
H  44.56500 14.72000 26.79000
H  47.22700 18.16400 33.90200
H  50.09100 18.50700 33.32600
H  49.59200 20.58800 33.56900
H  47.87800 20.20900 33.47700
H  48.85700 20.46500 31.96000
H  49.71200 16.57500 34.35700
H  48.38300 15.52200 33.90700
H  48.91500 16.02300 36.53700
H  47.27400 15.85800 35.96800
H  53.87200 18.43200 29.06000
H  52.98800 19.01900 30.43600
H  53.37700 20.14100 29.14500
H  53.71700 20.25500 26.98700
H  54.20000 19.67100 25.26800
H  54.61400 18.77600 26.58700
H  48.60800 15.97300 24.05400
H  45.56000 16.06700 24.54800
H  46.34100 17.56900 23.29100
H  48.03600 17.67800 22.85400
H  47.47900 18.55300 24.26400
H  46.16900 13.59500 25.42900
H  47.54500 13.94400 24.41800
H  46.50700 13.08300 22.47900
H  45.35100 14.51000 22.66600
H  45.06400 12.93400 23.28000
H  42.25700 15.21100 28.25100
H  42.06500 14.40700 29.84700
H  42.75400 13.54000 28.53200
H  45.81600 15.34300 33.51100
H  42.12400 17.37400 35.44600
H  43.45700 18.56900 35.55500
H  43.14700 17.28500 36.79900
Mg 42.23400 40.87100 26.50400
C  41.39300 43.39800 28.87200
C  43.00400 38.94100 29.06900
C  42.79400 38.58900 24.21800
C  41.79300 43.35400 23.98700
N  42.11200 41.12500 28.67000
C  41.69600 42.18800 29.44200
C  41.73300 41.89300 30.93800
C  42.66300 40.59300 30.92000
C  42.60400 40.15400 29.44400
C  44.09200 40.84200 31.49100
C  40.28600 41.69100 31.55600
C  39.88300 42.57900 32.74400
H  39.49100 41.76300 33.96000
N  42.82600 39.00100 26.65000
C  43.05600 38.32500 27.79500
C  43.55800 37.02900 27.42300
C  43.47400 36.94100 25.96500
C  42.94300 38.19900 25.55400
C  43.80300 36.00400 28.41000
C  43.83500 35.76700 25.11200
O  43.79600 35.76900 23.89100
C  44.46100 34.58400 25.57100
N  42.34800 41.06600 24.35500
C  42.54100 39.89800 23.62300
C  42.39200 40.16400 22.15200
C  42.20100 41.68800 22.08500
C  42.10200 42.08900 23.54300
C  43.45000 39.55600 21.15700
C  40.96000 42.11500 21.16000
C  41.27500 43.08600 19.99200
N  41.68400 42.94500 26.37800
C  41.53900 43.78400 25.29800
C  41.14000 45.11100 25.77000
C  40.97900 44.94800 27.19800
C  41.38800 43.65500 27.49800
C  40.84200 46.30700 24.92100
C  40.41700 45.58200 28.37100
O  39.72900 46.63100 28.45000
C  40.77700 44.63100 29.54100
C  41.71000 45.24900 30.50900
O  42.88200 45.46900 30.41300
O  41.01600 45.58700 31.57300
C  41.74900 46.25900 32.69500
H  43.25800 38.35000 29.95100
H  42.86800 37.86200 23.40600
H  41.54000 44.12800 23.25800
H  42.21500 42.67900 31.51900
H  42.27000 39.77000 31.51700
H  44.84900 41.08800 30.74600
H  44.43700 39.97900 32.06000
H  44.07900 41.73500 32.11600
H  40.00200 40.65300 31.72700
H  39.63600 41.95400 30.72100
H  38.94700 43.01400 32.39600
H  40.52300 43.43400 32.96200
H  44.87700 35.83700 28.32500
H  43.46800 34.97600 28.27200
H  43.44500 36.41100 29.35500
H  43.73300 33.91300 26.02600
H  45.10700 34.95100 26.36900
H  45.03900 34.11000 24.77800
H  41.41800 39.70700 21.97400
H  43.06200 42.16100 21.61400
H  44.09900 40.25400 20.62700
H  42.92100 38.97800 20.40000
H  44.11400 38.90000 21.71900
H  40.09100 42.50200 21.69200
H  40.57900 41.23600 20.63900
H  42.34100 43.20600 19.79800
H  40.86700 44.07000 20.22300
H  40.79700 42.81800 19.05000
H  41.26900 46.35200 23.91900
H  41.09100 47.13300 25.58600
H  39.75400 46.24700 24.90700
H  39.83500 44.28600 29.96700
H  42.59600 46.87100 32.38600
H  42.09600 45.49600 33.39200
H  41.08300 46.92800 33.24000

