158

Mg 8.52500 3.63700 27.37600
C  10.00100 2.09100 30.21200
C  6.48100 5.44600 29.48000
C  6.98800 4.97200 24.64400
C  10.30300 1.53800 25.22100
N  8.30500 3.72600 29.61100
C  8.98700 2.96700 30.55200
C  8.53500 3.47500 31.98000
C  7.46300 4.53900 31.70800
C  7.37700 4.56400 30.13500
C  6.09000 4.25500 32.37700
C  9.79800 3.94500 32.80600
C  9.66500 5.07400 33.81700
H  10.26200 4.86900 35.25700
N  6.99700 5.01000 27.14300
C  6.28200 5.62500 28.10000
C  5.39200 6.58900 27.46500
C  5.77600 6.64900 26.10800
C  6.58500 5.44800 25.90400
C  4.36800 7.34900 28.29200
C  5.24300 7.55700 25.05200
O  5.38700 7.33300 23.86400
C  4.65100 8.84800 25.41200
N  8.39600 3.09700 25.14700
C  7.83700 3.87500 24.25600
C  8.31800 3.57000 22.83900
C  9.35800 2.41600 23.06000
C  9.36300 2.32200 24.54100
C  7.06800 3.10700 21.85700
C  10.75600 2.73100 22.47900
C  11.51400 1.61300 21.80200
N  9.78900 2.16400 27.58000
C  10.50700 1.45400 26.65100
C  11.39100 0.41400 27.27400
C  11.24900 0.76400 28.65500
C  10.25400 1.76100 28.80300
C  12.22600 -0.56900 26.51100
C  11.66400 0.29800 30.00800
O  12.43200 -0.55000 30.38200
C  11.00000 1.28500 31.01900
C  10.21500 0.47700 32.03600
O  9.18800 -0.18200 31.79000
O  10.84000 0.59100 33.30000
C  10.03100 0.08900 34.39200
H  5.75200 6.03800 30.03800
H  6.61300 5.49600 23.76200
H  10.84100 0.82300 24.59600
H  8.00300 2.62600 32.41000
H  7.82700 5.55400 31.87200
H  5.71800 5.23100 32.68700
H  6.28000 3.56000 33.19500
H  5.41100 3.79900 31.65600
H  10.52100 4.35500 32.10100
H  10.20600 3.09300 33.35100
H  8.60300 5.19300 34.03000
H  10.18300 5.93300 33.39000
H  3.50000 7.26300 27.63800
H  4.59500 8.40800 28.41900
H  4.05800 6.89700 29.23400
H  4.59200 9.45400 24.50800
H  5.26700 9.42600 26.10100
H  3.65100 8.68900 25.81700
H  8.73100 4.50700 22.46500
H  8.89700 1.55500 22.57700
H  6.13700 3.10800 22.42300
H  7.13900 2.08900 21.47400
H  6.93400 3.71200 20.96000
H  11.27600 3.13800 23.34600
H  10.70300 3.56100 21.77400
H  11.90800 1.69600 20.78900
H  10.82700 0.77700 21.93200
H  12.43200 1.49200 22.37800
H  12.92300 -0.19000 25.76300
H  11.57000 -1.33600 26.10200
H  12.68600 -1.07700 27.35900
H  11.67400 1.87900 31.63600
H  9.72100 -0.93400 34.18000
H  9.17100 0.70900 34.64500
H  10.60500 0.10500 35.31900
Mg -5.53800 25.59800 26.32100
C  -4.22300 27.05100 29.23000
C  -7.31000 23.43700 28.27800
C  -6.22300 24.05600 23.46900
C  -3.13900 27.69000 24.52600
N  -5.58600 25.25800 28.49200
C  -5.07600 26.00300 29.53500
C  -5.66700 25.52300 30.94400
C  -6.45900 24.26700 30.56800
C  -6.40800 24.24100 29.00900
C  -5.92600 22.96900 31.20100
C  -6.37600 26.64800 31.61100
C  -6.27700 26.84900 33.16300
H  -5.61500 25.71500 33.97900
N  -6.72200 23.94500 25.93700
C  -7.41900 23.25400 26.87200
C  -8.14700 22.22500 26.12300
C  -7.92900 22.45000 24.68800
C  -6.88900 23.49800 24.62500
C  -9.05800 21.24100 26.85600
C  -8.53300 21.87700 23.48500
O  -8.31300 22.19800 22.36900
C  -9.62700 20.80500 23.60300
N  -4.80500 25.92500 24.31300
C  -5.22700 25.04100 23.35600
C  -4.46000 25.32900 21.94500
C  -3.84000 26.76300 22.28400
C  -3.87200 26.82500 23.81300
C  -3.37700 24.26600 21.49100
C  -4.45400 27.96000 21.48900
C  -5.37000 29.00200 22.19100
N  -3.98200 27.08200 26.77800
C  -3.15200 27.79600 25.95400
C  -2.32800 28.69400 26.74600
C  -2.76700 28.52800 28.06000
C  -3.72800 27.45100 27.98800
C  -1.30900 29.75700 26.26900
C  -2.64900 28.93200 29.43400
O  -2.07800 29.83400 30.03900
C  -3.58500 27.94800 30.23300
C  -2.82800 27.21300 31.24700
O  -2.14500 26.18600 31.00800
O  -2.93600 27.77900 32.48200
C  -2.02200 27.14200 33.44900
H  -7.71200 22.67400 28.94700
H  -6.32100 23.59100 22.48600
H  -2.43600 28.31300 23.96900
H  -4.88700 25.16300 31.61400
H  -7.53100 24.43700 30.66200
H  -5.50700 22.22700 30.52100
H  -6.79600 22.52300 31.68200
H  -5.18900 23.09500 31.99500
H  -7.43900 26.58300 31.38100
H  -6.15000 27.59200 31.11600
H  -7.29800 26.89000 33.54300
H  -5.76900 27.81000 33.24200
H  -8.75300 21.09200 27.89200
H  -9.04300 20.26700 26.36600
H  -10.10600 21.53900 26.89700
H  -9.32700 19.77800 23.81100
H  -10.11100 20.76100 22.62800
H  -10.41600 21.18000 24.25600
H  -5.30200 25.50900 21.27800
H  -2.79900 26.74900 21.96100
H  -2.41100 24.76000 21.39000
H  -3.81900 23.86100 20.58000
H  -3.28900 23.41000 22.16000
H  -5.03200 27.59700 20.63900
H  -3.59900 28.48400 21.06200
H  -5.60400 28.70100 23.21200
H  -6.27700 29.00400 21.58600
H  -4.81600 29.94100 22.22300
H  -1.39100 30.65000 26.88800
H  -1.56800 30.00200 25.23900
H  -0.33700 29.26400 26.24100
H  -4.35600 28.62800 30.59500
H  -1.03000 27.58500 33.36300
H  -1.90800 26.08000 33.22900
H  -2.43400 27.14900 34.45800

