158

Mg 10.22300 46.58800 25.27500
C  7.90200 46.74400 27.83800
C  12.54300 47.93000 27.34600
C  12.37500 46.87000 22.67800
C  7.57000 46.26700 22.91100
N  10.20500 47.21700 27.36100
C  9.16200 47.07800 28.24000
C  9.60300 47.54800 29.61400
C  10.94500 48.35500 29.32500
C  11.30500 47.75200 27.96100
C  10.77800 49.86400 29.28900
C  9.47200 46.48600 30.82300
C  10.35700 46.70000 31.98200
H  10.29400 45.77300 33.16100
N  12.20500 47.18200 25.07400
C  13.04900 47.65300 26.07200
C  14.42300 47.65600 25.66600
C  14.37500 47.20600 24.26600
C  12.94000 47.13700 23.93800
C  15.55600 48.11700 26.48600
C  15.51200 46.92900 23.33800
O  15.37200 46.60500 22.14200
C  17.00400 47.07800 23.79100
N  9.99000 46.59200 23.04500
C  11.09300 46.60800 22.22900
C  10.62800 46.45000 20.79200
C  9.05500 46.27300 20.87100
C  8.83900 46.27300 22.37500
C  11.13300 47.56000 19.82300
C  8.47900 45.01300 20.08000
C  7.54000 45.40700 18.89300
N  8.13500 46.45000 25.27200
C  7.17900 46.41900 24.26600
C  5.78200 46.34400 24.86400
C  6.06400 46.44200 26.25700
C  7.50400 46.57400 26.47100
C  4.43400 46.22500 24.22900
C  5.42400 46.50000 27.59400
O  4.24900 46.39600 27.98200
C  6.57400 46.64500 28.64900
C  6.49000 45.67300 29.81000
O  7.06400 44.61700 29.89700
O  5.75600 46.16700 30.79000
C  5.77400 45.43500 32.05600
H  13.22300 48.35800 28.08500
H  13.11500 46.77000 21.88100
H  6.73200 46.11100 22.22900
H  8.86200 48.27300 29.95000
H  11.71800 47.96600 29.98800
H  11.50600 50.26700 29.99400
H  9.82300 50.26600 29.62500
H  11.16200 50.31800 28.37600
H  9.66600 45.44800 30.55300
H  8.45000 46.62800 31.17400
H  10.18000 47.69800 32.38400
H  11.38300 46.60400 31.62700
H  15.17400 48.22600 27.50100
H  15.86600 49.09900 26.12800
H  16.47000 47.52400 26.45400
H  17.61500 46.68400 22.97900
H  17.32000 46.57300 24.70400
H  17.16900 48.15500 23.76100
H  11.14400 45.52900 20.52000
H  8.59300 47.17700 20.47500
H  10.28900 48.15400 19.47000
H  11.59800 46.98000 19.02600
H  11.91500 48.26500 20.10300
H  8.06200 44.29900 20.79000
H  9.34500 44.56500 19.59300
H  6.92800 44.57300 18.55000
H  8.22900 45.58500 18.06700
H  6.95500 46.29300 19.14100
H  3.66300 46.71500 24.82400
H  4.14300 45.17500 24.22200
H  4.50700 46.49200 23.17400
H  6.45500 47.59400 29.17400
H  5.06000 44.62500 31.90800
H  5.47600 46.05700 32.90000
H  6.76500 45.07200 32.33000
Mg -6.23600 25.37500 25.68400
C  -4.80100 26.45000 28.62500
C  -8.30300 23.29800 27.48100
C  -7.27700 24.00700 22.81800
C  -3.68400 27.01700 23.93000
N  -6.37900 24.79000 27.74200
C  -5.78500 25.46000 28.81400
C  -6.44700 25.18900 30.18700
C  -7.19800 23.89400 29.81400
C  -7.37100 23.98100 28.25900
C  -6.63300 22.56700 30.19900
C  -7.40700 26.28800 30.77600
C  -7.62500 26.28000 32.31400
H  -6.84500 25.26800 33.19000
N  -7.61900 24.03600 25.22300
C  -8.47700 23.34800 26.10000
C  -9.55100 22.72400 25.35900
C  -9.15500 22.76600 23.98100
C  -8.00900 23.62200 23.97600
C  -10.75100 21.99800 25.98800
C  -9.87400 22.05300 22.79600
O  -9.44800 22.14300 21.63700
C  -11.02500 21.14300 23.04800
N  -5.58500 25.48800 23.64900
C  -6.12000 24.79000 22.63800
C  -5.40000 25.04100 21.27700
C  -4.35100 26.11800 21.65400
C  -4.54100 26.23900 23.18300
C  -4.90900 23.83500 20.43300
C  -4.59900 27.53300 21.02800
C  -3.67800 27.79000 19.86600
N  -4.51800 26.45500 26.14300
C  -3.61800 27.07100 25.31000
C  -2.70100 27.82800 26.08800
C  -3.17200 27.76400 27.45100
C  -4.23500 26.87600 27.40600
C  -1.54900 28.66900 25.60800
C  -2.93700 28.19700 28.75900
O  -2.15600 29.04800 29.20500
C  -3.96000 27.31900 29.65100
C  -3.23400 26.53900 30.67300
O  -2.65400 25.52600 30.37900
O  -3.14900 27.17500 31.87900
C  -2.14300 26.72500 32.86800
H  -9.15900 23.01600 28.09800
H  -7.69800 23.59500 21.89800
H  -2.88400 27.64100 23.52600
H  -5.56100 25.09800 30.81500
H  -8.18400 23.83000 30.27400
H  -6.28100 21.98400 29.34700
H  -7.34900 21.90400 30.68400
H  -5.83900 22.64200 30.94200
H  -8.40600 26.31000 30.34100
H  -6.98000 27.27400 30.59500
H  -8.66900 26.23400 32.62500
H  -7.29600 27.27000 32.62800
H  -10.80200 20.92600 25.79500
H  -11.65600 22.40600 25.53700
H  -10.90400 22.25800 27.03500
H  -11.49700 20.63300 22.20800
H  -11.83500 21.77300 23.41400
H  -10.76500 20.31900 23.71200
H  -6.05800 25.48500 20.53000
H  -3.36200 25.69000 21.49100
H  -5.44900 23.65100 19.50400
H  -4.95100 22.88100 20.95800
H  -3.85700 23.97300 20.18300
H  -4.36500 28.28500 21.78200
H  -5.64100 27.74800 20.79300
H  -4.34500 27.94100 19.01800
H  -2.94900 27.02900 19.59100
H  -2.97600 28.60800 20.03300
H  -1.88400 29.66400 25.31400
H  -0.99700 28.23900 24.77300
H  -0.88900 28.91200 26.44100
H  -4.69900 27.92500 30.17500
H  -2.52300 25.96500 33.55100
H  -1.92200 27.54500 33.55100
H  -1.26500 26.29500 32.38700

