158

Mg 7.82500 2.04200 28.08100
C  9.24000 0.79500 31.17100
C  5.75500 3.97300 30.01000
C  6.25100 2.78800 25.35000
C  9.47700 -0.52400 26.47200
N  7.53400 2.28100 30.30900
C  8.31000 1.81600 31.36400
C  8.00800 2.57200 32.73500
C  6.73000 3.36600 32.30500
C  6.63800 3.27100 30.77000
C  5.41300 2.71000 32.89100
C  9.24800 3.47800 33.14000
C  9.54500 3.60300 34.68100
H  8.58200 3.06500 35.76000
N  6.21900 3.23400 27.68200
C  5.51800 4.03000 28.57800
C  4.69200 5.02900 27.83800
C  4.80800 4.68600 26.46700
C  5.72100 3.49900 26.46300
C  3.91900 6.18600 28.60100
C  4.39900 5.40600 25.16300
O  4.65200 5.07200 23.97500
C  3.30800 6.49900 25.34500
N  7.73200 1.12400 26.18000
C  7.12600 1.67700 25.19500
C  7.25600 0.98900 23.81300
C  8.26500 -0.11800 24.31200
C  8.53100 0.16200 25.74800
C  5.92500 0.50300 23.32200
C  9.54200 -0.29000 23.33700
C  10.60100 0.80300 23.45000
N  9.09500 0.37200 28.66600
C  9.75300 -0.49200 27.86600
C  10.75600 -1.21600 28.63300
C  10.50700 -0.81200 29.94800
C  9.44100 0.12300 29.97600
C  11.74200 -2.14000 28.17400
C  11.03100 -0.98800 31.33500
O  11.85200 -1.84500 31.76600
C  10.22900 0.07700 32.17400
C  9.53100 -0.66600 33.29700
O  8.59800 -1.46600 33.15700
O  10.00700 -0.28500 34.55700
C  9.30600 -1.04400 35.65100
H  5.20700 4.66600 30.65300
H  5.72400 3.05700 24.43200
H  10.08300 -1.31100 26.01800
H  7.88800 1.84200 33.53600
H  6.94700 4.39200 32.60100
H  4.79700 3.43400 33.42400
H  5.70000 1.94700 33.61400
H  4.73600 2.17800 32.22200
H  9.08700 4.48400 32.75300
H  10.03400 3.05700 32.51300
H  9.65200 4.67000 34.87700
H  10.56100 3.20800 34.67600
H  2.85600 5.95600 28.66800
H  4.01000 7.09500 28.00500
H  4.40100 6.42000 29.55000
H  2.66700 6.67800 24.48200
H  3.89900 7.36600 25.63800
H  2.75100 6.41800 26.27900
H  7.73000 1.63400 23.07400
H  7.81800 -1.10900 24.22500
H  5.08000 0.48800 24.01000
H  5.87100 -0.51200 22.92700
H  5.66700 1.19800 22.52300
H  9.22500 -0.43800 22.30500
H  9.88100 -1.26000 23.70200
H  10.35000 1.54600 24.20800
H  10.93000 1.34000 22.56000
H  11.49600 0.43300 23.95000
H  12.57000 -2.09200 28.88100
H  11.94800 -1.87400 27.13700
H  11.33800 -3.15200 28.13900
H  10.86700 0.72800 32.77200
H  9.96400 -1.85900 35.95400
H  8.25200 -1.32100 35.61100
H  9.12500 -0.37800 36.49400
Mg 9.43500 48.09400 26.98600
C  7.48500 47.79000 29.92700
C  11.98800 49.45100 28.81500
C  11.23800 48.36100 24.15200
C  6.69300 46.86900 25.11900
N  9.61800 48.72300 29.14000
C  8.79200 48.24200 30.11000
C  9.59000 48.37900 31.42600
C  10.75900 49.35400 31.05800
C  10.86600 49.10100 29.58600
C  10.54400 50.83700 31.44900
C  10.01700 46.99300 31.99400
C  9.66000 46.77500 33.50500
H  10.52800 47.53200 34.60600
N  11.34800 48.78100 26.49000
C  12.27100 49.24800 27.41400
C  13.53100 49.42800 26.75300
C  13.31100 49.01700 25.39200
C  11.92100 48.76200 25.26800
C  14.80500 49.84100 27.61700
C  14.32100 48.83200 24.29800
O  14.03100 48.74200 23.09200
C  15.79600 48.83500 24.61100
N  8.98000 47.75300 24.96700
C  9.89700 47.93200 23.97200
C  9.43700 47.43400 22.58500
C  8.02800 46.72800 22.98000
C  7.90300 47.08100 24.47500
C  9.36200 48.51400 21.48500
C  7.86100 45.19100 22.85300
C  8.97000 44.34600 23.50800
N  7.41300 47.60600 27.38900
C  6.46600 47.11000 26.48600
C  5.22800 46.93300 27.26400
C  5.56200 47.16700 28.57600
C  6.91800 47.51800 28.67000
C  3.92400 46.48800 26.71400
C  5.08800 47.19700 29.95300
O  3.97400 47.10900 30.48000
C  6.31100 47.39800 30.85400
C  6.55900 46.02300 31.42700
O  7.17900 45.12700 30.90400
O  6.02800 45.93400 32.68600
C  6.21000 44.74000 33.48900
H  12.81500 49.71100 29.47800
H  11.79300 48.35500 23.21200
H  5.79800 46.72500 24.51000
H  9.02200 48.79200 32.26000
H  11.70500 49.03900 31.50000
H  9.73700 51.13200 30.77900
H  11.44700 51.34900 31.11700
H  10.39800 50.97800 32.52000
H  11.05400 46.73100 31.78500
H  9.38600 46.21200 31.56900
H  9.98600 45.74300 33.63100
H  8.59900 46.73900 33.75200
H  15.42300 48.97000 27.83800
H  14.53600 50.32100 28.55800
H  15.41600 50.56500 27.07800
H  16.08000 48.27000 25.49900
H  16.00400 49.90400 24.64700
H  16.34200 48.38600 23.78100
H  10.07900 46.63800 22.20800
H  7.19600 47.26900 22.53000
H  9.90700 49.43100 21.71000
H  8.33300 48.80600 21.27700
H  9.73900 48.04300 20.57600
H  7.52000 44.84000 21.87900
H  6.94000 44.98600 23.39700
H  8.48900 43.61300 24.15500
H  9.73000 44.91500 24.04500
H  9.43900 43.89500 22.63400
H  4.14600 45.72400 25.96900
H  3.46400 47.27900 26.12100
H  3.23400 46.04200 27.43000
H  6.11900 48.04200 31.71200
H  5.26800 44.44600 33.95100
H  6.93300 44.84400 34.29800
H  6.39200 43.74100 33.09200

