158

Mg 0.09800 7.59800 26.87400
C  1.07400 9.90300 29.38100
C  -0.09200 5.14300 29.27800
C  -0.32100 5.47200 24.33200
C  0.85100 10.17600 24.50200
N  0.53100 7.50400 29.02700
C  0.71500 8.64300 29.83800
C  0.53600 8.24700 31.28900
C  0.45000 6.68900 31.28400
C  0.22400 6.44100 29.78700
C  1.72700 5.97400 31.75300
C  -0.69000 8.89400 32.00000
C  -0.64500 9.01100 33.56900
H  0.54400 8.63600 34.39200
N  -0.12300 5.53100 26.79200
C  -0.14100 4.68700 27.93800
C  -0.29000 3.29000 27.39600
C  -0.25100 3.38400 26.02000
C  -0.18000 4.86700 25.62900
C  -0.63600 2.11900 28.31200
C  -0.27400 2.26300 25.05000
O  -0.14600 2.48000 23.84700
C  -0.28700 0.81200 25.51800
N  -0.06100 7.81800 24.71500
C  -0.27600 6.75800 23.80400
C  -0.36500 7.22500 22.40200
C  0.18800 8.68000 22.50900
C  0.32400 8.93900 24.01200
C  0.41800 6.43900 21.35700
C  -0.66800 9.66400 21.67500
C  -1.82700 10.30000 22.45800
N  0.70700 9.55900 26.89200
C  0.88500 10.52400 25.87400
C  1.38100 11.75600 26.34300
C  1.49100 11.52100 27.72100
C  0.98300 10.21700 28.05200
C  1.74700 12.96900 25.54600
C  1.80700 12.19600 29.04700
O  2.33200 13.29800 29.23300
C  1.56300 11.12000 30.10300
C  2.81700 10.81700 30.85900
O  3.71100 10.04500 30.56500
O  2.89200 11.63900 31.92900
C  4.15200 11.65500 32.75000
H  -0.17600 4.37900 30.05300
H  -0.45800 4.71900 23.55200
H  1.09000 10.96300 23.78400
H  1.47700 8.58300 31.72500
H  -0.41200 6.24200 31.78000
H  2.41300 6.71700 32.15900
H  2.20700 5.76600 30.79700
H  1.66100 5.01600 32.26900
H  -1.46700 8.16300 31.77500
H  -1.08200 9.76100 31.46800
H  -1.57400 8.55900 33.91400
H  -0.71000 10.08600 33.73700
H  -1.59500 1.69300 28.01800
H  -0.70600 2.45200 29.34700
H  0.15100 1.36500 28.30300
H  -1.22000 0.56300 26.02100
H  0.55000 0.79100 26.21600
H  -0.09500 0.12000 24.69800
H  -1.38600 7.16300 22.02600
H  1.17800 8.77000 22.06000
H  0.61000 5.41200 21.66800
H  1.36000 6.96500 21.19900
H  -0.18800 6.24600 20.47200
H  -1.08500 9.11400 20.83300
H  -0.02200 10.50700 21.43100
H  -1.92000 9.85200 23.44700
H  -2.79000 10.32400 21.94800
H  -1.60000 11.35500 22.61200
H  2.49100 13.58900 26.04800
H  0.82400 13.50100 25.31800
H  2.20600 12.65100 24.61000
H  0.82100 11.51500 30.79700
H  4.94900 10.95700 32.49400
H  3.87100 11.43600 33.78000
H  4.62000 12.63100 32.61600
Mg 35.58100 2.37200 30.29300
C  33.31300 3.59900 32.75000
C  37.95700 2.54000 32.72800
C  37.62800 1.30100 28.02700
C  32.99100 2.65200 28.03600
N  35.54400 3.01400 32.50300
C  34.49700 3.37800 33.30100
C  34.89400 3.47500 34.80200
C  36.50500 3.35200 34.73500
C  36.70700 3.01600 33.25000
C  37.30200 4.59600 35.22500
C  34.13200 2.42400 35.57500
C  33.58500 2.75400 36.92800
H  34.38500 3.86200 37.62600
N  37.50600 2.03100 30.32300
C  38.27200 2.01000 31.47100
C  39.64100 1.54300 31.06500
C  39.59600 1.12900 29.68400
C  38.16700 1.39700 29.31000
C  40.82800 1.50500 32.00000
C  40.63200 0.54400 28.82600
O  40.29000 -0.03800 27.78900
C  42.07200 0.63200 29.18400
N  35.35000 2.21500 28.15800
C  36.40300 1.74000 27.46700
C  35.94400 1.29200 25.98100
C  34.42700 1.80500 26.07500
C  34.19400 2.24600 27.46400
C  36.80500 1.88600 24.90200
C  33.35400 0.85100 25.34900
C  32.56900 1.44500 24.15300
N  33.56500 2.97500 30.29100
C  32.61800 3.04900 29.30800
C  31.38200 3.43300 29.75600
C  31.63300 3.73100 31.07700
C  32.92200 3.40300 31.39600
C  30.19300 3.64300 28.99800
C  30.98400 4.20000 32.32600
O  29.88300 4.71100 32.43700
C  32.03700 4.16800 33.43300
C  32.18300 5.52900 34.18100
O  32.40500 6.63800 33.72200
O  31.89100 5.29100 35.51200
C  31.82500 6.58500 36.28700
H  38.77900 2.32100 33.41200
H  38.32800 0.97100 27.25600
H  32.13000 2.68500 27.36600
H  34.61900 4.46400 35.16800
H  36.80800 2.51200 35.36100
H  36.61800 5.43000 35.38800
H  37.96700 4.93300 34.43000
H  37.92700 4.35700 36.08600
H  34.71600 1.50700 35.64700
H  33.24400 2.11800 35.02400
H  33.44000 1.86600 37.54400
H  32.58300 3.14900 36.76400
H  41.41900 2.38200 31.73500
H  41.38300 0.58200 31.83300
H  40.65500 1.69500 33.06000
H  42.71800 0.42300 28.33100
H  42.19400 -0.16900 29.91300
H  42.32600 1.63300 29.53200
H  35.88800 0.20700 25.89000
H  34.30600 2.78100 25.60600
H  37.65700 2.49600 25.20100
H  36.22900 2.30700 24.07800
H  37.37200 1.08100 24.43400
H  32.69600 0.53700 26.16000
H  33.74500 -0.08700 24.95600
H  33.03700 2.33700 23.73800
H  31.52000 1.62000 24.39100
H  32.48200 0.63200 23.43200
H  29.78300 2.68700 28.67400
H  30.54300 4.20100 28.12900
H  29.38800 4.14800 29.53200
H  31.80500 3.40900 34.18000
H  30.93500 7.16300 36.03600
H  32.75300 7.15500 36.25300
H  31.70300 6.32900 37.34000

