158

Mg 41.43700 41.20800 27.15400
C  41.00100 43.78400 29.62400
C  42.32600 39.12100 29.76800
C  42.19000 38.95400 24.90500
C  40.89800 43.59500 24.71200
N  41.58200 41.48500 29.33800
C  41.21700 42.51100 30.19900
C  41.28700 42.26300 31.74000
C  41.70200 40.77700 31.69300
C  41.90900 40.38800 30.16500
C  42.80500 40.42500 32.70700
C  39.90600 42.46300 32.53900
C  39.97100 43.42700 33.67700
H  39.21900 43.08500 34.98900
N  42.11200 39.35700 27.31700
C  42.56400 38.71000 28.42200
C  43.06900 37.40900 28.01100
C  43.03700 37.32100 26.56500
C  42.46400 38.59000 26.22800
C  43.43700 36.29200 29.15400
C  43.55500 36.19000 25.67200
O  43.58700 36.21100 24.41600
C  44.06900 34.92000 26.31800
N  41.65800 41.26200 25.08800
C  41.76800 40.13900 24.36800
C  41.62300 40.42200 22.87100
C  40.82200 41.76500 22.93200
C  41.15200 42.27000 24.33300
C  42.99400 40.46600 22.13100
C  39.20400 41.75200 22.71000
C  38.38400 40.55300 23.25000
N  41.09800 43.19600 27.14200
C  40.86500 44.06200 26.03500
C  40.59100 45.41400 26.49600
C  40.67400 45.28900 27.88500
C  40.95000 43.93300 28.25600
C  40.39000 46.60200 25.58200
C  40.46500 46.04000 29.12300
O  40.21700 47.19300 29.31700
C  40.61000 45.05100 30.26300
C  41.79200 45.49000 31.08300
O  42.94700 45.58900 30.73700
O  41.27600 45.97700 32.31400
C  42.26900 46.55900 33.27600
H  42.56600 38.41300 30.56400
H  42.15800 38.13100 24.18900
H  40.55800 44.27000 23.92400
H  42.05300 42.90500 32.17400
H  40.81500 40.22000 31.99800
H  43.84100 40.52700 32.38400
H  42.78400 39.35300 32.90500
H  42.70000 40.99700 33.62900
H  39.55300 41.52600 32.96900
H  39.14500 42.84100 31.85600
H  39.54000 44.37900 33.36700
H  41.01000 43.50500 33.99800
H  43.79700 36.81600 30.03900
H  44.21800 35.57600 28.90100
H  42.57200 35.72800 29.50300
H  43.43700 34.63400 27.15900
H  45.04600 35.28300 26.63700
H  44.25700 34.17800 25.54200
H  40.95500 39.70900 22.38900
H  41.30100 42.38100 22.17100
H  43.82800 40.37900 22.82700
H  43.01400 41.43500 21.63300
H  43.21200 39.66200 21.42800
H  39.04600 41.86000 21.63700
H  38.78800 42.61700 23.22500
H  37.61600 40.41800 22.48800
H  37.87300 40.80000 24.18000
H  38.97700 39.64900 23.39400
H  40.95000 46.49200 24.65300
H  40.76000 47.45300 26.15400
H  39.33700 46.77600 25.36100
H  39.64700 45.13900 30.76600
H  42.56500 45.88200 34.07800
H  41.80400 47.49000 33.60000
H  43.21300 46.84100 32.81000
Mg 15.90900 51.63400 25.89600
C  17.85700 50.67500 28.59200
C  13.35300 52.48100 27.91100
C  13.92700 52.27200 23.09900
C  18.42300 50.48200 23.71200
N  15.58000 51.51700 28.09200
C  16.58200 51.21600 29.02500
C  16.07600 51.50600 30.42200
C  14.59500 51.94800 30.20600
C  14.48800 52.07300 28.65600
C  13.56300 50.86300 30.81200
C  17.04400 52.55700 31.08500
C  17.18000 52.49800 32.60500
H  16.32800 51.44900 33.35700
N  13.93800 52.51700 25.58700
C  12.99700 52.64400 26.58500
C  11.78000 53.02100 25.95700
C  11.98600 53.13800 24.59000
C  13.39100 52.71800 24.33000
C  10.58900 53.30600 26.80200
C  10.92700 53.57700 23.52600
O  11.16200 53.71900 22.31000
C  9.58800 54.12400 23.87800
N  16.15900 51.57000 23.71400
C  15.16700 51.82800 22.80200
C  15.55900 51.48100 21.35600
C  17.08200 51.14400 21.56900
C  17.30300 51.05900 23.10200
C  14.62800 50.41800 20.78800
C  18.10900 52.03100 20.83900
C  18.34100 53.44300 21.35000
N  17.69500 50.69000 26.10500
C  18.66300 50.35700 25.11500
C  19.74000 49.80500 25.77000
C  19.52900 49.85100 27.13400
C  18.24500 50.45400 27.29200
C  20.99600 49.30200 25.10500
C  19.97300 49.52800 28.40500
O  20.97000 48.89900 28.75100
C  18.92900 50.05100 29.48200
C  18.48700 48.94100 30.40700
O  17.76800 48.00900 30.03100
O  19.03500 49.12600 31.64900
C  18.66600 48.03100 32.59500
H  12.47200 52.63900 28.53700
H  13.24900 52.25200 22.24300
H  19.13500 50.12300 22.96600
H  16.14600 50.56700 30.97100
H  14.40400 52.87200 30.75200
H  12.74300 50.72300 30.10800
H  13.04500 51.36600 31.62900
H  14.02500 49.96300 31.21800
H  16.65000 53.51300 30.74100
H  18.02400 52.51700 30.60700
H  16.99600 53.50200 32.98600
H  18.20600 52.19100 32.81000
H  10.67200 52.75700 27.74000
H  9.62000 53.02700 26.38800
H  10.56300 54.36800 27.04800
H  9.73000 55.01300 24.49100
H  8.94900 53.43500 24.43100
H  9.18900 54.46600 22.92300
H  15.40200 52.40400 20.79600
H  17.21700 50.11600 21.23200
H  15.25600 49.67900 20.28900
H  14.01000 50.88300 20.02000
H  13.87900 49.97900 21.44700
H  17.72300 52.11300 19.82200
H  19.02800 51.46500 20.68300
H  18.25400 54.22700 20.59800
H  19.32000 53.58800 21.80700
H  17.66400 53.76400 22.14200
H  21.31200 49.90400 24.25300
H  20.92000 48.26100 24.79200
H  21.79000 49.40900 25.84500
H  19.39200 50.85600 30.05200
H  18.02600 47.19400 32.31700
H  18.25600 48.44800 33.51600
H  19.53700 47.57500 33.06500

