158

Mg 46.61200 16.00600 28.35500
C  44.30100 15.53900 31.00700
C  48.70900 17.47700 30.62900
C  48.49900 16.53200 25.79600
C  43.88400 14.87700 26.15900
N  46.49000 16.54000 30.52400
C  45.49300 16.06800 31.38100
C  45.85500 16.50300 32.85500
C  47.23500 17.22900 32.73900
C  47.48800 17.09000 31.21900
C  47.20300 18.76900 33.12100
C  46.06600 15.23800 33.73000
C  45.38400 15.40200 35.13500
H  45.23000 16.79500 35.71700
N  48.35800 16.88000 28.15900
C  49.14600 17.37500 29.24000
C  50.42800 17.86400 28.79100
C  50.41800 17.61700 27.38900
C  49.07900 16.95700 27.05300
C  51.39700 18.43200 29.79500
C  51.54700 17.66700 26.39600
O  51.31100 17.47000 25.23200
C  52.90400 18.17000 26.74200
N  46.30700 15.70500 26.30400
C  47.27200 16.00000 25.40500
C  46.70300 15.86400 24.00600
C  45.31100 15.14600 24.16200
C  45.14100 15.31500 25.60500
C  46.52600 17.28600 23.34000
C  45.36000 13.68200 23.61900
C  44.22600 13.31300 22.71100
N  44.58800 15.14600 28.50400
C  43.69000 14.68700 27.52700
C  42.58700 14.02300 28.19200
C  42.76900 14.39600 29.56500
C  43.97400 15.09300 29.64500
C  41.35500 13.48300 27.58700
C  42.14100 14.44700 30.88700
O  41.05800 14.08700 31.27500
C  43.14900 15.12600 31.85800
C  42.48300 16.22500 32.57400
O  42.47000 17.39900 32.24600
O  41.85300 15.76800 33.72400
C  41.23200 16.66000 34.76400
H  49.42000 17.81100 31.38700
H  49.07100 16.51500 24.86600
H  43.12000 14.51100 25.46900
H  45.04100 17.18400 33.10400
H  48.04400 16.76700 33.30500
H  46.21700 18.97000 33.53900
H  47.31100 19.39100 32.23200
H  47.95000 19.15500 33.81500
H  47.12500 14.99300 33.81000
H  45.67200 14.43200 33.11000
H  46.04900 14.76700 35.72000
H  44.43100 14.87400 35.16800
H  52.45200 18.39100 29.52300
H  51.44500 17.86300 30.72300
H  51.13800 19.43900 30.12300
H  53.20600 17.39300 27.44500
H  52.82900 19.07700 27.34200
H  53.57200 18.40000 25.91200
H  47.45200 15.28400 23.46700
H  44.53000 15.69300 23.63400
H  46.36400 17.21400 22.26500
H  47.33200 17.99000 23.55100
H  45.65400 17.63100 23.89600
H  45.54000 12.96900 24.42400
H  46.24600 13.65400 22.98400
H  44.44500 12.53900 21.97600
H  44.00600 14.24300 22.18700
H  43.38100 13.03600 23.34300
H  41.63200 12.65300 26.93700
H  40.84500 14.24200 26.99300
H  40.56700 13.12400 28.24900
H  43.60400 14.40800 32.53900
H  40.26300 16.18200 34.90400
H  41.13400 17.70500 34.46800
H  41.88100 16.70600 35.63900
Mg -11.43400 16.00500 42.82000
C  -7.86400 16.03700 42.37000
C  -11.48900 19.21000 41.93300
C  -14.98300 15.90100 42.54800
C  -11.28200 12.51000 42.97000
N  -9.84000 17.37000 41.95000
C  -8.42900 17.23600 41.97300
C  -7.73700 18.62600 41.84700
C  -8.97700 19.57800 41.90800
C  -10.19500 18.63300 41.96500
C  -8.90700 20.58000 43.05800
C  -6.78300 18.82800 40.57500
C  -5.28200 19.16500 40.83500
H  -4.87600 20.26500 39.91600
N  -12.96200 17.34600 42.12600
C  -12.74200 18.68100 41.84800
C  -14.01700 19.33100 41.53300
C  -15.04600 18.35700 41.71400
C  -14.34100 17.08000 42.17500
C  -14.03000 20.80100 40.95900
C  -16.46700 18.66800 41.64500
O  -16.82800 19.83800 41.43100
C  -17.60500 17.62200 41.73200
N  -12.93400 14.44800 42.61500
C  -14.29100 14.71200 42.72100
C  -14.96300 13.42600 43.19000
C  -13.83400 12.33700 42.89600
C  -12.55800 13.17000 42.87400
C  -15.38700 13.60200 44.67000
C  -13.94900 11.57800 41.57800
C  -14.65300 10.20200 41.56700
N  -9.89200 14.52100 43.02000
C  -9.97400 13.15500 43.04100
C  -8.67600 12.57000 42.98100
C  -7.82500 13.67400 42.84700
C  -8.58800 14.86300 42.77400
C  -8.41100 11.17800 42.90300
C  -6.40900 14.06800 42.70300
O  -5.43100 13.33600 42.82500
C  -6.39700 15.68300 42.42600
C  -5.67800 16.33800 43.56500
O  -6.13700 16.90300 44.55800
O  -4.33100 16.11600 43.35300
C  -3.40500 16.74900 44.32800
H  -11.38800 20.28900 41.79900
H  -16.05700 15.95300 42.74000
H  -11.31800 11.42100 43.03500
H  -7.15000 18.81000 42.74700
H  -8.96400 20.18100 40.99900
H  -9.62300 20.18700 43.78000
H  -9.28100 21.52700 42.66800
H  -7.92500 20.67300 43.52200
H  -7.28700 19.44000 39.82800
H  -6.77400 17.85300 40.08800
H  -4.64100 18.30800 40.63100
H  -5.13200 19.36100 41.89700
H  -14.25800 20.65200 39.90300
H  -13.02000 21.20200 41.03300
H  -14.70700 21.49800 41.45300
H  -18.54300 18.01400 41.33700
H  -17.74500 17.33300 42.77300
H  -17.33100 16.80900 41.06000
H  -15.89700 13.24000 42.66000
H  -13.63100 11.65300 43.72000
H  -16.47600 13.62300 44.62200
H  -15.05400 14.51800 45.15600
H  -15.01900 12.75900 45.25400
H  -12.92800 11.53000 41.20000
H  -14.59600 12.17000 40.93100
H  -13.92700 9.43300 41.30100
H  -15.47600 10.07200 40.86400
H  -14.94300 10.22600 42.61700
H  -9.10500 10.86300 43.68300
H  -7.47300 10.77400 43.28400
H  -8.72500 10.76300 41.94600
H  -5.86500 15.74100 41.47700
H  -2.89500 15.91500 44.81100
H  -3.90400 17.36600 45.07500
H  -2.66000 17.31400 43.76800

