158

Mg 17.93800 -1.25700 27.52000
C  17.13800 0.52100 30.46100
C  19.68600 -3.53000 29.57500
C  19.13300 -2.67900 24.74800
C  16.31700 1.14100 25.64700
N  18.42700 -1.33200 29.86000
C  17.95300 -0.55100 30.81300
C  18.35000 -1.10600 32.20200
C  19.09400 -2.46200 31.87100
C  18.99100 -2.50400 30.34300
C  20.54000 -2.56100 32.43000
C  17.19000 -1.49800 33.16000
C  17.41900 -1.14000 34.63800
H  18.70500 -0.44600 35.05600
N  19.24000 -2.84600 27.21700
C  19.85300 -3.65800 28.19100
C  20.72900 -4.61800 27.49200
C  20.63000 -4.32200 26.09400
C  19.57900 -3.29200 25.95000
C  21.60200 -5.55500 28.30400
C  21.46700 -4.91300 24.90700
O  21.33500 -4.52400 23.76400
C  22.49700 -5.88300 25.15400
N  17.74500 -0.88100 25.49200
C  18.32200 -1.55900 24.51300
C  18.09100 -0.97400 23.11700
C  16.91900 0.01400 23.39800
C  16.98500 0.09800 24.93100
C  19.38400 -0.30200 22.60200
C  15.49600 -0.35700 22.77200
C  14.78100 0.83500 22.07700
N  16.93600 0.48200 27.88700
C  16.25800 1.29800 27.00700
C  15.48700 2.30000 27.76100
C  15.76800 1.98600 29.08500
C  16.72500 0.93600 29.10400
C  14.49900 3.37400 27.26900
C  15.53500 2.42000 30.48400
O  14.81500 3.36700 30.83800
C  16.36100 1.49400 31.39200
C  17.25000 2.32500 32.21100
O  18.28200 2.74500 31.78100
O  16.61900 2.59500 33.40600
C  17.28600 3.49700 34.32900
H  20.42600 -4.03600 30.19800
H  19.47200 -3.12100 23.80900
H  15.75900 1.94200 25.15900
H  19.02900 -0.35800 32.61100
H  18.60100 -3.37500 32.20400
H  20.78800 -1.64700 32.97100
H  21.30100 -2.56600 31.65000
H  20.77100 -3.39800 33.09000
H  16.88100 -2.53300 33.01700
H  16.32100 -0.90400 32.87900
H  17.17400 -2.00700 35.25200
H  16.63400 -0.42600 34.88900
H  22.24200 -5.07400 29.04300
H  22.35900 -6.19700 27.85300
H  20.99600 -6.32400 28.78400
H  23.44300 -5.70100 25.66300
H  22.62000 -6.45800 24.23600
H  22.08100 -6.74700 25.67200
H  17.79800 -1.67000 22.33100
H  17.24400 1.02600 23.16000
H  19.71800 -0.76400 21.67200
H  20.21200 -0.43100 23.29900
H  19.34500 0.77600 22.44600
H  14.82900 -0.70500 23.56200
H  15.65200 -1.19700 22.09600
H  14.56700 0.37800 21.11100
H  15.40000 1.72300 21.95600
H  13.84900 1.11000 22.57100
H  13.71800 3.00600 26.60400
H  15.10400 4.09600 26.72000
H  14.08700 3.81200 28.17800
H  15.67700 0.96600 32.05700
H  16.70100 4.41500 34.26600
H  18.32100 3.66000 34.02900
H  17.34800 3.07200 35.33100
Mg 45.22800 3.15800 47.73200
C  43.67600 6.03500 46.71000
C  42.42400 1.35500 47.08000
C  47.08500 0.33000 47.48200
C  48.24400 5.03900 48.00900
N  43.26000 3.69800 47.01200
C  42.80700 4.93400 46.63300
C  41.26100 4.94500 46.27300
C  40.85200 3.46500 46.66900
C  42.27300 2.81400 46.93700
C  39.84600 3.29300 47.87200
C  41.10000 5.37800 44.79900
C  39.80100 6.26800 44.59400
H  38.95000 5.96500 43.32000
N  44.77400 1.08700 47.56500
C  43.55700 0.51700 47.34100
C  43.68400 -0.91200 47.27700
C  45.06400 -1.22300 47.38800
C  45.72600 0.05700 47.47800
C  42.57100 -1.91900 46.75400
C  45.66400 -2.63600 47.31800
O  44.92800 -3.58300 47.02000
C  47.12400 -2.78600 47.66700
N  47.35000 2.78300 47.41300
C  47.82100 1.53700 47.54100
C  49.33500 1.53100 47.67700
C  49.71500 3.06200 47.74500
C  48.37500 3.69100 47.70700
C  50.11600 0.52700 48.61100
C  50.61200 3.55100 46.56400
C  51.65000 4.62000 46.89300
N  45.86300 5.15100 47.62300
C  47.05900 5.77800 47.79000
C  46.97800 7.17600 47.53300
C  45.65800 7.35700 46.96500
C  45.00400 6.06700 47.14200
C  48.09500 8.13200 47.62800
C  44.74100 8.26900 46.33900
O  44.96200 9.37800 45.85600
C  43.40300 7.55800 46.27600
C  42.45400 8.10400 47.33800
O  42.20500 7.60800 48.41400
O  41.79900 9.15800 46.74100
C  40.55800 9.53600 47.46800
H  41.46200 0.84400 47.01000
H  47.83600 -0.46300 47.50700
H  49.15100 5.59500 48.25900
H  40.80100 5.66900 46.94600
H  40.50600 2.95400 45.77000
H  39.41000 4.21800 48.25000
H  40.48000 2.94000 48.68500
H  39.00000 2.63100 47.68700
H  41.05100 4.53600 44.10900
H  41.98100 5.93400 44.47800
H  40.15100 7.29700 44.50800
H  39.23300 6.15200 45.51700
H  42.32400 -2.70000 47.47300
H  42.71100 -2.53000 45.86300
H  41.64800 -1.36300 46.59100
H  47.78200 -2.39200 46.89200
H  47.24300 -3.86900 47.63800
H  47.39100 -2.40100 48.65100
H  49.60700 1.28000 46.65200
H  50.12300 3.34500 48.71500
H  49.47000 -0.26400 48.99000
H  50.50800 1.15600 49.41000
H  50.96900 0.06000 48.11900
H  50.07000 3.88100 45.67700
H  51.22900 2.75900 46.14200
H  51.77800 5.37800 46.12100
H  52.58400 4.10900 47.12500
H  51.23200 5.21600 47.70400
H  48.56900 7.92300 48.58700
H  47.65600 9.12000 47.76500
H  48.83300 8.16000 46.82600
H  43.04600 7.64300 45.24900
H  40.88100 10.01000 48.39500
H  39.89100 8.67800 47.54900
H  40.00400 10.33200 46.96900

