158

Mg 24.64300 -6.79000 47.16000
C  26.71500 -4.23100 45.95500
C  22.30800 -5.93600 44.78700
C  22.83500 -9.37000 48.15500
C  27.34400 -7.97400 49.03100
N  24.63400 -5.38400 45.47700
C  25.49500 -4.34800 45.25200
C  25.11400 -3.47900 44.12300
C  23.65600 -3.98300 43.71200
C  23.45400 -5.18300 44.68600
C  22.51400 -2.94400 43.79000
C  26.10800 -3.52700 42.89400
C  26.55100 -2.21500 42.22300
H  26.60200 -2.10700 40.68200
N  22.79100 -7.55600 46.49500
C  21.94600 -7.02300 45.55900
C  20.72500 -7.78500 45.50500
C  20.82000 -8.58500 46.67000
C  22.18400 -8.52600 47.16800
C  19.60100 -7.44400 44.49900
C  19.73100 -9.61800 47.05500
O  18.69700 -9.64900 46.33900
C  19.84900 -10.51800 48.30700
N  25.09100 -8.57300 48.24600
C  24.15300 -9.38900 48.64700
C  24.62000 -10.46300 49.65900
C  26.08800 -10.04600 49.75400
C  26.20300 -8.78200 48.94600
C  23.81600 -10.37900 50.99000
C  27.06400 -11.17900 49.28500
C  27.92700 -11.74200 50.39500
N  26.60800 -6.15200 47.61200
C  27.59800 -6.75500 48.31400
C  28.81900 -5.97400 48.32500
C  28.44500 -4.94800 47.49000
C  27.14600 -5.14700 46.98800
C  30.09700 -6.26800 48.96800
C  28.96100 -3.65300 46.80500
O  30.00000 -3.06500 46.82600
C  27.82600 -3.18200 45.85600
C  27.38100 -1.89500 46.32800
O  26.83200 -1.73100 47.39500
O  27.60000 -0.97200 45.37900
C  27.20900 0.39500 45.83200
H  21.63700 -5.45300 44.07200
H  22.24900 -10.21300 48.52600
H  28.22500 -8.28500 49.59700
H  25.16900 -2.47400 44.54100
H  23.65700 -4.37200 42.69400
H  22.99200 -1.96700 43.86000
H  21.77400 -2.99800 44.58900
H  21.98100 -2.92500 42.84000
H  25.79400 -4.20400 42.09900
H  27.01500 -4.06000 43.18100
H  27.58900 -2.10600 42.53800
H  26.15700 -1.35200 42.76000
H  19.62500 -8.25400 43.76900
H  19.70600 -6.47400 44.01400
H  18.65800 -7.41400 45.04500
H  20.27600 -10.17100 49.24800
H  20.45300 -11.35700 47.96200
H  18.85000 -10.88300 48.54400
H  24.55800 -11.47900 49.26900
H  26.23500 -9.86600 50.81900
H  23.19900 -9.48100 50.95000
H  24.48400 -10.45100 51.84800
H  23.18200 -11.26600 51.02700
H  27.72100 -10.88800 48.46600
H  26.49500 -12.01500 48.87800
H  27.92600 -11.12500 51.29400
H  28.96300 -11.83800 50.07100
H  27.63700 -12.72700 50.76300
H  30.30500 -7.33700 48.92200
H  30.15300 -5.97400 50.01600
H  30.85600 -5.71000 48.41900
H  28.14400 -3.10900 44.81600
H  27.16400 0.93700 44.88800
H  27.88200 0.84700 46.56000
H  26.19800 0.49500 46.22500
Mg 47.47000 25.13100 28.60300
C  47.96400 27.41500 31.22200
C  46.22600 22.88000 30.87900
C  47.32200 22.95500 26.13200
C  48.76200 27.50200 26.45900
N  47.13300 25.16300 30.76800
C  47.37000 26.24100 31.60100
C  46.83600 25.98100 33.08400
C  46.71900 24.38100 33.01600
C  46.72000 24.06700 31.47700
C  47.60500 23.41200 33.82200
C  45.57200 26.81400 33.42900
C  44.90300 26.40000 34.70100
H  45.12600 27.16400 36.02300
N  46.95000 23.20000 28.58800
C  46.31700 22.46600 29.58300
C  46.02200 21.13300 29.06400
C  46.37000 21.10800 27.66500
C  46.91400 22.44100 27.38800
C  45.33700 20.08100 29.94600
C  46.31100 19.87200 26.69800
O  46.81100 19.90100 25.56500
C  45.60800 18.65400 27.12400
N  48.02800 25.17000 26.57000
C  47.82700 24.17500 25.72500
C  48.01700 24.57000 24.22300
C  48.32800 26.04300 24.33600
C  48.40800 26.23900 25.86600
C  49.09600 23.65100 23.54800
C  47.30900 27.00900 23.73400
C  45.78100 27.04900 24.07700
N  48.17600 27.06100 28.76600
C  48.70500 27.87200 27.78200
C  49.13500 29.18600 28.31800
C  48.81100 29.00600 29.71300
C  48.29000 27.70700 29.88500
C  49.77900 30.34100 27.73800
C  48.75300 29.72700 30.96700
O  49.16000 30.86000 31.25000
C  48.19700 28.72900 31.95400
C  49.03800 28.63700 33.12500
O  50.02200 27.94300 33.33900
O  48.49400 29.49100 34.09800
C  49.15400 29.53800 35.42100
H  45.86800 22.14400 31.60200
H  47.13700 22.27000 25.30200
H  49.10000 28.32200 25.82200
H  47.62600 26.31000 33.75900
H  45.74700 24.08000 33.40700
H  46.84500 22.88400 34.39700
H  48.36700 23.94700 34.38900
H  47.95500 22.68500 33.08900
H  44.85800 26.81000 32.60500
H  45.84600 27.82600 33.72700
H  45.08600 25.35200 34.93500
H  43.83600 26.51400 34.51300
H  44.44800 19.69600 29.44500
H  45.05700 20.37900 30.95600
H  45.94500 19.25300 30.31100
H  46.18900 18.11200 27.87000
H  45.64300 18.01600 26.24100
H  44.55800 18.84300 27.34400
H  47.12900 24.42600 23.60700
H  49.31300 26.32700 23.96600
H  50.08500 24.11000 23.52200
H  48.94300 23.56600 22.47200
H  49.03800 22.71000 24.09500
H  47.39500 26.72600 22.68500
H  47.79800 27.98100 23.68800
H  45.53400 26.40800 24.92300
H  45.12400 26.74100 23.26300
H  45.50900 28.05100 24.41100
H  49.40800 30.56400 26.73800
H  50.86300 30.37400 27.84600
H  49.41300 31.15000 28.37000
H  47.23800 29.20500 32.16000
H  50.22200 29.35400 35.29900
H  48.70200 28.80600 36.09000
H  48.98800 30.53500 35.82900

