158

Mg 47.96600 34.86800 26.18100
C  46.44900 33.62600 29.27700
C  48.45100 37.79700 27.90900
C  49.07900 35.99900 23.34500
C  47.31000 31.77500 24.81300
N  47.52400 35.52100 28.37500
C  46.98200 34.88300 29.44200
C  47.23100 35.67900 30.78600
C  47.48100 37.08800 30.20300
C  47.87100 36.79400 28.70800
C  46.22400 38.08400 30.30300
C  48.39900 35.30900 31.76600
C  47.99100 35.00300 33.20800
H  46.76000 35.61900 33.78300
N  48.56800 36.63400 25.68700
C  48.83900 37.68400 26.55300
C  49.55400 38.73800 25.85000
C  49.73600 38.25300 24.49300
C  49.07800 36.92500 24.41300
C  49.94900 40.09900 26.51900
C  50.46100 38.90200 23.36600
O  50.45700 38.44100 22.24200
C  51.22800 40.25100 23.64500
N  47.99900 34.03400 24.26300
C  48.67400 34.64800 23.26300
C  48.66500 33.78000 22.00100
C  48.28800 32.34200 22.56300
C  47.84300 32.73300 23.93900
C  47.69900 34.34600 20.97600
C  49.52200 31.27500 22.61700
C  49.16300 29.93300 21.92800
N  47.00600 33.15600 26.79900
C  46.76900 31.96300 26.07500
C  45.99600 31.02000 26.82600
C  45.83900 31.64300 28.10300
C  46.49800 32.90800 28.04600
C  45.52400 29.69700 26.38400
C  45.15800 31.56900 29.45600
O  44.40500 30.74900 29.88900
C  45.61100 32.76300 30.25300
C  46.46400 32.23400 31.38900
O  47.69900 32.24200 31.39900
O  45.66700 31.84600 32.48500
C  46.35100 31.35300 33.66700
H  48.37100 38.81800 28.28700
H  49.53100 36.40200 22.43600
H  47.25800 30.79400 24.33500
H  46.31000 35.72900 31.36700
H  48.27200 37.59300 30.75800
H  46.45700 38.92500 30.95600
H  45.29400 37.60900 30.61600
H  46.05700 38.46700 29.29600
H  49.12100 36.12600 31.78000
H  48.97100 34.44200 31.43200
H  48.88700 35.25900 33.77400
H  47.95700 33.93600 33.42600
H  50.11700 40.97600 25.89400
H  50.81200 40.09400 27.18500
H  49.05300 40.42500 27.04600
H  51.91100 40.32800 22.79900
H  51.77100 40.08200 24.57500
H  50.51300 41.07200 23.58300
H  49.66900 33.66600 21.59200
H  47.44100 31.98100 21.97900
H  46.80400 33.72700 20.91600
H  48.14900 34.59000 20.01400
H  47.38300 35.31600 21.35900
H  49.69500 30.87900 23.61700
H  50.43400 31.61700 22.12700
H  50.02200 29.43300 21.48000
H  48.52700 30.19100 21.08100
H  48.64200 29.30700 22.65300
H  46.38900 29.05900 26.20300
H  45.04400 29.85600 25.41800
H  44.85900 29.26600 27.13300
H  44.77100 33.32800 30.65700
H  46.07400 30.30600 33.78800
H  45.81000 31.85900 34.46600
H  47.42400 31.33600 33.85800
Mg 0.23400 44.10600 26.62400
C  2.51400 43.96500 29.27200
C  -2.22100 43.39400 29.03100
C  -1.88500 43.47000 24.03900
C  2.78200 44.64600 24.33900
N  0.17600 43.90200 28.99000
C  1.22300 43.84700 29.84200
C  0.83600 43.78000 31.28500
C  -0.62500 43.37000 31.13700
C  -0.93800 43.63300 29.60200
C  -0.84400 41.85100 31.50500
C  1.09400 45.08900 32.09700
C  1.39300 44.82500 33.60500
H  0.98300 43.58500 34.35600
N  -1.73600 43.46200 26.55600
C  -2.56000 43.20800 27.62300
C  -3.85900 42.77300 27.17900
C  -3.80000 42.85800 25.68000
C  -2.45800 43.36800 25.35200
C  -5.06500 42.49200 28.12500
C  -4.95000 42.55000 24.67000
O  -4.74800 42.44600 23.47600
C  -6.33700 42.21100 25.15200
N  0.40100 43.93400 24.50400
C  -0.58700 43.65900 23.64700
C  -0.14300 43.80900 22.16200
C  1.32400 44.28100 22.30700
C  1.52400 44.31400 23.82600
C  -0.24500 42.44600 21.44200
C  1.74600 45.47500 21.41800
C  0.73500 46.60500 21.43600
N  2.22600 44.26100 26.75500
C  3.15300 44.48700 25.73200
C  4.47800 44.37600 26.28300
C  4.25700 44.13500 27.68300
C  2.91700 44.05600 27.91900
C  5.81500 44.44000 25.54500
C  4.89200 43.78400 28.85800
O  6.07900 43.58400 29.10500
C  3.83600 43.85100 29.99700
C  4.04200 42.70500 30.95400
O  3.69400 41.55800 30.79600
O  4.81900 43.15100 32.00700
C  4.86900 42.16800 33.10600
H  -2.98700 43.12400 29.76000
H  -2.43300 43.37100 23.09900
H  3.57200 44.72100 23.58900
H  1.36700 42.94900 31.75000
H  -1.37200 44.01600 31.59700
H  0.01000 41.18900 31.65300
H  -1.41300 41.33700 30.73000
H  -1.54800 41.74100 32.33000
H  0.20000 45.70100 31.97800
H  1.95200 45.55700 31.61500
H  1.10600 45.75500 34.09500
H  2.48100 44.79200 33.66300
H  -5.27100 43.50200 28.48000
H  -4.62000 42.08400 29.03200
H  -5.89100 41.89000 27.74600
H  -6.37300 41.29400 25.74000
H  -7.01100 42.18200 24.29600
H  -6.71900 43.03300 25.75800
H  -0.85300 44.53000 21.75800
H  1.88900 43.44600 21.89200
H  -0.36900 41.63800 22.16300
H  0.61000 42.16100 20.82800
H  -1.13600 42.53600 20.82100
H  1.89500 45.03200 20.43300
H  2.76600 45.78000 21.65300
H  0.01200 46.48400 22.24300
H  0.15300 46.60900 20.51400
H  1.27900 47.51300 21.69600
H  6.02200 43.41700 25.22900
H  6.59000 44.69100 26.26900
H  5.79200 45.03400 24.63100
H  3.96900 44.79100 30.53200
H  4.99900 41.13300 32.79000
H  3.98500 42.16600 33.74200
H  5.73800 42.52600 33.65800

