158

Mg 16.62900 -1.78100 27.35700
C  15.76600 0.24200 30.00200
C  18.73000 -3.67600 29.47600
C  18.03900 -3.40400 24.65100
C  14.85600 0.26900 25.21600
N  17.17700 -1.61400 29.52700
C  16.67700 -0.73200 30.45300
C  17.12300 -1.21200 31.86400
C  18.26600 -2.27100 31.56000
C  18.06300 -2.57100 30.10800
C  19.69100 -1.84400 31.96600
C  15.92200 -1.65800 32.77600
C  15.97000 -1.26600 34.26600
H  17.01200 -0.30300 34.75500
N  18.00800 -3.40600 27.14100
C  18.75000 -3.99700 28.07300
C  19.44000 -5.14600 27.50300
C  19.13900 -5.22500 26.16000
C  18.34700 -3.93500 25.88000
C  20.20800 -6.14200 28.36800
C  19.56500 -6.14300 25.11300
O  19.41200 -5.92200 23.89900
C  20.17600 -7.48600 25.54500
N  16.39600 -1.64400 25.22500
C  17.16000 -2.38100 24.35800
C  16.93300 -1.93500 22.86300
C  15.93800 -0.73000 23.08600
C  15.69800 -0.69300 24.59400
C  18.25700 -1.50200 22.12600
C  14.51000 -0.88700 22.40900
C  13.92000 0.30100 21.57900
N  15.42000 -0.03100 27.49700
C  14.78400 0.68000 26.54600
C  13.91200 1.68800 27.23200
C  14.37600 1.59500 28.58300
C  15.29900 0.60700 28.67500
C  13.09100 2.71500 26.62200
C  14.11900 2.08900 29.86000
O  13.37100 2.93900 30.24600
C  15.06600 1.32300 30.88100
C  15.85800 2.24500 31.71700
O  17.05500 2.42500 31.66600
O  15.06100 2.87800 32.70100
C  15.71100 3.72200 33.67300
H  19.19400 -4.22600 30.29800
H  18.46700 -3.90200 23.77800
H  14.29900 0.90600 24.52600
H  17.60600 -0.31000 32.23900
H  18.03100 -3.22200 32.03900
H  20.11500 -2.84800 32.00400
H  19.89600 -1.37000 32.92600
H  20.16300 -1.17200 31.25000
H  15.89300 -2.74700 32.74500
H  14.97300 -1.37100 32.32400
H  16.12100 -2.18400 34.83500
H  14.95800 -0.89400 34.42900
H  21.01700 -6.51400 27.74000
H  19.60000 -7.00700 28.63300
H  20.63300 -5.68100 29.25900
H  20.19400 -8.21600 24.73600
H  19.63700 -7.86900 26.41200
H  21.23600 -7.28300 25.69400
H  16.45600 -2.78400 22.37300
H  16.31300 0.23600 22.74800
H  17.97400 -0.97600 21.21400
H  19.03100 -2.22500 21.87100
H  18.74800 -0.70000 22.67800
H  13.76000 -1.21100 23.13100
H  14.58400 -1.66700 21.65100
H  12.84500 0.36700 21.75000
H  14.03800 -0.06900 20.56100
H  14.42900 1.22500 21.85500
H  12.44800 2.31000 25.84100
H  13.79000 3.44900 26.22100
H  12.45100 3.08200 27.42400
H  14.48200 0.77900 31.62400
H  15.09500 4.54600 34.03400
H  16.48500 4.27200 33.13700
H  16.19500 3.19500 34.49600
Mg 44.58300 4.71400 46.94700
C  42.64400 7.49900 46.25400
C  42.05100 2.73700 46.10100
C  46.70800 2.12800 47.32700
C  47.41800 6.86000 47.20700
N  42.66400 5.11300 46.09800
C  42.10000 6.31900 45.85900
C  40.69800 6.11400 45.17000
C  40.36300 4.61700 45.48800
C  41.78200 4.08600 45.89900
C  39.25800 4.47500 46.58300
C  40.81500 6.46800 43.65200
C  39.92300 7.55600 43.13600
H  40.47600 8.40900 42.10200
N  44.42000 2.66300 46.74000
C  43.22600 2.05700 46.52700
C  43.42300 0.60500 46.58400
C  44.81300 0.43600 46.91700
C  45.39800 1.76200 47.01500
C  42.42000 -0.36500 46.20000
C  45.41800 -1.00500 47.13700
O  44.68500 -1.98700 47.03300
C  46.78800 -1.41600 47.37500
N  46.78700 4.54300 47.30300
C  47.35900 3.32300 47.50900
C  48.91200 3.43500 47.64000
C  49.09200 4.99500 47.69800
C  47.66600 5.47900 47.38400
C  49.44200 2.72300 48.93100
C  50.25100 5.54600 46.90100
C  51.30100 6.29800 47.74700
N  44.97300 6.76800 46.86200
C  46.12500 7.49300 47.05600
C  45.80200 8.88400 47.05300
C  44.39100 8.96400 46.79600
C  44.00000 7.66100 46.60400
C  46.81200 9.94300 47.20200
C  43.33200 9.83300 46.76600
O  43.28200 11.04100 46.86400
C  42.06500 8.91600 46.41600
C  41.07300 9.02000 47.58200
O  41.31300 8.53200 48.71200
O  39.91700 9.74600 47.14800
C  38.98400 10.11700 48.27100
H  41.17500 2.11400 45.90900
H  47.33900 1.24000 47.40300
H  48.26500 7.53900 47.32200
H  39.95700 6.71600 45.69600
H  39.94200 4.20500 44.57100
H  39.46500 3.53700 47.09900
H  38.25400 4.39100 46.16600
H  39.17000 5.27800 47.31400
H  40.71400 5.54500 43.08100
H  41.87900 6.63500 43.48600
H  39.65700 8.29000 43.89700
H  38.97600 7.13900 42.79500
H  42.70100 -0.70600 45.20400
H  41.39400 -0.01000 46.29000
H  42.40400 -1.20200 46.89800
H  46.98700 -2.30700 46.78000
H  46.96200 -1.55600 48.44200
H  47.63200 -0.78700 47.09200
H  49.59200 3.10700 46.85400
H  49.26100 5.33400 48.72000
H  50.29500 3.27700 49.32300
H  49.87100 1.75300 48.67900
H  48.66200 2.52900 49.66800
H  49.86500 6.16600 46.09200
H  50.73000 4.72800 46.36300
H  52.21800 5.71000 47.70300
H  50.97500 6.55300 48.75500
H  51.44000 7.29400 47.32500
H  47.53300 9.75800 46.40600
H  47.23600 9.91500 48.20600
H  46.37200 10.89400 46.90100
H  41.52900 9.32500 45.55900
H  39.10600 9.59700 49.22100
H  38.02600 9.72300 47.93200
H  38.86500 11.18400 48.45700

