158

Mg 2.35800 -2.05700 44.86700
C  5.80800 -1.70300 44.42300
C  1.91600 0.68700 42.70800
C  -0.92300 -2.97000 44.46100
C  3.07900 -5.27900 46.28900
N  3.66800 -0.84800 43.50800
C  5.07400 -0.84500 43.57400
C  5.64100 0.35200 42.75000
C  4.34300 1.27100 42.51200
C  3.23600 0.32800 42.95300
C  4.29100 2.55600 43.38200
C  6.39800 -0.19000 41.39300
C  7.93700 0.16000 41.31900
H  8.47600 0.60100 39.95900
N  0.62600 -1.18100 43.93700
C  0.69400 -0.03800 43.10700
C  -0.61600 0.41900 42.91300
C  -1.49100 -0.58300 43.43000
C  -0.60700 -1.63500 44.00800
C  -0.86400 1.77700 42.20200
C  -3.03100 -0.50200 43.46300
O  -3.67400 0.49900 43.05800
C  -3.97300 -1.64600 44.02100
N  1.23300 -3.86200 45.38400
C  -0.13200 -3.94200 45.12900
C  -0.65900 -5.33200 45.57400
C  0.59500 -6.05300 46.27600
C  1.69500 -5.03100 45.99900
C  -2.00000 -5.46200 46.31300
C  0.88700 -7.50500 45.84700
C  1.22900 -8.52400 46.99100
N  4.00000 -3.20600 45.57100
C  4.12100 -4.45100 46.14700
C  5.49100 -4.71700 46.46100
C  6.18000 -3.62500 45.89900
C  5.30800 -2.75100 45.28200
C  5.93900 -5.90700 47.15400
C  7.44200 -2.96200 45.66500
O  8.56400 -3.19000 46.10700
C  7.30400 -1.74900 44.73100
C  7.82000 -0.48700 45.37100
O  7.46900 0.06500 46.40800
O  8.82100 0.03300 44.50000
C  9.21900 1.40900 44.83300
H  1.90900 1.57100 42.06700
H  -1.94100 -3.28700 44.22600
H  3.20500 -6.22400 46.82100
H  6.37400 0.99100 43.24300
H  4.34800 1.61700 41.47800
H  3.41800 2.63300 44.02900
H  4.32900 3.51300 42.86200
H  5.14200 2.72400 44.04200
H  5.88700 0.23300 40.52900
H  6.25300 -1.26300 41.26900
H  8.55200 -0.71600 41.52600
H  8.22700 0.91600 42.04900
H  -0.44700 2.44900 42.95200
H  -1.89900 2.02600 41.96800
H  -0.30200 1.87000 41.27300
H  -5.01200 -1.31700 44.04700
H  -3.65600 -1.88800 45.03600
H  -3.96200 -2.53900 43.39700
H  -0.82800 -5.87200 44.64300
H  0.41500 -6.05900 47.35100
H  -2.63100 -5.99100 45.60000
H  -2.34700 -4.44100 46.47300
H  -1.97900 -6.11100 47.18900
H  1.74900 -7.48100 45.18000
H  0.10200 -7.94000 45.23000
H  1.53200 -8.01200 47.90400
H  2.10000 -9.10500 46.68500
H  0.34800 -9.16500 47.03000
H  5.57800 -6.80100 46.64600
H  5.58100 -5.91900 48.18400
H  7.02900 -5.91300 47.14200
H  7.73000 -1.85800 43.73300
H  8.39500 2.06400 44.54900
H  10.19400 1.58700 44.37900
H  9.37100 1.59100 45.89700
Mg 2.05900 8.70300 26.88800
C  2.64600 10.18300 29.91500
C  2.48800 5.59200 28.47000
C  1.77500 7.11800 23.79900
C  2.32300 11.74200 25.17800
N  2.36700 7.99400 29.02600
C  2.32100 8.84500 30.08400
C  2.19800 8.07200 31.42900
C  2.36500 6.59100 30.93700
C  2.42000 6.71200 29.41800
C  3.57500 5.86200 31.58300
C  0.87600 8.37300 32.16800
C  0.97200 8.45300 33.70800
H  2.20000 7.78200 34.41000
N  1.88200 6.69000 26.29300
C  2.10700 5.58700 27.05700
C  1.82500 4.42300 26.31200
C  1.45800 4.87000 25.00300
C  1.68300 6.31800 24.99900
C  1.93400 2.99500 26.88000
C  1.00400 4.10300 23.83000
O  0.50400 4.65300 22.84700
C  1.26600 2.61400 23.76200
N  2.05700 9.33100 24.80900
C  2.02300 8.51800 23.73900
C  2.18600 9.33000 22.43700
C  1.69400 10.67300 22.94700
C  1.95000 10.63900 24.41300
C  3.65100 9.27400 21.93000
C  0.24100 11.07900 22.69100
C  -0.10600 12.40300 21.90600
N  2.60000 10.56200 27.40500
C  2.66800 11.70500 26.59600
C  3.17900 12.75600 27.49300
C  3.09800 12.24100 28.78400
C  2.70000 10.88800 28.69000
C  3.45100 14.20800 27.11600
C  3.18800 12.54500 30.18700
O  3.44500 13.59400 30.75900
C  2.90600 11.24800 30.96200
C  3.93800 11.01500 32.01900
O  5.03600 10.46800 31.94700
O  3.43000 11.55300 33.22900
C  4.49300 11.78800 34.20000
H  2.50000 4.66200 29.04300
H  1.82900 6.65300 22.81200
H  2.55800 12.69800 24.70500
H  3.09700 8.39900 31.95200
H  1.49500 5.96700 31.14100
H  4.19200 6.53700 32.17700
H  4.24700 5.36100 30.88700
H  3.15400 5.01700 32.12700
H  0.22700 7.54600 31.88200
H  0.39500 9.26400 31.76700
H  0.02200 8.05200 34.06000
H  0.98100 9.50400 33.99800
H  2.82200 2.53800 26.44500
H  1.06800 2.35800 26.70100
H  2.08500 3.00800 27.96000
H  2.27000 2.30000 24.04800
H  1.11400 2.22100 22.75700
H  0.61400 2.02500 24.40800
H  1.55600 8.96400 21.62700
H  2.24500 11.47400 22.45500
H  4.38600 8.83000 22.60300
H  3.91100 10.33200 21.92900
H  3.65900 8.76000 20.96900
H  -0.24500 11.14000 23.66500
H  -0.26200 10.28100 22.14500
H  0.77200 12.51100 21.26900
H  -0.17700 13.29800 22.52500
H  -1.02700 12.37600 21.32400
H  3.77100 14.87800 27.91400
H  2.59700 14.66600 26.61700
H  4.34400 14.06200 26.50900
H  1.98000 11.29800 31.53400
H  5.40000 12.14700 33.71300
H  4.75400 10.88500 34.75200
H  4.14100 12.47200 34.97200

