158

Mg 17.51900 -0.42800 28.31100
C  16.70600 1.35700 31.16200
C  19.55400 -2.55700 30.27500
C  18.88200 -1.81700 25.38900
C  15.78800 1.87600 26.32600
N  18.19600 -0.43500 30.37200
C  17.66500 0.30200 31.37400
C  18.04900 -0.25600 32.79900
C  19.27800 -1.13500 32.48000
C  19.05600 -1.38600 30.92300
C  20.68300 -0.65500 32.71600
C  16.81100 -0.88100 33.51000
C  16.76900 -0.93200 35.07000
H  17.83200 -0.25600 35.85100
N  18.80100 -2.04500 27.90700
C  19.43900 -2.83700 28.86700
C  20.03100 -4.01700 28.19800
C  19.94300 -3.73600 26.81700
C  19.14600 -2.48300 26.63200
C  20.49000 -5.17000 29.06200
C  20.27500 -4.62100 25.75700
O  20.02800 -4.44800 24.57800
C  21.10700 -5.79500 26.02900
N  17.32800 0.04000 26.18800
C  18.01600 -0.68200 25.16700
C  17.59300 -0.15900 23.76900
C  16.54500 0.97600 24.06100
C  16.47000 0.88400 25.63600
C  18.89000 0.31000 22.88200
C  15.20900 0.91400 23.28700
C  14.79400 2.12700 22.45400
N  16.41700 1.26600 28.62400
C  15.72900 2.05100 27.74400
C  15.01800 3.03900 28.52600
C  15.36500 2.74300 29.83600
C  16.25500 1.68500 29.81500
C  14.20400 4.18300 28.09600
C  15.15100 3.22200 31.23300
O  14.46900 4.11500 31.69300
C  16.05400 2.33300 32.10200
C  16.94900 3.13600 33.03800
O  18.09000 3.51400 32.82600
O  16.23000 3.44500 34.13300
C  16.87600 4.32400 35.10400
H  20.16700 -3.31300 30.77100
H  19.20700 -2.24500 24.43800
H  15.19500 2.63000 25.80500
H  18.40000 0.59000 33.39000
H  19.10200 -2.07800 32.99700
H  21.23900 -0.73300 31.78200
H  21.19400 -1.25500 33.46900
H  20.58100 0.39700 32.98100
H  16.72000 -1.90700 33.15300
H  15.88900 -0.44700 33.12200
H  16.70600 -1.94600 35.46600
H  15.88300 -0.30900 35.19300
H  20.17600 -6.12600 28.64300
H  20.05000 -5.01300 30.04700
H  21.56700 -5.05600 29.18700
H  21.84200 -5.42500 26.74400
H  21.58200 -6.26700 25.16900
H  20.34600 -6.47600 26.41000
H  17.16100 -1.04200 23.30000
H  16.96900 1.97000 23.91500
H  19.21400 -0.42200 22.14200
H  19.72600 0.67700 23.47700
H  18.60200 1.17500 22.28500
H  14.43300 0.65500 24.00800
H  15.28600 0.04200 22.63700
H  14.87600 1.83000 21.40800
H  15.38100 3.02500 22.64200
H  13.76200 2.34800 22.72600
H  13.68300 3.98700 27.15800
H  14.79100 5.10100 28.07500
H  13.38700 4.31500 28.80600
H  15.34300 1.82700 32.75400
H  16.45700 4.02700 36.06500
H  16.74000 5.40000 34.98800
H  17.95900 4.23300 35.18400
Mg 16.52900 51.18000 25.92100
C  18.55000 49.63000 28.47000
C  14.20300 51.80400 28.14800
C  14.56500 52.39000 23.27100
C  18.78300 49.87500 23.56400
N  16.42300 50.63700 28.09100
C  17.37100 50.24900 28.94700
C  16.97600 50.53000 30.38600
C  15.46900 50.93800 30.27800
C  15.37900 51.18100 28.73900
C  14.37200 50.00800 30.82400
C  17.93100 51.59000 30.97100
C  17.71200 52.07000 32.42100
H  16.68900 51.32800 33.35000
N  14.70500 51.95800 25.72400
C  13.91300 52.17300 26.80600
C  12.76400 52.94200 26.38900
C  12.75800 53.04000 24.92300
C  14.05900 52.42500 24.59900
C  11.76100 53.38600 27.38300
C  11.78300 53.79000 24.06000
O  11.86300 53.74400 22.82500
C  10.61200 54.53400 24.61100
N  16.69900 51.12100 23.72200
C  15.87200 51.83000 22.92100
C  16.40600 51.77800 21.38500
C  17.76200 51.05100 21.48000
C  17.72800 50.62600 22.97400
C  15.41300 51.33700 20.23700
C  18.93800 51.97000 21.05800
C  19.42600 53.07700 21.99200
N  18.31700 50.05800 25.98800
C  19.15500 49.68200 24.90900
C  20.33300 49.11000 25.46000
C  20.18500 49.04000 26.85600
C  18.91700 49.57400 27.12900
C  21.47400 48.64100 24.67700
C  20.76600 48.59200 28.06800
O  21.75100 47.96600 28.29800
C  19.65600 48.94200 29.13400
C  19.16500 47.90100 30.05900
O  18.59300 46.84900 29.73700
O  19.54600 48.29100 31.35200
C  19.21000 47.47200 32.44400
H  13.52200 51.91500 28.99500
H  14.05200 52.74000 22.37300
H  19.52500 49.49500 22.85900
H  17.20400 49.64100 30.97400
H  15.28900 51.80700 30.91200
H  14.35200 49.10300 30.21700
H  13.40400 50.47900 30.65300
H  14.41500 49.76400 31.88500
H  17.80500 52.47200 30.34400
H  18.92800 51.14900 30.94800
H  17.49800 53.13500 32.32500
H  18.63500 51.96900 32.99200
H  11.89600 53.05400 28.41200
H  10.74400 53.15500 27.06500
H  11.75800 54.46900 27.50300
H  10.95600 55.13100 25.45500
H  10.08500 53.62100 24.88700
H  10.13400 55.14500 23.84400
H  16.58300 52.84500 21.24900
H  17.83700 50.10800 20.93700
H  15.11500 52.13200 19.55300
H  14.50600 50.97700 20.72200
H  15.71000 50.53200 19.56400
H  18.54800 52.59600 20.25500
H  19.74600 51.28700 20.79600
H  18.73500 53.14500 22.83200
H  19.66100 54.05300 21.56600
H  20.37600 52.75500 22.41800
H  21.85700 49.36000 23.95200
H  21.02100 47.79700 24.15600
H  22.24800 48.20400 25.30700
H  20.08400 49.80300 29.64700
H  19.14100 48.02700 33.38000
H  19.97200 46.72900 32.68100
H  18.31200 46.86900 32.30700

