158

Mg 43.00400 41.74400 26.09100
C  41.66200 43.97700 28.48500
C  44.35000 39.77300 28.64200
C  44.41000 39.77100 23.75000
C  42.01100 43.95300 23.54500
N  42.88000 41.93000 28.28800
C  42.20400 42.79900 29.09400
C  42.36500 42.49300 30.58800
C  43.53900 41.43600 30.51200
C  43.63800 40.98500 29.06000
C  44.89800 41.85300 31.04100
C  41.03200 42.07000 31.27100
C  41.13800 41.61000 32.76900
H  40.62600 42.59800 33.83700
N  44.22000 39.98700 26.18100
C  44.55300 39.29300 27.29300
C  45.30300 38.13400 26.91200
C  45.32900 38.06300 25.47500
C  44.58500 39.27100 25.07400
C  46.04900 37.24900 27.89800
C  45.87600 37.04900 24.60100
O  45.75900 37.10500 23.35000
C  46.29000 35.75600 25.20300
N  43.25100 41.93800 24.00400
C  43.80900 40.99600 23.27400
C  43.79500 41.32000 21.72200
C  43.01100 42.61900 21.67100
C  42.74100 42.88000 23.12400
C  45.22200 41.48100 21.30100
C  41.76000 42.52900 20.79100
C  40.37500 42.31000 21.41300
N  42.10000 43.58800 25.97500
C  41.68800 44.30000 24.89900
C  41.08700 45.54900 25.36400
C  41.01200 45.46000 26.71700
C  41.58400 44.21600 27.05600
C  40.70400 46.69600 24.52100
C  40.55100 46.07700 27.94300
O  40.00200 47.11800 28.15400
C  40.91300 45.13600 29.08900
C  41.69200 45.88200 30.08500
O  42.75000 46.43800 29.91700
O  41.01400 45.87900 31.24600
C  41.76400 46.35500 32.42000
H  44.63600 39.17200 29.50800
H  44.80400 39.09100 22.99300
H  41.56300 44.55700 22.75300
H  42.66200 43.38500 31.14000
H  43.33000 40.49600 31.02300
H  45.60400 41.79800 30.21300
H  45.16000 41.12200 31.80600
H  44.89900 42.88400 31.39600
H  40.62800 41.23500 30.69900
H  40.43000 42.95900 31.08500
H  42.09700 41.19100 33.07300
H  40.46300 40.75800 32.85200
H  46.96300 36.94800 27.38700
H  45.42600 36.41800 28.23000
H  46.29600 37.80700 28.80100
H  45.48600 35.28000 25.76200
H  47.22400 35.93200 25.73700
H  46.72000 35.15000 24.40600
H  43.38600 40.44000 21.22800
H  43.51400 43.53200 21.35100
H  45.81100 41.88600 22.12400
H  45.25200 42.26000 20.53800
H  45.68000 40.58300 20.88700
H  41.82600 41.61900 20.19400
H  41.68400 43.33700 20.06300
H  39.67800 43.11100 21.16600
H  40.29800 42.08500 22.47700
H  39.92400 41.44100 20.93500
H  41.33600 47.54500 24.78000
H  39.64900 46.94000 24.64200
H  40.95800 46.51900 23.47600
H  39.99400 44.76400 29.54100
H  42.74500 45.88200 32.39100
H  41.22400 46.11700 33.33600
H  41.80400 47.43600 32.55200
Mg 10.10500 47.61400 25.67000
C  8.17600 47.65000 28.64100
C  12.77800 48.51600 27.56400
C  11.93700 46.94000 23.09200
C  7.08700 47.05300 23.89400
N  10.41300 48.12200 27.89600
C  9.49100 48.15800 28.95600
C  10.16200 48.52400 30.29900
C  11.64500 48.87600 29.88200
C  11.65000 48.42200 28.41700
C  11.94400 50.43200 30.01800
C  10.04600 47.35700 31.36700
C  11.06900 47.23700 32.57900
H  10.65600 46.35700 33.69300
N  12.09900 47.73100 25.36900
C  13.04600 48.18500 26.21300
C  14.38000 48.07100 25.53400
C  14.18100 47.57700 24.24200
C  12.70400 47.44000 24.17700
C  15.68700 48.35900 26.23700
C  15.21200 47.37300 23.04500
O  14.81300 47.05500 21.92400
C  16.67200 47.56900 23.32500
N  9.54000 47.09600 23.79000
C  10.55300 46.75700 22.90100
C  9.91800 46.14700 21.59100
C  8.45900 46.59200 21.69900
C  8.31700 46.89800 23.24800
C  10.59500 46.61800 20.27900
C  7.28000 45.73200 21.20500
C  7.31000 45.27500 19.80000
N  8.05600 47.46400 26.15000
C  6.95300 47.25100 25.33000
C  5.76600 47.09500 26.08200
C  6.21800 47.21200 27.44800
C  7.60000 47.45700 27.40500
C  4.33000 46.73400 25.52500
C  5.73200 47.16400 28.82400
O  4.54600 47.03400 29.24400
C  7.01400 47.45600 29.62900
C  7.10100 46.27900 30.49200
O  7.48900 45.18700 30.06300
O  6.84300 46.50700 31.82400
C  7.14600 45.41600 32.72300
H  13.74300 48.84800 27.95300
H  12.58500 46.58300 22.28900
H  6.28100 46.60500 23.30900
H  9.61200 49.34000 30.77000
H  12.38900 48.23200 30.35100
H  11.15500 50.83900 30.64900
H  11.91300 50.89200 29.03000
H  12.85800 50.59400 30.59000
H  10.01100 46.45900 30.75000
H  9.06900 47.47400 31.83600
H  11.11200 48.23100 33.02300
H  12.09000 47.06900 32.23700
H  16.30300 47.48400 26.44500
H  15.56600 48.97600 27.12700
H  16.34900 48.95300 25.60600
H  17.02400 47.08400 24.23500
H  16.97100 48.61700 23.33000
H  17.24000 47.15900 22.48900
H  10.00400 45.06400 21.50400
H  8.51800 47.58300 21.24800
H  11.27900 47.44900 20.45100
H  9.97000 46.95300 19.45100
H  11.20300 45.78100 19.93700
H  6.45600 46.44200 21.28200
H  7.17900 44.81400 21.78300
H  8.29400 45.49200 19.38300
H  6.50800 45.74800 19.23400
H  7.27300 44.18600 19.79100
H  4.20200 45.65500 25.44500
H  4.26500 47.37000 24.64200
H  3.71300 47.23100 26.27400
H  6.87600 48.39500 30.16300
H  6.78500 45.40700 33.75100
H  8.23500 45.36000 32.74700
H  6.66200 44.50600 32.36900

