158

Mg 17.37900 -0.58900 26.64200
C  16.09100 1.16800 29.37100
C  19.14500 -2.53600 28.85000
C  18.57600 -2.44300 24.04300
C  15.64900 1.40100 24.49800
N  17.71700 -0.52400 28.91400
C  17.03600 0.19200 29.81600
C  17.39100 -0.23000 31.23400
C  18.49400 -1.33200 31.09100
C  18.40300 -1.51600 29.55300
C  20.02000 -0.97500 31.44700
C  16.23600 -0.60100 32.13000
C  16.59500 -0.95600 33.58600
H  17.86900 -0.29700 34.20000
N  18.72900 -2.27500 26.44400
C  19.36800 -2.87900 27.51400
C  20.07400 -3.95800 27.01700
C  19.90800 -3.97800 25.54100
C  19.04600 -2.91400 25.29300
C  20.72200 -5.01100 27.80500
C  20.53000 -4.98100 24.49100
O  20.21800 -5.00200 23.33500
C  21.45600 -5.97200 25.05200
N  17.33900 -0.39600 24.55500
C  17.86700 -1.29800 23.72200
C  17.48700 -0.97600 22.23200
C  16.38100 0.20900 22.40100
C  16.50400 0.42800 23.87700
C  18.68900 -0.46800 21.37700
C  14.92500 -0.06200 22.06700
C  14.46700 -1.48900 22.35100
N  16.26500 0.97000 26.82300
C  15.51000 1.64600 25.84900
C  14.52800 2.50500 26.48000
C  14.80300 2.36700 27.90200
C  15.80200 1.41000 27.99700
C  13.49400 3.31400 25.78200
C  14.42700 2.94100 29.18900
O  13.64100 3.85400 29.43100
C  15.27300 2.10600 30.24200
C  16.15700 3.03300 31.01700
O  16.81600 3.95400 30.53300
O  15.82200 2.93700 32.32600
C  16.42200 4.04100 33.15100
H  19.81500 -3.08800 29.51200
H  18.86000 -2.96000 23.12400
H  15.12700 1.91600 23.68900
H  17.76700 0.69300 31.67500
H  18.16700 -2.27700 31.52300
H  20.18100 0.04600 31.79200
H  20.57900 -1.08100 30.51700
H  20.42500 -1.56500 32.27000
H  15.87200 -1.58600 31.83700
H  15.43600 0.13800 32.09900
H  16.66200 -2.03000 33.76000
H  15.73300 -0.59600 34.14700
H  20.29500 -5.97400 27.52700
H  20.60000 -4.92000 28.88400
H  21.80700 -5.04400 27.70200
H  21.81600 -6.66400 24.29000
H  20.92100 -6.65300 25.71500
H  22.37800 -5.51600 25.41200
H  17.04400 -1.86200 21.77800
H  16.70300 1.02100 21.75000
H  18.80700 0.60300 21.21400
H  18.70600 -1.06300 20.46400
H  19.59800 -0.66900 21.94400
H  14.84700 0.02000 20.98300
H  14.22400 0.63600 22.52400
H  13.73000 -1.30400 23.13200
H  15.21700 -2.14300 22.79600
H  13.91800 -1.77400 21.45400
H  13.22000 2.70100 24.92200
H  13.99900 4.21800 25.44200
H  12.55400 3.63600 26.22800
H  14.48300 1.66800 30.85100
H  16.24400 3.88200 34.21500
H  15.96600 5.02100 33.01200
H  17.51100 4.07500 33.10600
Mg 36.05200 48.27300 25.08300
C  36.26600 46.49400 28.03500
C  34.93500 50.95900 26.81600
C  35.71300 49.86200 22.08000
C  37.47400 45.64000 23.39100
N  35.57900 48.60900 27.12600
C  35.79700 47.75700 28.14200
C  35.45500 48.47800 29.51800
C  34.94000 49.87700 29.06200
C  35.18000 49.84600 27.55300
C  33.37200 50.11800 29.39000
C  36.68700 48.62900 30.41100
C  36.60800 48.20500 31.91500
H  35.28200 48.05000 32.45100
N  35.33100 50.15900 24.51200
C  34.94200 51.16500 25.36300
C  34.76600 52.31200 24.61700
C  34.80400 52.03900 23.18700
C  35.25000 50.63200 23.22800
C  34.66500 53.60900 25.29000
C  34.63300 53.02900 21.98600
O  34.86900 52.75000 20.78800
C  33.97500 54.44300 22.37000
N  36.31500 47.70500 22.92200
C  36.18300 48.54100 21.95100
C  37.01000 48.13800 20.66300
C  37.58300 46.75900 21.09000
C  37.21400 46.76500 22.59000
C  36.04900 48.16300 19.35500
C  39.07400 46.60800 20.97700
C  39.62800 45.28000 20.32000
N  36.73700 46.45700 25.50400
C  37.17700 45.41500 24.70000
C  37.51000 44.24500 25.50400
C  37.12200 44.61500 26.83300
C  36.64300 45.95000 26.78200
C  38.12100 42.99600 25.00900
C  36.96500 44.09600 28.19600
O  37.23900 43.01500 28.61900
C  36.38400 45.33800 29.04700
C  35.18100 44.98900 29.83400
O  34.03100 44.97000 29.42700
O  35.62700 44.67400 31.07900
C  34.76700 43.81300 31.89500
H  34.53800 51.83000 27.34200
H  35.59500 50.29100 21.08200
H  37.88900 44.75800 22.89800
H  34.66000 47.94200 30.03600
H  35.45000 50.72000 29.52800
H  33.21900 51.04100 29.95000
H  32.90000 49.34200 29.99300
H  32.82300 50.21900 28.45400
H  37.13000 49.62100 30.49800
H  37.47900 47.96500 30.06200
H  37.19500 48.75300 32.65200
H  37.06800 47.22000 31.83700
H  35.23300 53.51000 26.21500
H  33.61300 53.88100 25.37600
H  35.24800 54.38400 24.79200
H  33.13600 54.31500 23.05300
H  33.59800 54.85100 21.43200
H  34.70000 55.16300 22.75000
H  37.82600 48.86000 20.67800
H  37.10200 45.97200 20.50900
H  35.02200 48.14200 19.71800
H  36.10400 47.24300 18.77400
H  36.42800 49.07400 18.89100
H  39.50200 46.82100 21.95700
H  39.42600 47.41200 20.33200
H  39.04500 44.43600 20.69000
H  40.64000 45.04400 20.65000
H  39.65200 45.25500 19.23100
H  37.31300 42.32200 24.72300
H  38.66400 42.46600 25.79200
H  38.72700 43.20900 24.12800
H  37.10900 45.58600 29.82200
H  35.34400 43.53700 32.77800
H  34.33500 42.97200 31.35300
H  33.96400 44.48800 32.19000

