158

Mg 44.08200 5.43800 47.49100
C  41.66600 7.86200 47.27300
C  41.61400 3.13100 47.08100
C  46.56700 3.00400 47.12800
C  46.50800 7.80100 47.59000
N  41.82800 5.52700 47.30200
C  41.06100 6.61000 47.26100
C  39.57800 6.30200 47.00600
C  39.54300 4.75600 47.03100
C  41.03100 4.40500 47.15300
C  38.83900 4.07100 48.16100
C  39.03500 6.80200 45.66500
C  40.03300 6.67400 44.40800
H  39.37400 6.85900 43.06100
N  44.09200 3.40300 47.21900
C  42.96600 2.59300 47.04400
C  43.39900 1.24800 46.77100
C  44.77100 1.20300 46.71200
C  45.23400 2.57100 47.06300
C  42.38700 0.07700 46.57200
C  45.50700 -0.02600 46.52500
O  44.91000 -1.06200 46.22100
C  47.03800 -0.12700 46.48700
N  46.24200 5.40300 47.38400
C  47.05200 4.25400 47.34300
C  48.51700 4.69600 47.34500
C  48.48600 6.22600 47.61400
C  46.96600 6.49300 47.59500
C  49.64900 3.80800 48.19400
C  49.33100 7.08300 46.64000
C  50.87900 7.23800 46.89000
N  44.18000 7.42200 47.39200
C  45.21100 8.30100 47.42700
C  44.67000 9.66900 47.25200
C  43.27800 9.57100 47.34100
C  43.00700 8.17100 47.37300
C  45.47700 10.95100 47.35700
C  42.04300 10.31500 47.49400
O  41.88100 11.49400 47.63100
C  40.90300 9.13100 47.41100
C  40.19700 9.30500 48.67800
O  40.51200 8.80100 49.76700
O  39.16400 10.12100 48.40600
C  38.22500 10.43100 49.48900
H  40.81300 2.39200 47.15100
H  47.36300 2.30900 46.85400
H  47.31800 8.49500 47.82500
H  38.87000 6.67900 47.74300
H  39.31700 4.39400 46.02700
H  37.86600 4.55400 48.25400
H  39.48200 4.14300 49.03800
H  38.72100 3.03500 47.84500
H  38.63200 7.78400 45.91300
H  38.12900 6.28100 45.35500
H  40.58000 5.73200 44.45700
H  40.72800 7.50300 44.54200
H  42.59300 -0.33700 45.58500
H  41.34100 0.37600 46.64900
H  42.49800 -0.64600 47.37900
H  47.59100 0.09200 47.40100
H  47.50500 0.36300 45.63300
H  47.16300 -1.18700 46.26500
H  48.74500 4.58600 46.28400
H  48.98100 6.48000 48.55100
H  50.19800 3.04200 47.64600
H  49.20100 3.29900 49.04800
H  50.42200 4.55900 48.35900
H  48.89500 8.06200 46.44200
H  49.21900 6.58700 45.67600
H  51.29500 6.59600 46.11400
H  51.11500 6.89900 47.89900
H  51.19900 8.26200 46.69800
H  44.77900 11.75400 47.11900
H  46.33500 11.03100 46.68900
H  45.81000 11.09400 48.38500
H  40.37200 9.38500 46.49400
H  38.51400 11.44600 49.76000
H  38.36800 9.84500 50.39700
H  37.20400 10.41700 49.10900
Mg 49.55500 45.74900 41.86800
C  46.20100 46.26300 41.11900
C  49.42000 42.75800 40.56300
C  52.96800 45.62100 42.32100
C  49.75800 49.22000 42.76900
N  48.09000 44.80000 40.67100
C  46.79500 45.15900 40.48500
C  45.97300 44.07300 39.72300
C  46.93900 42.84400 39.85200
C  48.20600 43.46300 40.48800
C  46.30000 41.70200 40.64600
C  45.59100 44.57100 38.31800
C  44.20100 44.25400 37.66400
H  44.13200 43.21000 36.64300
N  50.97700 44.35100 41.51000
C  50.70600 43.12300 40.99500
C  52.00900 42.31600 40.84000
C  53.05600 43.07000 41.47100
C  52.38600 44.41700 41.86100
C  52.13400 41.04300 40.14900
C  54.46600 42.61600 41.61100
O  54.80300 41.48200 41.21900
C  55.52000 43.48300 42.23500
N  51.14100 47.28600 42.36400
C  52.44000 46.89000 42.58200
C  53.29600 48.06800 43.05800
C  52.27900 49.28900 42.99900
C  50.97300 48.58100 42.67100
C  54.01500 47.95000 44.44200
C  52.61600 50.49600 42.16400
C  51.92400 51.88900 42.61400
N  48.29500 47.39700 42.02400
C  48.48800 48.72200 42.53700
C  47.18400 49.31200 42.66000
C  46.27300 48.37900 42.21800
C  46.98100 47.23500 41.76800
C  46.87300 50.71300 43.12000
C  44.84600 48.05300 42.01100
O  43.87100 48.62900 42.50000
C  44.76200 46.76300 41.18000
C  43.76000 45.76700 41.79600
O  42.86200 45.17800 41.16600
O  43.88900 45.78500 43.20200
C  42.88200 44.91600 43.81200
H  49.20700 41.76300 40.16600
H  54.05700 45.66000 42.39000
H  49.65800 50.25200 43.11100
H  45.07400 43.94300 40.32600
H  47.19900 42.50800 38.84800
H  46.41100 41.69500 41.73100
H  46.62500 40.74800 40.23100
H  45.21300 41.77700 40.65300
H  46.29700 44.20100 37.57400
H  45.78700 45.64200 38.26300
H  43.68400 45.18600 37.43700
H  43.62800 43.85100 38.49900
H  52.90600 40.99700 39.38000
H  51.20100 40.75300 39.66500
H  52.36800 40.25400 40.86300
H  55.12800 43.95500 43.13600
H  55.93800 44.18500 41.51300
H  56.29100 42.77200 42.53100
H  54.10400 48.16000 42.33300
H  52.10200 49.61700 44.02400
H  53.76600 48.82800 45.03700
H  55.09400 47.84000 44.33300
H  53.74900 47.01100 44.92800
H  52.29800 50.23500 41.15500
H  53.68400 50.71100 42.11700
H  52.70600 52.64700 42.65700
H  51.53500 51.76200 43.62400
H  51.13800 52.21200 41.93200
H  47.17400 51.54600 42.48400
H  47.41400 50.81500 44.06100
H  45.80300 50.68200 43.32400
H  44.31900 47.13300 40.25500
H  42.99800 43.93300 43.35500
H  41.88300 45.27200 43.56000
H  43.14600 44.85000 44.86700

