158

Mg 17.48400 -1.46500 27.59900
C  16.60100 0.62700 30.18000
C  19.54200 -3.19400 29.71500
C  18.51900 -3.32100 24.91000
C  15.77700 0.74500 25.46500
N  17.84900 -1.39400 29.70600
C  17.46300 -0.44600 30.60900
C  17.98700 -0.70500 32.03100
C  19.02400 -1.87700 31.81200
C  18.85700 -2.13000 30.30600
C  20.43000 -1.48100 32.21900
C  16.77100 -1.08100 32.91200
C  16.66800 -0.34800 34.31400
H  17.82100 0.33500 34.92300
N  18.75500 -3.10200 27.39100
C  19.51300 -3.69900 28.36000
C  20.19100 -4.89200 27.85100
C  19.81800 -5.04700 26.48900
C  19.00700 -3.74200 26.17000
C  21.10000 -5.75600 28.69100
C  20.18200 -6.20600 25.50300
O  19.89400 -6.19400 24.34700
C  20.80700 -7.44500 26.07400
N  17.38700 -1.20700 25.49900
C  17.84800 -2.11600 24.57000
C  17.59800 -1.67300 23.15700
C  16.62700 -0.48200 23.35900
C  16.59700 -0.25100 24.86100
C  18.92300 -1.27400 22.46200
C  15.20300 -0.66200 22.77200
C  14.98500 0.14700 21.47600
N  16.36600 0.26500 27.79200
C  15.66500 1.03800 26.82200
C  14.94700 2.12100 27.44300
C  15.38200 2.07700 28.79000
C  16.15900 0.93200 28.93200
C  13.98700 3.14300 26.83200
C  15.35400 2.77400 30.08500
O  14.75900 3.79400 30.33500
C  15.95700 1.78000 31.06000
C  16.91400 2.55100 31.91100
O  18.10100 2.64300 31.80200
O  16.08700 3.26100 32.68400
C  16.78600 4.26000 33.50500
H  20.21800 -3.70500 30.40400
H  18.85700 -3.88200 24.03600
H  15.24400 1.35000 24.72900
H  18.49000 0.15300 32.47600
H  18.80900 -2.78600 32.37400
H  20.37900 -0.62900 32.89700
H  21.02300 -1.25000 31.33500
H  20.94100 -2.22700 32.82800
H  16.66000 -2.14200 33.13500
H  15.81500 -0.88500 32.42800
H  16.31500 -1.09800 35.02200
H  15.86700 0.39000 34.27000
H  22.07300 -5.95200 28.24100
H  20.62600 -6.70300 28.94800
H  21.23200 -5.22100 29.63100
H  20.88600 -8.28500 25.38400
H  20.29900 -7.69100 27.00700
H  21.83400 -7.26600 26.39500
H  17.07000 -2.46400 22.62400
H  17.12600 0.38100 22.91900
H  18.94700 -0.25300 22.07900
H  19.06000 -1.91300 21.58900
H  19.86700 -1.34100 23.00200
H  14.50600 -0.31700 23.53600
H  15.03000 -1.72600 22.60900
H  14.55400 -0.58700 20.79600
H  15.99100 0.32200 21.09700
H  14.46900 1.09800 21.61400
H  13.26800 2.69900 26.14300
H  14.56100 3.80500 26.18500
H  13.46800 3.76600 27.56000
H  15.21000 1.25400 31.65400
H  16.95400 5.16100 32.91600
H  17.63000 3.75700 33.97600
H  16.18800 4.65300 34.32700
Mg 46.67400 24.37200 28.53900
C  46.95700 26.61900 31.39200
C  45.77000 21.96000 30.68400
C  46.65200 22.45500 25.71600
C  47.90900 27.12900 26.52900
N  46.46800 24.33100 30.88100
C  46.52600 25.32300 31.78100
C  46.21400 24.74700 33.19800
C  45.96900 23.14700 32.91200
C  45.95300 23.13900 31.39600
C  47.07600 22.21600 33.53200
C  45.02000 25.53500 33.79300
C  45.18300 25.96800 35.25700
H  45.37100 24.95600 36.35800
N  46.30900 22.46200 28.25800
C  45.93700 21.58700 29.27800
C  45.69800 20.24900 28.66400
C  45.85200 20.45200 27.23400
C  46.32100 21.88200 26.99500
C  45.25500 19.06600 29.50200
C  45.43100 19.47600 26.07700
O  45.50000 19.85600 24.95000
C  44.78200 18.14300 26.50500
N  47.05200 24.78900 26.43700
C  46.99200 23.82400 25.46900
C  47.29100 24.36700 24.07400
C  47.47900 25.89100 24.33800
C  47.57100 25.92900 25.86200
C  48.48200 23.73800 23.40200
C  46.35800 26.73600 23.68600
C  44.95000 26.39700 24.18600
N  47.17800 26.41000 28.82900
C  47.66600 27.44000 27.86000
C  48.03100 28.62200 28.63200
C  47.61200 28.33500 29.95700
C  47.17800 27.01100 30.03000
C  48.56500 29.83600 28.04300
C  47.66200 28.93300 31.31200
O  48.00000 30.04300 31.70300
C  47.24100 27.79700 32.22600
C  48.36400 27.56100 33.22000
O  48.94900 26.51200 33.38800
O  48.55000 28.60900 34.14700
C  49.11800 28.17900 35.43500
H  45.44500 21.08800 31.25400
H  46.67800 21.79900 24.84300
H  48.22400 27.99500 25.94300
H  47.16200 24.83300 33.72900
H  45.00900 22.76000 33.25200
H  47.45000 21.74700 32.62200
H  46.69900 21.38900 34.13400
H  47.79800 22.81700 34.08500
H  44.27700 24.74300 33.89200
H  44.59000 26.27000 33.11200
H  44.35400 26.62400 35.52000
H  46.07400 26.59100 35.33600
H  44.16900 18.99000 29.43900
H  45.53400 19.26200 30.53700
H  45.74000 18.18900 29.07400
H  45.40800 17.35200 26.91900
H  44.53500 17.71300 25.53400
H  43.88200 18.25400 27.10900
H  46.42300 24.07800 23.48100
H  48.36800 26.29700 23.85500
H  48.42600 23.64700 22.31700
H  48.58500 22.73300 23.81200
H  49.37300 24.29500 23.68800
H  46.19400 26.66000 22.61100
H  46.50600 27.79900 23.87500
H  44.55700 25.44300 23.83500
H  44.29300 27.16400 23.77700
H  44.83500 26.30400 25.26600
H  48.22800 29.87600 27.00700
H  49.65100 29.76300 28.10100
H  48.20200 30.68400 28.62300
H  46.36000 28.03700 32.82100
H  48.22400 27.79600 35.92600
H  49.58000 28.96300 36.03500
H  49.89000 27.41100 35.39600

