158

Mg 47.34200 44.37700 43.13000
C  43.92700 43.58000 43.09300
C  47.95700 41.12400 42.68000
C  50.48100 45.32400 42.65700
C  46.34000 47.86100 42.95200
N  46.12300 42.57800 42.70100
C  44.79500 42.46400 42.80000
C  44.24400 41.06300 42.65100
C  45.55200 40.29100 43.05600
C  46.63900 41.37100 42.72200
C  45.45400 39.64300 44.50000
C  43.62100 40.70200 41.32400
C  43.81400 41.55700 40.06200
H  43.65300 40.89800 38.69500
N  49.09400 43.30200 42.70500
C  49.09700 41.98200 42.56700
C  50.52100 41.63900 42.25900
C  51.27100 42.86700 42.18100
C  50.33600 43.93000 42.43400
C  50.98700 40.17800 41.96900
C  52.75000 42.99800 41.93600
O  53.45600 42.00700 41.96700
C  53.35900 44.35500 41.98100
N  48.25100 46.31700 42.69000
C  49.57700 46.43800 42.79900
C  49.99500 47.93500 42.84500
C  48.70600 48.67100 42.85900
C  47.68400 47.52400 42.89600
C  50.88700 48.40200 44.00500
C  48.49500 49.77500 41.74900
C  48.30200 51.14900 42.41000
N  45.54300 45.55500 43.11700
C  45.31700 46.92100 43.03300
C  43.89900 47.11700 42.81800
C  43.35400 45.83500 43.05500
C  44.37400 44.90800 43.05300
C  43.12200 48.42700 42.48600
C  42.09400 45.16400 43.13600
O  40.99300 45.72800 43.26700
C  42.39100 43.62400 43.04800
C  41.81400 43.10900 44.25200
O  42.19300 43.38300 45.35300
O  40.69200 42.36200 43.99200
C  39.78300 42.04200 45.11400
H  48.18100 40.07800 42.90200
H  51.48300 45.75800 42.63900
H  46.04500 48.90800 42.85500
H  43.43900 40.87800 43.36100
H  45.85000 39.49600 42.37200
H  44.45400 39.49200 44.90600
H  46.08100 40.09500 45.26900
H  45.78500 38.62100 44.31300
H  42.55800 40.52600 41.48500
H  44.08800 39.75700 41.04400
H  44.69900 42.19200 40.11700
H  43.00100 42.28200 40.10100
H  51.19400 40.24400 40.90100
H  50.10700 39.56500 42.16200
H  51.88100 39.88500 42.51800
H  52.82800 44.98000 41.26300
H  54.43500 44.34300 41.80200
H  53.36000 44.74400 43.00000
H  50.44700 48.07500 41.86300
H  48.46100 49.03200 43.85900
H  50.63500 49.27200 44.61100
H  51.92100 48.53700 43.68900
H  50.84400 47.55500 44.69000
H  47.65700 49.54600 41.09100
H  49.31600 49.81900 41.03400
H  48.59800 51.08200 43.45700
H  47.29100 51.52200 42.24700
H  48.93100 51.89400 41.92100
H  42.76900 48.42000 41.45500
H  43.77800 49.29500 42.54700
H  42.28200 48.48600 43.17700
H  41.93700 43.30200 42.11100
H  40.13400 41.09900 45.53400
H  38.74100 42.03100 44.79600
H  39.85000 42.79800 45.89700
Mg 9.09500 47.29900 27.71400
C  7.37900 46.83500 30.71500
C  11.92800 47.87000 29.58200
C  10.70000 48.07500 24.86000
C  6.02900 47.68200 26.05500
N  9.56300 47.43200 29.84500
C  8.69200 47.13400 30.87700
C  9.34500 47.43800 32.24600
C  10.73500 47.92300 31.88700
C  10.77200 47.75200 30.36900
C  10.99100 49.40600 32.42300
C  9.40800 46.18800 33.22100
C  9.18800 46.49300 34.70400
H  9.67700 45.39700 35.64600
N  11.08300 47.65800 27.29500
C  12.15000 47.78500 28.16100
C  13.34200 48.02100 27.39300
C  12.99700 47.95000 26.02100
C  11.50800 47.89400 25.99000
C  14.62200 48.26100 27.96800
C  13.83500 47.80200 24.77900
O  13.36300 47.80500 23.65200
C  15.30700 47.64900 24.94900
N  8.44500 47.86800 25.74300
C  9.34300 48.08300 24.75600
C  8.69900 48.53200 23.41500
C  7.15600 48.29300 23.76800
C  7.17300 47.87200 25.23400
C  8.95900 49.99900 23.11300
C  6.54200 47.28400 22.78600
C  6.63000 47.57000 21.26000
N  7.07600 47.18300 28.22500
C  5.95100 47.35200 27.44700
C  4.72200 47.09700 28.30900
C  5.23900 46.91000 29.59300
C  6.69900 46.90700 29.49800
C  3.30300 47.10600 27.89600
C  4.92500 46.63800 30.95900
O  3.81300 46.50200 31.42700
C  6.28600 46.63600 31.76200
C  6.34300 45.28800 32.33700
O  6.76300 44.24900 31.82000
O  5.97600 45.45200 33.66300
C  6.33300 44.25000 34.52600
H  12.78100 47.99100 30.25300
H  11.10600 48.27800 23.86700
H  5.07900 47.91200 25.56700
H  8.79700 48.27700 32.67300
H  11.56800 47.31300 32.23700
H  10.22300 50.08300 32.04900
H  11.96900 49.64900 32.00800
H  10.95900 49.39900 33.51300
H  10.40000 45.74500 33.30400
H  8.93500 45.32800 32.74600
H  8.16900 46.72100 35.01600
H  9.65800 47.46500 34.85300
H  15.20000 47.33700 27.93300
H  14.32200 48.54100 28.97800
H  15.03800 49.09400 27.40100
H  15.82500 48.58300 25.16900
H  15.71000 47.12300 24.08300
H  15.37100 46.92300 25.75900
H  8.96800 47.91600 22.55700
H  6.60200 49.23100 23.79800
H  9.61800 50.09400 22.25000
H  9.37200 50.50700 23.98400
H  8.06700 50.55500 22.82300
H  5.47800 47.26900 23.02200
H  7.03700 46.34700 23.04100
H  5.67700 47.57800 20.73300
H  7.30300 46.84400 20.80500
H  7.01100 48.59200 21.26100
H  2.62300 47.53700 28.63200
H  2.92200 46.08800 27.81900
H  3.10700 47.65100 26.97200
H  6.29000 47.43100 32.50900
H  6.36000 44.53800 35.57700
H  7.34800 43.93100 34.29200
H  5.67600 43.39900 34.34700

