158

Mg 48.31200 35.56800 28.21400
C  46.31900 34.14100 30.79500
C  48.83100 38.19000 30.08600
C  49.73300 37.05100 25.53200
C  47.44500 32.80400 26.17000
N  47.87200 35.96000 30.21100
C  47.07700 35.31300 31.13900
C  47.09000 35.96600 32.52700
C  47.49300 37.44300 32.15600
C  48.06600 37.17100 30.67100
C  46.33600 38.44100 32.10300
C  48.08700 35.32400 33.52500
C  47.65900 35.20300 34.97900
H  48.53800 35.84000 36.10700
N  49.26900 37.41700 27.85800
C  49.41200 38.37100 28.84300
C  50.11200 39.48400 28.26600
C  50.45100 39.09000 26.89500
C  49.72500 37.83000 26.69900
C  50.38600 40.78400 28.95300
C  51.26600 39.93900 25.82900
O  51.38800 39.63200 24.67300
C  51.91700 41.26700 26.17000
N  48.66700 34.95500 26.10200
C  49.31900 35.73800 25.24700
C  49.50200 35.01600 23.87900
C  48.95900 33.59800 24.25000
C  48.22300 33.79100 25.54900
C  48.79800 35.72200 22.63700
C  50.01500 32.49000 24.38500
C  50.15800 31.29700 23.39100
N  47.09500 33.77900 28.34400
C  46.79700 32.83000 27.45000
C  45.97400 31.74800 28.13400
C  45.71400 32.29400 29.37200
C  46.44800 33.54800 29.48100
C  45.57000 30.36500 27.65800
C  44.96100 32.09500 30.63900
O  44.18000 31.15600 30.90000
C  45.28800 33.34000 31.53100
C  45.72200 32.90100 32.85400
O  46.79200 32.45600 33.13300
O  44.70100 33.11000 33.78400
C  44.92300 32.54300 35.08800
H  48.86900 39.14900 30.60800
H  50.35700 37.39800 24.70500
H  47.25400 31.94000 25.53000
H  46.07900 35.91900 32.93300
H  48.22500 37.94500 32.78800
H  46.45500 39.24100 32.83500
H  45.36600 37.95600 32.21100
H  46.33000 38.84100 31.09000
H  48.99900 35.91700 33.45400
H  48.27700 34.30700 33.18200
H  47.73500 34.14500 35.23000
H  46.69400 35.67100 35.17400
H  49.71800 41.61500 28.72500
H  51.39800 41.10800 28.71100
H  50.42000 40.48400 30.00000
H  52.28500 41.79300 25.28900
H  52.63400 41.11100 26.97700
H  51.10000 41.93900 26.43300
H  50.56500 35.08900 23.65100
H  48.21800 33.26000 23.52500
H  49.42300 36.42200 22.08400
H  47.92200 36.27600 22.97500
H  48.44300 35.05700 21.84900
H  50.12800 32.16800 25.42100
H  51.01300 32.88600 24.19800
H  50.14800 30.40300 24.01400
H  51.08100 31.24900 22.81300
H  49.34100 31.33000 22.67000
H  46.06400 29.61600 28.27800
H  45.83700 30.29100 26.60400
H  44.49300 30.39700 27.82200
H  44.47500 34.04900 31.68600
H  44.02300 32.00800 35.38900
H  45.13800 33.30300 35.83900
H  45.75500 31.83900 35.09300
Mg 27.50000 50.82200 25.34500
C  25.58700 51.76400 28.14200
C  29.88400 49.80800 27.62000
C  29.51300 50.14300 22.75000
C  25.25000 52.53500 23.34400
N  27.70300 50.73800 27.61600
C  26.74800 51.13200 28.53500
C  27.04000 50.66900 29.94400
C  28.57800 50.21800 29.79000
C  28.78300 50.25800 28.29400
C  29.66300 50.93500 30.59400
C  25.99700 49.52600 30.46700
C  25.32800 49.67900 31.84600
H  25.94500 50.44900 33.02700
N  29.47000 50.09000 25.23500
C  30.21800 49.69900 26.28500
C  31.40500 49.10400 25.70400
C  31.41900 49.27900 24.28900
C  30.13500 49.90200 24.03300
C  32.42900 48.42800 26.52400
C  32.46200 48.92300 23.18200
O  32.38300 49.33700 22.05000
C  33.59500 48.05900 23.55100
N  27.42500 51.31100 23.43900
C  28.29000 50.77200 22.50000
C  27.68400 50.69800 21.08500
C  26.67300 51.85700 21.25900
C  26.39800 51.89600 22.81000
C  28.62400 51.07800 19.86600
C  25.40800 51.63800 20.38700
C  24.92500 52.79600 19.45100
N  25.84500 52.06200 25.68800
C  24.97300 52.64500 24.78600
C  23.85100 53.26300 25.44700
C  24.05200 52.95200 26.80100
C  25.25800 52.20000 26.87300
C  22.66400 54.03900 24.70400
C  23.40800 53.01000 28.14500
O  22.32000 53.45000 28.49000
C  24.51800 52.29200 29.04300
C  24.92200 53.41600 29.96800
O  25.91100 54.12400 29.82000
O  24.08500 53.50600 31.07700
C  24.54200 54.46500 32.13400
H  30.55100 49.39300 28.37900
H  29.98600 49.62100 21.91500
H  24.49000 52.89700 22.64900
H  27.01000 51.53500 30.60600
H  28.68400 49.15400 30.00000
H  30.48900 51.38300 30.04200
H  30.15100 50.45800 31.44300
H  29.08000 51.75700 31.00900
H  26.58200 48.60700 30.51000
H  25.26200 49.39700 29.67300
H  25.13000 48.68500 32.24600
H  24.36500 50.15500 31.66000
H  32.14000 47.38400 26.64800
H  32.45200 48.85400 27.52600
H  33.43100 48.45300 26.09600
H  33.85000 47.47400 22.66700
H  33.16600 47.23400 24.12000
H  34.40600 48.61800 24.01800
H  27.22200 49.71600 20.98200
H  27.19600 52.78900 21.04800
H  28.39600 50.34500 19.09200
H  29.67700 51.15900 20.13700
H  28.35800 52.04100 19.43000
H  24.64100 51.33800 21.10100
H  25.55700 50.80000 19.70500
H  25.04100 52.31700 18.47900
H  25.54300 53.69400 19.43700
H  23.84800 52.91600 19.57000
H  23.20800 54.75900 24.09300
H  21.96900 54.54900 25.37100
H  21.95600 53.49300 24.08100
H  24.11900 51.47900 29.65000
H  24.56100 55.48100 31.73900
H  25.52800 54.35500 32.58500
H  23.80000 54.42500 32.93100

