158

Mg 40.91900 9.29100 29.73200
C  42.94800 10.75200 32.13000
C  38.85600 8.17100 32.08500
C  39.33900 7.77400 27.18700
C  43.55900 10.01200 27.18700
N  40.88700 9.57200 31.86600
C  41.73600 10.27500 32.64600
C  41.32600 10.32300 34.12900
C  40.06900 9.33900 34.15100
C  39.97000 8.98000 32.59800
C  40.27100 8.11000 34.99600
C  41.19000 11.84100 34.61300
C  40.31500 12.12200 35.90400
H  40.90200 13.00300 37.04200
N  39.29500 8.19500 29.67600
C  38.50700 7.95400 30.72300
C  37.25700 7.25700 30.22100
C  37.37600 7.14100 28.75200
C  38.75900 7.66500 28.43400
C  36.04400 6.90100 31.20000
C  36.44200 6.54900 27.73000
O  36.62600 6.58700 26.53000
C  35.14100 5.95300 28.07000
N  41.45100 9.05000 27.33100
C  40.55000 8.32700 26.65500
C  40.93700 8.40700 25.11500
C  42.32300 9.18300 25.14400
C  42.50700 9.31500 26.62400
C  41.02600 6.97100 24.46400
C  42.43000 10.51400 24.36800
C  41.71800 11.74900 24.94700
N  42.82300 10.17400 29.61900
C  43.73900 10.31800 28.54900
C  44.85800 11.04100 29.05500
C  44.57700 11.26600 30.43700
C  43.39300 10.61600 30.78500
C  46.04300 11.43800 28.17900
C  45.13400 11.83800 31.63200
O  46.19500 12.45400 31.72800
C  44.07200 11.53700 32.80200
C  44.75500 10.92200 33.96500
O  45.16700 9.76700 33.89200
O  44.66800 11.79400 34.92900
C  45.09900 11.38100 36.28900
H  38.15900 7.80700 32.84300
H  38.77600 7.10600 26.53100
H  44.36600 10.27200 26.49900
H  42.10500 9.95600 34.79800
H  39.08900 9.76900 34.36200
H  40.40700 7.20400 34.40400
H  39.31700 8.00800 35.51200
H  41.18100 8.18100 35.59200
H  40.79800 12.27100 33.69200
H  42.16600 12.28200 34.81800
H  39.96200 11.13300 36.19700
H  39.42300 12.65200 35.57100
H  36.26000 7.01700 32.26200
H  35.75500 5.88900 30.91800
H  35.24000 7.57700 30.90700
H  34.52600 6.65200 28.63800
H  35.24300 5.08900 28.72700
H  34.69600 5.63100 27.12900
H  40.26800 9.04100 24.53300
H  43.19100 8.60000 24.83900
H  40.72600 6.16400 25.13100
H  41.97000 6.67600 24.00500
H  40.26800 7.11000 23.69200
H  42.10000 10.27500 23.35800
H  43.51900 10.56500 24.36400
H  41.20000 11.64300 25.90000
H  41.02700 12.02500 24.15100
H  42.36900 12.61700 25.05700
H  46.58700 12.19600 28.74400
H  45.67800 11.96900 27.30000
H  46.70500 10.64200 27.83800
H  43.67700 12.51300 33.08500
H  45.07000 10.29200 36.32000
H  44.25600 11.83700 36.80800
H  46.09400 11.74800 36.54200
Mg 41.24100 41.36900 26.67300
C  40.74700 44.11800 29.01900
C  41.87100 39.31700 29.35900
C  42.06500 39.10400 24.52000
C  41.14300 43.77200 24.19000
N  41.27500 41.73900 28.92600
C  40.91900 42.80900 29.64100
C  40.96600 42.55500 31.10700
C  41.43700 41.02600 31.32500
C  41.63600 40.70700 29.80200
C  42.74500 40.60500 32.12800
C  39.64700 42.86300 31.92500
C  39.81400 43.78900 33.19400
H  39.32100 43.25900 34.54800
N  41.80500 39.48300 26.93000
C  42.00500 38.80600 28.08700
C  42.41300 37.45800 27.82800
C  42.38400 37.33000 26.42300
C  42.07600 38.70300 25.88200
C  42.90200 36.42200 28.90400
C  42.58400 36.14000 25.53000
O  42.46600 36.17500 24.31700
C  43.12900 34.89700 26.08000
N  41.69200 41.39000 24.65000
C  41.85600 40.31200 23.94900
C  41.67800 40.56600 22.43500
C  41.35700 42.10600 22.35000
C  41.41600 42.48000 23.82900
C  42.90400 40.10300 21.57500
C  40.01100 42.48300 21.69700
C  38.69300 42.26200 22.46500
N  40.94900 43.53400 26.56500
C  41.00500 44.31700 25.45000
C  40.83100 45.66500 25.90600
C  40.78000 45.62500 27.31500
C  40.84100 44.32300 27.66700
C  40.79200 46.85300 25.09700
C  40.70600 46.40800 28.46600
O  40.69100 47.61900 28.62500
C  40.68600 45.42300 29.65800
C  41.81700 45.79500 30.52900
O  42.96600 45.34000 30.40400
O  41.42100 46.79900 31.37600
C  42.56200 47.30500 32.17500
H  42.06300 38.79000 30.29600
H  42.11900 38.45200 23.64600
H  41.05200 44.57000 23.45000
H  41.77400 43.09500 31.60000
H  40.67700 40.33200 31.68300
H  42.69300 39.60800 32.56500
H  42.70700 41.36100 32.91200
H  43.59500 40.70600 31.45200
H  39.26800 41.92100 32.32100
H  38.89300 43.39400 31.34300
H  39.15900 44.64900 33.05800
H  40.86100 43.98700 33.42400
H  43.92300 36.07400 28.74100
H  42.32200 35.50500 29.01100
H  42.89500 36.87400 29.89600
H  42.41600 34.49600 26.80000
H  44.01000 35.08700 26.69400
H  43.38000 34.22100 25.26200
H  40.76300 40.02000 22.20500
H  42.15900 42.62000 21.82000
H  43.64400 39.53700 22.14000
H  43.57300 40.77500 21.03700
H  42.52200 39.33300 20.90500
H  39.85400 42.01000 20.72800
H  40.06500 43.52700 21.38700
H  38.80100 42.03500 23.52600
H  38.17300 41.48800 21.90000
H  38.15800 43.20300 22.34300
H  40.04300 47.57100 25.42900
H  40.57100 46.69100 24.04200
H  41.75800 47.34700 24.98800
H  39.69700 45.61000 30.07500
H  43.34900 47.72400 31.54800
H  43.06900 46.48900 32.69000
H  42.28500 48.11200 32.85300

