158

Mg 1.82400 -1.84900 44.34400
C  5.08800 -1.10600 43.64200
C  0.83700 0.87900 42.25800
C  -1.30700 -3.05700 44.08900
C  2.82600 -4.98300 45.72700
N  2.86200 -0.34800 42.96600
C  4.22800 -0.18700 42.99800
C  4.62000 1.15000 42.25800
C  3.21800 1.87300 42.04500
C  2.25000 0.71400 42.39600
C  3.00600 3.15600 42.82000
C  5.22700 0.89200 40.83000
C  6.12700 2.05000 40.24800
H  5.70900 2.73800 38.97000
N  -0.07600 -1.01000 43.50100
C  -0.19600 0.03400 42.62900
C  -1.60900 0.19000 42.35400
C  -2.31000 -0.92000 42.93500
C  -1.22100 -1.80300 43.53900
C  -2.17300 1.28100 41.50900
C  -3.80000 -1.16200 42.87800
O  -4.49100 -0.31300 42.43800
C  -4.35800 -2.34800 43.49500
N  0.90600 -3.74600 44.83600
C  -0.40100 -3.95800 44.65700
C  -0.84000 -5.40700 45.03600
C  0.50700 -6.03000 45.52700
C  1.46300 -4.86900 45.39000
C  -2.03700 -5.55400 46.00200
C  0.94700 -7.25600 44.75900
C  1.12400 -8.54100 45.56400
N  3.56400 -2.78900 44.92300
C  3.84200 -3.95700 45.48900
C  5.24600 -4.04300 45.64300
C  5.81900 -2.92400 45.02800
C  4.77800 -2.25600 44.46100
C  5.89100 -5.17900 46.40900
C  7.06600 -2.24700 44.71700
O  8.22700 -2.43500 44.96200
C  6.64700 -0.99800 43.85800
C  7.12900 0.19800 44.45100
O  6.66200 0.59800 45.47900
O  8.09100 0.83600 43.58600
C  8.61900 2.07400 44.08900
H  0.52300 1.78200 41.73000
H  -2.21200 -3.66700 44.04700
H  3.20600 -5.94000 46.08900
H  5.37700 1.75000 42.76300
H  3.03800 2.21900 41.02700
H  1.95400 3.43200 42.75200
H  3.56400 3.89800 42.24800
H  3.38500 2.98500 43.82800
H  4.48300 0.69200 40.05900
H  5.90200 0.04300 40.93500
H  7.07200 1.51500 40.16100
H  6.29700 2.72300 41.08800
H  -2.31800 0.96900 40.47500
H  -1.44600 2.09200 41.47200
H  -3.11200 1.67800 41.89600
H  -5.37000 -2.15600 43.85100
H  -3.73800 -2.39700 44.39100
H  -4.17800 -3.21700 42.86300
H  -1.17300 -5.90200 44.12400
H  0.47500 -6.27800 46.58800
H  -1.81600 -6.22700 46.83000
H  -2.90800 -5.89300 45.44100
H  -2.30600 -4.59900 46.45400
H  1.96300 -7.09400 44.39800
H  0.32100 -7.51300 43.90500
H  0.58100 -9.41600 45.20600
H  1.01200 -8.41100 46.64000
H  2.18600 -8.77700 45.49800
H  6.96600 -5.01700 46.49200
H  5.60500 -6.13700 45.97400
H  5.37900 -5.12200 47.36900
H  7.16100 -1.16200 42.91100
H  9.40500 1.82500 44.80300
H  7.83800 2.69300 44.53200
H  9.01200 2.66000 43.25800
Mg 45.23700 5.37300 48.80000
C  42.97200 7.83200 47.56400
C  42.87300 2.96000 47.79700
C  47.65500 2.98500 48.95000
C  47.72900 7.90800 48.84000
N  43.20200 5.45800 47.78300
C  42.52100 6.52600 47.35200
C  41.10300 6.14900 46.80200
C  41.12300 4.58200 46.91500
C  42.45100 4.30400 47.53200
C  39.89500 4.11400 47.76300
C  40.87600 6.62400 45.29300
C  39.56700 7.58200 45.16400
H  38.62700 7.33700 44.00700
N  45.20200 3.29200 48.64800
C  44.10000 2.50100 48.27600
C  44.52800 1.09200 48.36600
C  45.91900 1.14900 48.61500
C  46.30900 2.51400 48.77300
C  43.62500 -0.03000 48.09500
C  46.77000 -0.09400 48.81100
O  46.29800 -1.21700 48.63800
C  48.15100 -0.08200 49.28500
N  47.39000 5.45700 48.99200
C  48.16700 4.32500 49.08000
C  49.63400 4.64900 49.10400
C  49.64400 6.19600 49.08900
C  48.21400 6.54500 48.94600
C  50.41700 3.88700 50.15900
C  50.49300 6.76300 47.91900
C  51.29100 8.08800 48.24400
N  45.32300 7.44600 48.50400
C  46.41400 8.35600 48.61000
C  45.96600 9.64300 48.29700
C  44.59700 9.46800 47.99700
C  44.26600 8.12900 48.04200
C  46.86800 10.88300 48.34300
C  43.40700 10.20400 47.80900
O  43.19100 11.42100 47.88100
C  42.25000 9.14300 47.50700
C  41.17600 9.39300 48.60000
O  41.25400 8.85400 49.67100
O  40.13900 10.03800 47.99800
C  38.85800 10.03900 48.70800
H  42.03900 2.28000 47.60900
H  48.46200 2.25000 48.92900
H  48.56000 8.57900 49.06400
H  40.37500 6.56700 47.49700
H  41.12800 4.11400 45.93000
H  39.62300 3.15500 47.32400
H  39.04000 4.79100 47.74700
H  40.22600 3.86900 48.77200
H  40.97200 5.87900 44.50400
H  41.76300 7.23700 45.13100
H  39.93300 8.60700 45.10200
H  38.95800 7.53100 46.06700
H  43.38100 -0.50300 49.04600
H  44.09600 -0.74600 47.42200
H  42.70700 0.23300 47.57000
H  48.74000 0.42000 48.51700
H  48.55400 -1.04400 49.60200
H  48.23400 0.58700 50.14100
H  49.92900 4.33000 48.10400
H  49.89200 6.59500 50.07300
H  49.75200 3.17400 50.64600
H  50.89300 4.61300 50.81800
H  51.27200 3.33100 49.77300
H  49.92900 7.05300 47.03300
H  51.26700 6.03700 47.67000
H  50.80600 9.01800 47.94800
H  52.29800 7.93200 47.85500
H  51.48000 8.10700 49.31700
H  46.40500 11.54800 47.61500
H  47.88900 10.61600 48.06900
H  46.94700 11.26400 49.36200
H  41.79000 9.48300 46.58000
H  38.27000 10.90600 48.40400
H  38.97700 10.22000 49.77600
H  38.25100 9.15200 48.52700

