158

Mg 44.17300 4.85600 48.25800
C  42.38300 7.88100 48.14400
C  41.19600 3.15000 48.07400
C  45.94500 2.06300 47.93200
C  47.13300 6.73900 47.69400
N  42.09300 5.45200 47.86700
C  41.55500 6.72400 47.91600
C  40.04500 6.77800 47.72900
C  39.71400 5.29900 48.02400
C  41.10300 4.54100 47.96900
C  38.94700 5.11800 49.27100
C  39.60200 7.44900 46.44300
C  40.46000 7.35000 45.12300
H  39.74400 6.73600 43.90900
N  43.64600 2.86700 47.95200
C  42.40800 2.40600 47.99000
C  42.46000 0.95200 47.92800
C  43.80300 0.60800 47.89000
C  44.55000 1.88000 47.93900
C  41.27200 0.09600 47.61100
C  44.31900 -0.82900 47.69500
O  43.50600 -1.76800 47.57700
C  45.67000 -1.14700 47.46300
N  46.25300 4.47500 47.62700
C  46.72300 3.22500 47.85900
C  48.29200 3.19600 47.82000
C  48.62400 4.75500 47.72200
C  47.27800 5.33400 47.61100
C  48.96700 2.38200 48.93100
C  49.70700 5.24300 46.75000
C  50.87800 5.91100 47.47900
N  44.69300 6.90500 48.15700
C  45.94100 7.46600 47.93200
C  45.84600 8.88800 47.89000
C  44.41200 9.15100 48.01600
C  43.80600 7.90300 48.10000
C  46.98400 10.00300 47.65100
C  43.34400 10.16900 48.06200
O  43.38900 11.42100 48.12900
C  41.98900 9.35000 48.12900
C  41.25700 9.74800 49.39200
O  41.07700 9.05200 50.39400
O  40.58100 10.93600 49.14900
C  39.72800 11.45000 50.21400
H  40.25600 2.65800 48.33100
H  46.58000 1.17500 47.94400
H  48.04800 7.33400 47.72900
H  39.67400 7.35800 48.57400
H  39.08700 4.89200 47.23100
H  38.40800 6.04600 49.46200
H  39.56500 4.76700 50.09700
H  38.16900 4.38300 49.06500
H  39.33900 8.50300 46.53200
H  38.61900 6.98400 46.36100
H  41.36700 6.74600 45.11300
H  40.84400 8.33600 44.86400
H  41.27700 -0.36100 46.62200
H  40.33300 0.62200 47.78200
H  41.32100 -0.70200 48.35200
H  46.32800 -1.21700 48.32900
H  46.11000 -0.37300 46.83500
H  45.62600 -2.09300 46.92300
H  48.47100 2.72100 46.85500
H  48.98200 4.84900 48.74700
H  49.48500 1.52200 48.50700
H  48.28800 2.21000 49.76600
H  49.88100 2.82600 49.32600
H  49.39700 6.01800 46.04800
H  50.00100 4.28400 46.32600
H  50.44900 6.41800 48.34400
H  51.29200 6.60300 46.74700
H  51.63400 5.15200 47.68000
H  47.96800 9.63800 47.94400
H  46.70400 10.76700 48.37700
H  47.02500 10.42700 46.64800
H  41.33400 9.54400 47.28000
H  38.93000 11.92900 49.64800
H  40.27300 12.28300 50.65700
H  39.26300 10.69300 50.84600
Mg 1.23200 42.75800 24.91700
C  3.11200 42.43100 27.84300
C  -1.62600 42.05800 26.96600
C  -0.58300 42.36500 22.13000
C  4.24800 42.80600 23.01800
N  0.80900 42.46900 27.25400
C  1.74500 42.32100 28.16500
C  1.12700 42.09600 29.55100
C  -0.38000 41.90000 29.26500
C  -0.44500 42.08500 27.73400
C  -0.97000 40.56000 29.72800
C  1.50200 43.24100 30.50000
C  1.12300 43.07400 31.96100
H  0.87800 41.68600 32.62400
N  -0.77200 42.40100 24.61500
C  -1.78000 42.19100 25.56000
C  -3.05700 42.11700 24.84400
C  -2.74800 42.33400 23.47900
C  -1.32600 42.29100 23.36900
C  -4.42700 42.06500 25.59500
C  -3.72700 42.39900 22.39800
O  -3.45500 42.20800 21.22100
C  -5.23200 42.53500 22.58000
N  1.77900 42.50600 22.86500
C  0.81800 42.34400 21.94300
C  1.32300 42.38100 20.49900
C  2.86900 42.71500 20.77200
C  3.04200 42.74100 22.29500
C  1.05600 41.10200 19.71400
C  3.29200 44.03900 20.10200
C  2.86600 45.33400 20.74900
N  3.25900 42.74600 25.28200
C  4.34500 42.83500 24.42800
C  5.57200 42.86100 25.26300
C  5.12800 42.70200 26.53400
C  3.73400 42.64400 26.54300
C  6.93400 43.11500 24.84300
C  5.48600 42.53000 27.91300
O  6.59200 42.50600 28.38500
C  4.27200 42.40300 28.82100
C  4.22900 41.12700 29.63300
O  4.00500 40.01900 29.11200
O  4.46400 41.30300 30.95400
C  4.76500 40.05300 31.67000
H  -2.56600 41.93300 27.50700
H  -1.09000 42.30600 21.16500
H  5.12500 42.95600 22.38500
H  1.57500 41.19000 29.95800
H  -1.04600 42.65200 29.69000
H  -0.32600 40.03400 30.43400
H  -1.16700 39.95600 28.84300
H  -1.97100 40.67300 30.14300
H  0.93900 44.09000 30.11200
H  2.54700 43.53800 30.58600
H  0.25700 43.69100 32.19900
H  1.95400 43.60500 32.42400
H  -4.66000 43.10900 25.80400
H  -4.30500 41.52800 26.53600
H  -5.26800 41.62800 25.05700
H  -5.75200 41.62800 22.88800
H  -5.72300 42.98000 21.71400
H  -5.32800 43.25500 23.39200
H  0.81200 43.24000 20.06300
H  3.59800 41.96000 20.48000
H  0.16800 40.55900 20.03600
H  1.89400 40.40500 19.74100
H  0.92200 41.46600 18.69500
H  2.83700 43.93100 19.11800
H  4.37600 44.08400 19.99300
H  2.20200 45.08300 21.57600
H  2.37800 46.01300 20.05000
H  3.75100 45.82700 21.15200
H  7.61000 42.36400 25.25300
H  7.11100 44.10600 25.26200
H  7.09800 42.98400 23.77300
H  4.35000 43.24900 29.50300
H  5.51100 39.40300 31.21300
H  3.88000 39.41900 31.72400
H  5.17100 40.18700 32.67300

