158

Mg 6.90800 52.59100 42.12800
C  6.50100 49.04400 41.74300
C  10.26400 52.18200 41.02800
C  7.08100 55.82300 41.84900
C  3.52700 52.75200 42.75000
N  8.22700 50.81500 41.46800
C  7.80300 49.46500 41.34600
C  9.04000 48.59900 40.93100
C  10.25400 49.64600 41.12700
C  9.55800 50.99000 41.22100
C  11.33600 49.32500 42.22500
C  8.99400 47.86900 39.56700
C  8.82800 48.73400 38.25300
H  7.95100 48.17300 37.12700
N  8.50800 53.85000 41.58300
C  9.78100 53.55000 41.16800
C  10.55100 54.73200 41.02800
C  9.61200 55.84200 41.28400
C  8.31000 55.20500 41.52000
C  12.06600 54.65200 40.74300
C  10.02100 57.28200 41.12900
O  11.22000 57.56200 40.93200
C  9.03800 58.37700 41.42900
N  5.49100 54.06100 42.13700
C  5.83300 55.31900 42.22900
C  4.73200 56.22300 42.62600
C  3.56400 55.32300 43.05600
C  4.17900 53.94100 42.61000
C  5.03600 57.22400 43.79400
C  2.14900 55.60100 42.46600
C  2.01300 55.21000 40.98200
N  5.32900 51.23500 42.17600
C  4.01700 51.48600 42.48000
C  3.39400 50.23300 42.77100
C  4.31700 49.25000 42.37300
C  5.47400 49.89100 42.02600
C  1.94900 50.11800 43.28800
C  4.50200 47.84700 42.18300
O  3.76900 46.86700 42.30100
C  5.92200 47.68900 41.65800
C  5.71300 47.13300 40.29000
O  5.40400 47.72800 39.24300
O  6.09500 45.88700 40.37700
C  5.93900 44.98800 39.34500
H  11.32100 52.00900 40.81400
H  7.02400 56.90100 41.68400
H  2.47800 52.75600 43.05200
H  9.07700 47.84900 41.72200
H  10.86600 49.68800 40.22600
H  11.09600 48.48000 42.87100
H  11.59600 50.15900 42.87700
H  12.30500 49.05500 41.80300
H  8.32100 47.01700 39.46400
H  10.01600 47.49200 39.53100
H  9.85100 48.87100 37.90300
H  8.46700 49.73000 38.50900
H  12.55000 55.61100 40.92600
H  12.22800 54.41200 39.69200
H  12.51300 53.94000 41.43700
H  8.22300 58.28300 40.71100
H  9.61800 59.29300 41.32100
H  8.74800 58.14400 42.45400
H  4.49100 56.86700 41.78000
H  3.47800 55.16000 44.13000
H  4.14300 57.81200 44.00800
H  5.76100 57.91300 43.36100
H  5.37700 56.81900 44.74700
H  1.91700 56.66400 42.53300
H  1.49800 55.10100 43.18400
H  0.97900 55.40900 40.70200
H  2.14900 54.13400 40.87500
H  2.70100 55.75800 40.33800
H  1.77300 49.24000 43.91000
H  1.33800 50.06800 42.38600
H  1.67600 50.92400 43.96900
H  6.30800 46.91700 42.32400
H  6.88500 44.51100 39.08600
H  5.50200 45.42900 38.44900
H  5.34100 44.17700 39.76200
Mg -6.07600 25.34700 25.61000
C  -4.22800 26.42500 28.25200
C  -7.31200 22.79400 27.79700
C  -7.70400 23.98200 23.01600
C  -4.06800 27.08800 23.40300
N  -5.85000 24.69500 27.74600
C  -5.12200 25.40900 28.59900
C  -5.35200 25.01900 30.00500
C  -6.06100 23.60600 29.79500
C  -6.37200 23.67200 28.33500
C  -5.36700 22.32600 30.19800
C  -6.15800 26.08700 30.81000
C  -6.69900 25.61900 32.18900
H  -5.77200 24.70100 33.06700
N  -7.46900 23.72900 25.47500
C  -7.76800 22.80000 26.44800
C  -8.77800 21.93700 25.87200
C  -9.08100 22.43000 24.52300
C  -8.08000 23.44800 24.28400
C  -9.39200 20.74700 26.62000
C  -10.19200 22.03200 23.58000
O  -10.36500 22.55700 22.51100
C  -11.23500 20.99300 24.01800
N  -5.90400 25.62300 23.44800
C  -6.70700 24.90300 22.63400
C  -6.41000 25.25500 21.11200
C  -5.37900 26.45200 21.31700
C  -5.10300 26.37800 22.78300
C  -5.98100 23.95900 20.25000
C  -5.99100 27.88600 20.92100
C  -6.08000 28.23100 19.40200
N  -4.55900 26.61200 25.73500
C  -3.77400 27.17900 24.79700
C  -2.65300 27.92800 25.46500
C  -2.82200 27.68900 26.82800
C  -3.97200 26.88500 26.95300
C  -1.55400 28.75600 24.70700
C  -2.26800 27.91600 28.15300
O  -1.30200 28.54800 28.60900
C  -3.23100 27.19100 29.10700
C  -2.37200 26.31800 30.03700
O  -1.68900 25.33700 29.67700
O  -2.39000 26.75800 31.34900
C  -1.66500 26.01600 32.36400
H  -7.71600 22.10000 28.53800
H  -8.12400 23.36200 22.22100
H  -3.43500 27.66400 22.72600
H  -4.33900 24.81200 30.35000
H  -7.04200 23.58900 30.27000
H  -5.37000 21.53600 29.44700
H  -5.87200 21.96200 31.09300
H  -4.38200 22.67100 30.51100
H  -7.00400 26.32200 30.16500
H  -5.75400 27.09900 30.79200
H  -7.55900 24.98600 31.97000
H  -7.22800 26.38500 32.75500
H  -9.48100 19.85300 26.00400
H  -10.38900 21.02700 26.96100
H  -8.92200 20.45900 27.56100
H  -10.70600 20.05100 23.87600
H  -12.09200 21.18700 23.37200
H  -11.43100 21.32400 25.03800
H  -7.33500 25.62800 20.67200
H  -4.45300 26.33200 20.75600
H  -4.89200 24.00500 20.23900
H  -6.53600 23.96200 19.31200
H  -6.35200 23.02600 20.67400
H  -5.36500 28.59800 21.45800
H  -7.03000 28.16000 21.10800
H  -6.19200 27.26900 18.90100
H  -5.21000 28.83200 19.14000
H  -7.00000 28.75000 19.13600
H  -1.17500 28.22900 23.83200
H  -0.83700 29.08300 25.46000
H  -2.05400 29.61600 24.26300
H  -3.71200 27.90700 29.77300
H  -2.40700 25.29100 32.69900
H  -1.41400 26.67500 33.19400
H  -0.83500 25.42400 31.97800

