158

Mg 0.63400 7.75000 25.64600
C  1.58200 9.66200 28.45400
C  0.81800 4.91800 27.66200
C  0.20300 5.89400 22.95400
C  0.67900 10.61200 23.82300
N  1.24400 7.37800 27.84000
C  1.34500 8.33100 28.84700
C  1.34800 7.68500 30.25300
C  1.38100 6.19200 29.89500
C  1.16000 6.13400 28.38900
C  2.63000 5.41200 30.38200
C  0.02100 8.08500 31.04000
C  0.15400 8.17900 32.59800
H  1.42200 7.85700 33.24200
N  0.42300 5.67000 25.33600
C  0.55000 4.69500 26.31000
C  0.37400 3.35200 25.61900
C  0.15900 3.66500 24.22500
C  0.25700 5.11500 24.10600
C  0.47100 2.08700 26.35400
C  -0.20700 2.76000 23.04300
O  -0.42100 3.17200 21.88200
C  -0.38900 1.30600 23.32900
N  0.43100 8.17500 23.72500
C  0.25700 7.24500 22.75000
C  0.20400 7.89100 21.36900
C  -0.00700 9.39800 21.67600
C  0.32700 9.46000 23.19300
C  1.59900 7.65800 20.68100
C  -1.39200 9.99000 21.28800
C  -1.45400 11.30200 20.46300
N  1.27500 9.70500 25.98100
C  1.16500 10.76100 25.14700
C  1.52200 11.97300 25.83000
C  1.78600 11.63300 27.18900
C  1.53100 10.20300 27.22000
C  1.55900 13.45500 25.22600
C  2.03900 12.08700 28.49000
O  2.14800 13.17900 28.94700
C  1.82300 10.86100 29.38100
C  3.03900 10.77400 30.20400
O  3.90700 9.89800 30.16800
O  2.82200 11.71100 31.25000
C  3.50300 11.42800 32.49100
H  0.91200 3.99100 28.23100
H  0.12900 5.35900 22.00400
H  0.62500 11.56900 23.30000
H  2.22100 7.86900 30.88000
H  0.50200 5.66400 30.26400
H  2.19400 4.49200 30.77100
H  3.18000 5.96400 31.14400
H  3.20900 5.02000 29.54700
H  -0.76800 7.36100 30.83700
H  -0.28500 9.00300 30.53800
H  -0.58600 7.55400 33.09700
H  -0.11900 9.21500 32.79900
H  -0.27600 1.32200 26.14200
H  0.51900 2.20900 27.43600
H  1.38300 1.67200 25.92300
H  -1.13500 1.36500 24.12200
H  0.52600 0.78300 23.60600
H  -0.74800 0.84500 22.40800
H  -0.56600 7.44000 20.74300
H  0.68200 10.02300 21.10900
H  1.89700 8.39500 19.93500
H  1.61600 6.63400 20.30800
H  2.35000 7.78100 21.46100
H  -1.95900 10.19300 22.19700
H  -1.92000 9.12400 20.88900
H  -1.21900 11.10200 19.41700
H  -0.70700 12.04500 20.74200
H  -2.36900 11.89500 20.46600
H  2.53100 13.63800 24.76900
H  1.42600 14.14100 26.06400
H  0.78500 13.64300 24.48200
H  1.01400 11.03500 30.09100
H  3.92600 12.41500 32.67900
H  4.27300 10.65800 32.50800
H  2.74600 11.14600 33.22200
Mg 30.07700 60.27400 40.37400
C  26.90200 59.13800 39.46500
C  31.36800 57.29000 39.05900
C  33.03300 61.69300 40.50600
C  28.54600 63.59600 40.91700
N  29.16200 58.43300 39.23600
C  27.87600 58.16900 39.11700
C  27.71500 56.88800 38.32700
C  29.00600 56.16100 38.58100
C  29.96700 57.37200 38.92300
C  29.09600 54.95600 39.53100
C  27.20400 57.24800 36.81500
C  25.90400 56.56000 36.36700
H  26.09100 55.58200 35.18800
N  32.01700 59.48600 39.97100
C  32.33400 58.25500 39.48500
C  33.73000 58.19800 39.48300
C  34.27300 59.47400 39.84400
C  33.05000 60.31300 40.17400
C  34.57600 57.00900 39.05700
C  35.74500 59.75300 39.90000
O  36.61500 58.90400 39.57600
C  36.30900 61.01800 40.37400
N  30.71400 62.46700 40.64200
C  32.01300 62.65900 40.74200
C  32.28800 64.18600 41.00400
C  30.86700 64.80700 41.21100
C  29.98400 63.58400 40.95900
C  33.26500 64.46400 42.18000
C  30.47200 65.96400 40.23700
C  30.04900 67.30300 40.96400
N  28.22800 61.19100 40.33500
C  27.76000 62.47000 40.64000
C  26.27300 62.38000 40.70500
C  25.93100 61.11500 40.17200
C  27.11100 60.42700 40.07300
C  25.40000 63.54900 41.15800
C  24.81000 60.32200 39.76500
O  23.62700 60.51800 39.83500
C  25.45500 58.96300 39.26100
C  24.81300 57.76600 39.84600
O  24.97500 57.44200 41.01100
O  23.92500 57.20000 39.00500
C  23.43300 55.85700 39.40800
H  31.92300 56.36700 38.88200
H  34.01200 62.16900 40.59100
H  28.14900 64.59800 41.09400
H  26.95500 56.24000 38.76500
H  29.45300 55.82000 37.64700
H  28.27300 54.24600 39.60700
H  29.20900 55.35900 40.53700
H  30.00300 54.42100 39.25000
H  28.02700 56.90400 36.18800
H  27.06400 58.32900 36.83200
H  25.19400 57.32400 36.05100
H  25.50100 55.95200 37.17600
H  35.07800 57.17400 38.10300
H  33.89500 56.17500 38.89200
H  35.27900 56.64000 39.80400
H  37.38600 60.97800 40.53500
H  35.89400 61.13200 41.37500
H  36.10400 61.84300 39.69300
H  32.66400 64.61500 40.07600
H  30.71900 65.03000 42.26800
H  33.51900 63.51700 42.65600
H  32.72800 65.00200 42.96100
H  34.14500 65.03000 41.87700
H  29.68100 65.59900 39.58100
H  31.25700 66.26600 39.54500
H  30.52900 67.33200 41.94200
H  28.96600 67.19100 41.02300
H  30.36800 68.23200 40.49100
H  24.78300 63.98600 40.37300
H  26.07600 64.30800 41.55100
H  24.64500 63.24300 41.88200
H  25.27200 59.02400 38.18800
H  22.40600 55.86100 39.77400
H  24.11400 55.36000 40.09900
H  23.38600 55.30300 38.47000

