158

Mg 26.18400 1.11900 29.16200
C  28.02600 0.89100 32.15500
C  23.33700 1.34800 31.12900
C  24.39400 0.91000 26.41100
C  29.07100 -0.03200 27.43800
N  25.83700 0.97900 31.44000
C  26.70700 1.16600 32.42500
C  25.97400 1.44600 33.73000
C  24.48600 1.25200 33.37800
C  24.54600 1.04100 31.85700
C  23.81000 0.04100 34.08300
C  26.38900 2.86100 34.30200
C  25.95700 2.98900 35.76600
H  26.98500 2.81200 36.78900
N  24.14200 1.34500 28.74700
C  23.15600 1.41600 29.70500
C  21.90900 1.70000 28.97100
C  22.22900 1.68300 27.55300
C  23.64700 1.31900 27.51300
C  20.66900 1.95000 29.74400
C  21.36000 1.86900 26.31300
O  21.78100 1.99800 25.16800
C  19.92700 2.12000 26.43600
N  26.66300 0.60900 27.19300
C  25.69900 0.60700 26.17800
C  26.36600 0.40100 24.85100
C  27.87700 0.30400 25.20000
C  27.91600 0.28700 26.71400
C  25.78100 -0.84900 24.11900
C  28.72800 1.46600 24.65200
C  29.45400 1.22200 23.27000
N  28.12200 0.54500 29.65900
C  29.16600 0.04300 28.86300
C  30.29000 -0.30700 29.66400
C  29.92400 0.08300 30.97100
C  28.59700 0.57100 30.89300
C  31.38100 -1.17000 29.21800
C  30.43000 0.12300 32.31200
O  31.53500 -0.10900 32.76600
C  29.17400 0.66800 33.17600
C  28.73900 -0.30600 34.23900
O  28.05600 -1.33900 34.05500
O  29.19400 0.17600 35.45800
C  29.07700 -0.70800 36.60600
H  22.43500 1.56900 31.70300
H  23.67900 0.80800 25.59100
H  29.97000 -0.33500 26.89700
H  26.23700 0.71900 34.49800
H  23.79600 2.06600 33.59900
H  23.50000 -0.68500 33.33100
H  23.05300 0.34300 34.80600
H  24.39300 -0.51600 34.81700
H  26.06600 3.64400 33.61600
H  27.45700 2.81400 34.08700
H  25.16200 2.27000 35.96400
H  25.51300 3.96200 35.97600
H  20.40300 3.00100 29.63000
H  20.67400 1.73200 30.81200
H  19.80100 1.39300 29.39100
H  19.63200 2.88900 25.72200
H  19.69300 2.43000 27.45400
H  19.54000 1.11500 26.27000
H  26.26000 1.36200 24.34700
H  28.33100 -0.56200 24.71900
H  26.35600 -1.13200 23.23700
H  24.73100 -0.67800 23.88200
H  25.81400 -1.71100 24.78600
H  29.62500 1.66200 25.24000
H  28.16900 2.39700 24.55900
H  30.42000 1.70600 23.12700
H  28.70000 1.59000 22.57500
H  29.55700 0.15700 23.06400
H  31.71100 -1.76200 30.07200
H  32.22100 -0.74900 28.66700
H  31.01000 -1.87300 28.47200
H  29.45800 1.60500 33.65500
H  30.05200 -0.69400 37.09500
H  28.87800 -1.76000 36.40000
H  28.31500 -0.23300 37.22300
Mg 43.80100 4.15600 47.52300
C  41.55600 6.91700 47.27300
C  41.01700 2.19200 48.03600
C  45.72700 1.48200 47.26400
C  46.36300 6.28500 46.87300
N  41.54400 4.57100 47.62100
C  40.90600 5.74700 47.44300
C  39.40000 5.55700 47.63800
C  39.22500 4.03600 47.90900
C  40.66600 3.53800 47.90600
C  38.28700 3.60500 49.10700
C  38.47800 6.11800 46.54900
C  38.96900 6.09300 45.13300
H  38.53900 7.21000 44.16900
N  43.43100 2.09900 47.70300
C  42.22500 1.50600 47.89200
C  42.51400 0.05800 48.02200
C  43.84900 -0.20100 47.69900
C  44.39800 1.14500 47.58700
C  41.48300 -1.00700 48.30200
C  44.52900 -1.55800 47.70700
O  43.89800 -2.55900 48.00300
C  45.89300 -1.84800 47.26700
N  45.69800 3.91200 46.84800
C  46.27800 2.67500 47.04300
C  47.81600 2.82400 47.08700
C  48.04700 4.39700 46.88800
C  46.63500 4.92000 46.85500
C  48.54800 2.18400 48.36400
C  48.87800 4.73200 45.56900
C  50.32500 4.99100 45.86100
N  43.96300 6.20800 46.97000
C  45.13600 7.00100 46.86500
C  44.76600 8.40700 46.76100
C  43.39400 8.39500 46.86600
C  42.90800 7.09900 46.98100
C  45.69700 9.58500 46.63800
C  42.29400 9.23700 47.06000
O  42.27800 10.46600 47.13900
C  40.98200 8.32200 47.14600
C  40.07900 8.72800 48.33000
O  40.24600 8.46900 49.47800
O  38.96600 9.39200 47.78900
C  38.07300 9.97300 48.73800
H  40.11700 1.57600 48.09400
H  46.40800 0.63100 47.20800
H  47.25000 6.90800 46.74500
H  39.10500 6.08800 48.54300
H  38.69700 3.59300 47.06400
H  37.91000 4.53700 49.52800
H  38.85800 3.05100 49.85200
H  37.48500 2.92900 48.80900
H  38.07700 7.10900 46.76200
H  37.53400 5.57800 46.47600
H  38.49200 5.22000 44.68900
H  40.02900 5.84300 45.07900
H  41.65400 -1.44500 49.28500
H  41.51700 -1.60900 47.39400
H  40.45700 -0.64000 48.26400
H  46.73500 -1.45700 47.83700
H  46.00700 -1.41900 46.27100
H  45.93800 -2.93500 47.19300
H  48.32300 2.28000 46.29000
H  48.51900 4.66700 47.83200
H  47.75800 1.94500 49.07600
H  49.26900 2.80700 48.89300
H  49.00000 1.25600 48.01600
H  48.54600 5.71400 45.23200
H  48.71600 4.03600 44.74700
H  50.89000 4.83700 44.94100
H  50.76100 4.40900 46.67300
H  50.38300 6.03600 46.16700
H  46.49400 9.29800 45.95100
H  46.18600 9.66800 47.60900
H  45.19600 10.51900 46.38400
H  40.35400 8.35100 46.25600
H  38.59000 10.32100 49.63200
H  37.39800 9.17000 49.03400
H  37.62700 10.79100 48.17300

