158

Mg 26.26400 1.18600 28.16600
C  27.85800 0.89100 31.24900
C  23.27900 1.69800 29.93300
C  24.66000 1.15800 25.28500
C  29.18500 0.24300 26.57700
N  25.67800 1.34400 30.39700
C  26.52300 1.35200 31.42400
C  25.79300 1.57100 32.74500
C  24.30600 1.73700 32.29300
C  24.43900 1.68300 30.78400
C  23.34100 0.70800 32.88500
C  26.32200 2.69800 33.78700
C  26.68900 2.36000 35.21500
H  26.56500 3.41200 36.33800
N  24.25200 1.34500 27.66500
C  23.17900 1.58600 28.54200
C  21.99200 1.74300 27.79300
C  22.30000 1.55000 26.40400
C  23.77800 1.28300 26.37700
C  20.57800 1.95500 28.35700
C  21.38100 1.45900 25.14400
O  21.76000 1.19900 24.02300
C  19.92500 1.82900 25.30100
N  26.85200 0.77000 26.18800
C  26.00500 1.04000 25.16000
C  26.81000 0.93300 23.79000
C  28.25300 0.53000 24.17900
C  28.14000 0.55200 25.71500
C  26.13900 0.01900 22.73100
C  29.38600 1.58100 23.77900
C  29.65300 1.71100 22.27600
N  28.09500 0.67000 28.76000
C  29.16500 0.24700 28.00400
C  30.23900 -0.20300 28.86600
C  29.81500 0.15600 30.15400
C  28.48300 0.68500 30.01100
C  31.59900 -0.70500 28.40800
C  30.16800 0.09900 31.56800
O  31.20800 -0.19800 32.13600
C  28.91400 0.63500 32.28500
C  28.56700 -0.29000 33.35000
O  27.64600 -1.08000 33.35200
O  29.37100 -0.11400 34.47800
C  29.05300 -0.85200 35.61800
H  22.32300 1.81500 30.44900
H  24.16900 1.16100 24.31000
H  30.09900 -0.10700 26.09300
H  25.87300 0.56000 33.14300
H  23.91000 2.73600 32.47500
H  23.84400 0.12600 33.65600
H  22.94400 0.12300 32.05500
H  22.64700 1.33100 33.44900
H  25.54500 3.46200 33.80000
H  27.15400 3.18900 33.28200
H  27.71300 2.04200 35.41100
H  26.08400 1.48400 35.44900
H  19.96100 2.56600 27.69800
H  20.59400 2.49400 29.30400
H  20.14600 0.95600 28.41800
H  19.49800 1.90200 24.30100
H  19.92500 2.87400 25.61200
H  19.36100 1.23700 26.02200
H  26.84800 1.95600 23.41400
H  28.64200 -0.42900 23.83700
H  25.25800 -0.45900 23.16000
H  26.78100 -0.72900 22.26600
H  25.80100 0.64200 21.90400
H  30.37600 1.22300 24.06200
H  29.23000 2.51000 24.32700
H  29.04000 0.96700 21.76800
H  30.66500 1.48800 21.93800
H  29.36100 2.70700 21.94200
H  32.21600 -0.59000 29.29900
H  31.85000 -0.06800 27.56000
H  31.54700 -1.76200 28.14700
H  29.13100 1.59400 32.75500
H  29.26300 -1.88700 35.34700
H  28.04800 -0.75200 36.02800
H  29.69800 -0.49600 36.42100
Mg 41.02800 8.09600 29.08200
C  42.64200 9.06900 32.01600
C  38.66600 6.68400 31.01000
C  39.50500 6.85400 26.21600
C  43.66900 9.30400 27.16100
N  40.69000 8.10200 31.28600
C  41.45500 8.45900 32.30400
C  40.69500 8.31700 33.67500
C  39.41600 7.53700 33.31500
C  39.60700 7.45200 31.77300
C  39.28300 6.08900 33.93300
C  40.32700 9.75300 34.21900
C  39.30400 9.93700 35.29300
H  39.75000 10.93700 36.40000
N  39.27100 6.95900 28.70500
C  38.43100 6.41400 29.67200
C  37.44200 5.67900 29.02900
C  37.57800 5.87800 27.65900
C  38.82700 6.59100 27.48700
C  36.36100 5.05800 29.79100
C  36.53500 5.59300 26.55400
O  36.74900 5.92000 25.38900
C  35.15900 4.95300 26.88700
N  41.45900 8.15800 26.89500
C  40.78400 7.52000 25.98300
C  41.50300 7.61300 24.64500
C  42.78000 8.52500 24.94400
C  42.66100 8.70000 26.44400
C  41.93400 6.20300 24.02400
C  43.01000 9.78200 24.02600
C  42.93900 11.15000 24.63200
N  42.85500 8.99300 29.42000
C  43.81500 9.44800 28.52300
C  44.94700 10.01200 29.29900
C  44.44200 9.98600 30.64900
C  43.25600 9.28400 30.67200
C  46.17500 10.75200 28.79100
C  44.79700 10.37800 32.04300
O  45.80700 10.89300 32.47600
C  43.57500 9.85500 32.96100
C  44.19000 9.06700 34.01900
O  44.95300 8.11200 33.80500
O  43.55200 9.31200 35.17700
C  43.84100 8.36800 36.30400
H  37.97400 6.14600 31.66100
H  39.14800 6.45600 25.26400
H  44.39000 9.70400 26.44500
H  41.22600 7.84700 34.50300
H  38.49100 8.08200 33.50400
H  39.54500 5.27800 33.25300
H  38.24000 5.94600 34.21400
H  39.80900 6.10300 34.88700
H  40.12600 10.41200 33.37400
H  41.26000 10.10600 34.65900
H  38.78400 9.09200 35.74400
H  38.49800 10.50500 34.82700
H  36.54700 5.09200 30.86400
H  36.27600 3.99600 29.56000
H  35.43700 5.61400 29.63200
H  35.13200 4.05300 27.50100
H  34.73700 4.56600 25.96000
H  34.49900 5.78100 27.14500
H  40.91400 8.03400 23.83100
H  43.63200 7.84500 24.92300
H  41.39800 6.05200 23.08700
H  41.74000 5.43300 24.77000
H  42.99300 6.05000 23.81500
H  42.27600 9.63300 23.23400
H  44.01700 9.73400 23.61100
H  42.53500 10.99400 25.63200
H  42.25700 11.78500 24.06700
H  43.88600 11.68900 24.61200
H  45.92900 11.45600 27.99600
H  46.79800 10.05600 28.23000
H  46.72900 11.25200 29.58600
H  43.08700 10.74800 33.35100
H  44.89600 8.43900 36.56900
H  43.59500 7.31900 36.14200
H  43.21000 8.76500 37.09900

