158

Mg 25.21700 1.22800 30.22800
C  27.40500 1.33100 32.90200
C  22.59100 1.49200 32.54600
C  23.15500 1.21800 27.72500
C  27.93500 0.91100 28.06000
N  25.07800 1.36400 32.50000
C  26.07800 1.42800 33.37400
C  25.66300 1.67600 34.82300
C  24.12100 1.52500 34.71200
C  23.89100 1.45800 33.15100
C  23.51600 0.38800 35.64700
C  26.20100 3.07500 35.36600
C  26.86200 2.99700 36.75500
H  26.52400 4.00300 37.84300
N  23.17000 1.20200 30.14200
C  22.28900 1.33700 31.18500
C  20.94200 1.17800 30.66700
C  21.05600 1.19100 29.21300
C  22.53700 1.14900 28.98300
C  19.75000 1.15700 31.52800
C  19.95500 1.25400 28.27100
O  20.21100 1.11200 27.08400
C  18.51600 1.58100 28.68400
N  25.54200 1.05500 28.11000
C  24.46700 1.17700 27.28200
C  24.92100 1.06800 25.80500
C  26.48900 1.03000 25.97800
C  26.71200 1.03300 27.43900
C  24.33700 -0.08500 24.90900
C  27.21000 2.19800 25.13900
C  26.79100 3.64500 25.52700
N  27.19800 0.98500 30.40500
C  28.16400 0.91800 29.44200
C  29.44300 0.72300 30.14800
C  29.21900 0.91500 31.46500
C  27.82400 1.05200 31.56900
C  30.74100 0.45600 29.39200
C  29.86000 0.94500 32.77300
O  31.02400 0.82200 33.21900
C  28.70100 1.31500 33.71300
C  28.63200 0.41700 34.90500
O  28.06700 -0.67300 34.87800
O  29.12100 1.05600 35.98500
C  29.07000 0.31300 37.24400
H  21.73000 1.64200 33.20000
H  22.45600 1.39200 26.90400
H  28.89800 0.79800 27.55700
H  26.08800 0.81200 35.33300
H  23.71900 2.49700 34.99800
H  24.33000 -0.12200 36.16100
H  23.00800 -0.38400 35.07000
H  22.74500 0.91100 36.21200
H  25.51700 3.92400 35.38700
H  27.01700 3.33700 34.69400
H  27.94500 2.89000 36.69200
H  26.55500 2.04400 37.18500
H  18.76200 0.85900 31.17700
H  19.78800 2.05900 32.13800
H  19.99000 0.42500 32.30000
H  18.56600 2.46400 29.32100
H  17.99900 0.84300 29.29800
H  17.89800 1.81300 27.81600
H  24.79100 2.00800 25.26700
H  26.82600 0.15700 25.41800
H  23.46800 -0.54400 25.37900
H  25.02000 -0.92700 24.79500
H  24.06700 0.40300 23.97200
H  26.99700 2.02600 24.08400
H  28.29300 2.07600 25.16400
H  26.09900 3.72100 26.36600
H  26.23700 3.99700 24.65600
H  27.61200 4.35500 25.62900
H  30.72700 1.16300 28.56300
H  30.86600 -0.56700 29.03500
H  31.50900 0.77100 30.09900
H  29.04800 2.22600 34.20000
H  29.95800 -0.31900 37.21200
H  28.13700 -0.25100 37.25800
H  29.06500 0.95200 38.12700
Mg 42.41200 41.85600 26.54600
C  41.57000 44.12200 29.00500
C  43.67600 39.78800 28.97800
C  43.09600 39.66800 24.12100
C  41.36600 44.29700 24.17800
N  42.56200 41.90600 28.75700
C  42.09100 42.88000 29.57400
C  42.40600 42.54900 31.09100
C  43.24200 41.21900 31.02400
C  43.17200 40.99700 29.45700
C  44.72600 41.28300 31.60400
C  41.12900 42.56300 32.02200
C  41.36500 43.21700 33.38000
H  40.49600 42.64300 34.55200
N  43.28400 40.02200 26.62200
C  43.73700 39.34500 27.69700
C  44.23500 38.06000 27.25300
C  44.09300 37.98500 25.84300
C  43.46900 39.22500 25.45400
C  44.75200 37.01300 28.26300
C  44.45000 36.80000 24.91000
O  44.29300 36.79900 23.69800
C  44.95700 35.47000 25.48000
N  42.43300 42.04100 24.43400
C  42.57800 40.89200 23.71900
C  41.95200 41.02700 22.31700
C  41.55100 42.56500 22.22100
C  41.70900 42.98800 23.68100
C  42.79500 40.48800 21.09200
C  40.17400 42.84400 21.71100
C  40.01800 43.97500 20.60100
N  41.81900 43.84600 26.56400
C  41.42300 44.70300 25.53900
C  40.99600 46.00700 26.06000
C  41.04900 45.74300 27.46300
C  41.54800 44.50000 27.67700
C  40.64500 47.27300 25.33700
C  40.71900 46.35900 28.72900
O  40.28500 47.42300 29.02300
C  41.04700 45.29200 29.78200
C  42.05900 45.93000 30.68700
O  43.25600 46.01500 30.59500
O  41.37200 46.49900 31.69200
C  42.05400 47.10800 32.84600
H  43.91000 39.03700 29.73600
H  43.03000 38.91700 23.33100
H  40.88300 45.00800 23.50500
H  43.03600 43.33200 31.51200
H  42.65900 40.47400 31.56500
H  45.06700 42.05300 32.29700
H  45.49000 41.31100 30.82700
H  44.91800 40.30800 32.05200
H  40.93700 41.52000 32.27300
H  40.20400 42.94200 31.58600
H  40.98200 44.21300 33.15600
H  42.43100 43.22400 33.60500
H  43.99400 36.23600 28.37000
H  44.96900 37.34400 29.27900
H  45.67100 36.51800 27.95000
H  45.97900 35.79800 25.66700
H  45.08200 34.72400 24.69400
H  44.44400 35.02100 26.33000
H  40.96700 40.56200 22.34700
H  42.30600 43.12600 21.67100
H  43.09000 41.30000 20.42700
H  42.13200 39.77400 20.60500
H  43.66900 39.88900 21.34900
H  39.51700 43.19300 22.50700
H  39.71400 41.94700 21.29700
H  39.26400 44.68100 20.94700
H  39.79000 43.60200 19.60200
H  40.97000 44.50500 20.56700
H  39.56900 47.31400 25.16500
H  41.12900 47.28600 24.36100
H  40.89400 48.15800 25.92300
H  40.06800 45.09400 30.22000
H  43.02000 47.55700 32.61400
H  42.34100 46.29700 33.51600
H  41.36000 47.71200 33.43100

