158

Mg 16.80600 -1.60800 27.74200
C  15.45500 0.59400 30.20500
C  18.78300 -2.96800 30.23300
C  18.35700 -3.33500 25.33200
C  15.33100 0.53900 25.40500
N  17.16600 -1.13600 29.94800
C  16.40500 -0.33100 30.72700
C  16.59100 -0.71600 32.20700
C  17.86400 -1.61700 32.22700
C  17.98900 -1.90300 30.65500
C  19.11700 -1.02000 32.74100
C  15.42000 -1.22000 33.05800
C  15.15800 -0.51100 34.38300
H  16.41100 0.06100 35.17100
N  18.24900 -3.07400 27.76700
C  18.88000 -3.54200 28.89200
C  19.67300 -4.67600 28.53200
C  19.56700 -4.88800 27.17000
C  18.69200 -3.78600 26.69600
C  20.53200 -5.43300 29.50200
C  20.21300 -5.89400 26.21300
O  19.97900 -5.87200 25.01300
C  21.14600 -6.98500 26.76700
N  17.05200 -1.27700 25.73500
C  17.59700 -2.21700 24.91900
C  17.30500 -1.88000 23.41600
C  16.24900 -0.72600 23.45200
C  16.27200 -0.42800 24.96100
C  18.45300 -1.58000 22.47100
C  14.80400 -1.05400 22.88800
C  13.79800 -1.63300 23.91400
N  15.57600 0.25100 27.73100
C  14.90700 0.81000 26.65700
C  13.93600 1.74800 27.18000
C  14.12400 1.71100 28.59100
C  15.13900 0.78200 28.83300
C  12.83300 2.47700 26.38300
C  13.52900 2.16500 29.76300
O  12.54400 2.87100 30.06500
C  14.46800 1.52400 30.93100
C  15.24800 2.58500 31.58100
O  16.35200 2.95500 31.21000
O  14.68500 2.90000 32.80500
C  15.35900 3.90900 33.68400
H  19.39200 -3.50500 30.96400
H  18.72500 -3.99500 24.54300
H  14.86100 0.99600 24.53100
H  16.94800 0.23200 32.61000
H  17.74200 -2.58400 32.71500
H  19.38600 -1.35100 33.74400
H  19.00000 0.06000 32.64900
H  19.91500 -1.37500 32.09000
H  15.52700 -2.29500 33.20500
H  14.48900 -1.14900 32.49600
H  14.89900 -1.26100 35.13000
H  14.39600 0.24100 34.17800
H  21.53600 -5.29400 29.10100
H  20.29800 -6.49400 29.59200
H  20.59000 -5.02200 30.50900
H  20.66300 -7.67900 27.45400
H  22.05400 -6.56200 27.19900
H  21.67400 -7.44400 25.93100
H  16.84300 -2.83300 23.15900
H  16.58300 0.07100 22.78700
H  18.35900 -0.55600 22.10900
H  18.43100 -2.20700 21.57900
H  19.44500 -1.67800 22.91100
H  14.96500 -1.61800 21.96900
H  14.42400 -0.08100 22.57400
H  13.22100 -0.75800 24.21500
H  14.35500 -2.07600 24.73900
H  13.17800 -2.33700 23.35900
H  13.15700 3.50600 26.22400
H  11.88300 2.49100 26.91700
H  12.58600 1.91400 25.48400
H  13.81200 0.99300 31.62100
H  15.96800 3.32900 34.37700
H  14.72800 4.58300 34.26300
H  16.01900 4.57600 33.12800
Mg 10.66600 46.55800 25.64700
C  8.64400 46.68500 28.47200
C  13.24000 47.76400 27.48700
C  12.54400 46.14600 22.90500
C  7.75700 46.11700 23.68300
N  10.86800 47.18000 27.70500
C  9.97400 47.06200 28.74100
C  10.52900 47.65900 30.03500
C  11.82600 48.40100 29.54000
C  11.99300 47.74900 28.19300
C  11.62700 49.94300 29.45300
C  10.81600 46.47000 31.05700
C  10.35200 46.59000 32.57800
H  10.44100 45.36900 33.40800
N  12.63800 46.73400 25.24900
C  13.53400 47.21200 26.17900
C  14.88500 47.15800 25.59800
C  14.73300 46.60400 24.27200
C  13.26400 46.41300 24.08200
C  16.14700 47.54800 26.30900
C  15.75400 46.29400 23.22000
O  15.47800 45.88100 22.13600
C  17.22000 46.56100 23.57100
N  10.20800 46.21400 23.57400
C  11.16800 46.09500 22.66600
C  10.62000 45.91000 21.24500
C  9.09000 45.63500 21.57800
C  8.99900 46.07800 22.99200
C  10.90300 47.17400 20.40500
C  8.75300 44.11800 21.29300
C  9.13800 43.06900 22.41600
N  8.68300 46.30300 25.95900
C  7.61400 46.19600 25.06700
C  6.36600 46.19900 25.81800
C  6.71200 46.29900 27.13300
C  8.15100 46.44400 27.20700
C  5.00500 45.98600 25.23700
C  6.13400 46.40500 28.46100
O  4.95700 46.45200 28.79900
C  7.37800 46.84600 29.34100
C  7.28800 45.95800 30.58200
O  7.79100 44.83800 30.67500
O  6.42800 46.56100 31.45800
C  5.99600 45.77800 32.64800
H  14.07700 48.18800 28.04500
H  12.94000 45.81200 21.94400
H  6.91900 46.03000 22.98900
H  9.78800 48.14000 30.67300
H  12.61800 48.18900 30.25800
H  12.27500 50.47000 30.15300
H  10.65400 50.11800 29.91300
H  11.43800 50.31900 28.44700
H  11.89400 46.33200 30.97700
H  10.33200 45.58500 30.64300
H  9.31800 46.91300 32.69900
H  10.91800 47.41600 33.00900
H  16.03800 47.71600 27.38100
H  16.41100 48.47500 25.80000
H  16.88200 46.76000 26.14500
H  17.56500 45.97000 24.42000
H  17.56300 47.59100 23.67300
H  17.81900 46.17000 22.74900
H  11.04000 44.99400 20.82800
H  8.42100 46.22600 20.95200
H  11.65900 47.77300 20.91300
H  9.96300 47.68500 20.20000
H  11.45800 46.78800 19.54900
H  9.41400 43.84500 20.47000
H  7.75600 44.02500 20.86200
H  9.58400 43.51600 23.30500
H  9.92500 42.39100 22.08800
H  8.25400 42.48800 22.68000
H  4.50700 45.08000 25.58400
H  4.87300 46.11900 24.16400
H  4.37100 46.80100 25.58400
H  7.21300 47.89400 29.59200
H  5.15400 45.09700 32.52200
H  5.72200 46.55000 33.36700
H  6.85400 45.41100 33.21000

