158

Mg 1.09200 8.15000 26.05000
C  2.06000 10.11700 28.74600
C  1.44100 5.31900 27.96800
C  0.51400 6.26700 23.30800
C  1.55900 11.04200 23.89800
N  1.71400 7.77800 28.12600
C  1.95500 8.74100 29.02500
C  2.06800 8.16000 30.43000
C  2.02200 6.61500 30.23400
C  1.66600 6.53600 28.70400
C  3.29800 5.87400 30.80800
C  0.86900 8.68500 31.15400
C  1.00300 8.77500 32.72200
H  2.24400 8.18300 33.44300
N  0.98900 6.00900 25.75200
C  1.07300 5.04500 26.66300
C  0.81700 3.79600 26.05700
C  0.43100 4.01300 24.74600
C  0.65900 5.49200 24.54900
C  0.73700 2.41300 26.82000
C  -0.10800 3.12100 23.76200
O  -0.32100 3.51300 22.61300
C  -0.47800 1.77800 24.03700
N  1.21600 8.58200 23.88900
C  0.86700 7.55600 22.93500
C  0.83300 8.14400 21.48400
C  0.98900 9.67000 21.81900
C  1.15400 9.81100 23.30800
C  2.00200 7.60400 20.62300
C  -0.17200 10.52000 21.30200
C  -0.07900 10.98100 19.79700
N  1.76000 10.15600 26.25200
C  1.82400 11.13500 25.30700
C  2.15000 12.43200 25.94500
C  2.30600 12.04600 27.31100
C  2.01800 10.69900 27.42700
C  2.20300 13.81600 25.35200
C  2.59200 12.61700 28.61100
O  2.90100 13.71300 28.97600
C  2.35100 11.30300 29.57600
C  3.47700 11.00800 30.44000
O  4.53400 10.53800 30.11900
O  3.20200 11.62300 31.60400
C  4.22300 11.69400 32.60000
H  1.50500 4.41500 28.57600
H  0.22400 5.72800 22.40400
H  1.53800 11.95100 23.29300
H  2.98000 8.41200 30.97100
H  1.16300 6.08300 30.64400
H  4.08400 6.56200 31.11900
H  3.55800 5.23700 29.96200
H  3.05500 5.24700 31.66500
H  0.09400 7.94100 30.96800
H  0.51100 9.62500 30.73400
H  0.05000 8.32300 32.99400
H  0.80300 9.78900 33.06800
H  -0.31700 2.19300 26.99500
H  1.43200 2.47300 27.65700
H  0.93600 1.53000 26.21300
H  0.39000 1.19800 24.35000
H  -0.79200 1.24100 23.14200
H  -1.29800 1.72100 24.75300
H  -0.15300 8.06700 21.02700
H  1.82000 10.16500 21.31600
H  2.69300 8.34600 20.22200
H  1.61500 7.09300 19.74100
H  2.56500 6.89800 21.23300
H  -0.16400 11.37300 21.98100
H  -1.10500 9.96500 21.39700
H  -0.21000 10.12100 19.14000
H  0.88600 11.40600 19.52300
H  -0.87700 11.67000 19.52400
H  1.16600 14.14800 25.31000
H  2.57800 13.74200 24.33100
H  2.88600 14.46200 25.90300
H  1.52000 11.48900 30.25500
H  4.86000 12.57700 32.52700
H  4.92400 10.85900 32.57800
H  3.69800 11.77400 33.55200
Mg 29.31600 58.16100 40.94200
C  26.31500 56.77200 39.75000
C  31.06200 55.45100 39.58500
C  32.10600 59.93200 41.27900
C  27.42700 61.26200 41.39000
N  28.73900 56.37700 39.75700
C  27.43700 55.99100 39.36500
C  27.39100 54.65200 38.66600
C  28.92400 54.16600 38.88100
C  29.61500 55.38000 39.50700
C  29.05200 53.02100 39.93600
C  26.99700 54.79100 37.19800
C  26.03800 53.79500 36.67700
H  26.25400 53.48100 35.18800
N  31.32000 57.74100 40.48900
C  31.84100 56.53300 39.99700
C  33.33200 56.65000 40.07900
C  33.66500 57.94200 40.57900
C  32.34900 58.59300 40.87500
C  34.25700 55.45100 39.74600
C  35.08900 58.51000 40.77200
O  36.05200 57.78900 40.50300
C  35.35100 59.90900 41.32000
N  29.74000 60.31400 41.29800
C  31.02000 60.73600 41.44200
C  31.04100 62.25900 41.85200
C  29.56700 62.69600 41.76200
C  28.83800 61.35400 41.56800
C  31.70500 62.69300 43.25800
C  29.22600 63.80100 40.73400
C  28.71700 65.11400 41.37100
N  27.33100 58.84200 40.87900
C  26.71800 60.08500 41.02200
C  25.32200 60.00300 40.83500
C  25.08500 58.66500 40.43700
C  26.39700 58.04700 40.37800
C  24.34200 61.14300 41.04900
C  24.08900 57.68400 40.09600
O  22.87400 57.70400 40.09700
C  24.86600 56.44200 39.57100
C  24.56100 55.24800 40.39700
O  24.78300 55.19100 41.61100
O  24.01200 54.25200 39.63800
C  23.52100 52.99600 40.32000
H  31.64600 54.56400 39.33200
H  32.95100 60.60400 41.44600
H  26.87600 62.20500 41.35200
H  26.61200 54.02200 39.09500
H  29.51600 53.95600 37.99000
H  28.26900 52.28300 39.76100
H  28.99100 53.49600 40.91500
H  29.95100 52.44200 39.72500
H  27.94400 54.83200 36.66000
H  26.55200 55.74800 36.92500
H  24.99200 54.07700 36.79700
H  26.22700 52.81200 37.10800
H  34.86800 55.64100 38.86400
H  33.69900 54.51800 39.66500
H  34.90200 55.29900 40.61100
H  35.09800 60.74500 40.66700
H  36.42600 59.98600 41.48000
H  34.92100 59.98400 42.31900
H  31.59400 62.80900 41.09100
H  29.22000 63.07700 42.72300
H  32.72200 62.31400 43.35900
H  31.15100 62.35000 44.13200
H  31.79400 63.77800 43.30600
H  28.64200 63.42100 39.89600
H  30.11400 64.16900 40.22000
H  29.42500 65.27400 42.18500
H  27.70300 64.99800 41.75400
H  28.71700 65.97900 40.70800
H  23.31200 60.79000 40.99300
H  24.48200 61.88600 40.26300
H  24.44400 61.48500 42.07900
H  24.54600 56.19900 38.55800
H  22.54200 53.23800 40.73300
H  24.12900 52.82600 41.20900
H  23.44400 52.14500 39.64300

