158

Mg 2.64100 -1.03900 43.89500
C  6.04800 -0.17500 43.53100
C  1.81200 1.95700 42.38800
C  -0.47700 -2.08300 43.85700
C  3.64800 -4.30000 44.88700
N  3.83900 0.66500 43.10400
C  5.19800 0.78700 42.96200
C  5.57600 2.07700 42.26800
C  4.20100 2.93000 42.37700
C  3.17000 1.83400 42.70600
C  4.19500 4.21000 43.26000
C  6.23800 1.91600 40.81700
C  6.04900 0.58900 40.14200
H  6.49900 0.58200 38.70600
N  0.88000 -0.15100 43.20000
C  0.69900 1.09000 42.61700
C  -0.70200 1.25600 42.28500
C  -1.35500 0.05400 42.65800
C  -0.33500 -0.78400 43.28600
C  -1.18700 2.51600 41.70500
C  -2.82400 -0.28100 42.23800
O  -3.50300 0.55400 41.79200
C  -3.45000 -1.70200 42.35600
N  1.71500 -2.91400 44.25800
C  0.40900 -3.08000 44.23300
C  -0.06100 -4.46500 44.71800
C  1.29400 -5.21300 44.70500
C  2.34400 -4.07200 44.58600
C  -0.75500 -4.44200 46.14300
C  1.51600 -6.17600 43.49400
C  1.89900 -7.65800 43.79100
N  4.46500 -1.99400 44.43300
C  4.69300 -3.31900 44.74100
C  6.11800 -3.56500 44.75400
C  6.72700 -2.28400 44.48900
C  5.64000 -1.44800 44.09500
C  6.87000 -4.78500 45.16300
C  7.94500 -1.59300 44.36400
O  9.07900 -1.89900 44.81500
C  7.60000 -0.26000 43.58800
C  8.36800 0.81200 44.34300
O  9.44600 1.30200 43.93900
O  7.72700 1.23000 45.46700
C  8.41000 2.33800 46.29000
H  1.56400 2.97600 42.08400
H  -1.49200 -2.48500 43.82900
H  4.11900 -5.27800 45.00900
H  6.32600 2.52200 42.92100
H  3.77600 3.23100 41.41900
H  3.84300 3.92600 44.25100
H  3.59500 5.01900 42.84300
H  5.22800 4.54000 43.36300
H  7.30900 2.11900 40.84400
H  5.74300 2.67300 40.20800
H  4.99000 0.33200 40.16900
H  6.70100 -0.15700 40.59500
H  -2.24600 2.75500 41.60800
H  -0.77200 2.69900 40.71400
H  -0.87000 3.36400 42.31300
H  -3.48900 -2.05100 43.38800
H  -2.95100 -2.49200 41.79400
H  -4.51100 -1.71600 42.10900
H  -0.73200 -4.76800 43.91500
H  1.51800 -5.75700 45.62200
H  -0.17900 -5.02200 46.86400
H  -1.78300 -4.79600 46.21600
H  -0.52200 -3.40800 46.39600
H  2.40200 -5.73600 43.03700
H  0.62400 -6.00500 42.89100
H  1.07300 -8.24200 43.38600
H  2.02100 -7.78900 44.86600
H  2.75300 -7.88000 43.15200
H  7.79800 -4.90400 44.60300
H  6.18100 -5.62700 45.10700
H  7.19200 -4.65800 46.19700
H  7.94600 -0.38200 42.56200
H  8.49000 2.14300 47.35900
H  7.78800 3.22300 46.15300
H  9.40400 2.62500 45.94800
Mg 25.76200 51.22900 26.56900
C  23.74300 52.05700 29.27900
C  28.19100 50.17200 28.85700
C  28.13500 51.20600 24.09000
C  23.47200 52.53500 24.42900
N  25.93600 51.02900 28.87600
C  24.93200 51.42400 29.73400
C  25.31800 51.02800 31.15600
C  26.84800 50.59600 31.02200
C  27.02000 50.58100 29.49100
C  27.92000 51.41200 31.80900
C  24.42400 49.94200 31.73400
C  24.68500 49.58700 33.25800
H  23.83900 50.06200 34.39000
N  27.82500 50.69900 26.43700
C  28.60900 50.26800 27.52000
C  29.95600 49.94400 27.04000
C  30.02700 50.30500 25.67500
C  28.63800 50.74400 25.33100
C  31.06400 49.38200 27.98100
C  31.21600 50.21600 24.74100
O  31.22300 50.48700 23.50400
C  32.52400 49.70400 25.24600
N  25.85400 51.94700 24.65700
C  26.89800 51.80700 23.81000
C  26.53400 52.14300 22.38500
C  24.91500 52.33200 22.41000
C  24.78000 52.29500 23.92900
C  27.38400 53.36100 21.83900
C  24.20400 51.20300 21.64900
C  24.46200 49.75200 22.04300
N  23.83400 52.05600 26.78900
C  23.04900 52.56200 25.77900
C  21.75500 53.04300 26.35700
C  21.96600 52.85900 27.76400
C  23.26100 52.27800 27.89700
C  20.65200 53.61000 25.46800
C  21.44700 53.07700 29.10300
O  20.37000 53.58800 29.50000
C  22.53900 52.60400 30.07000
C  22.86000 53.86600 30.86000
O  23.32000 54.94100 30.45800
O  22.58300 53.54600 32.12800
C  22.91900 54.56100 33.10300
H  28.95600 49.84100 29.56300
H  28.88000 51.03700 23.31000
H  22.61300 52.72100 23.78100
H  25.29100 51.89600 31.81400
H  26.87000 49.51600 31.16500
H  28.75700 51.62500 31.14300
H  28.43200 50.72800 32.48500
H  27.59300 52.32300 32.31200
H  24.58500 49.02600 31.16500
H  23.39000 50.27700 31.64700
H  25.72900 49.87700 33.37300
H  24.68900 48.50300 33.37300
H  31.05100 48.29400 28.03600
H  30.78200 49.55200 29.02000
H  32.07500 49.78500 27.91900
H  32.54000 48.70400 25.68100
H  33.01000 50.49000 25.82300
H  33.19000 49.70300 24.38300
H  26.82700 51.27400 21.79600
H  24.52800 53.26900 22.01100
H  28.13800 53.68700 22.55500
H  26.69300 54.18100 21.64100
H  27.85600 53.00900 20.92100
H  24.55800 51.37400 20.63200
H  23.12200 51.32900 21.67600
H  25.34600 49.69200 22.67800
H  24.71000 49.16400 21.15900
H  23.66500 49.24100 22.58400
H  19.80400 53.98200 26.04300
H  20.42200 52.82700 24.74500
H  21.16000 54.41800 24.94200
H  22.12000 51.85200 30.73800
H  23.40900 54.13400 33.97800
H  21.96600 54.98300 33.42100
H  23.50300 55.34100 32.61500

