158

Mg 27.33000 50.56500 26.69400
C  25.22900 51.84600 29.25400
C  29.33100 49.29400 29.01700
C  29.23300 49.46200 24.18500
C  24.96600 51.80100 24.33200
N  27.29600 50.62300 28.92100
C  26.33800 51.17800 29.78200
C  26.76100 50.88400 31.21600
C  28.19200 50.18500 31.09400
C  28.30700 50.04200 29.60000
C  29.39900 50.96100 31.67800
C  25.62900 50.13500 32.07700
C  25.00300 50.90600 33.32900
H  25.35500 50.53500 34.80900
N  29.07600 49.64100 26.60800
C  29.75000 49.17600 27.69900
C  31.00400 48.53700 27.29700
C  30.99000 48.43400 25.88200
C  29.74200 49.20600 25.48800
C  31.96200 48.01500 28.30400
C  31.98400 47.76200 24.95000
O  31.76700 47.75300 23.75200
C  33.16200 46.93200 25.46100
N  27.16000 50.70700 24.49000
C  28.02300 50.13500 23.74500
C  27.72800 50.16500 22.23300
C  26.29000 50.94600 22.28800
C  26.08500 51.12000 23.77600
C  28.63400 50.99300 21.24200
C  25.06600 50.17300 21.66000
C  24.35500 49.13800 22.60600
N  25.56200 51.74100 26.71600
C  24.70800 52.00500 25.68600
C  23.54800 52.75300 26.22700
C  23.72100 52.67300 27.67100
C  24.95200 52.01900 27.88600
C  22.44000 53.40400 25.48100
C  23.00800 52.94100 28.90600
O  21.93900 53.53800 29.16000
C  23.96500 52.33800 30.00200
C  24.25200 53.47300 30.89700
O  25.04900 54.33100 30.57600
O  23.59700 53.49000 32.06100
C  23.98000 54.46500 33.12700
H  29.98700 48.84400 29.76600
H  29.82100 49.10700 23.33700
H  24.22100 51.97000 23.55100
H  26.96100 51.80100 31.77000
H  28.26400 49.15200 31.43300
H  30.09700 51.38900 30.95900
H  29.91100 50.25300 32.33000
H  29.14900 51.79400 32.33600
H  26.16500 49.28200 32.49200
H  24.81200 49.69800 31.50400
H  23.94400 51.13800 33.21400
H  25.45400 51.89400 33.41300
H  31.96800 46.92600 28.25900
H  31.70300 48.16400 29.35300
H  32.92500 48.50700 28.16600
H  33.84000 47.50300 26.09600
H  33.77200 46.62900 24.60900
H  32.80400 46.00600 25.90900
H  27.70500 49.15900 21.81400
H  26.34700 51.86000 21.69600
H  28.92500 50.40800 20.37000
H  29.59300 51.16100 21.73200
H  28.22000 51.94300 20.90300
H  25.28300 49.58900 20.76600
H  24.35200 50.88100 21.24000
H  23.60200 49.68800 23.17100
H  25.09100 48.79800 23.33400
H  23.92200 48.46000 21.87100
H  22.16500 52.96100 24.52400
H  22.73900 54.44800 25.38300
H  21.53000 53.29100 26.07000
H  23.44800 51.51800 30.49900
H  24.29400 55.41600 32.69600
H  24.78700 54.15900 33.79100
H  23.19400 54.51500 33.88000
Mg 17.44000 52.61000 26.25700
C  18.96300 51.34300 29.10400
C  14.85100 53.88000 28.18100
C  16.01500 53.54100 23.36500
C  19.92800 50.88900 24.42300
N  16.98700 52.55100 28.38700
C  17.77400 51.96900 29.40900
C  17.18800 52.38700 30.81500
C  15.79700 52.97500 30.40900
C  15.86900 53.18900 28.89600
C  14.60300 52.14500 30.79300
C  18.14500 53.44900 31.46900
C  18.31000 53.37400 32.99700
H  17.09200 53.04800 33.91800
N  15.72600 53.70400 25.81400
C  14.82300 54.14200 26.76600
C  13.91700 54.95900 26.09100
C  14.25300 54.96300 24.63200
C  15.36200 54.07500 24.54100
C  12.89500 55.72500 26.87400
C  13.53800 55.60300 23.49500
O  13.98300 55.51500 22.38200
C  12.41700 56.51500 23.76700
N  17.79400 52.12100 24.14400
C  17.12300 52.76000 23.17800
C  17.71400 52.51200 21.72600
C  19.18800 51.96000 22.21000
C  19.02100 51.63600 23.67500
C  16.91000 51.62400 20.78500
C  20.35400 53.01100 22.01900
C  21.64900 52.49000 21.44100
N  19.12400 51.36400 26.62300
C  19.94100 50.71000 25.77200
C  20.89000 49.91400 26.51600
C  20.52200 50.12900 27.83600
C  19.41800 50.99400 27.84700
C  22.02700 49.02900 26.05200
C  20.84300 49.82800 29.20000
O  21.72000 49.24100 29.84300
C  19.84300 50.66900 30.07400
C  19.21000 49.78600 31.03200
O  18.33500 49.01000 30.71400
O  19.79100 49.87600 32.31000
C  19.04200 49.14600 33.32100
H  13.99000 54.19100 28.77600
H  15.68500 53.91500 22.39400
H  20.68300 50.42900 23.78200
H  17.04800 51.51300 31.45100
H  15.57000 53.91700 30.90900
H  13.99800 52.74200 31.47500
H  14.95100 51.32900 31.42700
H  14.15800 51.77900 29.86800
H  17.73800 54.44100 31.27400
H  19.02500 53.60500 30.84500
H  18.76100 54.29400 33.37100
H  19.18500 52.73100 33.09900
H  12.12600 55.08200 27.30500
H  12.44200 56.53200 26.29900
H  13.36900 56.12500 27.77000
H  11.56900 56.03900 24.26100
H  12.12600 56.92600 22.80000
H  12.82600 57.31300 24.38700
H  17.83000 53.48800 21.25500
H  19.48900 51.08000 21.64100
H  15.98200 51.18000 21.14700
H  17.59300 50.82000 20.51000
H  16.62200 52.20100 19.90600
H  20.46500 53.56900 22.94800
H  19.93600 53.66700 21.25500
H  21.92200 53.17100 20.63500
H  21.42900 51.46900 21.12600
H  22.43500 52.60100 22.18800
H  22.69500 49.11800 26.90900
H  22.39300 49.38500 25.08900
H  21.72300 47.99100 25.91800
H  20.31100 51.41300 30.71900
H  17.96500 49.30200 33.37200
H  19.53300 49.30900 34.28000
H  19.22500 48.08400 33.15800

