158

Mg -1.72100 18.40200 26.95000
C  -2.21400 16.06700 29.76300
C  -2.74100 20.93900 29.11700
C  -1.73300 20.33600 24.35800
C  -1.41400 15.58800 24.94000
N  -2.14600 18.46400 29.18600
C  -2.12800 17.47900 30.11700
C  -2.42700 18.00800 31.56900
C  -3.05600 19.43700 31.23100
C  -2.56800 19.66200 29.76400
C  -4.62200 19.52900 31.29000
C  -1.19900 18.20400 32.48000
C  -1.46600 17.66000 33.92700
H  -0.27500 17.37700 34.76200
N  -2.05800 20.29000 26.75800
C  -2.53800 21.24900 27.75700
C  -2.53500 22.59200 27.12500
C  -2.11500 22.41700 25.76900
C  -1.89900 20.98400 25.56100
C  -2.88400 23.90300 27.86200
C  -1.75000 23.43900 24.68000
O  -1.35000 23.18900 23.55200
C  -1.99500 24.91300 24.93600
N  -1.76100 17.98800 24.91000
C  -1.62400 19.01800 24.05300
C  -1.41700 18.50200 22.65500
C  -0.90900 17.02900 22.91700
C  -1.37100 16.83000 24.35700
C  -2.62200 18.54300 21.82100
C  0.64800 16.97700 22.71000
C  1.62500 17.62100 23.71100
N  -2.03700 16.23400 27.18500
C  -1.87000 15.29600 26.22700
C  -2.00500 13.96500 26.82900
C  -2.26500 14.20900 28.15100
C  -2.18200 15.63400 28.35900
C  -1.93100 12.65300 26.10000
C  -2.58300 13.65300 29.48800
O  -2.76600 12.48100 29.76000
C  -2.52500 14.83300 30.54400
C  -1.53900 14.55100 31.62400
O  -0.37900 14.87400 31.58500
O  -2.09800 13.87700 32.67900
C  -1.24300 13.39900 33.82900
H  -3.10800 21.73800 29.76400
H  -1.66600 20.96800 23.47000
H  -1.11900 14.83900 24.20200
H  -3.25900 17.42400 31.96200
H  -2.72100 20.22200 31.90900
H  -5.06300 18.64500 31.74900
H  -5.08600 19.73700 30.32600
H  -4.93800 20.35300 31.92900
H  -0.97400 19.26900 32.53700
H  -0.30800 17.67700 32.13700
H  -2.01200 16.72000 33.84600
H  -2.07700 18.35100 34.50800
H  -3.45700 24.53000 27.17900
H  -1.96500 24.40700 28.16100
H  -3.50900 23.69300 28.73000
H  -1.88600 25.36300 23.94900
H  -1.30200 25.28600 25.68900
H  -3.02100 25.19300 25.17500
H  -0.65900 19.06800 22.11200
H  -1.43000 16.30100 22.29400
H  -3.42000 19.20800 22.15200
H  -3.13100 17.59300 21.65500
H  -2.38200 18.88000 20.81300
H  0.82600 17.54900 21.79900
H  0.97800 15.94600 22.58400
H  1.11300 17.94700 24.61700
H  2.16200 18.52600 23.42600
H  2.32700 16.83400 23.98300
H  -1.28200 11.96100 26.63700
H  -1.55300 12.75100 25.08200
H  -2.90200 12.17800 25.96100
H  -3.52000 14.91200 30.98300
H  -0.16500 13.52000 33.72800
H  -1.57600 12.39700 34.09800
H  -1.63200 14.07100 34.59400
Mg -10.52600 16.90300 41.18400
C  -7.07200 16.71300 41.09700
C  -10.29700 20.31400 40.64200
C  -13.92900 16.96900 40.78500
C  -10.55400 13.31600 41.21100
N  -8.85100 18.27800 40.87100
C  -7.50900 17.97800 40.94800
C  -6.69700 19.33000 40.70400
C  -7.77600 20.46600 41.02400
C  -9.06700 19.67500 40.77700
C  -7.56900 21.21900 42.38800
C  -6.15500 19.38300 39.22700
C  -4.66200 19.20000 39.05900
H  -4.14600 18.49700 37.78500
N  -11.96300 18.51400 40.74600
C  -11.68900 19.82600 40.61000
C  -12.90300 20.56000 40.40000
C  -13.97000 19.64500 40.41500
C  -13.31900 18.27100 40.59300
C  -12.93700 22.05900 40.16900
C  -15.40400 19.98600 40.29300
O  -15.89000 21.11900 40.11100
C  -16.45100 18.88900 40.33200
N  -12.07400 15.34100 40.79900
C  -13.41900 15.68200 40.89400
C  -14.26200 14.40900 41.13900
C  -13.15500 13.27000 41.24600
C  -11.83500 14.00300 41.17700
C  -15.31200 14.34600 42.27800
C  -13.29100 12.04500 40.36700
C  -12.57200 12.04700 39.02500
N  -9.09400 15.20900 41.07600
C  -9.24700 13.81800 41.22300
C  -7.90100 13.22800 41.51000
C  -7.03700 14.30200 41.35100
C  -7.80100 15.49800 41.13300
C  -7.48100 11.86600 41.87100
C  -5.64600 14.68700 41.49400
O  -4.67100 14.00100 41.81100
C  -5.64300 16.27400 41.23500
C  -4.99600 17.09300 42.39500
O  -3.87500 17.56600 42.22800
O  -5.71800 17.01700 43.63600
C  -5.17200 17.83500 44.67800
H  -10.13000 21.38800 40.53800
H  -15.02000 16.98200 40.81700
H  -10.50000 12.25500 41.46300
H  -5.90400 19.43400 41.44500
H  -7.68200 21.26300 40.28700
H  -7.07400 22.18700 42.30800
H  -7.09300 20.52400 43.07900
H  -8.55200 21.39400 42.82600
H  -6.39500 20.38500 38.87200
H  -6.59100 18.58800 38.62200
H  -4.30100 18.58900 39.88700
H  -4.12800 20.13000 39.25700
H  -13.10400 22.28200 39.11500
H  -11.96500 22.44000 40.48200
H  -13.70000 22.49900 40.81100
H  -16.27000 18.28200 39.44500
H  -17.41700 19.37500 40.19700
H  -16.54400 18.37200 41.28700
H  -14.86500 14.39800 40.23200
H  -13.16100 12.85300 42.25300
H  -16.23100 13.85600 41.95800
H  -15.65600 15.33400 42.58200
H  -14.92500 13.87100 43.18000
H  -14.37000 12.05000 40.20800
H  -13.00700 11.13700 40.89900
H  -13.17500 11.42300 38.36400
H  -11.59000 11.57700 39.06500
H  -12.46500 13.02100 38.54800
H  -6.40100 11.83500 41.72600
H  -7.94800 11.26000 41.09500
H  -7.88100 11.72100 42.87400
H  -5.20200 16.44400 40.25300
H  -5.82400 18.70500 44.74800
H  -4.14100 18.16400 44.54100
H  -5.35800 17.29100 45.60300

