158

Mg 8.30100 3.01600 27.87600
C  9.84100 1.40100 30.66600
C  6.40100 4.73800 29.83500
C  6.89200 4.27700 25.07800
C  9.62300 0.40400 25.80700
N  8.29300 3.09300 29.95800
C  8.97200 2.45800 30.98800
C  8.61900 3.05100 32.33500
C  7.33500 3.96300 32.08100
C  7.29200 3.93500 30.48800
C  6.04300 3.45300 32.71100
C  9.82800 3.93700 32.93700
C  10.31500 3.51900 34.36400
H  10.51800 4.68400 35.44400
N  6.88300 4.42700 27.49200
C  6.19500 4.99900 28.47700
C  5.28000 6.00300 27.81500
C  5.51400 5.98000 26.42400
C  6.44300 4.88900 26.28100
C  4.23300 6.77100 28.57600
C  4.81600 6.73800 25.30700
O  4.87800 6.43300 24.09200
C  4.00900 8.02500 25.69700
N  8.30900 2.40000 25.79900
C  7.60900 3.13400 24.84000
C  7.81600 2.64300 23.45000
C  8.67400 1.37300 23.70100
C  8.87300 1.35800 25.15600
C  6.41400 2.31800 22.79200
C  9.97200 1.41400 22.86100
C  10.12800 0.25300 21.84600
N  9.68700 1.32700 28.11200
C  10.02700 0.35400 27.16700
C  10.84300 -0.70100 27.86800
C  10.86600 -0.28500 29.21900
C  10.07200 0.90200 29.32800
C  11.44100 -1.90100 27.19900
C  11.38700 -0.57300 30.63400
O  12.16800 -1.43700 31.04200
C  10.75800 0.60600 31.59700
C  10.08200 -0.23000 32.69000
O  9.32400 -1.10800 32.43800
O  10.50300 0.18500 33.86900
C  9.99200 -0.45200 35.02100
H  5.96900 5.51200 30.47100
H  6.58600 4.83600 24.19000
H  9.94200 -0.43200 25.18100
H  8.48000 2.25900 33.07100
H  7.53500 4.99800 32.35900
H  6.21900 2.69700 33.47600
H  5.38600 3.01000 31.96300
H  5.45900 4.22400 33.21400
H  9.51600 4.96600 33.11700
H  10.64400 4.12200 32.23800
H  11.34300 3.18700 34.22500
H  9.64500 2.73100 34.71100
H  4.19500 7.83500 28.34200
H  4.44200 6.81400 29.64500
H  3.26000 6.30200 28.43200
H  2.97200 7.88000 26.00300
H  3.89800 8.62000 24.79100
H  4.49500 8.65700 26.44000
H  8.21900 3.32900 22.70500
H  8.19900 0.41400 23.49800
H  5.73500 2.12000 23.62000
H  6.55700 1.51100 22.07300
H  6.00200 3.17000 22.25000
H  10.83500 1.47600 23.52400
H  10.01300 2.37200 22.34300
H  11.00600 -0.36000 22.04900
H  10.35800 0.72900 20.89300
H  9.17700 -0.27900 21.86200
H  11.75500 -1.75200 26.16600
H  10.74200 -2.73500 27.26700
H  12.28600 -2.22500 27.80600
H  11.54500 1.20500 32.05500
H  8.90600 -0.53300 34.98500
H  10.33900 0.06600 35.91500
H  10.27000 -1.50200 35.10700
Mg 27.03300 49.90100 26.79500
C  24.96900 50.97500 29.49300
C  29.56400 49.42700 29.09700
C  29.11300 49.37200 24.25200
C  24.52800 51.17500 24.62200
N  27.22300 50.19300 28.99800
C  26.23700 50.48500 29.82800
C  26.72000 50.37400 31.25800
C  28.21100 49.95200 31.20100
C  28.38300 49.82700 29.64600
C  29.26800 50.81800 31.96200
C  25.77500 49.49800 32.17000
C  25.28500 50.05200 33.51600
H  26.20000 49.91200 34.77000
N  28.99600 49.29600 26.68600
C  29.81800 49.08100 27.74300
C  31.05300 48.51700 27.24700
C  30.99700 48.53500 25.81000
C  29.65500 49.08100 25.50800
C  32.07700 47.84600 28.21000
C  32.05600 48.16600 24.78900
O  31.97500 48.16800 23.56000
C  33.36000 47.74600 25.27300
N  26.87500 50.33200 24.82300
C  27.89200 49.91200 23.94300
C  27.45000 50.21400 22.54000
C  25.94600 50.46300 22.65500
C  25.73000 50.74400 24.10900
C  28.26300 51.44000 22.04700
C  24.97700 49.42600 22.10400
C  25.32900 47.95200 22.44300
N  25.11000 50.81700 26.96300
C  24.26600 51.33600 26.01600
C  23.12200 51.94700 26.61500
C  23.31600 51.83100 27.97300
C  24.56300 51.22100 28.17100
C  21.94000 52.51500 25.96300
C  22.71600 52.15700 29.23900
O  21.64900 52.65100 29.56000
C  23.81900 51.69900 30.26300
C  24.31800 52.87300 31.03700
O  25.11900 53.77500 30.67600
O  23.57000 52.96300 32.17900
C  24.04000 53.96300 33.17000
H  30.44000 49.23100 29.71800
H  29.70100 48.93200 23.44400
H  23.72000 51.48800 23.95700
H  26.70100 51.41100 31.59500
H  28.38600 48.92400 31.51600
H  29.73800 51.41200 31.17800
H  29.91900 50.12600 32.49600
H  28.77100 51.41200 32.72900
H  26.21900 48.51200 32.30600
H  24.85400 49.40800 31.59400
H  24.29900 49.64300 33.73700
H  25.07600 51.11700 33.41100
H  32.34000 46.86000 27.82700
H  31.72400 47.91500 29.23900
H  33.00700 48.35200 27.94900
H  33.76000 48.58100 25.84900
H  34.02900 47.44200 24.46800
H  33.39400 46.80200 25.81600
H  27.82700 49.53600 21.77500
H  25.68400 51.38400 22.13400
H  29.09400 51.73000 22.69000
H  27.64200 52.33500 22.07100
H  28.78800 51.33400 21.09700
H  24.99800 49.59500 21.02800
H  23.98000 49.49700 22.53800
H  26.07100 47.75300 23.21600
H  25.74100 47.53500 21.52400
H  24.44800 47.36400 22.70000
H  21.87500 52.09500 24.96000
H  22.15600 53.58200 26.02100
H  21.04100 52.35900 26.55900
H  23.38700 50.99700 30.97500
H  24.98600 53.62400 33.59200
H  23.31400 53.86800 33.97700
H  24.02200 54.98800 32.80000

