158

Mg 36.33400 0.94900 29.07300
C  34.20400 1.89400 31.71200
C  39.00300 1.06700 31.22800
C  38.42400 0.83600 26.36800
C  33.66200 1.31400 26.83800
N  36.55700 1.41000 31.25600
C  35.48400 1.57300 32.18900
C  36.07200 1.57200 33.58300
C  37.59300 1.45600 33.35900
C  37.75300 1.28100 31.86700
C  38.47900 2.52400 33.97300
C  35.45700 0.46000 34.51500
C  34.97000 0.96300 35.89800
H  35.72600 2.06400 36.57000
N  38.40000 0.95700 28.85100
C  39.32000 0.93100 29.86700
C  40.64000 0.68300 29.33100
C  40.45800 0.64500 27.93000
C  39.04400 0.87600 27.67900
C  41.90500 0.44200 30.17600
C  41.60100 0.37100 26.89000
O  41.41200 0.30500 25.67200
C  43.04300 0.18100 27.18800
N  36.05700 1.04400 26.87900
C  37.07600 0.89100 25.98800
C  36.53400 0.59400 24.58300
C  34.93400 0.63500 24.72000
C  34.83900 1.01900 26.20900
C  37.11600 1.62500 23.56800
C  34.24000 -0.69600 24.37800
C  34.13000 -1.79100 25.51900
N  34.39700 1.39600 29.15300
C  33.43000 1.55400 28.21300
C  32.15800 2.01900 28.79700
C  32.45000 2.12000 30.13300
C  33.80500 1.77200 30.31900
C  30.91600 2.36200 27.98200
C  31.80500 2.47900 31.41800
O  30.70400 2.91700 31.66100
C  32.96800 2.29100 32.46300
C  33.04100 3.48500 33.27200
O  33.66100 4.51500 32.95300
O  32.22000 3.39100 34.37400
C  32.25700 4.41400 35.43100
H  39.81700 0.81200 31.90900
H  39.04900 0.53500 25.52500
H  32.77800 1.19200 26.20900
H  35.85900 2.55000 34.01500
H  37.98900 0.57100 33.85600
H  37.96300 3.00900 34.80200
H  38.62400 3.36200 33.29100
H  39.38600 2.17100 34.46200
H  36.22800 -0.30300 34.61400
H  34.61600 0.00600 33.99000
H  34.95900 0.16100 36.63500
H  33.92400 1.20600 35.70800
H  42.23400 -0.58400 30.01100
H  41.75000 0.47600 31.25400
H  42.57100 1.25900 29.89700
H  43.63600 0.21900 26.27400
H  43.13100 -0.87200 27.45900
H  43.31500 0.92100 27.94000
H  36.85400 -0.39000 24.23900
H  34.53700 1.51900 24.22000
H  37.65900 0.99000 22.86800
H  37.78300 2.42500 23.89000
H  36.24000 2.02500 23.05800
H  34.58000 -1.31600 23.54800
H  33.18800 -0.50300 24.16600
H  33.11100 -2.00400 25.84200
H  34.63500 -1.46000 26.42600
H  34.77600 -2.60500 25.18900
H  30.96400 3.30500 27.43800
H  30.05500 2.13200 28.61000
H  30.94800 1.47100 27.35500
H  32.70800 1.41100 33.05200
H  31.62900 5.23200 35.07900
H  33.31000 4.68400 35.50700
H  32.01000 3.90900 36.36400
Mg 9.10200 48.21100 26.28000
C  6.80000 48.78500 29.06700
C  11.59300 49.02400 28.40500
C  11.07600 48.25200 23.58900
C  6.20900 47.73000 24.25600
N  9.11600 48.77500 28.54600
C  8.11100 48.90300 29.46800
C  8.68700 49.06100 30.89200
C  10.18200 49.21400 30.59800
C  10.38500 49.07900 29.08100
C  10.83500 50.57400 31.05700
C  8.31800 47.91000 31.86700
C  9.06200 48.01300 33.20200
H  8.37300 47.45100 34.46900
N  11.11400 48.44300 25.97600
C  11.96100 48.85400 27.02900
C  13.30300 48.93200 26.46600
C  13.12400 48.73600 25.05900
C  11.75200 48.41600 24.79000
C  14.51100 49.31500 27.29100
C  14.26700 48.65700 23.93400
O  13.95600 48.38800 22.80400
C  15.72000 48.77000 24.19600
N  8.66100 48.00000 24.18000
C  9.71700 48.01000 23.31200
C  9.27000 47.67200 21.90500
C  7.69300 47.68300 22.09300
C  7.47000 47.72400 23.64100
C  9.72000 48.61000 20.74000
C  7.06300 46.45300 21.36600
C  7.05000 46.53200 19.85600
N  6.99000 48.34800 26.51300
C  5.94400 48.15400 25.58700
C  4.69300 48.30800 26.23800
C  4.91700 48.68100 27.53000
C  6.40100 48.63000 27.71000
C  3.35800 48.15400 25.58400
C  4.32400 49.19900 28.73300
O  3.19100 49.59000 28.92100
C  5.46800 49.08700 29.81000
C  5.16800 47.84800 30.60100
O  5.45700 46.71600 30.22700
O  4.52800 48.09200 31.82200
C  4.33500 46.90200 32.68000
H  12.47100 49.08800 29.05100
H  11.77800 48.18400 22.75600
H  5.32100 47.48700 23.66900
H  8.19500 49.98800 31.18500
H  10.90600 48.57400 31.10100
H  10.09100 51.18600 31.56700
H  11.24400 51.07900 30.18200
H  11.79900 50.43500 31.54700
H  8.68100 46.99900 31.39100
H  7.26000 47.80400 32.10800
H  9.25100 49.02800 33.55100
H  10.05900 47.59000 33.08400
H  15.28400 48.59600 27.02100
H  14.24700 49.36500 28.34800
H  14.87100 50.29500 26.98000
H  15.92700 49.55300 24.92500
H  16.15900 49.10400 23.25600
H  16.09600 47.76100 24.36600
H  9.52700 46.63500 21.68700
H  7.31400 48.66800 21.82100
H  8.91200 49.27100 20.42800
H  10.05600 48.02300 19.88500
H  10.34400 49.41700 21.12400
H  6.12500 46.23500 21.87700
H  7.60700 45.55300 21.65600
H  7.93000 47.06300 19.49300
H  6.13700 47.06500 19.59100
H  7.07200 45.51600 19.45900
H  2.56600 48.67800 26.11900
H  3.10900 47.09300 25.60400
H  3.37500 48.33900 24.51000
H  5.72600 49.99200 30.36000
H  3.58300 46.23000 32.26800
H  3.73500 47.15800 33.55300
H  5.23800 46.32100 32.86500

