158

Mg 41.80300 9.94500 29.65100
C  43.63100 11.13300 32.24900
C  39.41800 8.73800 31.92100
C  39.96700 8.86400 27.09300
C  44.35500 10.84400 27.57100
N  41.70600 9.64700 31.90000
C  42.52500 10.37300 32.78300
C  41.86900 10.34200 34.17000
C  40.58100 9.50300 34.07200
C  40.54000 9.28900 32.55900
C  40.60300 8.14700 34.85300
C  41.40000 11.79300 34.73200
C  40.70900 11.79800 36.06300
H  41.22000 12.79500 37.11800
N  40.01100 8.81900 29.52800
C  39.12100 8.48000 30.56000
C  37.91100 7.93300 30.00900
C  38.04900 7.91000 28.61600
C  39.41000 8.51400 28.37500
C  36.78200 7.34700 30.87700
C  37.13500 7.34000 27.60000
O  37.38400 7.28700 26.42500
C  35.74000 6.86500 27.96700
N  42.16700 9.78400 27.62600
C  41.24500 9.41700 26.72000
C  41.56800 9.63100 25.22600
C  42.85500 10.43000 25.41300
C  43.18800 10.34100 26.98200
C  41.64400 8.29200 24.43700
C  42.76200 11.92300 24.92700
C  42.06600 12.96200 25.79100
N  43.63500 10.70200 29.83200
C  44.53800 11.09600 28.92700
C  45.65500 11.73200 29.56400
C  45.21600 11.93600 30.84300
C  44.12900 11.14900 30.93300
C  46.79200 12.32700 28.89900
C  45.61300 12.53100 32.08800
O  46.54600 13.27700 32.44500
C  44.48600 12.10100 33.05300
C  45.05000 11.50700 34.25900
O  45.53500 10.41200 34.33600
O  44.84800 12.42400 35.27500
C  45.39800 11.87200 36.52100
H  38.63100 8.54500 32.65200
H  39.23900 8.63600 26.31100
H  45.07600 11.23200 26.84800
H  42.58000 9.96800 34.90600
H  39.70600 10.13200 34.23700
H  39.79100 7.97500 35.55900
H  41.53200 8.05200 35.41500
H  40.47300 7.28000 34.20500
H  40.79100 12.19400 33.92200
H  42.34000 12.33200 34.84500
H  40.71200 10.80900 36.52100
H  39.64700 11.95800 35.87600
H  36.66900 6.27000 30.75000
H  35.85500 7.86000 30.62300
H  36.93500 7.51200 31.94400
H  35.25800 6.39200 27.11100
H  35.18500 7.75500 28.26200
H  35.74500 6.06100 28.70400
H  40.85800 10.25800 24.68700
H  43.63500 9.82400 24.95100
H  41.48900 7.44500 25.10600
H  42.54500 8.04800 23.87500
H  40.95400 8.21500 23.59700
H  42.27500 11.95300 23.95200
H  43.73900 12.33900 24.68400
H  42.93700 13.47800 26.19500
H  41.46700 12.52000 26.58700
H  41.50600 13.64000 25.14700
H  46.34600 13.08400 28.25400
H  47.36200 11.59500 28.32600
H  47.48200 12.90200 29.51600
H  43.94900 13.01500 33.30400
H  45.04000 10.85700 36.69400
H  45.12500 12.52000 37.35400
H  46.48000 11.88300 36.39100
Mg 17.58400 52.25100 26.26200
C  19.63500 50.65200 28.44700
C  15.29800 52.71400 28.84300
C  15.43100 53.50200 24.06700
C  19.57700 51.00800 23.68400
N  17.57700 51.90600 28.34500
C  18.52200 51.21100 29.12300
C  18.17800 51.22900 30.59700
C  16.58600 51.38700 30.40300
C  16.52600 52.15200 29.15100
C  15.81900 50.00100 30.48900
C  18.84700 52.42800 31.25900
C  18.85200 52.40800 32.82600
H  17.90700 51.51000 33.67400
N  15.62000 53.11700 26.47200
C  14.85900 53.22200 27.60300
C  13.66000 54.02300 27.24700
C  13.70700 54.28400 25.83400
C  14.89700 53.57300 25.33900
C  12.66700 54.51200 28.30200
C  12.73300 55.06800 24.96500
O  12.95000 55.18600 23.80400
C  11.42800 55.45700 25.64000
N  17.68200 52.43100 24.14600
C  16.56300 52.91300 23.48200
C  16.78900 52.79300 21.93600
C  18.16800 52.13400 21.87200
C  18.52400 51.83100 23.31700
C  15.66000 52.01200 21.25300
C  19.27600 52.96000 21.08200
C  20.53500 53.55700 21.69700
N  19.28700 51.11500 26.08000
C  19.88600 50.63900 25.02400
C  21.06600 49.85600 25.39100
C  20.93000 49.76100 26.75000
C  19.89900 50.64400 27.08000
C  21.94300 49.04700 24.48600
C  21.46600 49.14500 27.94700
O  22.38000 48.40800 28.16800
C  20.70000 49.84100 29.05400
C  20.27300 48.86000 30.04600
O  19.67300 47.82100 29.80200
O  20.78500 49.09100 31.28700
C  20.52500 48.12400 32.40700
H  14.66600 52.90400 29.71300
H  14.74700 53.81400 23.27500
H  20.20700 50.77900 22.82200
H  18.53100 50.30400 31.05200
H  16.28200 51.97800 31.26700
H  15.61600 49.80600 29.43600
H  15.01400 50.06400 31.22100
H  16.36400 49.07300 30.66300
H  18.33300 53.35800 31.01400
H  19.87500 52.47600 30.90100
H  18.60100 53.38900 33.23000
H  19.86600 52.15200 33.13500
H  13.03400 54.15400 29.26400
H  11.68500 54.07500 28.11900
H  12.57100 55.59700 28.26700
H  11.68800 56.13500 26.45300
H  10.87900 54.56600 25.94200
H  10.91800 56.00800 24.85000
H  16.81300 53.82300 21.58200
H  18.05700 51.14400 21.43100
H  15.82000 50.98100 20.93600
H  15.48500 52.57300 20.33400
H  14.68700 52.14800 21.72300
H  18.77300 53.83900 20.67800
H  19.47900 52.27900 20.25500
H  20.65900 54.55100 21.26500
H  21.38800 52.91500 21.47800
H  20.51300 53.56000 22.78600
H  22.98900 49.17900 24.76200
H  21.92200 49.38400 23.44900
H  21.63200 48.00700 24.58300
H  21.43800 50.49800 29.51600
H  20.65600 47.08700 32.09600
H  19.54400 48.35200 32.82400
H  21.35700 48.43200 33.04000

