158

Mg 54.43100 24.78400 45.06800
C  51.48800 26.52700 43.99000
C  52.80400 21.80600 44.06600
C  57.36800 23.17700 45.09100
C  55.90400 27.75900 45.66500
N  52.28400 24.26300 44.20100
C  51.35300 25.08600 43.78500
C  50.23200 24.32900 43.12000
C  50.48100 22.86900 43.58000
C  51.97500 22.94900 43.95000
C  49.68600 22.53300 44.80600
C  50.03000 24.52400 41.57300
C  48.61600 24.91300 41.13600
H  48.24800 24.64000 39.69300
N  54.99600 22.78100 44.85700
C  54.16600 21.75200 44.38400
C  54.96700 20.54900 44.14900
C  56.26900 20.87800 44.56100
C  56.25800 22.27900 44.91700
C  54.38300 19.28900 43.51200
C  57.36800 19.85700 44.60100
O  57.09900 18.66700 44.36200
C  58.76100 20.15900 45.02800
N  56.38400 25.37700 45.30300
C  57.50800 24.52800 45.29500
C  58.81600 25.28800 45.53300
C  58.28500 26.73100 45.79300
C  56.75400 26.59900 45.49100
C  59.73700 24.72700 46.63500
C  59.03700 27.80600 44.96900
C  59.47500 29.09400 45.61800
N  53.85000 26.74400 44.96600
C  54.49900 27.84600 45.46100
C  53.63000 28.95800 45.49600
C  52.46400 28.55100 44.84200
C  52.63200 27.13700 44.57100
C  54.06200 30.28700 46.12700
C  51.09300 28.91300 44.41800
O  50.45000 29.94800 44.56400
C  50.45500 27.64700 43.74100
C  50.32400 27.94800 42.26500
O  51.22200 28.19800 41.46200
O  48.94600 28.22800 42.01400
C  48.69400 28.99400 40.76600
H  52.33500 20.83600 43.88800
H  58.39900 22.82800 45.00800
H  56.33400 28.73700 45.88900
H  49.33500 24.67400 43.63500
H  50.38900 22.13200 42.78200
H  50.24600 21.72300 45.27300
H  48.66300 22.25100 44.55500
H  49.80400 23.36000 45.50600
H  50.38300 23.62100 41.07400
H  50.77900 25.25200 41.26000
H  48.48500 25.98100 41.31000
H  47.84500 24.45900 41.75800
H  54.60100 19.34500 42.44500
H  53.29600 19.23100 43.56600
H  54.67000 18.35800 44.00000
H  59.30800 19.22600 45.16700
H  58.68000 20.70800 45.96600
H  59.22500 20.66200 44.17900
H  59.30000 25.22100 44.55900
H  58.27500 26.93300 46.86400
H  59.32100 23.89200 47.19800
H  60.05000 25.50000 47.33700
H  60.62800 24.40500 46.09700
H  58.47600 28.09700 44.08100
H  59.95500 27.37000 44.57500
H  58.78100 29.87000 45.29500
H  60.49800 29.31200 45.31100
H  59.42200 28.98200 46.70100
H  54.64100 29.94200 46.98300
H  53.21000 30.94400 46.30000
H  54.74900 30.86500 45.50800
H  49.48200 27.41300 44.17200
H  49.24300 28.65300 39.88900
H  49.00000 30.03000 40.91200
H  47.62700 29.07000 40.55500
Mg 48.65000 34.48500 27.53400
C  46.74100 33.09000 29.98100
C  48.86400 37.36100 29.58100
C  50.25800 36.13300 25.07800
C  48.23800 31.76500 25.49400
N  47.83400 35.11900 29.48400
C  47.20500 34.33100 30.34900
C  47.25100 34.90000 31.79500
C  47.59000 36.43000 31.46700
C  48.18300 36.27900 30.09700
C  46.40500 37.47900 31.66800
C  48.35500 34.19100 32.55500
C  48.20000 34.03000 34.10700
H  49.00100 35.07000 34.90200
N  49.59100 36.33400 27.38400
C  49.59900 37.38900 28.33600
C  50.43800 38.50300 27.82200
C  50.86700 38.05900 26.53900
C  50.20900 36.81300 26.26200
C  50.70200 39.74600 28.68000
C  51.80800 38.75900 25.54800
O  52.28100 38.27900 24.48600
C  52.25400 40.26600 25.77600
N  49.10800 34.04900 25.50800
C  49.76200 34.85900 24.74500
C  49.88200 34.27300 23.30500
C  49.56300 32.76300 23.58400
C  48.94600 32.81200 24.91600
C  48.93800 34.94100 22.20200
C  50.75000 31.78300 23.56500
C  51.17500 31.34200 22.19800
N  47.63600 32.75500 27.61500
C  47.56900 31.62200 26.76100
C  46.72800 30.60000 27.36500
C  46.34200 31.15300 28.59300
C  47.04200 32.42200 28.73500
C  46.54500 29.23400 26.85400
C  45.58700 30.86600 29.82100
O  44.97200 29.88900 30.18400
C  45.75400 32.14800 30.69000
C  46.10200 31.75800 32.05600
O  47.16200 31.33700 32.51000
O  45.03600 32.12700 32.89100
C  45.01900 32.03900 34.35000
H  48.84000 38.29700 30.14300
H  50.72900 36.56900 24.19500
H  48.25500 30.82200 24.94200
H  46.36100 34.92500 32.42300
H  48.29400 36.74600 32.23700
H  46.70300 38.50200 31.89600
H  45.60100 37.25700 32.36900
H  45.95000 37.60500 30.68500
H  49.34800 34.49800 32.22800
H  48.51400 33.16900 32.21100
H  48.43300 33.07200 34.57200
H  47.17200 34.27300 34.37300
H  50.14000 40.61600 28.33900
H  51.78400 39.86800 28.71900
H  50.39700 39.61900 29.71800
H  52.70500 40.40400 26.75900
H  51.32900 40.84100 25.73100
H  52.97000 40.47800 24.98200
H  50.87400 34.39500 22.86900
H  48.85700 32.48600 22.80100
H  48.40600 34.20000 21.60500
H  49.49400 35.58900 21.52300
H  48.12200 35.45200 22.71200
H  50.49100 30.83500 24.03700
H  51.62600 32.26400 23.99900
H  52.18900 31.59800 21.88800
H  50.63400 31.94300 21.46700
H  51.03500 30.27800 22.01100
H  45.48700 28.99300 26.74700
H  46.94700 28.58700 27.63400
H  47.05600 28.90200 25.95000
H  44.77800 32.63200 30.71300
H  45.40600 31.09300 34.72800
H  43.97100 32.00400 34.64700
H  45.51000 32.82000 34.93100

