158

Mg 0.59200 42.72600 26.10100
C  2.87000 42.69500 28.77100
C  -1.80400 41.61700 28.26200
C  -1.31500 42.04100 23.52100
C  3.42800 43.02200 23.90800
N  0.60000 42.08600 28.27900
C  1.56500 42.32200 29.16400
C  0.98800 42.29700 30.59500
C  -0.52900 41.90700 30.43700
C  -0.54800 41.82400 28.87700
C  -0.88000 40.50300 31.17000
C  1.15600 43.69500 31.41600
C  1.58900 43.64000 32.89800
H  1.29600 42.34300 33.66100
N  -1.39100 42.04900 25.96600
C  -2.22900 41.70300 26.93400
C  -3.43200 41.19500 26.40800
C  -3.29200 41.28700 24.98400
C  -1.97900 41.78100 24.74700
C  -4.64400 40.72300 27.17900
C  -4.34100 40.92100 23.86500
O  -3.97900 41.15200 22.68000
C  -5.73900 40.32900 24.24000
N  0.99100 42.79800 23.97700
C  0.02100 42.38400 23.18800
C  0.45900 42.36400 21.69600
C  1.90900 42.83200 21.73200
C  2.16300 42.85700 23.25200
C  0.29700 40.89500 21.08500
C  2.20200 44.07900 20.90300
C  2.15600 45.37900 21.63200
N  2.69600 42.95400 26.28100
C  3.70600 43.09900 25.29600
C  4.95100 43.32300 25.92600
C  4.71100 43.17800 27.38100
C  3.33900 42.95000 27.44900
C  6.22800 43.72000 25.30300
C  5.27100 43.15800 28.67800
O  6.40900 43.37300 29.10800
C  4.16200 42.84500 29.64800
C  4.61500 41.61900 30.34500
O  4.38500 40.49500 29.90000
O  5.19100 41.88400 31.55900
C  5.48600 40.83500 32.49000
H  -2.66600 41.45300 28.91100
H  -1.87900 41.81400 22.61400
H  4.23100 43.29500 23.22000
H  1.49800 41.44300 31.04200
H  -1.29900 42.63500 30.69200
H  -1.91500 40.66100 31.47200
H  -0.25500 40.34600 32.05000
H  -0.84000 39.71200 30.42100
H  0.18900 44.18200 31.29200
H  1.75300 44.42200 30.86400
H  0.85700 44.37000 33.24400
H  2.57100 44.02800 33.16800
H  -5.48300 41.41500 27.10700
H  -4.52300 40.64100 28.25900
H  -4.94000 39.77000 26.73800
H  -6.11200 40.79200 25.15400
H  -5.70700 39.29500 24.58200
H  -6.40700 40.54100 23.40600
H  -0.22700 43.04000 21.18600
H  2.58100 42.09200 21.29700
H  1.20700 40.29700 21.13800
H  0.15000 41.14800 20.03500
H  -0.50600 40.33600 21.56600
H  1.70500 44.04100 19.93400
H  3.27000 44.01900 20.69300
H  3.08100 45.69800 22.11400
H  1.29300 45.39500 22.29700
H  1.87600 46.13400 20.89700
H  7.06700 43.05900 25.52000
H  6.43100 44.66100 25.81500
H  6.10800 43.91200 24.23700
H  4.11200 43.60600 30.42600
H  6.56900 40.73300 32.56000
H  5.01600 39.91000 32.15400
H  5.08200 41.18900 33.43900
Mg -9.51200 17.90200 42.53600
C  -6.04700 17.36600 42.12600
C  -8.95100 21.25300 41.81900
C  -12.85600 18.22800 42.18800
C  -9.90600 14.41600 42.23500
N  -7.65700 19.13200 42.03900
C  -6.43400 18.70800 41.96600
C  -5.44500 19.88000 41.68100
C  -6.27800 21.15300 41.78100
C  -7.72400 20.48800 41.94000
C  -5.91700 22.20300 42.91700
C  -4.53700 19.82100 40.39100
C  -5.06700 18.96800 39.28400
H  -4.31100 18.87700 37.92900
N  -10.67400 19.51400 42.20600
C  -10.30700 20.83000 41.87200
C  -11.48600 21.73400 41.71100
C  -12.60800 20.88400 41.87400
C  -12.08000 19.45800 42.15900
C  -11.32900 23.20800 41.29400
C  -14.03800 21.38700 41.93400
O  -14.19500 22.63100 41.74900
C  -15.22700 20.51000 42.08300
N  -11.20100 16.48600 42.02500
C  -12.48000 16.89400 42.25000
C  -13.46800 15.67700 42.33400
C  -12.44100 14.49100 42.53800
C  -11.09100 15.10800 42.23400
C  -14.61100 15.64100 43.41900
C  -12.65500 13.18800 41.81500
C  -12.70900 11.94600 42.74700
N  -8.25500 16.17000 42.31400
C  -8.56100 14.85000 42.28800
C  -7.26700 14.00600 42.25600
C  -6.24800 15.00500 42.24300
C  -6.92500 16.22900 42.25300
C  -7.21000 12.49900 42.29400
C  -4.79200 15.22500 42.18000
O  -3.85100 14.48400 41.93800
C  -4.62100 16.79000 42.25200
C  -3.72300 17.24700 43.44300
O  -2.65900 17.89100 43.36500
O  -4.41300 16.97300 44.66500
C  -3.92000 17.71500 45.82600
H  -8.72900 22.30500 41.63000
H  -13.94300 18.31000 42.12400
H  -9.93300 13.32400 42.22000
H  -4.77200 19.75000 42.52900
H  -6.31900 21.72100 40.85200
H  -4.96900 22.06900 43.43700
H  -6.71400 22.26400 43.65800
H  -6.00900 23.14800 42.38100
H  -3.51700 19.51500 40.62400
H  -4.62400 20.81100 39.94500
H  -6.05900 19.38000 39.10000
H  -5.11900 17.96000 39.69500
H  -10.54000 23.32400 40.55100
H  -11.14900 23.72500 42.23700
H  -12.17100 23.74100 40.85300
H  -15.31400 19.91100 42.99000
H  -15.24600 19.88400 41.19100
H  -16.17900 21.04000 42.04200
H  -13.95500 15.53500 41.37000
H  -12.47700 14.35200 43.61800
H  -15.59100 15.90000 43.01700
H  -14.45200 16.40800 44.17700
H  -14.66300 14.69200 43.95100
H  -11.84700 13.01900 41.10300
H  -13.61200 13.37100 41.32400
H  -13.73800 11.59900 42.66000
H  -12.55200 12.12100 43.81200
H  -12.11800 11.12200 42.34600
H  -7.77000 11.98100 41.51600
H  -7.67200 12.29400 43.26000
H  -6.15300 12.23300 42.30400
H  -3.97200 17.02100 41.40700
H  -2.84200 17.58500 45.92700
H  -4.57800 17.51500 46.67200
H  -3.96200 18.79500 45.68600

