158

Mg 25.44400 -0.15200 29.80100
C  27.47700 -0.14100 32.55600
C  22.81400 0.24200 31.88300
C  23.64800 -0.09800 27.02600
C  28.29600 -1.04000 27.76000
N  25.21400 -0.09600 31.99700
C  26.13000 -0.05600 32.95400
C  25.57800 0.06900 34.45800
C  24.01600 0.05900 34.08600
C  24.01700 0.03200 32.60600
C  23.04300 -1.00800 34.68500
C  26.00000 1.34600 35.23200
C  26.82800 1.37700 36.53200
H  26.39500 2.47000 37.65600
N  23.40600 0.04900 29.49000
C  22.47700 0.22000 30.48400
C  21.16600 0.44300 29.89300
C  21.42200 0.50500 28.44400
C  22.88600 0.13200 28.23000
C  19.87200 0.59000 30.66600
C  20.50700 0.71900 27.24100
O  20.89700 0.63400 26.07800
C  19.11600 1.19500 27.50300
N  25.84000 -0.59700 27.58600
C  24.93700 -0.40900 26.67800
C  25.56200 -0.45600 25.25300
C  27.04700 -0.73900 25.55500
C  27.10700 -0.90700 27.03400
C  25.01800 -1.48900 24.27100
C  28.07200 0.35200 24.95900
C  29.34200 -0.09800 24.27800
N  27.46800 -0.57300 30.03500
C  28.49100 -0.95800 29.18200
C  29.77300 -0.96700 29.89300
C  29.36900 -0.64700 31.19500
C  27.96800 -0.46000 31.26400
C  31.20700 -1.30800 29.35000
C  29.95600 -0.40000 32.52000
O  31.11900 -0.35900 32.94600
C  28.71000 -0.15700 33.51500
C  28.54600 -1.22200 34.51000
O  28.00300 -2.30800 34.30000
O  29.21100 -0.86400 35.64100
C  28.98300 -1.70300 36.86300
H  22.01700 0.33600 32.62400
H  23.08700 0.19700 26.13700
H  29.18700 -1.26600 27.17100
H  25.85800 -0.83700 34.99700
H  23.68100 1.07100 34.31000
H  23.54500 -1.27400 35.61500
H  23.00200 -1.86200 34.01000
H  22.06700 -0.58700 34.92700
H  25.07600 1.85800 35.50300
H  26.58400 2.01200 34.59600
H  27.85500 1.59300 36.23800
H  26.83400 0.43000 37.07200
H  20.02400 -0.16400 31.43800
H  18.91400 0.24600 30.27600
H  19.77100 1.57700 31.11900
H  18.43900 0.44000 27.90200
H  18.67000 1.61900 26.60400
H  19.17200 1.94300 28.29500
H  25.51900 0.50800 24.74700
H  27.36000 -1.75500 25.31300
H  24.42500 -2.29900 24.69600
H  25.89100 -1.96000 23.81900
H  24.47100 -0.96700 23.48600
H  28.38200 1.01900 25.76400
H  27.45900 0.90300 24.24600
H  29.51500 -1.16900 24.16600
H  30.20800 0.26300 24.83200
H  29.30100 0.19200 23.22800
H  31.32500 -0.70400 28.45000
H  31.16400 -2.33600 28.98900
H  31.93600 -1.01600 30.10500
H  28.89000 0.82400 33.95600
H  27.96000 -1.76600 37.23200
H  29.65700 -1.37300 37.65300
H  29.34000 -2.70600 36.62800
Mg 30.90100 59.23900 39.30200
C  28.26500 57.08800 38.27300
C  33.03500 56.66200 38.56100
C  33.40700 61.40600 39.82200
C  28.62300 61.73300 39.59400
N  30.60700 57.14900 38.55400
C  29.51500 56.49600 38.18200
C  29.71400 54.99600 37.91000
C  31.28200 54.83300 38.26100
C  31.69100 56.32600 38.44100
C  31.50100 54.11800 39.64800
C  29.34500 54.67800 36.38200
C  29.71400 55.63100 35.15600
H  28.60000 55.90100 34.12100
N  32.90100 59.05800 39.22400
C  33.61700 57.91100 38.93400
C  35.07500 58.14300 38.98200
C  35.23100 59.50300 39.45300
C  33.83600 60.09200 39.50200
C  36.05300 57.13300 38.45100
C  36.59200 60.13900 39.77800
O  37.54300 59.47400 40.02400
C  36.72600 61.64300 40.05400
N  31.01800 61.29400 39.65900
C  32.15000 62.01200 39.87400
C  31.89000 63.51600 39.95100
C  30.37000 63.54000 39.95000
C  29.95200 62.11500 39.65400
C  32.47600 64.11600 41.24100
C  29.86200 64.48000 38.83100
C  28.41600 65.03100 39.14700
N  28.84600 59.43800 39.09400
C  28.05000 60.50500 39.29400
C  26.64600 60.18900 39.08700
C  26.70400 58.84700 38.71900
C  28.06400 58.41400 38.71200
C  25.55200 61.09300 39.29900
C  25.89000 57.69900 38.32500
O  24.66700 57.66600 38.16800
C  26.88400 56.52000 38.06100
C  26.46000 55.27600 38.85200
O  26.95200 54.95500 39.98700
O  25.36400 54.67300 38.29700
C  24.58200 53.77000 39.07300
H  33.74600 55.83500 38.50600
H  34.11600 62.19400 40.08300
H  27.79400 62.43600 39.69400
H  29.13100 54.36300 38.58000
H  31.78600 54.30700 37.44900
H  31.98400 54.80700 40.34100
H  32.25600 53.34400 39.51200
H  30.53600 53.73800 39.98200
H  28.26100 54.56600 36.34300
H  29.66700 53.66500 36.13900
H  30.54200 55.10200 34.68500
H  30.12400 56.61700 35.37400
H  36.54900 57.59400 37.59700
H  35.62400 56.23100 38.01600
H  36.79000 56.93500 39.23000
H  37.74900 61.94900 40.27000
H  36.13800 61.74400 40.96600
H  36.33300 62.08300 39.13700
H  32.44500 64.00200 39.14800
H  29.89600 63.76700 40.90500
H  33.17300 64.93800 41.07800
H  32.92000 63.40400 41.93600
H  31.72500 64.71600 41.75500
H  29.79200 63.92700 37.89400
H  30.54900 65.31600 38.70100
H  28.03300 64.67700 40.10400
H  27.73000 64.77200 38.34000
H  28.41500 66.10400 39.34000
H  24.59200 60.61100 39.11600
H  25.71200 61.75800 38.45000
H  25.62100 61.53700 40.29200
H  26.68900 56.45000 36.99100
H  25.10500 52.84600 39.32100
H  23.69700 53.58800 38.46300
H  24.25400 54.38400 39.91300

