158

Mg 40.66100 40.70900 26.41000
C  39.93800 42.91800 28.88800
C  42.09000 38.61800 28.72400
C  41.24300 38.42200 23.87500
C  39.89600 43.18300 23.98400
N  41.21000 40.84000 28.59900
C  40.54000 41.78300 29.39800
C  40.78500 41.39900 30.86000
C  41.78500 40.13200 30.76500
C  41.73700 39.82400 29.27300
C  43.19200 40.40100 31.34600
C  39.46800 41.09200 31.64300
C  39.21100 42.01100 32.88200
H  38.75900 41.33200 34.22700
N  41.45900 38.70300 26.34100
C  41.89600 38.03700 27.41100
C  42.32300 36.66900 26.99500
C  42.00500 36.62700 25.61200
C  41.51200 37.94200 25.20000
C  42.90300 35.64600 28.04000
C  42.20700 35.43000 24.59400
O  41.95900 35.44800 23.42000
C  42.96600 34.20000 25.10500
N  40.63000 40.75300 24.23800
C  40.95500 39.68400 23.42900
C  40.79500 40.04900 21.94500
C  40.31800 41.56600 21.96600
C  40.38300 41.89500 23.47800
C  41.98200 39.85800 21.01200
C  38.98000 41.78800 21.27400
C  37.73400 41.81200 22.18700
N  40.00400 42.58600 26.37200
C  39.71500 43.47100 25.36400
C  39.16300 44.68000 25.97700
C  39.25900 44.51700 27.33400
C  39.79800 43.20300 27.56200
C  38.70100 45.91500 25.22100
C  39.13500 45.15800 28.64900
O  38.62100 46.21600 29.02600
C  39.48000 44.10500 29.70500
C  40.54000 44.66300 30.58900
O  41.75500 44.77100 30.36800
O  39.86900 45.09900 31.72400
C  40.63900 46.05000 32.59700
H  42.60400 38.00800 29.47000
H  41.29800 37.63600 23.11900
H  39.51000 43.97100 23.33400
H  41.28600 42.29000 31.23700
H  41.51400 39.24700 31.34000
H  43.19100 41.32300 31.92700
H  43.92000 40.49200 30.54000
H  43.40500 39.53800 31.97600
H  39.49400 40.06600 32.00900
H  38.58700 41.20700 31.01100
H  38.37300 42.59900 32.50800
H  40.09000 42.61900 33.09700
H  42.24000 34.86500 28.41300
H  43.21600 36.16700 28.94500
H  43.77400 35.21300 27.54700
H  42.37300 33.79700 25.92600
H  44.00100 34.46100 25.32500
H  43.07000 33.52300 24.25600
H  39.98800 39.39500 21.61500
H  41.06000 42.17400 21.44900
H  42.92400 40.05200 21.52600
H  41.92600 40.54400 20.16700
H  42.05400 38.81600 20.70100
H  38.88000 41.08000 20.45200
H  39.03300 42.79000 20.84700
H  37.16300 42.73700 22.10400
H  37.86800 41.65500 23.25800
H  37.19000 40.94400 21.81800
H  37.61800 46.01100 25.30400
H  38.99100 45.94200 24.17100
H  39.07500 46.81800 25.70200
H  38.54300 43.92300 30.23300
H  41.12000 45.38900 33.31800
H  39.96200 46.74100 33.10000
H  41.40600 46.59100 32.04300
Mg -5.09600 25.64900 25.91700
C  -3.87200 26.93300 28.91200
C  -6.98100 23.63800 27.73500
C  -5.49000 23.81200 23.10800
C  -2.78300 27.66700 24.20800
N  -5.28100 25.20800 28.11500
C  -4.85400 25.99500 29.14400
C  -5.39800 25.50900 30.52500
C  -6.36800 24.33500 30.14000
C  -6.18000 24.37800 28.55900
C  -6.03500 22.93700 30.73500
C  -6.15500 26.58200 31.30100
C  -5.87400 26.76900 32.78400
H  -5.43800 25.61100 33.65100
N  -6.14800 23.94400 25.48500
C  -6.94400 23.40300 26.39000
C  -7.77900 22.41500 25.72100
C  -7.19300 22.22600 24.41900
C  -6.23300 23.34300 24.27500
C  -8.99100 21.76400 26.41600
C  -7.50900 21.19700 23.31100
O  -6.93600 21.20900 22.27600
C  -8.47200 20.11600 23.75500
N  -4.23100 25.69700 23.99400
C  -4.66800 24.88100 23.00800
C  -3.94000 25.23600 21.71100
C  -3.26800 26.59400 22.02700
C  -3.50600 26.72200 23.47800
C  -2.94000 24.04900 21.26200
C  -3.92600 27.81200 21.36200
C  -3.03800 28.90400 20.76000
N  -3.63700 27.07500 26.33000
C  -2.84700 27.86900 25.55900
C  -2.02600 28.73100 26.43200
C  -2.38000 28.38500 27.74300
C  -3.37300 27.43200 27.62000
C  -0.99300 29.74300 26.01900
C  -2.19000 28.68500 29.08200
O  -1.43800 29.48800 29.65900
C  -3.09000 27.74300 29.94700
C  -2.16000 26.95200 30.86700
O  -1.27100 26.18600 30.55900
O  -2.29800 27.45900 32.15300
C  -1.39200 26.93500 33.15800
H  -7.66600 23.03500 28.33400
H  -5.75200 23.27800 22.19200
H  -2.15200 28.38300 23.67700
H  -4.58000 25.27300 31.20500
H  -7.40900 24.51300 30.40700
H  -6.96200 22.37900 30.86400
H  -5.57200 23.03000 31.71800
H  -5.34600 22.33600 30.14200
H  -7.22900 26.39700 31.26400
H  -5.86900 27.53500 30.85500
H  -6.80500 27.08000 33.25900
H  -5.25100 27.65000 32.93700
H  -9.84700 22.10100 25.83200
H  -9.15500 22.16500 27.41700
H  -8.89200 20.67900 26.41200
H  -8.51800 19.40200 22.93300
H  -9.46500 20.54500 23.88600
H  -8.03000 19.59700 24.60500
H  -4.77000 25.36400 21.01600
H  -2.20300 26.56000 21.79600
H  -2.92000 23.39600 22.13400
H  -1.94800 24.37500 20.94800
H  -3.34100 23.55700 20.37600
H  -4.49400 28.29400 22.15700
H  -4.68100 27.46800 20.65500
H  -2.98000 28.89600 19.67200
H  -1.99600 28.71900 21.02200
H  -3.31000 29.92900 21.01200
H  -0.49600 29.35900 25.12800
H  -0.21200 29.86200 26.77000
H  -1.44700 30.68500 25.71000
H  -3.75700 28.42400 30.47600
H  -1.68000 25.94700 33.51700
H  -1.16700 27.51400 34.05300
H  -0.38100 26.95400 32.75000

