158

Mg 1.10000 7.43600 24.59000
C  1.65900 9.55600 27.44000
C  1.71900 4.70900 26.67100
C  0.77100 5.47100 21.95500
C  1.60800 10.22600 22.55300
N  1.89900 7.25800 26.80300
C  1.82600 8.19000 27.75400
C  1.78600 7.49900 29.07300
C  2.13600 6.01800 28.81600
C  1.94400 5.95600 27.31200
C  3.46000 5.49400 29.33700
C  0.54400 7.78500 29.94300
C  0.81300 7.75400 31.51600
H  1.93400 6.88100 32.12300
N  1.22100 5.37600 24.35100
C  1.40100 4.39200 25.27300
C  1.17900 3.03700 24.70600
C  0.82600 3.24900 23.33100
C  0.89400 4.75700 23.12600
C  1.18300 1.78600 25.52300
C  0.34600 2.16600 22.30700
O  0.22800 2.41400 21.10500
C  0.15900 0.77000 22.75900
N  1.16600 7.81400 22.60300
C  0.82200 6.86000 21.66200
C  0.85600 7.36900 20.22000
C  1.20400 8.90700 20.35400
C  1.35100 9.01600 21.92900
C  1.70400 6.56700 19.19300
C  0.14600 9.85200 19.78800
C  0.62900 10.79100 18.67200
N  1.38000 9.55900 24.90800
C  1.60300 10.59300 23.96400
C  1.70400 11.93500 24.64000
C  1.70500 11.53500 26.00400
C  1.53700 10.09000 26.10600
C  1.85900 13.27100 24.01900
C  1.83900 12.07500 27.36800
O  2.05900 13.24000 27.72800
C  1.74900 10.88200 28.36200
C  2.89400 10.89000 29.37600
O  4.02600 10.38400 29.26800
O  2.40400 11.20200 30.61300
C  3.18000 10.67600 31.77400
H  1.69600 3.81400 27.29700
H  0.83800 4.84000 21.06500
H  1.86900 11.05900 21.89700
H  2.55000 8.01300 29.65700
H  1.33200 5.46700 29.30400
H  3.97800 6.23000 29.95200
H  3.98800 5.14400 28.45000
H  3.33500 4.63500 29.99600
H  -0.26500 7.12600 29.62800
H  0.31800 8.83100 29.73600
H  -0.10000 7.29400 31.89400
H  0.95200 8.78600 31.83800
H  1.86300 2.07000 26.32700
H  1.53500 0.87000 25.05000
H  0.18400 1.63500 25.93200
H  -0.35900 0.73400 23.71700
H  1.20300 0.52100 22.94800
H  -0.29000 0.10500 22.02100
H  -0.18200 7.34100 19.88900
H  2.19400 9.06000 19.92500
H  2.37400 5.82300 19.62500
H  2.31100 7.14800 18.49900
H  0.97500 6.06600 18.55600
H  -0.25800 10.49400 20.57100
H  -0.66800 9.22000 19.43200
H  1.03000 11.68000 19.15900
H  -0.23100 11.13900 18.09900
H  1.35600 10.36200 17.98200
H  1.70800 13.20800 22.94200
H  2.91900 13.46000 24.19000
H  1.21300 14.00500 24.50200
H  0.88400 10.91100 29.02600
H  2.41100 10.49400 32.52500
H  3.78100 11.47300 32.21300
H  3.80500 9.80600 31.56900
Mg 54.35100 23.73700 44.94800
C  51.90300 26.05100 43.79700
C  52.33900 21.19700 43.65200
C  56.87400 21.64400 45.46100
C  56.23200 26.59500 45.78100
N  52.42500 23.63700 43.76100
C  51.73900 24.72800 43.27000
C  50.70100 24.24100 42.28300
C  50.44200 22.77300 42.75400
C  51.78400 22.46900 43.38900
C  49.27200 22.57100 43.71800
C  51.27900 24.28500 40.85100
C  50.54800 25.15600 39.80800
H  51.42600 25.71400 38.62000
N  54.52400 21.68200 44.66900
C  53.58200 20.79100 44.21300
C  54.10600 19.48400 44.26800
C  55.38900 19.51900 44.86100
C  55.67200 20.95100 45.01900
C  53.42700 18.28400 43.60000
C  56.24600 18.35100 45.38800
O  55.81700 17.23800 45.27100
C  57.56700 18.52700 46.19300
N  56.31700 24.09400 45.28200
C  57.15200 23.05300 45.53400
C  58.58800 23.63900 45.94000
C  58.32300 25.18600 45.88800
C  56.85300 25.30600 45.69800
C  59.09500 23.17600 47.34500
C  59.12800 25.86800 44.76900
C  59.81400 27.19000 45.23900
N  54.05300 25.88300 44.99700
C  54.85900 26.84100 45.45500
C  54.10500 28.05800 45.68100
C  52.89800 27.82100 45.00500
C  52.92900 26.45900 44.56000
C  54.61000 29.23800 46.62900
C  51.66300 28.41600 44.56100
O  51.10200 29.49000 44.74300
C  50.94900 27.29400 43.78200
C  50.58200 27.84800 42.39500
O  51.38000 27.90300 41.47500
O  49.30600 28.18800 42.27600
C  48.79000 28.93800 41.09600
H  51.58800 20.44000 43.41400
H  57.76600 21.04400 45.65400
H  56.90500 27.43800 45.94700
H  49.85600 24.91800 42.41400
H  50.30600 22.10100 41.90600
H  48.56200 21.78000 43.47800
H  48.76400 23.53500 43.73700
H  49.65000 22.40000 44.72600
H  51.14900 23.30100 40.40200
H  52.34600 24.50600 40.82100
H  50.10000 25.92000 40.44300
H  49.80000 24.46200 39.42500
H  52.91100 18.56300 42.68200
H  52.69200 17.84300 44.27300
H  54.18800 17.54600 43.34700
H  57.41800 19.18700 47.04800
H  58.36100 18.93600 45.56900
H  57.83000 17.52700 46.53700
H  59.36000 23.30000 45.24900
H  58.51600 25.61100 46.87300
H  58.78700 22.13600 47.45100
H  58.68800 23.78500 48.15300
H  60.18000 23.27300 47.37900
H  58.52300 26.13700 43.90200
H  59.84300 25.20000 44.28900
H  59.22100 28.05000 44.92600
H  60.76600 27.31500 44.72200
H  59.94700 27.15400 46.32100
H  55.68500 29.40600 46.56900
H  54.37800 28.92100 47.64600
H  54.13500 30.19100 46.39800
H  50.03100 26.94200 44.25200
H  49.28600 29.88500 40.88300
H  47.70900 29.07800 41.09900
H  49.02100 28.47500 40.13600

