158

Mg 16.87600 -3.01900 28.20800
C  16.06200 -0.80100 30.88300
C  18.97200 -4.77700 30.35100
C  18.53600 -4.58000 25.62200
C  15.76100 -0.58700 26.03700
N  17.50600 -2.79700 30.38000
C  16.88900 -1.92100 31.30100
C  17.27300 -2.27700 32.74500
C  18.48600 -3.28900 32.52400
C  18.26200 -3.68200 31.01900
C  19.96700 -2.80200 32.98000
C  16.10100 -2.81400 33.63700
C  16.18100 -2.43900 35.16300
H  17.50100 -2.21700 35.82400
N  18.35100 -4.59000 27.98000
C  19.06400 -5.15300 28.98300
C  19.94500 -6.16700 28.51100
C  19.68900 -6.20200 27.11000
C  18.74400 -5.10500 26.87300
C  20.82900 -7.05900 29.43300
C  20.27900 -7.05600 26.06500
O  19.81800 -7.08400 24.93500
C  21.35200 -8.07400 26.40800
N  17.02500 -2.68700 26.13500
C  17.75500 -3.47500 25.29100
C  17.62900 -2.99700 23.85800
C  16.67400 -1.70500 23.99800
C  16.49400 -1.65500 25.44600
C  18.96000 -2.62200 23.07300
C  15.29600 -1.85400 23.26700
C  14.69600 -0.58300 22.67200
N  15.90900 -1.19900 28.39500
C  15.36200 -0.39900 27.35800
C  14.51800 0.66600 27.92600
C  14.80800 0.51100 29.30000
C  15.61400 -0.63800 29.57400
C  13.84600 1.70800 27.08900
C  14.69800 1.17200 30.58400
O  14.14600 2.29100 30.80900
C  15.44900 0.26400 31.67800
C  16.44900 1.18100 32.34300
O  17.61600 1.39500 32.02200
O  15.88500 1.83000 33.43700
C  16.67200 2.93800 34.00500
H  19.60400 -5.26000 31.09900
H  19.02000 -4.95600 24.71900
H  15.77700 0.32700 25.43900
H  17.68900 -1.37400 33.19300
H  18.33400 -4.16100 33.15900
H  20.27200 -3.39100 33.84500
H  19.82800 -1.77900 33.32900
H  20.68700 -3.08900 32.21300
H  15.90100 -3.88400 33.56500
H  15.20900 -2.29200 33.29100
H  15.62200 -3.08900 35.83500
H  15.57200 -1.53700 35.10400
H  21.82900 -6.66600 29.24900
H  20.88000 -8.10000 29.11300
H  20.59700 -6.98500 30.49500
H  22.15200 -7.62100 26.99400
H  21.87600 -8.55100 25.57800
H  20.84300 -8.86800 26.95400
H  17.07200 -3.75700 23.31000
H  17.23400 -0.78700 23.81900
H  18.80600 -1.76600 22.41600
H  19.30800 -3.47600 22.49200
H  19.81000 -2.37400 23.70800
H  14.60500 -2.15800 24.05200
H  15.37700 -2.62400 22.49900
H  15.00300 -0.59400 21.62600
H  15.17300 0.21700 23.23900
H  13.60900 -0.52700 22.72500
H  14.14200 2.70700 27.40900
H  12.78200 1.71400 27.32400
H  13.98700 1.55800 26.01800
H  14.66600 -0.03800 32.37300
H  16.42700 3.88500 33.52500
H  17.75300 2.79700 33.98900
H  16.37000 2.89100 35.05100
Mg 35.12100 49.20600 24.87900
C  35.24600 47.40100 27.85400
C  33.92800 51.85000 26.44900
C  34.79800 50.62600 21.78600
C  36.35800 46.26000 23.24800
N  34.57100 49.57900 26.91400
C  34.86300 48.71500 27.97100
C  34.52700 49.44500 29.29800
C  34.00400 50.80400 28.84500
C  34.17100 50.75200 27.34400
C  32.54100 51.11700 29.29300
C  35.83400 49.45500 30.24400
C  35.61900 49.09200 31.72600
H  34.20500 49.25100 32.29500
N  34.39900 50.95100 24.23400
C  34.14500 51.97700 25.06600
C  33.99300 53.19500 24.25900
C  34.08400 52.80300 22.92900
C  34.43700 51.35500 22.89800
C  33.66500 54.54400 24.87700
C  33.88000 53.70200 21.76400
O  33.83200 53.24700 20.62100
C  33.64600 55.20400 21.83300
N  35.57000 48.54000 22.78200
C  35.27900 49.29200 21.75600
C  35.50900 48.57700 20.38800
C  36.22900 47.27800 20.87700
C  36.07000 47.34400 22.36000
C  34.22200 48.26200 19.65200
C  37.72200 47.01600 20.44100
C  38.70300 48.07700 20.98700
N  35.66100 47.23800 25.38800
C  36.10000 46.13200 24.64700
C  36.29400 45.03300 25.55200
C  35.95700 45.44500 26.76800
C  35.65800 46.85000 26.63400
C  36.84600 43.70400 25.16700
C  35.89200 45.10800 28.18400
O  36.21200 44.08100 28.75500
C  35.53100 46.37700 28.94100
C  34.40100 45.93100 29.66600
O  33.27500 45.93000 29.15500
O  34.61200 45.56600 30.93900
C  33.39000 45.20700 31.66000
H  33.59200 52.78400 26.90300
H  34.97300 51.25200 20.90700
H  36.48300 45.27600 22.79300
H  33.72900 48.87900 29.77900
H  34.64000 51.63000 29.16400
H  32.15100 50.36600 29.97900
H  31.85900 51.37300 28.48200
H  32.70500 52.01600 29.88900
H  36.34100 50.42000 30.23600
H  36.50800 48.73500 29.77900
H  36.32200 49.61400 32.37500
H  35.90600 48.06800 31.96400
H  34.41300 55.23900 24.49500
H  33.86200 54.54100 25.94900
H  32.64000 54.79600 24.60700
H  34.33700 55.68600 22.52500
H  32.59400 55.36200 22.07000
H  33.81100 55.70700 20.88000
H  36.15200 49.19000 19.75600
H  35.69100 46.40200 20.51300
H  33.35700 48.87500 19.90200
H  33.91000 47.21700 19.66700
H  34.34200 48.54000 18.60500
H  37.71500 47.05600 19.35100
H  37.98900 46.09100 20.95300
H  39.48600 47.61500 21.58900
H  38.27000 48.90400 21.55000
H  39.34200 48.56700 20.25300
H  37.60800 43.42000 25.89200
H  37.31100 43.93500 24.20800
H  35.94500 43.10200 25.04200
H  36.36500 46.67900 29.57400
H  32.91200 44.26600 31.38700
H  32.58600 45.94300 31.67500
H  33.73400 45.23400 32.69400

