158

Mg 9.96100 48.14300 25.52100
C  7.66900 48.29500 28.09300
C  12.33000 49.63400 27.69000
C  12.24400 48.15100 22.92100
C  7.41900 47.37000 23.36600
N  10.01100 48.77700 27.71900
C  8.93800 48.67000 28.55700
C  9.40600 49.17700 29.97300
C  10.90100 49.69900 29.85800
C  11.14000 49.35000 28.34000
C  11.18400 51.20200 30.21800
C  9.22700 48.05000 31.05500
C  10.08200 48.00500 32.37900
H  9.48600 47.99200 33.74000
N  12.00100 48.67500 25.34600
C  12.77400 49.15400 26.36700
C  14.15100 49.33600 25.87200
C  14.08000 48.88700 24.51600
C  12.74800 48.53300 24.18000
C  15.26900 49.97700 26.61200
C  15.25200 48.86100 23.47000
O  15.05900 48.49100 22.30100
C  16.64500 49.25400 23.90400
N  9.88500 47.59900 23.44900
C  10.89900 47.73600 22.58500
C  10.49300 47.43900 21.15100
C  8.93900 47.28900 21.26800
C  8.69800 47.39500 22.81200
C  10.81100 48.58900 20.11000
C  8.56900 45.92000 20.73100
C  9.10200 44.75900 21.55400
N  7.97200 47.86000 25.58700
C  7.01900 47.48200 24.65600
C  5.72700 47.30200 25.29900
C  5.96500 47.64400 26.61600
C  7.26600 47.99500 26.76000
C  4.40300 46.99700 24.61100
C  5.28800 47.66500 27.88900
O  4.12200 47.43200 28.22100
C  6.42700 48.08000 28.91600
C  6.45200 46.86800 29.79600
O  7.10500 45.86400 29.60600
O  5.75200 47.06300 30.98900
C  6.05200 46.13500 32.10500
H  12.95900 50.27500 28.31100
H  12.89300 48.01100 22.05400
H  6.66300 47.16300 22.60500
H  8.77500 50.04300 30.17600
H  11.59000 49.03900 30.38500
H  10.45000 51.52400 30.95700
H  11.21500 51.81400 29.31700
H  12.14300 51.29600 30.72800
H  9.36100 47.12400 30.49600
H  8.21500 48.18000 31.44000
H  10.85000 48.77400 32.46200
H  10.51300 47.00600 32.30500
H  15.07800 49.94500 27.68500
H  15.40000 50.97700 26.19900
H  16.22600 49.47000 26.48500
H  16.72400 50.21700 24.40800
H  17.28100 49.37300 23.02700
H  16.95800 48.45200 24.57300
H  10.95800 46.49700 20.85800
H  8.38800 48.07000 20.74500
H  11.23300 49.49400 20.54700
H  9.90800 49.02600 19.68400
H  11.60200 48.31200 19.41300
H  9.10200 45.82200 19.78600
H  7.48500 45.83400 20.65000
H  9.70700 44.10600 20.92400
H  8.26000 44.14800 21.87900
H  9.73600 44.94600 22.42000
H  4.28600 45.91600 24.53100
H  4.48700 47.37900 23.59400
H  3.56400 47.43500 25.15100
H  5.99700 48.97600 29.36200
H  5.99000 45.16400 31.61300
H  5.34500 46.16900 32.93400
H  7.08100 46.32400 32.41100
Mg -10.62600 16.66200 41.03100
C  -7.20800 16.80100 41.58200
C  -10.58500 19.94500 40.19500
C  -13.97400 16.41000 40.31400
C  -10.54100 13.13700 41.40900
N  -9.07800 18.09400 40.85800
C  -7.75900 17.96200 41.06000
C  -7.01600 19.27300 40.59600
C  -8.14900 20.28500 40.76500
C  -9.40000 19.38700 40.64300
C  -8.25300 21.07300 42.10500
C  -6.47600 19.16400 39.19400
C  -5.00300 18.87700 39.04700
H  -4.65000 17.85900 38.04800
N  -12.07500 18.00700 40.30400
C  -11.87000 19.31800 40.04500
C  -13.10000 19.91100 39.73400
C  -14.02400 18.85600 39.65900
C  -13.37800 17.64300 40.04500
C  -13.30000 21.42400 39.43500
C  -15.41300 19.05300 39.15400
O  -15.76800 20.22200 38.93100
C  -16.45200 17.95700 38.87600
N  -12.00300 14.91700 40.57000
C  -13.34000 15.13600 40.56200
C  -14.16800 13.86200 40.91200
C  -12.99800 12.75900 41.02800
C  -11.73900 13.62500 40.98700
C  -14.98000 14.05700 42.26000
C  -13.07000 11.59800 39.94200
C  -12.31800 11.83600 38.57700
N  -9.18800 15.20200 41.45000
C  -9.26500 13.81500 41.61200
C  -7.95400 13.29100 42.08700
C  -7.10200 14.48300 42.08500
C  -7.86300 15.53500 41.64300
C  -7.56900 11.84100 42.26700
C  -5.79900 15.00500 42.39800
O  -4.80800 14.42800 42.77000
C  -5.89700 16.55900 42.15500
C  -5.72200 17.40500 43.40400
O  -4.95700 18.35900 43.49500
O  -6.52600 16.95800 44.40800
C  -6.15900 17.39300 45.78900
H  -10.49900 21.01600 40.00100
H  -15.06500 16.36500 40.35300
H  -10.57200 12.07300 41.65300
H  -6.09400 19.40600 41.16100
H  -8.24800 21.05600 40.00200
H  -7.30600 20.81900 42.58200
H  -9.03400 20.82400 42.82300
H  -8.24900 22.14500 41.91100
H  -6.57800 20.15700 38.75700
H  -7.01200 18.38000 38.65900
H  -4.64800 18.40700 39.96400
H  -4.54300 19.83000 38.78500
H  -13.74000 21.47700 38.43900
H  -12.33800 21.93600 39.47200
H  -13.94000 21.87100 40.19600
H  -15.94500 17.22500 38.24700
H  -17.20600 18.40400 38.22800
H  -16.93900 17.50500 39.74000
H  -14.88700 13.63800 40.12500
H  -12.84600 12.31900 42.01400
H  -14.69000 14.96000 42.79800
H  -14.96700 13.11900 42.81500
H  -16.01900 14.21800 41.97300
H  -14.13900 11.50500 39.75300
H  -12.67500 10.76900 40.52900
H  -13.06000 11.98600 37.79400
H  -11.72200 10.94300 38.38900
H  -11.67000 12.71200 38.60600
H  -7.83400 11.28200 41.37000
H  -8.13200 11.40600 43.09300
H  -6.49800 11.87200 42.46900
H  -5.06200 16.73200 41.47600
H  -6.80300 18.20200 46.13300
H  -5.19100 17.89500 45.80000
H  -5.95300 16.57600 46.48100

