158

Mg 16.57300 -1.57300 28.01000
C  15.59200 0.31100 30.67300
C  18.34700 -3.55400 30.10900
C  17.87200 -2.96400 25.24900
C  14.75000 0.54900 25.83600
N  16.89600 -1.65800 30.14800
C  16.38100 -0.83700 31.05300
C  16.93200 -1.11600 32.47900
C  17.79200 -2.38100 32.28800
C  17.66400 -2.59600 30.75500
C  19.27100 -2.13100 32.65600
C  15.97500 -1.34200 33.68300
C  16.36900 -0.85600 35.10300
H  17.83300 -0.99900 35.52000
N  18.00900 -2.96200 27.75400
C  18.56200 -3.76600 28.72100
C  19.28800 -4.79500 28.13300
C  19.18500 -4.60700 26.70000
C  18.31700 -3.44400 26.48200
C  19.87100 -5.97100 28.97800
C  19.75700 -5.48800 25.61100
O  19.62700 -5.28800 24.38800
C  20.73100 -6.53600 26.06300
N  16.39500 -1.21900 25.85200
C  16.94100 -2.02000 24.94100
C  16.53900 -1.74400 23.47600
C  15.70800 -0.39100 23.70900
C  15.55300 -0.38300 25.24300
C  17.67900 -1.40400 22.48600
C  14.42000 -0.39200 22.95200
C  13.31700 -1.40000 23.42900
N  15.29800 0.02000 28.16100
C  14.68500 0.83200 27.24800
C  14.09800 2.00000 27.87400
C  14.41800 1.87200 29.22000
C  15.14200 0.68500 29.32100
C  13.36700 3.09900 27.17700
C  14.35800 2.46500 30.44200
O  13.78200 3.44800 30.82600
C  15.04200 1.52400 31.49100
C  16.21900 2.18800 32.19800
O  17.23600 2.50100 31.57500
O  15.82300 2.41300 33.45600
C  16.70500 3.32400 34.15300
H  18.85100 -4.32800 30.69100
H  18.30800 -3.42900 24.36200
H  14.20400 1.18100 25.13200
H  17.43000 -0.18400 32.74700
H  17.49800 -3.29600 32.80100
H  19.52500 -1.16700 33.09800
H  20.03700 -2.23500 31.88700
H  19.47500 -2.86000 33.44000
H  15.84800 -2.42100 33.77800
H  15.03800 -0.83000 33.46900
H  15.83700 -1.50700 35.79700
H  15.95500 0.11600 35.37100
H  20.92400 -6.10900 28.73100
H  19.39300 -6.94300 28.85200
H  19.90000 -5.68700 30.03000
H  21.61000 -6.12800 26.56300
H  21.01700 -6.97700 25.10800
H  20.30300 -7.40400 26.56500
H  15.85800 -2.47600 23.04400
H  16.30800 0.47400 23.42700
H  17.29300 -1.49900 21.47100
H  18.33200 -2.26400 22.63400
H  18.09100 -0.40300 22.61700
H  14.71800 -0.53400 21.91300
H  14.02500 0.61400 23.09200
H  12.55200 -1.00500 24.09700
H  13.82600 -2.22900 23.92200
H  12.77800 -1.86500 22.60400
H  12.29000 2.97800 27.29700
H  13.51300 3.20400 26.10200
H  13.70700 4.00200 27.68400
H  14.26400 1.25800 32.20700
H  16.06200 4.06000 34.63700
H  17.37400 3.85200 33.47300
H  17.21800 2.76500 34.93500
Mg 25.58300 0.32100 29.64500
C  27.60200 0.18800 32.47800
C  22.86600 0.80500 31.67400
C  23.69100 0.23800 26.83600
C  28.35800 -0.54000 27.66100
N  25.28000 0.43100 31.87000
C  26.26500 0.38900 32.82700
C  25.81700 0.90200 34.23600
C  24.22500 0.81300 34.00200
C  24.10900 0.73300 32.43300
C  23.67000 -0.41100 34.81500
C  26.29200 2.39500 34.69300
C  27.16500 2.45300 35.96800
H  26.78000 3.31000 37.24600
N  23.53800 0.43300 29.33500
C  22.57500 0.67900 30.33300
C  21.24400 0.80300 29.66900
C  21.52200 0.69100 28.26500
C  22.95200 0.39900 28.06500
C  19.97700 1.11700 30.46700
C  20.57200 0.77800 27.16500
O  20.85100 0.63000 25.99700
C  19.13100 1.20400 27.50900
N  26.00100 -0.02600 27.50500
C  25.07200 0.09100 26.54900
C  25.64200 0.07400 25.17300
C  27.15700 -0.24300 25.44200
C  27.17800 -0.24800 26.98700
C  24.91300 -0.90300 24.12900
C  28.07400 0.86600 24.96000
C  29.42800 0.37500 24.30500
N  27.54200 -0.23100 29.93500
C  28.51800 -0.58600 29.06600
C  29.72900 -0.75200 29.70600
C  29.47400 -0.50900 31.03400
C  28.08600 -0.16000 31.20400
C  31.07200 -1.07800 29.02000
C  30.11500 -0.36800 32.28800
O  31.23900 -0.46800 32.68900
C  28.88400 0.05800 33.32500
C  28.82400 -0.94700 34.52400
O  28.11400 -1.92700 34.53800
O  29.54300 -0.44800 35.62100
C  29.24800 -1.09700 36.92800
H  21.95700 1.10300 32.20000
H  23.09600 0.35600 25.92800
H  29.24100 -0.79600 27.07300
H  26.15800 0.15000 34.94800
H  23.76500 1.76200 34.27500
H  24.40500 -1.15700 35.11900
H  22.98100 -0.92300 34.14400
H  23.22200 -0.00100 35.72000
H  25.43300 3.04400 34.86600
H  26.87600 2.86600 33.90200
H  28.14600 2.87300 35.74700
H  27.41500 1.43500 36.26500
H  19.54100 1.93600 29.89400
H  20.01600 1.36200 31.52800
H  19.31100 0.28000 30.25300
H  18.50600 1.04400 26.63100
H  19.27000 2.27400 27.66600
H  18.58400 0.55300 28.19100
H  25.47500 1.07900 24.78500
H  27.48600 -1.24700 25.17300
H  24.18000 -1.52200 24.64700
H  25.59100 -1.56900 23.59600
H  24.21700 -0.43700 23.43200
H  28.34900 1.53700 25.77300
H  27.62500 1.43900 24.14800
H  29.30500 -0.67100 24.02400
H  30.23300 0.63900 24.99200
H  29.63700 0.92600 23.38800
H  31.95100 -0.75600 29.57900
H  31.12500 -0.59700 28.04400
H  31.13800 -2.16500 28.98300
H  29.25400 1.03400 33.63900
H  28.53100 -0.50200 37.49400
H  30.20800 -1.02300 37.43800
H  28.85100 -2.11200 36.88300

