158

Mg 36.27800 1.12800 29.92400
C  33.77600 1.98700 32.42400
C  38.56500 0.96700 32.59300
C  38.68300 0.61600 27.71800
C  33.90200 1.65400 27.50900
N  36.12400 1.42000 32.33300
C  35.01400 1.78600 33.06200
C  35.37900 1.96200 34.57100
C  36.92900 1.82600 34.52300
C  37.24600 1.32300 33.09500
C  37.68700 3.14800 34.80500
C  34.71900 0.78400 35.26800
C  34.38900 1.04100 36.78000
H  34.81200 2.31600 37.55200
N  38.29600 0.62800 30.14200
C  39.01000 0.57700 31.29100
C  40.37300 0.05900 30.89700
C  40.45200 -0.00600 29.51100
C  39.10300 0.43400 29.04100
C  41.43900 -0.05400 31.99200
C  41.63200 -0.32300 28.49800
O  41.47300 -0.38400 27.27000
C  42.92400 -0.70800 29.08000
N  36.27100 1.07900 27.93200
C  37.42000 0.87500 27.17000
C  37.09300 1.02900 25.67200
C  35.52600 1.06400 25.62900
C  35.19000 1.30900 27.07500
C  37.70200 2.27200 25.00700
C  34.99900 -0.32900 25.11000
C  33.93800 -0.26800 23.99800
N  34.28300 1.69900 29.86000
C  33.44600 1.78800 28.83300
C  32.14500 2.10200 29.27000
C  32.21800 2.21900 30.68600
C  33.55000 1.95400 30.99000
C  30.93300 2.27300 28.42400
C  31.47900 2.63300 31.84100
O  30.34200 3.05400 32.00100
C  32.45600 2.44700 33.02600
C  32.67700 3.73900 33.71000
O  33.52300 4.54100 33.36900
O  31.68600 3.86700 34.66200
C  31.66600 5.16400 35.35600
H  39.24800 0.98200 33.44600
H  39.35800 0.66900 26.86200
H  33.14300 1.93300 26.77400
H  35.03900 2.86900 35.07100
H  37.21600 0.98800 35.15900
H  36.95400 3.94200 34.94700
H  38.33800 3.51500 34.01100
H  38.11300 2.95100 35.78800
H  35.40600 -0.05300 35.38800
H  33.81200 0.47400 34.74800
H  34.97700 0.36100 37.39700
H  33.32600 0.80200 36.80600
H  42.14400 0.76700 31.86400
H  41.96900 -1.00300 31.90300
H  41.13300 -0.00400 33.03700
H  43.19600 -0.14000 29.97000
H  43.72700 -0.72000 28.34400
H  42.74000 -1.75000 29.34200
H  37.58600 0.18600 25.18800
H  35.11600 1.90600 25.07200
H  38.37400 2.61800 25.79300
H  36.93700 3.02700 24.82700
H  38.38100 2.02800 24.19100
H  34.63900 -0.93400 25.94300
H  35.78500 -0.90200 24.61800
H  33.79900 0.73800 23.60200
H  33.05000 -0.69600 24.46100
H  34.26600 -0.94900 23.21300
H  31.20600 2.69700 27.45800
H  30.13100 2.73400 29.00200
H  30.48100 1.30700 28.19600
H  31.98700 1.75500 33.72600
H  31.88500 5.12400 36.42300
H  30.69000 5.58700 35.11800
H  32.39000 5.86300 34.93600
Mg 46.81600 44.21200 42.17400
C  43.31200 43.68600 41.99700
C  47.11800 40.88700 42.06600
C  50.07600 44.82000 42.02400
C  46.11400 47.64600 42.17700
N  45.33300 42.53000 41.76900
C  44.02500 42.47700 41.86600
C  43.39000 41.08400 41.83000
C  44.63200 40.21200 41.89200
C  45.76400 41.28100 41.82800
C  44.67600 39.22400 43.00400
C  42.38000 40.74300 40.61100
C  42.55400 41.47900 39.26500
H  42.71600 40.66900 38.00200
N  48.40900 42.97800 42.07900
C  48.34300 41.62300 42.08600
C  49.72400 41.12500 42.13700
C  50.60600 42.24000 42.29400
C  49.68400 43.42900 42.15800
C  50.03500 39.66300 42.09700
C  52.20100 42.11400 42.55800
O  52.77500 41.01500 42.64000
C  53.13200 43.32300 42.66900
N  47.94700 46.00200 41.93400
C  49.29300 45.98700 41.98700
C  49.87200 47.41400 42.00500
C  48.59500 48.20600 42.23000
C  47.47400 47.26700 42.04200
C  51.04100 47.64800 43.05500
C  48.48300 49.45500 41.26400
C  48.14100 50.82200 41.87000
N  45.15700 45.45100 41.98300
C  45.00100 46.83300 42.03200
C  43.63900 47.27500 42.08700
C  42.95700 46.00000 42.07400
C  43.90000 44.93400 41.98100
C  43.03700 48.65700 42.06800
C  41.58600 45.43500 42.10900
O  40.48100 45.92400 42.12400
C  41.84600 43.85700 42.19500
C  41.44000 43.20500 43.50500
O  40.65800 42.26800 43.60400
O  42.05000 43.76900 44.55200
C  41.99300 42.84000 45.67000
H  47.20400 39.81300 42.24700
H  51.16200 44.91500 41.97400
H  46.02700 48.69700 42.46200
H  42.89300 40.95200 42.79100
H  44.57200 39.64100 40.96600
H  45.15100 39.55300 43.92800
H  45.18900 38.32500 42.66000
H  43.68100 38.87500 43.28000
H  41.40800 41.06100 40.99000
H  42.42900 39.66500 40.45700
H  43.52300 41.97600 39.29500
H  41.76400 42.21000 39.09700
H  49.14700 39.21300 41.65300
H  50.28500 39.33900 43.10800
H  50.95000 39.46200 41.53900
H  53.12000 43.73400 41.66000
H  54.16500 43.12800 42.95800
H  52.65200 44.08800 43.27900
H  50.36300 47.58800 41.04800
H  48.69600 48.56400 43.25400
H  51.98500 47.43800 42.55200
H  50.98500 46.81100 43.75100
H  51.08500 48.59200 43.59700
H  47.69300 49.23900 40.54500
H  49.39800 49.55300 40.68000
H  48.99600 51.47800 41.71300
H  47.76700 50.71900 42.88900
H  47.27500 51.10000 41.27000
H  43.73600 49.35400 41.60500
H  42.95200 48.92300 43.12200
H  42.10300 48.64600 41.50700
H  41.19100 43.50600 41.39800
H  42.31700 43.35600 46.57400
H  42.52000 41.93200 45.37700
H  41.02600 42.45100 45.99000

