158

Mg 40.73900 41.50500 27.41000
C  39.77300 43.71300 29.88400
C  41.80500 39.34000 29.67800
C  41.69000 39.51700 24.81400
C  39.79500 44.05100 25.06300
N  40.51900 41.43100 29.49700
C  40.05300 42.44200 30.38100
C  40.29700 42.07700 31.82900
C  41.13900 40.77900 31.77100
C  41.05700 40.44000 30.22500
C  42.51500 40.85400 32.44300
C  39.05000 42.00900 32.60200
C  39.21100 41.60900 34.08200
H  38.96000 42.75800 35.05200
N  41.63900 39.68600 27.31100
C  41.98700 38.95500 28.34700
C  42.57700 37.72100 27.86700
C  42.55400 37.70100 26.47000
C  41.96500 39.03800 26.14500
C  43.01400 36.56900 28.73000
C  43.17700 36.71000 25.45200
O  43.10800 36.76600 24.22700
C  43.90200 35.55300 25.99400
N  40.71400 41.70400 25.27900
C  41.17900 40.78900 24.42200
C  40.89200 41.18200 22.93200
C  40.08100 42.46600 23.11600
C  40.15500 42.82800 24.58200
C  42.08800 41.37200 22.00800
C  38.60300 42.39900 22.63000
C  37.76600 41.30300 23.34000
N  40.05900 43.46700 27.44500
C  39.75600 44.40100 26.45800
C  39.27700 45.59200 26.96900
C  39.28800 45.36300 28.38100
C  39.78100 44.12100 28.57200
C  39.00300 46.89500 26.24800
C  39.03700 45.96800 29.62800
O  38.56500 47.01000 29.91700
C  39.38000 44.88700 30.70000
C  40.46100 45.46900 31.56800
O  41.51700 45.84300 31.15300
O  40.06000 45.62800 32.94800
C  41.08800 45.98000 33.82400
H  42.05300 38.68600 30.51700
H  42.06700 38.85400 24.03300
H  39.40900 44.78100 24.34900
H  40.85700 42.89800 32.27600
H  40.65900 39.97000 32.32200
H  42.46800 41.67800 33.15500
H  43.29700 40.97500 31.69300
H  42.81000 39.94000 32.95800
H  38.25800 41.48900 32.06400
H  38.75900 43.05800 32.65600
H  40.20500 41.19800 34.26200
H  38.58800 40.75900 34.35900
H  42.65200 35.58100 28.44300
H  42.81200 36.76800 29.78200
H  44.09300 36.42000 28.73300
H  44.73300 35.86600 26.62700
H  44.29800 35.03900 25.11800
H  43.20300 34.86800 26.47400
H  40.32700 40.30800 22.60800
H  40.66100 43.20800 22.56800
H  42.80900 42.06000 22.44900
H  41.73700 41.73300 21.04200
H  42.55800 40.39400 21.90200
H  38.75800 42.08900 21.59600
H  38.05000 43.32800 22.76400
H  37.09900 40.81000 22.63400
H  37.15200 41.84900 24.05600
H  38.42000 40.60400 23.86200
H  38.25900 46.77600 25.45900
H  39.90900 47.37400 25.87700
H  38.54000 47.53200 27.00200
H  38.45300 44.76900 31.26200
H  41.24300 47.04800 33.67100
H  41.94300 45.30800 33.74800
H  40.72000 46.00500 34.85000
Mg 25.25000 51.00400 26.94800
C  22.94300 51.93800 29.33900
C  27.51500 50.17100 29.45600
C  27.83200 50.57400 24.59400
C  23.21200 52.14500 24.43800
N  25.22900 51.18100 29.10400
C  24.13100 51.46800 29.93000
C  24.42000 51.33300 31.45900
C  25.94100 50.69400 31.37200
C  26.26700 50.70700 29.89500
C  26.98200 51.56500 32.17200
C  23.44000 50.43400 32.33800
C  23.96900 50.03700 33.68300
H  23.37700 50.71800 34.95600
N  27.30000 50.31800 27.00100
C  27.98500 49.95100 28.15200
C  29.27000 49.41200 27.78700
C  29.31100 49.39100 26.40500
C  28.09700 50.11600 25.90500
C  30.29800 48.91300 28.76300
C  30.41500 48.89600 25.50300
O  30.43000 49.12300 24.31800
C  31.63500 48.07100 26.04200
N  25.58000 51.41600 24.84700
C  26.65500 51.11600 24.10100
C  26.47200 51.60300 22.63900
C  24.95300 51.91200 22.61300
C  24.54700 51.79200 24.00400
C  27.31200 52.83800 22.18400
C  24.13000 51.06900 21.72300
C  24.19300 51.42200 20.25300
N  23.50000 51.90800 26.86200
C  22.74800 52.21100 25.76300
C  21.37600 52.49600 26.23100
C  21.46500 52.57200 27.58400
C  22.74600 52.09900 27.93800
C  20.21800 52.94100 25.39200
C  20.70000 52.81100 28.78800
O  19.58800 53.24600 28.96700
C  21.68300 52.50900 29.97100
C  21.92400 53.79100 30.70000
O  22.28400 54.80900 30.16500
O  21.45000 53.64500 31.99200
C  21.44700 54.93900 32.71300
H  28.10100 49.79400 30.29700
H  28.57900 50.44900 23.80700
H  22.49700 52.42000 23.66000
H  24.24800 52.36200 31.77300
H  25.97300 49.69600 31.80900
H  27.89800 51.63400 31.58500
H  27.23900 51.15800 33.15000
H  26.60100 52.57800 32.30200
H  23.31500 49.46600 31.85300
H  22.47400 50.93800 32.35200
H  24.96000 50.46900 33.81800
H  23.99300 48.95300 33.79400
H  30.10900 49.17500 29.80400
H  31.25600 49.39300 28.55900
H  30.35500 47.82500 28.74800
H  31.20200 47.32700 26.71100
H  32.27400 48.75600 26.59800
H  32.22700 47.43200 25.38600
H  26.72500 50.87100 21.87200
H  24.76000 52.93800 22.29900
H  27.76000 53.38900 23.01000
H  26.80100 53.48100 21.46700
H  28.25200 52.57100 21.70200
H  23.05900 51.04300 21.92400
H  24.60400 50.08700 21.72000
H  24.01200 50.47600 19.74200
H  25.05100 52.05400 20.02500
H  23.29200 51.98300 20.00400
H  20.31300 52.60900 24.35800
H  20.19200 54.02500 25.50100
H  19.31600 52.57600 25.88300
H  21.18800 51.84400 30.67900
H  22.13300 55.69800 32.33600
H  21.55700 54.80200 33.78800
H  20.43800 55.33800 32.61200

