158

Mg 24.15700 -4.53200 45.94200
C  26.63800 -2.46400 44.34600
C  21.94100 -3.41500 43.39600
C  22.23400 -7.25100 46.31600
C  26.80800 -5.96200 47.72100
N  24.28100 -3.16700 44.06000
C  25.34200 -2.33100 43.75100
C  24.96000 -1.38600 42.57900
C  23.42600 -1.62700 42.40500
C  23.19000 -2.78700 43.37100
C  22.58800 -0.32200 42.71000
C  25.81900 -1.70200 41.37700
C  26.51500 -0.45800 40.84300
H  26.42600 -0.24600 39.34100
N  22.24000 -5.14900 45.13300
C  21.47700 -4.46800 44.19000
C  20.16500 -5.12200 44.10000
C  20.27600 -6.30900 44.86900
C  21.65000 -6.33400 45.42500
C  19.08100 -4.80200 43.17300
C  19.18300 -7.34100 44.89000
O  18.09200 -7.07600 44.44200
C  19.52600 -8.75300 45.30600
N  24.50600 -6.28000 46.87500
C  23.48200 -7.21000 47.02000
C  23.90300 -8.38400 47.90600
C  25.31000 -8.01700 48.38400
C  25.62500 -6.68600 47.61100
C  22.81800 -8.70100 49.01400
C  26.45400 -9.15200 48.33100
C  27.09800 -9.55000 49.67900
N  26.27700 -4.25700 46.04900
C  27.12300 -4.88600 46.90200
C  28.50500 -4.39400 46.60200
C  28.35700 -3.41100 45.63700
C  26.97400 -3.40400 45.35200
C  29.82500 -4.97900 47.20400
C  29.00500 -2.47400 44.75400
O  30.23000 -2.33400 44.58800
C  27.95200 -1.76500 43.97100
C  27.95900 -0.29800 44.12900
O  27.06600 0.41700 44.57500
O  29.14900 0.13900 43.58600
C  29.12400 1.59200 43.41700
H  21.25700 -3.12600 42.59500
H  21.74500 -8.19900 46.55100
H  27.55100 -6.42900 48.37100
H  25.23900 -0.40500 42.96100
H  23.18900 -1.79100 41.35400
H  23.07100 0.25700 43.49800
H  21.64400 -0.66900 43.13000
H  22.40300 0.27100 41.81400
H  25.19400 -2.06900 40.56400
H  26.58400 -2.42300 41.66900
H  27.59300 -0.51800 40.99000
H  26.10400 0.46900 41.24200
H  19.16700 -5.65300 42.49800
H  19.37600 -3.87400 42.68500
H  18.12900 -4.69700 43.69400
H  19.45500 -8.82800 46.39100
H  20.47000 -9.13400 44.91600
H  18.68600 -9.32200 44.90500
H  23.94900 -9.32100 47.35300
H  25.04200 -7.85000 49.42800
H  22.04100 -9.37300 48.65100
H  22.31700 -7.73400 49.06000
H  23.18700 -9.09400 49.96100
H  27.17300 -8.75700 47.61200
H  26.22900 -10.06200 47.77600
H  26.43600 -9.22100 50.47900
H  28.09800 -9.17700 49.90000
H  27.11800 -10.64000 49.66600
H  30.56900 -4.21600 47.43200
H  30.29000 -5.69400 46.52400
H  29.66200 -5.54800 48.11900
H  28.29300 -2.02100 42.96800
H  30.14400 1.97200 43.35600
H  28.94100 2.06000 44.38400
H  28.54500 2.03000 42.60400
Mg -12.42600 16.48900 42.15000
C  -9.29800 14.99500 41.88000
C  -11.29700 19.36100 40.81600
C  -15.69600 17.55600 42.02800
C  -13.72400 13.22300 42.76100
N  -10.50100 17.02200 41.25900
C  -9.28800 16.30700 41.29100
C  -8.09200 17.14700 40.79000
C  -8.72500 18.54400 40.68900
C  -10.27100 18.32600 40.92500
C  -8.04500 19.60600 41.63800
C  -7.50800 16.64000 39.53000
C  -6.03200 16.17900 39.72300
H  -5.51700 15.04400 38.83000
N  -13.34000 18.22900 41.49800
C  -12.67700 19.26400 40.97900
C  -13.55700 20.40700 40.90200
C  -14.83900 19.98400 41.25400
C  -14.70000 18.52300 41.65500
C  -13.15800 21.76600 40.36100
C  -16.05800 20.81100 41.16100
O  -16.08100 21.98600 40.81700
C  -17.38000 20.19000 41.53400
N  -14.44700 15.51500 42.37400
C  -15.60100 16.19400 42.26100
C  -16.80400 15.36700 42.44400
C  -16.19100 13.92600 42.52100
C  -14.72100 14.17200 42.40900
C  -17.63100 15.66300 43.67000
C  -16.66900 12.79400 41.43000
C  -17.01500 11.45600 42.13200
N  -11.74100 14.54500 42.43300
C  -12.35700 13.33300 42.71200
C  -11.36300 12.26500 42.76100
C  -10.15800 12.89000 42.51500
C  -10.44900 14.31500 42.29900
C  -11.59300 10.84600 43.09300
C  -8.65500 12.69000 42.38400
O  -7.96400 11.68300 42.50500
C  -8.12700 14.01900 41.97400
C  -7.16100 14.44900 42.96400
O  -7.35800 15.26200 43.84500
O  -5.94100 13.90000 42.69900
C  -4.79800 14.37500 43.48100
H  -10.83800 20.26700 40.41500
H  -16.72900 17.87000 41.86300
H  -14.21100 12.25300 42.88500
H  -7.31200 17.03100 41.54200
H  -8.59900 19.06400 39.74000
H  -8.56900 20.56100 41.60400
H  -7.05200 19.80400 41.23400
H  -8.21800 19.29700 42.66900
H  -7.39700 17.43400 38.79200
H  -8.15300 15.91600 39.03300
H  -5.78800 15.87200 40.74000
H  -5.37300 17.03400 39.57300
H  -13.75100 21.99100 39.47600
H  -12.17400 21.67100 39.90200
H  -13.11300 22.62200 41.03400
H  -17.60300 19.36100 40.86300
H  -18.17900 20.92100 41.41400
H  -17.48100 19.93300 42.58900
H  -17.31100 15.38400 41.47900
H  -16.44000 13.55700 43.51600
H  -17.50300 16.67900 44.04400
H  -17.40100 15.05500 44.54400
H  -18.67600 15.70400 43.36200
H  -15.82500 12.55000 40.78400
H  -17.46400 13.22700 40.82300
H  -16.65000 11.49300 43.15900
H  -16.48400 10.61600 41.68500
H  -18.09800 11.34400 42.08700
H  -10.71600 10.20100 43.13600
H  -12.28500 10.35400 42.41000
H  -11.92300 10.83100 44.13100
H  -7.58400 13.88800 41.03700
H  -4.25900 15.20000 43.01700
H  -4.17400 13.48200 43.45100
H  -5.07400 14.66800 44.49400

