158

Mg 52.94400 23.53300 45.47400
C  50.47800 25.67400 44.10500
C  51.16900 20.89100 44.26100
C  55.81000 21.87100 45.45000
C  54.63000 26.47300 46.42500
N  51.04300 23.35000 44.41900
C  50.26100 24.31700 43.79600
C  48.98000 23.74600 43.15800
C  49.14700 22.22700 43.46100
C  50.57100 22.10400 44.06900
C  48.14400 21.68500 44.48000
C  48.93200 24.08300 41.67400
C  47.49500 24.15600 41.05200
H  47.22300 23.24400 39.81100
N  53.41300 21.53100 45.13100
C  52.56800 20.60500 44.71500
C  53.25000 19.36700 44.70000
C  54.59100 19.57800 45.04500
C  54.67900 21.05100 45.20200
C  52.55400 18.03100 44.37400
C  55.64600 18.55200 45.09400
O  55.41100 17.36100 44.93900
C  57.06600 18.95400 45.44700
N  55.04100 24.25200 45.76100
C  56.02200 23.31400 45.79700
C  57.34500 23.90900 46.21400
C  56.90100 25.40600 46.62000
C  55.47700 25.38600 46.16600
C  58.19600 23.02100 47.18300
C  57.82900 26.54600 45.93800
C  58.40600 27.47800 47.01900
N  52.54800 25.61700 45.50500
C  53.32300 26.67400 45.95500
C  52.52400 27.83400 45.96100
C  51.43400 27.52800 45.11600
C  51.50700 26.13600 44.90300
C  52.80800 29.28800 46.38900
C  50.34900 28.08800 44.40500
O  49.88200 29.22400 44.41200
C  49.72100 26.92300 43.59500
C  49.92400 27.27500 42.21500
O  50.99700 27.44000 41.64200
O  48.64900 27.40600 41.61500
C  48.66200 27.89300 40.19500
H  50.51800 20.09100 43.90100
H  56.77400 21.36300 45.39000
H  55.06400 27.41400 46.77000
H  48.06900 24.14400 43.60500
H  49.06300 21.75900 42.47900
H  48.17300 20.61100 44.66300
H  47.21100 21.91800 43.96700
H  48.12800 22.29000 45.38700
H  49.53600 23.41600 41.05800
H  49.30500 25.09900 41.54700
H  47.26800 25.19200 40.80200
H  46.77600 23.73900 41.75700
H  53.12700 17.30400 44.95000
H  52.64600 17.88200 43.29800
H  51.54400 18.11700 44.77600
H  57.54400 19.43200 44.59200
H  57.63500 18.03500 45.59100
H  57.19500 19.46100 46.40300
H  57.99500 24.03900 45.34900
H  56.92000 25.38200 47.71000
H  57.54500 22.18200 47.42900
H  58.45300 23.63400 48.04700
H  59.04900 22.65000 46.61500
H  57.25300 27.09100 45.19000
H  58.75100 26.12400 45.53800
H  59.48900 27.59900 47.00000
H  58.20000 27.21900 48.05700
H  57.97500 28.46300 46.83800
H  52.01500 30.02400 46.25700
H  53.60600 29.68600 45.76300
H  53.15700 29.28100 47.42200
H  48.67200 26.81900 43.87400
H  47.66100 27.75400 39.78600
H  49.47700 27.36500 39.70200
H  48.83900 28.96700 40.13100
Mg 46.81600 44.21200 42.17400
C  43.31200 43.68600 41.99700
C  47.11800 40.88700 42.06600
C  50.07600 44.82000 42.02400
C  46.11400 47.64600 42.17700
N  45.33300 42.53000 41.76900
C  44.02500 42.47700 41.86600
C  43.39000 41.08400 41.83000
C  44.63200 40.21200 41.89200
C  45.76400 41.28100 41.82800
C  44.67600 39.22400 43.00400
C  42.38000 40.74300 40.61100
C  42.55400 41.47900 39.26500
H  42.71600 40.66900 38.00200
N  48.40900 42.97800 42.07900
C  48.34300 41.62300 42.08600
C  49.72400 41.12500 42.13700
C  50.60600 42.24000 42.29400
C  49.68400 43.42900 42.15800
C  50.03500 39.66300 42.09700
C  52.20100 42.11400 42.55800
O  52.77500 41.01500 42.64000
C  53.13200 43.32300 42.66900
N  47.94700 46.00200 41.93400
C  49.29300 45.98700 41.98700
C  49.87200 47.41400 42.00500
C  48.59500 48.20600 42.23000
C  47.47400 47.26700 42.04200
C  51.04100 47.64800 43.05500
C  48.48300 49.45500 41.26400
C  48.14100 50.82200 41.87000
N  45.15700 45.45100 41.98300
C  45.00100 46.83300 42.03200
C  43.63900 47.27500 42.08700
C  42.95700 46.00000 42.07400
C  43.90000 44.93400 41.98100
C  43.03700 48.65700 42.06800
C  41.58600 45.43500 42.10900
O  40.48100 45.92400 42.12400
C  41.84600 43.85700 42.19500
C  41.44000 43.20500 43.50500
O  40.65800 42.26800 43.60400
O  42.05000 43.76900 44.55200
C  41.99300 42.84000 45.67000
H  47.20400 39.81300 42.24700
H  51.16200 44.91500 41.97400
H  46.02700 48.69700 42.46200
H  42.89300 40.95200 42.79100
H  44.57200 39.64100 40.96600
H  45.15100 39.55300 43.92800
H  45.18900 38.32500 42.66000
H  43.68100 38.87500 43.28000
H  41.40800 41.06100 40.99000
H  42.42900 39.66500 40.45700
H  43.52300 41.97600 39.29500
H  41.76400 42.21000 39.09700
H  49.14700 39.21300 41.65300
H  50.28500 39.33900 43.10800
H  50.95000 39.46200 41.53900
H  53.12000 43.73400 41.66000
H  54.16500 43.12800 42.95800
H  52.65200 44.08800 43.27900
H  50.36300 47.58800 41.04800
H  48.69600 48.56400 43.25400
H  51.98500 47.43800 42.55200
H  50.98500 46.81100 43.75100
H  51.08500 48.59200 43.59700
H  47.69300 49.23900 40.54500
H  49.39800 49.55300 40.68000
H  48.99600 51.47800 41.71300
H  47.76700 50.71900 42.88900
H  47.27500 51.10000 41.27000
H  43.73600 49.35400 41.60500
H  42.95200 48.92300 43.12200
H  42.10300 48.64600 41.50700
H  41.19100 43.50600 41.39800
H  42.31700 43.35600 46.57400
H  42.52000 41.93200 45.37700
H  41.02600 42.45100 45.99000

