158

Mg 35.06700 2.77200 30.64100
C  32.74300 3.72000 33.09400
C  37.57200 3.14700 32.96300
C  37.27000 2.11400 28.22300
C  32.49900 2.91200 28.24200
N  35.13600 3.40100 32.74100
C  34.03100 3.48200 33.56700
C  34.43000 3.35300 35.00800
C  36.02200 3.42400 34.97500
C  36.24200 3.26300 33.52400
C  36.63800 4.75800 35.59800
C  33.81700 2.01200 35.66800
C  33.52500 2.05900 37.19100
H  34.31300 3.05500 38.07600
N  37.15400 2.57600 30.59400
C  37.98900 2.79700 31.61000
C  39.39900 2.72800 31.18200
C  39.35400 2.40100 29.79200
C  37.89900 2.29400 29.48300
C  40.59300 2.88100 32.15400
C  40.39700 2.24700 28.71600
O  40.20900 2.22400 27.55400
C  41.83100 2.30900 29.06700
N  34.94300 2.53700 28.55700
C  36.01200 2.29100 27.74600
C  35.54300 2.07800 26.22400
C  33.99500 2.08100 26.37100
C  33.79100 2.64000 27.76400
C  36.14700 2.93300 25.08400
C  33.28400 0.73400 26.00200
C  31.91800 0.97900 25.22900
N  33.07800 3.33300 30.58300
C  32.15500 3.35200 29.51900
C  30.83500 3.72000 30.06800
C  31.04900 3.85800 31.44000
C  32.38700 3.57300 31.67700
C  29.65200 4.04500 29.16800
C  30.41400 4.27100 32.68500
O  29.25700 4.56700 32.91700
C  31.40800 3.94600 33.84600
C  31.41500 5.22500 34.74000
O  31.60300 6.39900 34.43800
O  31.37400 4.85100 36.09400
C  31.33800 5.99500 37.02000
H  38.21400 3.37800 33.81600
H  37.89700 1.91400 27.35100
H  31.77500 2.98800 27.42900
H  33.99900 4.21300 35.52000
H  36.36600 2.61500 35.61900
H  35.90900 5.56100 35.70200
H  37.43100 5.02900 34.90100
H  37.12000 4.39800 36.50700
H  34.38000 1.07900 35.64100
H  32.87600 1.79000 35.16500
H  33.68800 1.08000 37.64200
H  32.47100 2.33500 37.13800
H  40.22500 2.71800 33.16700
H  41.05600 3.86500 32.08500
H  41.30100 2.11700 31.83100
H  42.04600 1.45700 29.71100
H  41.90100 3.29600 29.52400
H  42.46300 2.30000 28.17800
H  35.98800 1.15800 25.84400
H  33.50500 2.80400 25.71900
H  36.75000 2.49800 24.28700
H  36.79800 3.72500 25.45800
H  35.33500 3.44500 24.56800
H  33.01200 0.15000 26.88100
H  33.89800 0.03400 25.43500
H  31.78700 2.01000 24.90200
H  31.15900 0.69100 25.95800
H  31.92100 0.48400 24.25800
H  29.01000 4.80600 29.61200
H  29.14800 3.08200 29.09200
H  30.07000 4.48000 28.26100
H  31.21200 2.97400 34.29700
H  32.28400 6.28800 37.47600
H  30.73300 5.76400 37.89600
H  30.81500 6.85500 36.60100
Mg 49.92300 46.77900 42.14300
C  46.57800 47.45000 40.99700
C  49.67500 43.81400 40.47300
C  53.17000 46.47300 42.67600
C  49.99900 50.21500 43.23400
N  48.31000 45.83800 40.88700
C  47.03700 46.26900 40.49300
C  46.29800 45.24600 39.49800
C  47.39400 44.17100 39.40700
C  48.54500 44.55500 40.33700
C  46.92600 42.70600 39.75100
C  45.78000 45.94300 38.19000
C  44.30700 45.68100 37.82000
H  43.94400 45.12300 36.43400
N  51.19500 45.31100 41.82200
C  50.94400 44.19900 41.10100
C  52.12200 43.36700 41.08600
C  53.12100 44.00800 41.88900
C  52.53300 45.29000 42.19900
C  52.13900 42.01400 40.38200
C  54.55000 43.49500 42.23400
O  54.88500 42.36500 41.84900
C  55.50700 44.23500 43.15500
N  51.37500 48.14500 42.95600
C  52.68800 47.77000 43.04100
C  53.56700 48.97600 43.27600
C  52.56000 50.06600 43.64600
C  51.21400 49.50200 43.26600
C  54.67300 48.77400 44.30400
C  52.87600 51.41000 43.03600
C  52.54700 52.69400 43.88700
N  48.60300 48.42700 42.13200
C  48.76900 49.70600 42.73900
C  47.58300 50.44900 42.56800
C  46.67600 49.58700 42.00600
C  47.33000 48.39700 41.72800
C  47.38800 51.88800 42.94900
C  45.31400 49.52300 41.51900
O  44.39000 50.33700 41.57300
C  45.13800 48.02900 40.98900
C  44.21800 47.24700 41.91800
O  44.11900 47.40300 43.10600
O  43.54000 46.34100 41.25400
C  42.45900 45.63000 41.96600
H  49.74800 42.82300 40.01900
H  54.25100 46.39700 42.80400
H  50.12800 51.25300 43.55000
H  45.47800 44.77700 40.04100
H  47.82900 44.17400 38.40700
H  45.87900 42.40700 39.70000
H  47.11800 42.56600 40.81500
H  47.57200 42.02200 39.20200
H  46.42700 45.59800 37.38500
H  46.04900 46.98200 38.38200
H  43.92000 46.70000 37.83400
H  43.77700 45.09400 38.57000
H  51.30500 41.33900 40.57200
H  53.02100 41.38700 40.51600
H  52.14100 42.20300 39.30900
H  56.22000 44.66900 42.45400
H  56.09100 43.51100 43.72400
H  54.99200 44.93400 43.81400
H  54.03500 49.21100 42.32000
H  52.43200 50.21800 44.71700
H  55.66100 48.73800 43.84600
H  54.64800 47.82100 44.83100
H  54.72300 49.66000 44.93700
H  52.26100 51.49100 42.14000
H  53.88200 51.48000 42.62300
H  53.38800 53.35700 44.09200
H  51.86400 52.38700 44.67900
H  51.98500 53.41100 43.29000
H  46.53600 52.31400 42.42000
H  48.28900 52.37500 42.57600
H  47.49900 51.94800 44.03200
H  44.71300 47.90900 39.99300
H  41.68000 45.49500 41.21600
H  42.11900 46.06400 42.90600
H  42.81600 44.64700 42.27500

