158

Mg 17.15200 -2.22600 28.43500
C  16.19600 -0.01700 30.94200
C  18.91900 -3.96300 30.80400
C  18.42100 -3.86400 25.83000
C  15.74300 0.04700 26.02000
N  17.44500 -2.03200 30.64700
C  16.91000 -1.07200 31.41700
C  17.37100 -1.23600 32.91200
C  18.39500 -2.36600 32.86300
C  18.18700 -2.87100 31.40900
C  19.89800 -2.02000 33.11700
C  16.17600 -1.52100 33.90700
C  16.68100 -1.80800 35.37500
H  17.82400 -1.07700 35.94300
N  18.49300 -3.69900 28.35400
C  19.05000 -4.33900 29.45800
C  19.80700 -5.47700 28.96600
C  19.70400 -5.43600 27.53500
C  18.78900 -4.30400 27.17300
C  20.58500 -6.43500 29.93900
C  20.30600 -6.40400 26.60900
O  19.91800 -6.61500 25.43700
C  21.10700 -7.41900 27.08200
N  16.91500 -2.01200 26.20800
C  17.58900 -2.90700 25.35900
C  17.62500 -2.38700 23.96500
C  16.59100 -1.16600 24.07500
C  16.35800 -1.03100 25.53900
C  19.03700 -1.96700 23.53300
C  15.35100 -1.12900 23.14100
C  13.95800 -1.22300 23.86300
N  16.15100 -0.38900 28.43400
C  15.67300 0.42300 27.39800
C  14.86700 1.46200 27.97500
C  15.02300 1.31400 29.39600
C  15.95100 0.24600 29.58000
C  13.87200 2.37000 27.27200
C  14.65300 1.88900 30.68700
O  13.93600 2.87200 30.89100
C  15.50800 1.01400 31.73600
C  16.28500 1.88100 32.61600
O  17.40200 2.18400 32.33900
O  15.54300 2.35900 33.67300
C  16.28900 3.19100 34.66200
H  19.39000 -4.42600 31.67300
H  18.93700 -4.48400 25.09400
H  15.29300 0.76800 25.33500
H  17.70500 -0.30600 33.37200
H  18.04200 -3.13300 33.55300
H  20.37600 -2.95800 33.39900
H  20.01200 -1.09900 33.68700
H  20.23500 -1.51400 32.21200
H  15.57100 -2.35900 33.56000
H  15.48900 -0.69200 34.07900
H  16.98400 -2.85200 35.46100
H  15.88400 -1.63200 36.09700
H  21.65800 -6.24500 29.91500
H  20.45700 -7.47600 29.63900
H  20.19100 -6.37700 30.95400
H  21.97100 -6.90100 27.49900
H  21.35900 -8.10200 26.27100
H  20.55300 -8.04700 27.78000
H  17.19200 -3.10600 23.27000
H  17.10400 -0.23200 23.84700
H  19.45400 -2.77400 22.93100
H  19.61600 -1.71400 24.42100
H  18.91900 -1.06600 22.93100
H  15.43100 -1.87300 22.34800
H  15.58200 -0.12200 22.79200
H  13.26800 -1.63200 23.12500
H  13.57700 -0.26200 24.21100
H  13.88500 -1.85700 24.74600
H  13.57000 3.20900 27.89900
H  12.99300 1.81000 26.95100
H  14.31600 2.85600 26.40400
H  14.85000 0.51800 32.44900
H  17.08100 3.72900 34.14200
H  16.60800 2.52300 35.46200
H  15.63500 3.92300 35.13600
Mg 53.06100 24.67800 45.43400
C  50.47400 26.71000 44.36500
C  51.45500 22.01300 43.83900
C  55.80200 22.76100 45.80400
C  54.81300 27.43600 46.52800
N  51.31100 24.39500 44.21900
C  50.41000 25.36700 43.91500
C  49.37600 24.94900 42.90200
C  49.41800 23.35600 43.12300
C  50.83300 23.22900 43.78900
C  48.33100 22.94300 44.07100
C  49.79200 25.48100 41.51900
C  48.68900 25.96400 40.57000
H  48.33300 24.98500 39.45200
N  53.59500 22.65800 44.95800
C  52.75800 21.73100 44.34400
C  53.42100 20.45800 44.28500
C  54.66000 20.63400 44.90300
C  54.74300 22.01700 45.31300
C  52.82300 19.17000 43.79300
C  55.69100 19.53200 45.08000
O  55.50700 18.37100 44.68300
C  57.03000 19.75200 45.79200
N  55.12300 25.01200 45.91500
C  56.01500 24.07000 46.09900
C  57.35400 24.75100 46.60200
C  57.04100 26.28600 46.65900
C  55.56300 26.20800 46.39100
C  57.95200 24.22700 47.92700
C  57.79600 26.97400 45.52700
C  59.28100 27.28700 45.73200
N  52.72600 26.70300 45.65300
C  53.43900 27.70900 46.13300
C  52.63200 28.91200 46.16200
C  51.42100 28.50300 45.60100
C  51.60000 27.22400 45.10900
C  53.04500 30.18700 46.78800
C  50.02100 28.92800 45.28300
O  49.35500 29.88200 45.74300
C  49.34900 27.72800 44.34400
C  49.04800 28.21200 43.02100
O  49.78000 28.74900 42.20000
O  47.65500 28.23800 42.91600
C  47.11500 29.04000 41.79100
H  50.83200 21.17800 43.51300
H  56.70000 22.15400 45.93600
H  55.36500 28.30200 46.90200
H  48.48000 25.48800 43.21000
H  49.43200 22.90500 42.13100
H  48.79600 22.94900 45.05600
H  47.98100 21.96500 43.74000
H  47.43600 23.56500 44.08600
H  50.24700 24.60900 41.04900
H  50.53600 26.26900 41.63400
H  48.87600 26.91200 40.06600
H  47.74100 26.01400 41.10600
H  51.74600 19.25900 43.65400
H  52.94300 18.30500 44.44600
H  53.51200 18.87100 43.00200
H  57.78700 20.25500 45.19200
H  57.50700 18.79200 45.99200
H  56.77000 20.32700 46.68100
H  58.09300 24.54400 45.82900
H  57.14000 26.65000 47.68200
H  57.91400 24.91000 48.77500
H  58.95100 23.82100 47.76500
H  57.36300 23.44400 48.40500
H  57.34800 27.93900 45.28900
H  57.48500 26.41800 44.64300
H  59.62200 27.20200 46.76400
H  59.44300 28.26600 45.28100
H  59.86800 26.64100 45.07900
H  53.42200 30.17600 47.81100
H  52.28700 30.95900 46.91800
H  53.87300 30.62400 46.23000
H  48.47300 27.36100 44.87800
H  47.72500 29.66500 41.13900
H  46.20100 29.58100 42.03700
H  46.76600 28.28800 41.08400

