158

Mg 7.09600 53.30300 42.00500
C  6.53500 49.84500 41.90200
C  10.08300 52.84700 40.62800
C  6.97700 56.60900 41.36900
C  3.52800 53.55700 42.88000
N  8.24700 51.54100 41.35600
C  7.74300 50.24300 41.35100
C  8.86100 49.27400 40.88700
C  10.14100 50.19000 40.82000
C  9.51300 51.59600 40.97500
C  11.03800 49.82200 42.00700
C  8.64500 48.64000 39.38400
C  7.75300 49.48500 38.41600
H  8.21100 49.62800 36.91700
N  8.36500 54.55400 41.27200
C  9.58500 54.16600 40.77900
C  10.27100 55.34900 40.39500
C  9.46500 56.46100 40.63200
C  8.15300 55.93100 41.05600
C  11.78500 55.33200 39.97700
C  9.90900 57.91100 40.40800
O  10.99600 58.06800 39.86900
C  9.03900 59.04000 40.79600
N  5.53900 54.76900 42.21800
C  5.83800 56.05700 41.93600
C  4.64700 56.86200 42.32300
C  3.44000 55.92200 42.40100
C  4.23600 54.66600 42.60000
C  4.81200 57.80900 43.51600
C  2.52100 55.92500 41.14200
C  0.94900 56.03800 41.32400
N  5.27800 51.95000 42.43200
C  4.04500 52.22900 42.90500
C  3.33200 50.98600 43.04200
C  4.32100 50.05800 42.71400
C  5.46200 50.64400 42.36500
C  1.97100 50.92100 43.51200
C  4.59300 48.66600 42.78600
O  3.83700 47.72500 43.09100
C  6.02400 48.42400 42.22200
C  5.79300 47.58100 41.07200
O  5.10400 47.88300 40.10900
O  6.39900 46.34400 41.29800
C  6.11400 45.39500 40.22100
H  11.05000 52.65900 40.15700
H  6.90900 57.67700 41.15400
H  2.49900 53.72300 43.20600
H  9.00000 48.46600 41.60500
H  10.76200 50.01500 39.94200
H  10.40800 49.72200 42.89000
H  11.68200 50.67000 42.23900
H  11.61600 48.93500 41.74400
H  8.20600 47.64200 39.38100
H  9.62600 48.49200 38.93300
H  7.87800 50.50100 38.79200
H  6.70100 49.21700 38.52100
H  11.91800 55.75600 38.98200
H  12.16100 54.31900 39.83200
H  12.47600 55.78400 40.69000
H  8.39700 59.36700 39.97800
H  9.66500 59.83400 41.20400
H  8.46100 58.74700 41.67200
H  4.41000 57.49800 41.47100
H  2.91700 56.17400 43.32300
H  3.90200 57.76700 44.11400
H  4.82600 58.79000 43.04100
H  5.72800 57.59900 44.06900
H  2.69600 54.95900 40.66800
H  2.93000 56.60900 40.39800
H  0.56900 56.94100 40.84500
H  0.73400 56.04600 42.39300
H  0.52200 55.12100 40.92100
H  1.46200 51.88500 43.49400
H  1.99300 50.49300 44.51400
H  1.60300 50.24100 42.74400
H  6.66900 47.88200 42.91400
H  6.35300 45.84500 39.25800
H  5.09700 45.00400 40.20000
H  6.80200 44.55000 40.26800
Mg -5.93900 25.49300 26.23300
C  -4.04100 26.95500 28.82000
C  -7.23200 23.33300 28.51000
C  -7.15700 23.80500 23.59900
C  -4.21000 27.71500 24.06700
N  -5.58700 25.18100 28.41000
C  -5.06000 26.10500 29.27800
C  -5.52600 25.87500 30.72100
C  -6.29900 24.54700 30.55500
C  -6.42300 24.29600 29.07600
C  -5.89800 23.27900 31.31900
C  -6.26800 27.08200 31.35600
C  -6.82300 26.83800 32.72300
H  -6.14800 25.82200 33.62700
N  -7.13500 23.84900 26.05100
C  -7.56900 23.09600 27.12100
C  -8.36900 22.00800 26.60200
C  -8.40900 22.17300 25.18700
C  -7.53700 23.27600 24.84200
C  -9.06500 21.11500 27.53700
C  -9.25500 21.44600 24.15400
O  -9.36900 21.82700 22.97900
C  -10.18500 20.36600 24.61500
N  -5.67500 25.62300 24.13500
C  -6.22900 24.79900 23.23800
C  -5.98800 25.25300 21.77600
C  -5.21700 26.56600 21.91700
C  -5.00800 26.70900 23.50100
C  -5.39100 24.14800 20.86300
C  -5.77300 27.84400 21.24200
C  -5.05600 28.47800 20.06200
N  -4.42100 27.00600 26.36800
C  -3.80100 27.79100 25.38600
C  -2.81700 28.66500 25.94700
C  -2.84000 28.28400 27.32800
C  -3.79600 27.28500 27.49000
C  -1.98200 29.70300 25.23700
C  -2.30900 28.56100 28.63500
O  -1.45300 29.42200 28.92400
C  -3.06900 27.69700 29.65600
C  -2.15000 27.09800 30.72100
O  -1.47100 26.10800 30.55500
O  -2.27400 27.82800 31.88900
C  -1.87600 27.21600 33.11500
H  -7.68000 22.67200 29.25600
H  -7.31700 23.21100 22.69600
H  -3.75000 28.43500 23.38700
H  -4.68700 25.69400 31.39400
H  -7.31200 24.79800 30.87000
H  -5.04300 23.38700 31.98600
H  -5.57200 22.44600 30.69600
H  -6.73900 23.02600 31.96500
H  -7.10700 27.19200 30.67000
H  -5.60500 27.94800 31.37900
H  -7.86900 26.57700 32.56400
H  -6.76500 27.74400 33.32700
H  -10.07900 21.51400 27.56500
H  -8.64300 21.21700 28.53600
H  -9.09600 20.05800 27.27400
H  -10.74300 20.00800 23.75000
H  -10.98800 20.72400 25.25800
H  -9.54800 19.61600 25.08300
H  -6.95600 25.52700 21.35700
H  -4.17600 26.49500 21.60200
H  -5.53200 23.13300 21.23600
H  -4.31200 24.29800 20.84200
H  -5.86700 24.17400 19.88300
H  -5.84900 28.58200 22.04000
H  -6.77000 27.64600 20.84900
H  -4.44600 29.31700 20.39800
H  -5.82400 28.92600 19.43100
H  -4.48900 27.75700 19.47300
H  -2.03800 29.73400 24.14900
H  -0.94000 29.70300 25.55900
H  -2.33100 30.64000 25.67100
H  -3.69100 28.50300 30.04500
H  -1.27100 28.00200 33.56700
H  -1.35500 26.26300 33.03000
H  -2.74600 27.17900 33.77100

