158

Mg 40.74700 8.27300 29.02600
C  41.95900 9.77500 31.94300
C  38.55500 6.46200 31.09800
C  39.46900 6.64600 26.33100
C  43.26900 9.70300 27.18400
N  40.23700 8.28200 31.22300
C  40.84200 9.03800 32.17300
C  40.22200 8.76000 33.57800
C  39.27400 7.50300 33.31200
C  39.37700 7.34900 31.74500
C  39.60800 6.18000 33.90000
C  39.66400 10.07600 34.26700
C  39.76100 10.23400 35.82900
H  40.45200 11.38400 36.48500
N  39.17000 6.82100 28.73600
C  38.46100 6.22700 29.70900
C  37.47300 5.30800 29.12100
C  37.58800 5.47200 27.74200
C  38.74900 6.33400 27.50100
C  36.57800 4.31700 29.84900
C  36.75000 5.11800 26.58400
O  37.08500 5.31000 25.40400
C  35.44300 4.56500 26.84200
N  41.22500 8.10800 27.07700
C  40.62900 7.31900 26.11300
C  41.32600 7.50500 24.77600
C  42.33800 8.63600 25.07200
C  42.30300 8.82300 26.56700
C  42.09300 6.25500 24.20100
C  42.14900 9.97000 24.31100
C  41.17900 10.98100 24.91600
N  42.42300 9.33800 29.43500
C  43.33400 9.98000 28.56300
C  44.31000 10.74500 29.36700
C  43.84000 10.69200 30.70600
C  42.68700 9.85700 30.66200
C  45.43600 11.49900 28.76200
C  44.09200 11.06400 32.07700
O  44.97400 11.73600 32.61100
C  42.91800 10.45500 32.87900
C  43.35500 9.52100 33.94000
O  43.88600 8.41600 33.71600
O  43.10000 9.94700 35.20200
C  43.58800 8.96900 36.20800
H  37.90000 5.86300 31.73500
H  39.14800 6.08000 25.45400
H  44.07700 10.06700 26.54500
H  41.06400 8.40700 34.17300
H  38.25600 7.72200 33.63200
H  38.70700 5.87900 34.43500
H  40.41400 6.37500 34.60800
H  40.03800 5.45100 33.21400
H  38.59300 10.12300 34.06900
H  40.14100 10.96800 33.86100
H  40.24900 9.30400 36.11900
H  38.76000 10.14800 36.25200
H  36.74100 4.03900 30.89000
H  36.61700 3.37500 29.30200
H  35.54900 4.66400 29.75200
H  35.57900 3.60900 27.34900
H  34.74700 4.35200 26.03000
H  34.87100 5.17900 27.53700
H  40.59300 7.78500 24.01900
H  43.31400 8.21600 24.83000
H  41.74100 5.36400 24.72000
H  43.17400 6.30900 24.06700
H  41.68800 6.16600 23.19200
H  41.77000 9.78400 23.30600
H  43.17700 10.32800 24.25900
H  41.66900 11.77600 25.47800
H  40.57000 10.62800 25.74800
H  40.55200 11.40500 24.13200
H  45.63000 12.46900 29.22000
H  45.29000 11.81100 27.72800
H  46.31300 10.85700 28.84400
H  42.38100 11.27000 33.36500
H  44.65900 8.85300 36.04000
H  43.13000 8.00100 36.00300
H  43.26900 9.40900 37.15200
Mg -10.33900 17.74200 42.96700
C  -6.68200 17.89900 43.17100
C  -10.30200 21.02700 42.54000
C  -13.52600 17.48600 42.56000
C  -9.93700 14.21900 42.65800
N  -8.58800 19.26800 42.69200
C  -7.28700 19.18500 43.06200
C  -6.66300 20.55400 43.18200
C  -7.90700 21.52900 43.07900
C  -9.06200 20.56300 42.70100
C  -8.24000 22.54000 44.24800
C  -5.51600 20.80600 42.08000
C  -5.97300 20.73800 40.57900
H  -5.23900 19.85000 39.63000
N  -11.75500 19.07300 42.50000
C  -11.56700 20.40400 42.38100
C  -12.89000 21.04100 42.07800
C  -13.79200 19.99600 42.01500
C  -13.02500 18.76500 42.37500
C  -13.01200 22.57100 41.81800
C  -15.26700 20.15800 41.69100
O  -15.75000 21.26100 41.51200
C  -16.13600 18.97100 41.50500
N  -11.48400 16.05600 42.51300
C  -12.83900 16.21600 42.57000
C  -13.49600 14.88800 42.97400
C  -12.44500 13.87800 42.46300
C  -11.20000 14.75200 42.51000
C  -13.87200 14.77600 44.48300
C  -12.62500 13.23900 40.99900
C  -12.65400 11.65400 40.90000
N  -8.68000 16.30100 43.02700
C  -8.65600 14.93800 42.80700
C  -7.33100 14.32100 42.83600
C  -6.50500 15.50800 43.10000
C  -7.38200 16.63700 43.15900
C  -7.01900 12.92500 42.73500
C  -5.13200 15.98500 43.14000
O  -4.11400 15.32300 43.08800
C  -5.16800 17.51300 43.27700
C  -4.45400 17.91500 44.59800
O  -3.74600 18.92500 44.71300
O  -4.73900 17.01700 45.58100
C  -4.35900 17.27600 46.98200
H  -10.38000 22.11400 42.60800
H  -14.58700 17.25900 42.42900
H  -9.91800 13.12800 42.70500
H  -6.35800 20.67600 44.22100
H  -7.73500 22.10700 42.17100
H  -9.04500 22.11100 44.84400
H  -8.53700 23.49900 43.82300
H  -7.38000 22.63900 44.91100
H  -4.86400 19.95800 42.29100
H  -4.98500 21.74600 42.22300
H  -5.82400 21.70900 40.10500
H  -7.01600 20.42200 40.58100
H  -12.70000 22.86100 40.81500
H  -12.23700 23.02000 42.44000
H  -13.93300 23.10700 42.04300
H  -16.30300 18.46200 42.45500
H  -15.54700 18.27000 40.91400
H  -17.13900 19.18500 41.13500
H  -14.39300 14.79900 42.36200
H  -12.34800 13.06800 43.18600
H  -13.53100 15.73100 44.88200
H  -13.48800 14.00700 45.15300
H  -14.95800 14.74500 44.56600
H  -11.71100 13.45500 40.44600
H  -13.41900 13.68500 40.40100
H  -13.56100 11.32200 40.39300
H  -12.52000 11.25800 41.90700
H  -11.86500 11.25500 40.26200
H  -6.22800 12.79300 41.99700
H  -7.96300 12.54100 42.34800
H  -6.84700 12.38600 43.66700
H  -4.51400 17.82800 42.46300
H  -5.26200 17.84100 47.21200
H  -3.46700 17.90200 46.98400
H  -4.11200 16.30800 47.41800

