158

Mg -1.40900 18.35800 26.84200
C  -1.90000 16.07700 29.40800
C  -1.54700 20.92300 29.03100
C  -1.29300 20.56100 24.09500
C  -1.88400 15.69000 24.61800
N  -1.79600 18.46800 29.00500
C  -1.87400 17.40500 29.87700
C  -1.99900 17.89700 31.30600
C  -1.96300 19.46600 31.08700
C  -1.71600 19.67900 29.61600
C  -3.19600 20.19300 31.54700
C  -0.82100 17.31200 32.13500
C  -1.17900 16.48200 33.36800
H  -0.73200 16.92200 34.78600
N  -1.37800 20.42900 26.59600
C  -1.30100 21.30000 27.67800
C  -0.98100 22.62000 27.20900
C  -0.81200 22.52500 25.80400
C  -1.18700 21.13500 25.38900
C  -0.79200 23.88200 28.14000
C  -0.35300 23.53000 24.74700
O  -0.31000 23.27100 23.54000
C  0.27900 24.83500 25.22400
N  -1.56400 18.19500 24.72500
C  -1.49600 19.17900 23.81300
C  -1.65500 18.64300 22.34800
C  -1.77600 17.12500 22.48600
C  -1.77500 16.99100 24.04500
C  -2.80500 19.25700 21.55500
C  -0.69500 16.36200 21.76300
C  0.60000 15.94800 22.52600
N  -1.65200 16.26500 26.92700
C  -1.90000 15.35700 25.95600
C  -2.15800 14.04200 26.52600
C  -2.13400 14.20900 27.89400
C  -1.90300 15.61500 28.07900
C  -2.32500 12.75500 25.79700
C  -2.31200 13.53500 29.16100
O  -2.53200 12.37000 29.56900
C  -2.19300 14.73300 30.19600
C  -1.05000 14.18700 31.02300
O  0.10400 14.13000 30.76700
O  -1.69100 13.59900 32.08800
C  -0.95000 12.72300 32.99400
H  -1.30800 21.67700 29.78400
H  -1.16300 21.25300 23.26000
H  -2.00200 14.89000 23.88500
H  -2.97100 17.56800 31.67200
H  -1.11800 19.75300 31.71400
H  -3.84000 19.59500 32.19100
H  -3.72600 20.59800 30.68500
H  -2.80700 20.99600 32.17300
H  -0.11400 18.07800 32.45100
H  -0.35700 16.52700 31.53800
H  -0.65800 15.52600 33.31500
H  -2.25400 16.30800 33.32300
H  0.25100 24.18700 28.04800
H  -1.17600 23.59700 29.11900
H  -1.41200 24.67200 27.71500
H  0.86200 25.31700 24.44000
H  1.04300 24.66800 25.98400
H  -0.49600 25.42600 25.71300
H  -0.66900 18.83000 21.92200
H  -2.75100 16.77500 22.14800
H  -2.42000 19.78300 20.68200
H  -3.42200 19.92800 22.15300
H  -3.42900 18.46900 21.13100
H  -0.42800 16.86100 20.83200
H  -1.33000 15.52300 21.47800
H  0.70600 16.43700 23.49400
H  1.44100 16.31200 21.93700
H  0.67100 14.86100 22.56900
H  -2.37100 12.81500 24.71000
H  -3.24600 12.39800 26.25600
H  -1.56200 12.00300 25.99900
H  -3.10100 14.82100 30.79400
H  -0.27100 12.06600 32.45200
H  -1.78700 12.15700 33.40300
H  -0.40000 13.27100 33.75900
Mg 40.55800 8.83700 29.48100
C  42.45800 9.97600 32.19100
C  38.35900 7.52900 31.78000
C  39.02000 7.48600 26.84300
C  43.27600 9.68900 27.32400
N  40.49300 8.55400 31.74000
C  41.30400 9.23100 32.64000
C  40.84300 8.99200 34.02900
C  39.64000 8.01300 33.87900
C  39.45900 8.02800 32.41100
C  39.75200 6.51900 34.51000
C  40.47700 10.33200 34.77500
C  40.17100 10.21000 36.19100
H  41.12000 11.04900 37.15100
N  38.96400 7.75000 29.35900
C  38.22200 7.29300 30.42200
C  36.95000 6.76200 29.84100
C  37.13500 6.68500 28.43100
C  38.41000 7.37100 28.11600
C  35.73300 6.24800 30.63300
C  36.15500 6.10800 27.44200
O  36.35300 6.08500 26.20700
C  34.79700 5.58900 27.84900
N  41.15900 8.61500 27.35000
C  40.25900 8.02900 26.47100
C  40.86200 7.84900 25.09300
C  42.30200 8.59900 25.26100
C  42.34300 8.96800 26.68700
C  40.90600 6.31400 24.60200
C  42.39100 9.66200 24.14000
C  41.67000 10.97300 24.42300
N  42.41300 9.80900 29.65100
C  43.35100 10.08800 28.67500
C  44.47900 10.67100 29.32400
C  44.12000 10.76400 30.68700
C  42.90500 10.13100 30.81000
C  45.76300 10.98900 28.74300
C  44.59400 11.15800 31.91900
O  45.65600 11.76600 32.22200
C  43.59800 10.75100 33.06400
C  44.37700 10.10400 34.21000
O  45.32700 9.29700 34.11100
O  43.85800 10.47000 35.38400
C  44.50900 9.84100 36.57700
H  37.58700 7.28200 32.51200
H  38.50500 7.08900 25.96600
H  44.14300 9.97800 26.72700
H  41.55300 8.46400 34.66500
H  38.71600 8.51600 34.16400
H  39.37100 5.77800 33.80800
H  39.17500 6.34900 35.41900
H  40.80200 6.22900 34.56700
H  39.60700 10.79800 34.31200
H  41.36300 10.96100 34.69100
H  40.23800 9.17700 36.53600
H  39.19800 10.66400 36.37700
H  35.77900 5.17000 30.78800
H  34.83300 6.64000 30.16000
H  35.80700 6.70800 31.61800
H  34.74900 4.80400 28.60400
H  34.38600 5.21600 26.91100
H  34.11000 6.38100 28.14500
H  40.28000 8.40300 24.35600
H  43.12800 7.89000 25.31100
H  40.48200 6.33100 23.59800
H  40.37400 5.64900 25.28300
H  41.95900 6.03900 24.54500
H  42.16300 9.21700 23.17100
H  43.44900 9.90700 24.04500
H  40.94100 10.91800 25.23200
H  41.14700 11.26800 23.51300
H  42.39100 11.77200 24.59300
H  45.63800 11.45800 27.76700
H  46.42600 10.13200 28.62900
H  46.20800 11.72800 29.41000
H  43.06400 11.65000 33.37500
H  43.98600 10.08600 37.50200
H  45.52500 10.13500 36.84000
H  44.50400 8.76300 36.41700

