158

Mg 42.38600 41.52000 26.08100
C  41.49500 43.79200 28.66000
C  43.17000 39.24500 28.57100
C  43.61900 39.48200 23.75700
C  41.61800 43.95500 23.76400
N  42.48200 41.54500 28.32800
C  41.95600 42.54100 29.15500
C  41.96800 42.15300 30.66600
C  42.56100 40.73500 30.60700
C  42.77900 40.47200 29.13200
C  43.78700 40.55800 31.56400
C  40.54300 42.33700 31.42100
C  40.47900 41.57400 32.77000
H  39.68800 42.21200 33.97300
N  43.15400 39.56300 26.11100
C  43.27300 38.74800 27.23900
C  43.65400 37.42100 26.83300
C  43.75700 37.46900 25.36100
C  43.54800 38.88500 24.97700
C  43.97100 36.25400 27.87400
C  44.16900 36.31400 24.40200
O  44.69800 36.61300 23.33600
C  44.03700 34.88900 24.92300
N  42.85100 41.76400 24.15400
C  43.28900 40.76400 23.32000
C  43.18600 41.05300 21.79400
C  42.24700 42.32300 21.84700
C  42.27100 42.76100 23.32700
C  44.58500 41.27300 21.16200
C  40.79600 42.02500 21.31700
C  40.12400 40.69300 21.73300
N  41.81700 43.53600 26.10800
C  41.56500 44.35700 25.09400
C  41.09200 45.61600 25.58300
C  41.08800 45.45600 26.96800
C  41.45800 44.13500 27.26500
C  40.69900 46.86600 24.86500
C  40.78600 46.04500 28.22100
O  40.44400 47.16900 28.41400
C  41.00500 45.04900 29.37600
C  42.14600 45.60600 30.28100
O  43.31300 45.70700 29.97000
O  41.68700 45.74300 31.50900
C  42.62200 46.00100 32.62900
H  43.24200 38.54900 29.41000
H  43.89500 38.70000 23.04700
H  41.12100 44.56800 23.00900
H  42.59000 42.85000 31.22700
H  41.78400 40.02700 30.89700
H  44.69900 40.41700 30.98500
H  43.68900 39.64800 32.15700
H  43.99000 41.33100 32.30500
H  39.70300 42.10000 30.76800
H  40.43900 43.41500 31.54200
H  41.46900 41.44000 33.20500
H  40.05300 40.60100 32.52400
H  45.01600 36.01500 27.67700
H  43.40100 35.32600 27.83300
H  43.92200 36.55300 28.92100
H  44.85000 34.74000 25.63300
H  44.04500 34.24800 24.04200
H  43.08800 34.71600 25.43000
H  42.70500 40.34300 21.12200
H  42.73700 43.00100 21.14700
H  44.80500 42.31500 20.92800
H  44.67600 40.70500 20.23600
H  45.28900 40.89900 21.90500
H  40.92900 42.08900 20.23700
H  40.04400 42.77700 21.55700
H  39.93000 40.07000 20.86000
H  39.14800 40.94300 22.14800
H  40.65000 39.99900 22.38900
H  39.89100 47.25700 25.48300
H  40.45400 46.73000 23.81200
H  41.60600 47.45600 24.99100
H  40.04000 44.82400 29.83100
H  42.08900 46.56000 33.39800
H  43.40400 46.65700 32.24700
H  43.00900 45.04600 32.98600
Mg 9.91400 47.36500 26.13500
C  7.85700 47.60000 29.02000
C  12.49100 48.87300 27.83400
C  11.77900 47.20000 23.35700
C  7.08000 46.52500 24.31200
N  10.15700 48.08600 28.26700
C  9.16400 48.09100 29.25400
C  9.86600 48.61000 30.60800
C  11.09800 49.43400 30.07100
C  11.29800 48.81200 28.61300
C  10.93200 50.98500 30.05300
C  10.32800 47.33900 31.43900
C  10.69400 47.52200 32.95000
H  10.39700 46.43800 34.01400
N  11.93700 47.75900 25.74500
C  12.81000 48.37500 26.60100
C  14.07200 48.56700 25.88200
C  13.83000 48.01000 24.58800
C  12.48400 47.61800 24.49900
C  15.31000 49.18400 26.53300
C  14.84700 47.81300 23.40500
O  14.60900 47.18600 22.32000
C  16.21500 48.30600 23.56000
N  9.52600 46.91700 24.08200
C  10.42200 46.95800 23.14000
C  9.82200 46.57500 21.70700
C  8.31200 46.40100 22.09900
C  8.31100 46.62100 23.58000
C  9.96000 47.69600 20.71900
C  7.58800 45.12300 21.56400
C  6.05700 45.22600 21.25100
N  7.81500 47.12200 26.51100
C  6.79500 46.71700 25.66300
C  5.62500 46.50100 26.45100
C  5.97600 46.82000 27.78800
C  7.28700 47.24100 27.73900
C  4.25100 46.16700 25.80500
C  5.45900 46.96800 29.15200
O  4.35600 46.73800 29.61600
C  6.69300 47.38200 30.05500
C  6.98100 46.21500 30.91500
O  7.36200 45.14600 30.48300
O  6.75000 46.52600 32.23700
C  6.97300 45.44800 33.20000
H  13.25600 49.42500 28.38400
H  12.18400 47.29100 22.34600
H  6.21100 46.20000 23.73500
H  9.21400 49.27100 31.17900
H  12.00700 49.25700 30.64500
H  11.16900 51.48700 29.11500
H  11.59900 51.44400 30.78200
H  10.00100 51.33100 30.50100
H  11.21500 46.99100 30.91000
H  9.65100 46.49400 31.31100
H  10.26900 48.47600 33.26300
H  11.77600 47.62900 33.03100
H  15.12500 49.69200 27.48000
H  15.91200 49.87400 25.94300
H  15.91100 48.32800 26.83900
H  16.28200 49.35000 23.87000
H  16.76100 48.29000 22.61700
H  16.64200 47.63500 24.30600
H  10.16200 45.57600 21.43500
H  7.74900 47.26900 21.75600
H  10.12300 48.62300 21.26900
H  9.07300 47.88100 20.11200
H  10.86100 47.50300 20.13700
H  7.64800 44.38100 22.36000
H  8.13800 44.66500 20.74100
H  5.50300 46.12800 21.51000
H  5.52600 44.44100 21.79000
H  5.91300 44.94800 20.20600
H  4.22300 45.41700 25.01500
H  3.88100 47.14300 25.48900
H  3.72000 45.81100 26.68700
H  6.47100 48.24900 30.67800
H  6.80500 44.42700 32.85800
H  6.28500 45.68600 34.01100
H  7.99100 45.45600 33.58900

