158

Mg 46.85900 24.64900 28.71500
C  47.86600 26.74000 31.19500
C  45.95100 22.31500 31.06800
C  46.53700 22.32900 26.14000
C  48.11500 26.92800 26.32300
N  47.01800 24.51400 30.84100
C  47.33200 25.53200 31.68300
C  46.89600 25.33700 33.14900
C  46.36900 23.82200 33.06000
C  46.47900 23.52600 31.55200
C  47.06000 22.85500 34.00400
C  45.73400 26.23200 33.64700
C  45.48200 26.13400 35.12400
H  45.72100 27.34400 36.10100
N  46.17700 22.63100 28.58400
C  46.02500 21.84200 29.72500
C  45.61100 20.54300 29.23800
C  45.68700 20.52000 27.79600
C  46.13700 21.86100 27.41900
C  45.11400 19.41800 30.29400
C  45.44400 19.32800 26.83300
O  45.44700 19.50800 25.63600
C  45.07100 17.96800 27.37300
N  47.45600 24.59400 26.49600
C  47.04700 23.59500 25.69200
C  47.11400 23.97100 24.25500
C  47.45900 25.52200 24.30600
C  47.74500 25.67400 25.76300
C  48.05800 23.09100 23.36900
C  46.32600 26.39500 23.89800
C  46.63400 27.69600 23.19600
N  47.84600 26.45100 28.70600
C  48.21600 27.31800 27.73100
C  48.69500 28.59000 28.27300
C  48.59300 28.35700 29.61200
C  48.08900 27.10200 29.84600
C  49.39900 29.68300 27.51700
C  48.85500 28.99800 30.87100
O  49.23200 30.14200 31.14600
C  48.27700 27.99400 31.97600
C  49.37700 27.76400 32.93800
O  50.51700 27.50900 32.59000
O  48.90700 28.08000 34.18000
C  49.82100 28.30700 35.31000
H  45.58900 21.67700 31.87700
H  46.56500 21.61300 25.31600
H  48.36900 27.70200 25.59700
H  47.71300 25.34100 33.87000
H  45.30300 23.78300 33.28400
H  47.73500 23.38900 34.67300
H  47.69400 22.20900 33.39600
H  46.36400 22.32700 34.65700
H  44.86900 25.86400 33.09400
H  45.81100 27.25400 33.27800
H  46.13200 25.35300 35.51900
H  44.44900 25.81400 35.25600
H  44.07500 19.14900 30.10800
H  45.35300 19.80100 31.28600
H  45.63500 18.46300 30.22700
H  45.68700 17.85200 28.26500
H  45.40900 17.25500 26.62200
H  43.99000 18.02000 27.50500
H  46.09900 23.71100 23.95500
H  48.36100 25.79500 23.75800
H  48.91900 23.66800 23.03300
H  47.43800 22.59400 22.62300
H  48.40900 22.29500 24.02700
H  45.57800 26.43200 24.69000
H  45.75300 25.85100 23.14700
H  46.33200 27.57600 22.15600
H  47.70100 27.91500 23.24500
H  45.97500 28.51400 23.48700
H  48.81900 29.90900 26.62300
H  50.39000 29.31200 27.25400
H  49.35000 30.65600 28.00600
H  47.38700 28.49000 32.36400
H  50.85100 28.16500 34.98300
H  49.68800 27.58000 36.11200
H  49.76600 29.35900 35.59100
Mg 6.75100 54.54400 41.39900
C  6.12900 50.98900 41.12500
C  9.79900 53.93500 40.04500
C  6.73800 57.73400 40.67000
C  3.46900 54.76900 42.68300
N  7.71100 52.66600 40.55700
C  7.39600 51.33300 40.63700
C  8.46600 50.39800 40.11300
C  9.71500 51.31300 40.26200
C  9.06900 52.70900 40.32000
C  10.63600 50.93800 41.44200
C  8.22400 49.82200 38.63300
C  7.54900 50.62700 37.55000
H  6.56500 49.82000 36.62300
N  8.08800 55.72000 40.46000
C  9.39900 55.31000 40.10400
C  10.09400 56.46700 39.65800
C  9.19500 57.57800 39.57800
C  7.90900 57.11400 40.22300
C  11.49400 56.47100 39.23000
C  9.42600 58.94500 39.06100
O  10.51800 59.27700 38.56700
C  8.44600 60.01100 39.13700
N  5.21400 56.02100 41.40900
C  5.56300 57.36600 41.23600
C  4.40800 58.31400 41.63900
C  3.48900 57.35800 42.45200
C  4.11400 55.97900 42.23100
C  4.75900 59.55600 42.44800
C  1.97000 57.48600 42.06800
C  1.14100 58.55100 42.86000
N  5.04900 53.20000 41.90300
C  3.84500 53.43600 42.51100
C  3.11000 52.23100 42.60800
C  3.95400 51.25900 42.12300
C  5.14900 51.86400 41.72300
C  1.75000 52.04500 43.11600
C  4.16000 49.87300 41.88900
O  3.38000 48.96200 42.06500
C  5.59100 49.63100 41.29900
C  5.46400 48.93200 40.02300
O  4.90200 49.38300 39.04500
O  6.04400 47.66500 40.12900
C  5.55800 46.68800 39.17000
H  10.79900 53.89400 39.60600
H  6.60000 58.79700 40.46200
H  2.48700 54.89400 43.14400
H  8.57800 49.47600 40.68300
H  10.36400 51.35200 39.38800
H  11.59900 50.79100 40.95200
H  10.39700 49.96800 41.87900
H  10.57600 51.55600 42.33800
H  7.74000 48.84700 38.68700
H  9.21600 49.54700 38.27400
H  8.26000 51.04400 36.83700
H  7.03500 51.51400 37.91900
H  11.55200 56.35600 38.14700
H  11.95000 55.62200 39.74000
H  11.93700 57.35700 39.68400
H  8.79800 60.87200 38.56800
H  8.41800 60.35300 40.17200
H  7.46600 59.75700 38.73500
H  4.00900 58.57800 40.65900
H  3.73500 57.46000 43.51000
H  5.60300 59.42200 43.12500
H  3.94500 59.96500 43.04700
H  5.11600 60.31200 41.75000
H  1.43400 56.54300 42.17500
H  1.80500 57.69800 41.01100
H  1.77800 59.14400 43.51600
H  0.31100 58.07100 43.37700
H  0.65900 59.25700 42.18300
H  1.14300 52.93200 42.93400
H  1.75000 51.89300 44.19600
H  1.32100 51.15700 42.65300
H  6.16800 48.95000 41.92400
H  5.85200 47.02000 38.17400
H  4.48400 46.84300 39.06700
H  5.77400 45.63600 39.35300

