158

Mg 17.21700 -2.86700 28.01600
C  16.58700 -0.73900 30.82200
C  18.69100 -4.99300 30.26900
C  18.21500 -4.65500 25.27600
C  16.21100 -0.30300 25.87700
N  17.47300 -2.81200 30.44300
C  17.27800 -1.82000 31.31600
C  17.83500 -2.11500 32.70100
C  18.70100 -3.34000 32.28600
C  18.27200 -3.80300 30.93100
C  20.28000 -3.21800 32.37100
C  16.67700 -2.34400 33.73000
C  16.76000 -1.51100 34.98400
H  18.16600 -1.19600 35.58900
N  18.24500 -4.63000 27.80200
C  18.75100 -5.35000 28.86900
C  19.34300 -6.52300 28.32200
C  19.21900 -6.44600 26.91400
C  18.50800 -5.16700 26.58400
C  19.71600 -7.67400 29.22800
C  19.57200 -7.46000 25.89400
O  19.39400 -7.23600 24.67300
C  20.18100 -8.80800 26.13900
N  16.90000 -2.60000 25.72000
C  17.60100 -3.40000 24.86400
C  17.68500 -2.69600 23.50400
C  16.87500 -1.36900 23.69800
C  16.67500 -1.39700 25.19200
C  19.15300 -2.33400 22.99700
C  15.54200 -1.35800 22.86300
C  14.14700 -1.52900 23.59300
N  16.47500 -0.94500 28.20400
C  15.95800 -0.13500 27.25600
C  15.22300 0.96200 27.95000
C  15.50300 0.74300 29.31000
C  16.27400 -0.38700 29.43200
C  14.36900 1.95800 27.29400
C  15.23900 1.25400 30.60100
O  14.72000 2.31600 30.97500
C  15.97900 0.38700 31.63000
C  16.99100 1.31100 32.24400
O  18.06500 1.57800 31.74200
O  16.46600 1.96100 33.27900
C  17.24200 3.09200 33.86400
H  19.15200 -5.69700 30.96500
H  18.63500 -5.15800 24.40300
H  15.96300 0.53800 25.22700
H  18.52000 -1.32400 33.00500
H  18.36100 -4.22900 32.81700
H  20.75600 -3.62300 31.47800
H  20.62100 -3.75700 33.25500
H  20.61100 -2.19500 32.55100
H  16.67200 -3.40600 33.97400
H  15.80600 -2.06800 33.13700
H  16.10700 -2.04700 35.67300
H  16.25200 -0.58100 34.72800
H  20.80200 -7.75800 29.18000
H  19.28400 -8.62200 28.90600
H  19.50400 -7.47600 30.27800
H  20.48300 -9.31500 25.22200
H  19.34400 -9.24600 26.68300
H  21.12200 -8.82600 26.68900
H  17.17400 -3.35000 22.79700
H  17.37800 -0.45400 23.38600
H  19.10700 -1.73500 22.08800
H  19.72200 -3.25200 22.85000
H  19.65000 -1.72600 23.75300
H  15.59100 -1.93000 21.93600
H  15.49100 -0.29600 22.62600
H  13.44000 -1.70800 22.78300
H  13.91900 -0.57400 24.06600
H  14.06600 -2.33500 24.32200
H  14.33400 1.64900 26.25000
H  14.69500 2.99700 27.35000
H  13.39600 1.84000 27.77100
H  15.31200 0.04400 32.42100
H  17.84800 2.67800 34.67000
H  16.52700 3.70300 34.41500
H  17.74400 3.62200 33.05400
Mg 41.88400 41.38100 26.75700
C  41.34300 43.87100 28.94300
C  42.75500 39.31900 29.33500
C  42.31100 38.82400 24.53600
C  41.46100 43.53500 24.00700
N  42.18100 41.63400 28.91700
C  41.74500 42.69100 29.62500
C  41.69200 42.38300 31.22100
C  42.13500 40.89000 31.23900
C  42.46700 40.63100 29.70500
C  43.30500 40.60600 32.27500
C  40.29200 42.69400 31.74900
C  40.04300 42.14000 33.13700
H  40.39300 43.06100 34.33400
N  42.50400 39.37500 26.92000
C  42.87500 38.72200 28.05100
C  43.08000 37.30200 27.85900
C  42.95600 37.11500 26.50400
C  42.58900 38.41500 25.89900
C  43.50000 36.29800 28.96500
C  43.04100 35.85300 25.74500
O  42.68500 35.74200 24.57500
C  43.29300 34.57100 26.47400
N  42.02600 41.23400 24.51900
C  42.13400 40.02800 23.91600
C  41.88500 40.16800 22.38200
C  41.41100 41.60400 22.28300
C  41.62400 42.19200 23.68400
C  43.14500 39.81000 21.53400
C  39.97800 41.78100 21.72900
C  38.93800 40.97600 22.51700
N  41.57400 43.28400 26.49000
C  41.46800 44.08200 25.33700
C  41.20700 45.43000 25.70300
C  41.20300 45.39900 27.16900
C  41.42500 44.08800 27.57000
C  40.96300 46.55600 24.78600
C  40.91200 46.19000 28.34600
O  40.58000 47.36600 28.50600
C  41.12400 45.20900 29.48200
C  42.23500 45.72600 30.25800
O  43.45300 45.68400 29.96800
O  41.76900 46.34400 31.39500
C  42.75700 46.65300 32.40200
H  42.89800 38.60700 30.15100
H  42.37700 37.95400 23.88000
H  41.41900 44.25200 23.18400
H  42.33400 43.12300 31.69900
H  41.35000 40.18600 31.51600
H  43.09400 39.74200 32.90400
H  43.48400 41.33900 33.06200
H  44.12500 40.28000 31.63500
H  39.56100 42.44400 30.98000
H  40.22600 43.77600 31.86000
H  40.67400 41.26800 33.31300
H  39.01800 41.82200 33.33100
H  42.67800 35.61500 29.17700
H  43.77200 36.69800 29.94200
H  44.38300 35.73400 28.66500
H  42.43100 34.47200 27.13300
H  44.25700 34.47600 26.97300
H  43.35100 33.73300 25.78000
H  41.15000 39.39100 22.17400
H  42.10600 42.05600 21.57600
H  43.02200 39.16800 20.66200
H  43.79400 39.22900 22.18800
H  43.84500 40.58500 21.22000
H  39.94200 41.38500 20.71400
H  39.61900 42.80700 21.64900
H  38.50200 40.19700 21.89100
H  38.18200 41.62400 22.96100
H  39.37000 40.31500 23.26800
H  41.95500 46.86900 24.46100
H  40.44200 47.33300 25.34500
H  40.32100 46.10600 24.02800
H  40.22200 45.10400 30.08600
H  42.71900 45.69900 32.92900
H  42.31300 47.44100 33.01200
H  43.83400 46.74800 32.26700

