158

Mg 42.56200 41.30800 26.02400
C  41.90600 43.32600 28.74400
C  44.05700 39.06300 28.36300
C  43.46100 39.15300 23.55100
C  41.81400 43.66100 23.72300
N  43.07100 41.32100 28.33700
C  42.50300 42.17700 29.25600
C  42.74800 41.73200 30.71800
C  43.58700 40.48300 30.45100
C  43.59700 40.23700 28.98100
C  45.09400 40.48300 30.97400
C  41.40300 41.44000 31.38600
C  40.87900 42.48200 32.46400
H  41.79200 42.76000 33.73000
N  43.39500 39.31700 26.02200
C  43.97400 38.66100 27.02300
C  44.37600 37.36600 26.54800
C  44.08100 37.29500 25.17000
C  43.54700 38.62500 24.84600
C  44.91300 36.29800 27.52600
C  44.36800 36.12500 24.20300
O  43.97000 36.13700 23.08800
C  44.92800 34.79100 24.65000
N  42.84400 41.42300 23.92300
C  43.10600 40.44200 23.14200
C  42.92700 40.74600 21.60900
C  42.30800 42.16700 21.69200
C  42.28500 42.45800 23.20500
C  44.08100 40.54000 20.72800
C  40.93800 42.27800 20.94800
C  39.69400 41.51400 21.60500
N  42.09600 43.13000 26.17700
C  41.82600 44.01000 25.07000
C  41.30800 45.22000 25.62200
C  41.37700 45.04000 27.07800
C  41.78200 43.69500 27.33700
C  40.87800 46.50500 24.93000
C  41.10600 45.58800 28.30700
O  40.71200 46.75200 28.49500
C  41.38800 44.59300 29.42600
C  42.51600 45.11900 30.22600
O  43.63300 45.24000 29.83800
O  42.00300 45.54400 31.36800
C  42.97700 46.18500 32.20400
H  44.51400 38.45300 29.14500
H  43.63300 38.37500 22.80400
H  41.32100 44.39000 23.07700
H  43.29000 42.56700 31.16200
H  43.10500 39.62700 30.92300
H  45.19000 39.50400 31.44300
H  45.21800 41.24500 31.74400
H  45.85200 40.54000 30.19300
H  41.45600 40.49600 31.93000
H  40.64900 41.30400 30.61100
H  39.97600 41.92200 32.70900
H  40.55700 43.42000 32.01300
H  45.50700 36.78100 28.30100
H  45.55100 35.58500 27.00400
H  44.18600 35.70200 28.07900
H  44.70400 34.00800 23.92600
H  44.40600 34.49600 25.56100
H  46.00300 34.96900 24.68600
H  42.10100 40.17500 21.18500
H  42.95000 42.84300 21.12700
H  44.89400 41.13100 21.15000
H  43.87000 40.80100 19.69100
H  44.37800 39.49100 20.71700
H  41.08100 41.91900 19.92900
H  40.73400 43.34600 21.02900
H  39.39000 40.65000 21.01300
H  38.84600 42.15600 21.84000
H  40.00400 41.15300 22.58600
H  40.41400 46.48000 23.94400
H  41.79400 47.09400 24.98200
H  40.22400 47.04200 25.61700
H  40.50300 44.51000 30.05600
H  43.63600 46.89700 31.70700
H  43.63800 45.36600 32.48500
H  42.61300 46.57200 33.15600
Mg -11.48700 16.18300 41.36300
C  -8.27600 14.75600 41.28100
C  -10.11000 18.83700 39.59400
C  -14.54400 17.38400 40.85700
C  -12.74300 13.13600 42.51100
N  -9.33400 16.80100 40.71100
C  -8.21800 16.09400 40.73800
C  -7.01000 16.71200 39.96800
C  -7.60600 18.09100 39.51900
C  -9.10400 17.88300 39.89800
C  -6.94800 19.42700 40.11400
C  -6.65900 15.74200 38.78100
C  -5.21800 15.13800 38.78300
H  -4.34900 15.45100 37.62800
N  -12.18700 17.93900 40.47800
C  -11.49300 18.84000 39.75700
C  -12.35800 19.86500 39.30100
C  -13.65800 19.59900 39.69600
C  -13.51800 18.24700 40.37300
C  -11.80800 21.00000 38.41100
C  -14.86900 20.53300 39.44300
O  -14.68000 21.61300 38.93900
C  -16.21100 20.07500 39.86100
N  -13.39600 15.42200 41.68400
C  -14.49800 16.14900 41.46200
C  -15.74800 15.31000 41.75400
C  -15.16200 13.89100 42.10200
C  -13.67800 14.17900 42.15900
C  -16.61800 15.94900 42.89700
C  -15.42800 12.80900 41.02800
C  -16.53600 11.76000 41.33100
N  -10.71300 14.30200 42.00400
C  -11.35300 13.17000 42.37800
C  -10.39500 12.11100 42.53800
C  -9.10900 12.73800 42.18200
C  -9.36700 14.02900 41.90000
C  -10.74000 10.74100 42.99800
C  -7.71500 12.50900 42.09000
O  -7.15300 11.40300 42.14000
C  -7.12500 13.89100 41.64400
C  -6.33100 14.40200 42.71500
O  -6.73800 14.43600 43.85200
O  -5.15500 14.94400 42.32300
C  -4.38600 15.80800 43.18800
H  -9.63800 19.67500 39.07600
H  -15.56300 17.76700 40.77700
H  -13.10600 12.14400 42.78900
H  -6.15600 16.74900 40.64400
H  -7.55000 18.12800 38.43200
H  -5.97300 19.11600 40.49100
H  -7.60300 19.85900 40.87100
H  -6.70400 20.15300 39.33900
H  -6.73900 16.23200 37.81100
H  -7.40100 14.94300 38.76300
H  -5.27700 14.05300 38.86700
H  -4.64100 15.55500 39.60800
H  -11.14800 20.52800 37.68300
H  -11.29800 21.65800 39.11400
H  -12.55200 21.64800 37.94900
H  -16.90400 20.81000 39.45100
H  -16.10700 20.09100 40.94600
H  -16.55700 19.10400 39.50500
H  -16.36500 15.26100 40.85700
H  -15.50800 13.56700 43.08300
H  -17.50600 16.51200 42.61000
H  -15.99300 16.59500 43.51400
H  -16.93200 15.13500 43.55000
H  -14.46200 12.40300 40.72800
H  -15.74000 13.32000 40.11700
H  -16.82400 11.91300 42.37200
H  -16.24200 10.72600 41.15000
H  -17.31000 11.93500 40.58400
H  -11.14000 10.87500 44.00300
H  -9.83700 10.15900 43.18200
H  -11.43300 10.26900 42.30100
H  -6.45200 13.66000 40.81800
H  -3.66000 15.28900 43.81300
H  -5.02800 16.43800 43.80400
H  -3.75500 16.50100 42.63200

