158

Mg 42.97500 4.20700 47.90600
C  40.90300 6.97200 47.58300
C  40.12400 2.18500 47.77400
C  45.06600 1.54000 47.74700
C  45.83800 6.33800 47.81100
N  40.73800 4.60500 47.77600
C  40.11500 5.80400 47.68300
C  38.57200 5.66900 47.81200
C  38.42300 4.11000 48.06100
C  39.87000 3.58100 47.84000
C  37.85300 3.70900 49.38900
C  37.77400 6.23200 46.62200
C  38.17800 5.61200 45.22000
H  37.64300 6.48200 43.99300
N  42.62100 2.10200 47.67800
C  41.41100 1.49500 47.60900
C  41.69600 0.08500 47.41000
C  43.05200 -0.07000 47.38200
C  43.66700 1.18500 47.62300
C  40.61000 -0.87700 47.41500
C  43.77200 -1.46500 47.25500
O  43.16700 -2.52900 47.13000
C  45.31300 -1.51000 47.23500
N  45.16500 3.99300 47.70800
C  45.73500 2.75200 47.79100
C  47.24500 2.73400 47.90000
C  47.55300 4.27600 47.78600
C  46.09700 4.95300 47.74000
C  47.76300 2.05600 49.19200
C  48.23200 4.72200 46.52000
C  49.73400 4.77300 46.46700
N  43.36000 6.17600 47.76200
C  44.54900 6.92000 47.73500
C  44.20200 8.28000 47.58100
C  42.83500 8.32200 47.52000
C  42.33400 7.07700 47.64500
C  45.15300 9.39400 47.55200
C  41.71800 9.31500 47.35900
O  41.81100 10.53500 47.29500
C  40.38600 8.37400 47.31500
C  39.49600 8.81700 48.39000
O  39.68900 8.67200 49.59000
O  38.35300 9.38800 47.87100
C  37.55700 10.23500 48.78400
H  39.18900 1.62300 47.71900
H  45.85200 0.78300 47.78000
H  46.67900 7.02600 47.70000
H  38.18100 6.10600 48.73100
H  37.70600 3.72600 47.33400
H  38.58300 3.13600 49.96100
H  36.89300 3.21500 49.23500
H  37.63300 4.61300 49.95800
H  37.64800 7.31400 46.58100
H  36.75100 5.89600 46.79400
H  37.62600 4.68600 45.05900
H  39.26600 5.55800 45.18300
H  40.40800 -1.34000 46.45000
H  39.70200 -0.40600 47.79000
H  40.85400 -1.69900 48.08800
H  45.59000 -0.68300 46.58200
H  45.77300 -2.43900 46.90000
H  45.72200 -1.32100 48.22700
H  47.68400 2.29100 47.00600
H  48.13200 4.60900 48.64800
H  47.00200 1.65800 49.86300
H  48.38100 2.74600 49.76600
H  48.38100 1.24700 48.80400
H  48.00400 5.77400 46.34500
H  47.83400 4.16200 45.67400
H  50.08800 4.06600 47.21700
H  50.07700 5.76200 46.77100
H  50.15400 4.53000 45.49200
H  45.71900 9.45900 48.48200
H  44.56800 10.27700 47.29500
H  45.87300 9.29300 46.74000
H  39.86600 8.59500 46.38300
H  38.24300 10.74600 49.45900
H  36.96700 9.56400 49.40900
H  37.06200 10.98600 48.16800
Mg 40.43200 8.53900 30.20400
C  42.21500 9.87700 32.89200
C  37.93600 7.54500 32.48400
C  38.70600 7.28300 27.61500
C  43.01500 9.18600 28.10900
N  40.17400 8.70200 32.40800
C  40.96200 9.34000 33.26400
C  40.22400 9.43600 34.63600
C  38.93500 8.59900 34.50500
C  38.97300 8.31200 33.03100
C  38.84400 7.43100 35.46800
C  40.02900 10.89900 35.14700
C  39.55400 11.08300 36.59100
H  40.26600 11.84800 37.64000
N  38.61700 7.46900 30.07900
C  37.72800 7.22500 31.07100
C  36.55300 6.50000 30.56700
C  36.84100 6.39700 29.10800
C  38.11900 7.07400 28.87300
C  35.40400 6.00100 31.41500
C  35.93900 5.72900 28.03300
O  36.27100 5.67300 26.82700
C  34.69800 4.99900 28.37300
N  40.84600 8.11800 28.18700
C  39.91500 7.74800 27.32600
C  40.50100 7.74000 25.92000
C  41.72300 8.71600 25.97300
C  41.84100 8.74200 27.50300
C  40.91200 6.32500 25.41000
C  41.60600 10.04000 25.22600
C  41.00300 11.27700 25.98000
N  42.35400 9.18900 30.42300
C  43.30400 9.46000 29.47300
C  44.49400 10.03600 30.18800
C  44.05600 10.29800 31.51400
C  42.75900 9.74600 31.61500
C  45.80400 10.34800 29.49600
C  44.47400 10.95300 32.70600
O  45.53400 11.55000 32.91700
C  43.30400 10.66400 33.69600
C  43.90800 10.01000 34.88900
O  44.54600 8.96000 34.85900
O  43.75200 10.79600 35.99500
C  44.48600 10.37400 37.19500
H  37.05800 7.35200 33.10400
H  38.10800 7.00300 26.74600
H  43.77800 9.53900 27.41200
H  40.89500 9.01200 35.38300
H  38.20000 9.32400 34.85700
H  38.65300 6.47600 34.97800
H  38.02900 7.71400 36.13500
H  39.69500 7.42500 36.14900
H  39.27300 11.25300 34.44600
H  40.94100 11.49000 35.06400
H  39.34100 10.07100 36.93700
H  38.56300 11.53000 36.66900
H  34.46500 6.55100 31.46500
H  35.65700 5.76700 32.44900
H  35.12500 5.02200 31.02400
H  34.25700 4.70700 27.42000
H  33.87100 5.63200 28.69700
H  34.87200 4.16500 29.05200
H  39.74100 8.10700 25.22900
H  42.65600 8.29600 25.59800
H  40.14100 5.62900 25.74200
H  41.92000 6.07800 25.74200
H  41.01000 6.30200 24.32500
H  40.99100 9.86500 24.34300
H  42.61100 10.38900 24.98900
H  40.07800 11.38400 25.41400
H  41.65800 12.14400 25.89700
H  40.83300 10.96300 27.00900
H  45.71100 11.36000 29.10200
H  45.92900 9.62400 28.69100
H  46.53000 10.23000 30.30100
H  42.88800 11.64300 33.93300
H  44.16200 9.38100 37.50700
H  44.31400 11.02100 38.05500
H  45.54800 10.21500 37.01000

