158

Mg 47.39200 16.76500 29.56900
C  45.33200 15.94200 32.36800
C  49.57700 18.23800 31.87300
C  49.12300 17.72500 26.99400
C  44.75100 15.69400 27.46900
N  47.40500 16.98000 31.87300
C  46.53200 16.55200 32.79300
C  46.90800 16.94000 34.20600
C  48.13900 17.86700 33.97000
C  48.42900 17.71500 32.44600
C  47.93300 19.31400 34.26400
C  47.25400 15.71000 35.05600
C  47.20300 15.80900 36.50300
H  47.14700 17.20900 37.18400
N  49.11900 17.82000 29.49600
C  49.93700 18.29500 30.52200
C  51.16000 18.83100 29.93400
C  51.03800 18.75400 28.50100
C  49.68000 18.14600 28.25100
C  52.31400 19.34600 30.83400
C  51.96600 19.17100 27.38200
O  51.60000 19.17400 26.22400
C  53.34700 19.90100 27.76700
N  46.91100 16.84300 27.49000
C  47.92400 17.14300 26.66000
C  47.48800 16.93700 25.17700
C  46.23800 16.02700 25.35400
C  45.89300 16.21900 26.83200
C  47.28500 18.25600 24.32700
C  46.41200 14.59900 24.84300
C  46.73300 13.50200 25.89800
N  45.49800 15.94200 29.80200
C  44.58400 15.53400 28.87600
C  43.33600 15.05700 29.53900
C  43.58700 15.24000 30.88900
C  44.94800 15.74300 31.03900
C  42.13000 14.47500 28.90600
C  42.97000 15.07700 32.23500
O  41.89400 14.69000 32.54500
C  44.12200 15.52600 33.27800
C  43.48200 16.69900 34.01700
O  43.05100 17.73700 33.45700
O  43.53000 16.39500 35.37900
C  43.05500 17.45800 36.26200
H  50.20400 18.59300 32.69400
H  49.78900 17.80600 26.13300
H  43.94500 15.33800 26.82400
H  46.14600 17.55200 34.68800
H  48.99100 17.48600 34.53300
H  46.99300 19.57000 34.75300
H  47.87200 19.82600 33.30300
H  48.79000 19.77000 34.76000
H  48.22400 15.34200 34.72200
H  46.50400 14.92900 34.92900
H  48.07800 15.35000 36.96300
H  46.38600 15.20700 36.90100
H  51.85500 19.50900 31.80900
H  52.72000 20.32000 30.55900
H  53.11000 18.60200 30.85300
H  53.92100 20.09400 26.86100
H  53.89000 19.36500 28.54500
H  52.92800 20.81600 28.18600
H  48.35100 16.38100 24.81100
H  45.37700 16.47300 24.85700
H  46.42400 17.97600 23.72000
H  48.11700 18.41400 23.64100
H  47.04700 19.16800 24.87400
H  47.29900 14.70400 24.21700
H  45.63900 14.19300 24.19000
H  46.63300 13.91200 26.90300
H  47.74300 13.16300 25.66800
H  46.13200 12.59500 25.95500
H  42.44400 13.88600 28.04400
H  41.40100 15.19900 28.54300
H  41.63700 13.94500 29.72100
H  44.25300 14.74200 34.02400
H  43.08400 17.06400 37.27800
H  42.01300 17.68100 36.03100
H  43.70100 18.32400 36.12000
Mg 48.33400 25.07700 30.01200
C  49.27000 27.32100 32.35100
C  46.65900 23.27600 32.69200
C  47.53200 22.46700 27.97200
C  50.22500 26.35200 27.54300
N  47.94900 25.26200 32.23900
C  48.41800 26.33300 32.95900
C  48.09200 26.18500 34.48700
C  47.33100 24.79300 34.53200
C  47.30100 24.41500 33.08600
C  47.98600 23.75600 35.49200
C  47.21600 27.37100 34.92600
C  47.40300 27.77500 36.41400
H  46.20100 27.65500 37.42900
N  47.09000 23.24200 30.28200
C  46.47700 22.71400 31.42500
C  45.83900 21.41900 31.04200
C  45.94500 21.25100 29.63300
C  46.85200 22.36900 29.21200
C  44.91800 20.62200 32.00600
C  45.29400 20.26600 28.65500
O  45.45500 20.28800 27.45800
C  44.36100 19.28000 29.17800
N  48.75700 24.51800 27.95000
C  48.38000 23.40700 27.35400
C  48.85100 23.23800 25.90600
C  49.81300 24.48400 25.86200
C  49.52000 25.21600 27.13000
C  49.53200 21.86000 25.48700
C  49.70100 25.42500 24.60000
C  50.97600 25.45400 23.85600
N  49.59700 26.52300 29.93200
C  50.24900 27.04300 28.81500
C  50.87000 28.28500 29.33400
C  50.54800 28.41000 30.67300
C  49.72400 27.31200 30.98300
C  51.69500 29.23600 28.40700
C  50.75100 29.23600 31.83900
O  51.41000 30.28100 32.05500
C  50.09100 28.43000 33.00400
C  51.13100 28.00000 34.01400
O  51.99800 27.25200 33.79400
O  51.05400 28.68400 35.15900
C  52.09700 28.59500 36.22000
H  46.14100 22.68100 33.44700
H  47.31900 21.59600 27.35000
H  50.92900 26.84300 26.86800
H  49.04600 26.09500 35.00800
H  46.30200 24.86600 34.88500
H  48.50800 22.95000 34.97800
H  47.23200 23.25600 36.09900
H  48.66000 24.32100 36.13700
H  46.21100 26.96100 34.82600
H  47.26800 28.25400 34.29000
H  47.74900 28.80500 36.32200
H  48.26300 27.23400 36.81000
H  43.90900 20.82900 31.64900
H  44.98800 21.06000 33.00100
H  45.02700 19.53800 32.04700
H  43.46000 19.82400 29.46000
H  44.70000 18.74000 30.06200
H  44.11100 18.43900 28.53100
H  48.01300 23.38400 25.22400
H  50.85100 24.17000 25.75900
H  50.58400 22.07300 25.67700
H  49.51300 21.50600 24.45600
H  49.28800 21.05800 26.18300
H  49.40000 26.45900 24.77100
H  48.95200 24.94800 23.96800
H  51.79500 25.89700 24.42200
H  50.73700 26.03800 22.96700
H  51.35400 24.50400 23.47700
H  51.12300 29.95900 27.82600
H  52.24400 28.64500 27.67400
H  52.36500 29.78100 29.07100
H  49.47100 29.14900 33.54000
H  51.68300 28.02900 37.05400
H  52.34200 29.60300 36.55300
H  53.05000 28.17600 35.89500

