158

Mg 24.68400 -7.11000 46.30100
C  26.83600 -4.81100 44.82000
C  22.18300 -6.22900 44.16600
C  23.06100 -9.70900 47.61200
C  27.82200 -8.42900 47.85000
N  24.67300 -5.77900 44.71300
C  25.58100 -4.83300 44.29400
C  24.98700 -3.86300 43.31800
C  23.43200 -4.30100 43.29700
C  23.40600 -5.52900 44.14700
C  22.54700 -3.20200 43.87900
C  25.77200 -4.00000 41.88900
C  26.04500 -2.62500 41.19900
H  24.96900 -2.25100 40.21700
N  22.86300 -7.84100 45.94200
C  21.96600 -7.37000 45.01300
C  20.73000 -8.04800 45.15400
C  20.91600 -9.06500 46.12800
C  22.32600 -8.91900 46.65800
C  19.44300 -7.78500 44.31300
C  19.81400 -9.99600 46.63000
O  18.67800 -9.88700 46.20600
C  20.07300 -11.07500 47.67300
N  25.31000 -8.72000 47.64900
C  24.44200 -9.67800 48.02200
C  25.11000 -10.83000 48.84100
C  26.63900 -10.58700 48.58000
C  26.59600 -9.06700 48.13500
C  24.57700 -10.95200 50.31700
C  27.21200 -11.48300 47.49000
C  27.68200 -12.92100 47.84000
N  26.84300 -6.69500 46.41800
C  27.92800 -7.30800 47.02300
C  29.11600 -6.52600 46.87800
C  28.71500 -5.43400 46.07500
C  27.37100 -5.61900 45.82500
C  30.40800 -6.74800 47.50500
C  29.14100 -4.24100 45.41200
O  30.25300 -3.71200 45.36100
C  27.97300 -3.72300 44.59300
C  27.55400 -2.35500 45.03700
O  27.34900 -1.37400 44.32600
O  27.37900 -2.26100 46.43000
C  27.20700 -0.92100 47.06500
H  21.34400 -5.78500 43.62600
H  22.62900 -10.59500 48.08200
H  28.62700 -8.93800 48.38400
H  25.15700 -2.85200 43.68800
H  23.12500 -4.44100 42.26000
H  23.10800 -2.27500 44.00300
H  22.09000 -3.52100 44.81600
H  21.78300 -2.96400 43.13900
H  24.98700 -4.48200 41.30600
H  26.60200 -4.70400 41.83500
H  26.99100 -2.60800 40.65800
H  26.05100 -1.89200 42.00600
H  19.79600 -7.59700 43.29900
H  19.00300 -6.85500 44.67200
H  18.81400 -8.65100 44.10300
H  20.21200 -10.59700 48.64300
H  20.88200 -11.70100 47.29900
H  19.18600 -11.70200 47.76100
H  24.94900 -11.83200 48.44300
H  27.21200 -10.53300 49.50600
H  23.54100 -11.29000 50.32700
H  24.54700 -10.02300 50.88600
H  25.24500 -11.61000 50.87400
H  27.96900 -10.89100 46.97700
H  26.42800 -11.63600 46.74800
H  28.34600 -13.40200 47.12100
H  26.86100 -13.60900 48.04100
H  28.33200 -12.90500 48.71400
H  30.98000 -7.52600 46.99900
H  30.23300 -7.05900 48.53500
H  31.04000 -5.86000 47.46300
H  28.25000 -3.73900 43.53900
H  26.50400 -0.98900 47.89600
H  26.72900 -0.18600 46.41800
H  28.22300 -0.69900 47.39000
Mg -2.39500 34.82100 26.45600
C  -3.41100 32.89800 29.35600
C  -1.26600 37.29800 28.54700
C  -2.36900 36.95100 23.83000
C  -4.27500 32.62600 24.46400
N  -2.41700 35.11200 28.70900
C  -2.79100 34.19500 29.66800
C  -2.36800 34.72000 31.14700
C  -1.71900 36.07600 30.78700
C  -1.71900 36.11800 29.25200
C  -2.29600 37.34100 31.47400
C  -1.44400 33.73200 32.02400
C  -1.97800 33.32600 33.44400
H  -0.97900 33.29200 34.51900
N  -1.75300 36.80400 26.23700
C  -1.35100 37.64700 27.20100
C  -0.76300 38.90200 26.56300
C  -1.20200 38.71100 25.14500
C  -1.87900 37.43500 24.99200
C  0.01900 39.99300 27.32400
C  -1.06000 39.74400 24.07600
O  -1.60200 39.75500 23.01200
C  -0.13400 40.87600 24.25300
N  -3.32200 34.90100 24.37700
C  -3.01200 35.81300 23.52500
C  -3.40000 35.38400 22.10900
C  -3.81400 33.83900 22.33400
C  -3.82700 33.75000 23.83200
C  -4.40000 36.36000 21.47200
C  -2.98500 32.86900 21.41500
C  -1.58100 32.49500 22.04400
N  -3.55900 33.05300 26.75100
C  -4.18100 32.23300 25.84100
C  -4.68600 31.07300 26.57400
C  -4.41400 31.32700 27.91400
C  -3.77900 32.56700 27.98200
C  -5.57600 30.03700 26.09900
C  -4.59600 30.87700 29.25900
O  -5.14100 29.87300 29.72100
C  -3.97800 31.89600 30.27800
C  -5.06200 32.34900 31.27700
O  -6.11900 32.96500 30.97700
O  -4.81100 31.88600 32.51100
C  -5.84200 31.97700 33.54100
H  -0.77800 38.08100 29.13200
H  -2.37000 37.53400 22.90700
H  -4.83500 31.90500 23.86500
H  -3.22000 34.88200 31.80700
H  -0.68100 36.17000 31.10800
H  -2.84600 37.02600 32.36100
H  -3.09900 37.90600 31.00100
H  -1.55200 38.07400 31.78300
H  -0.44600 34.15700 32.13300
H  -1.17300 32.83000 31.47500
H  -2.31900 32.29200 33.48000
H  -2.89000 33.89000 33.63900
H  -0.60600 40.88200 27.40800
H  0.98100 40.31400 26.92300
H  0.26500 39.68500 28.34000
H  -0.56600 41.54700 24.99500
H  0.07800 41.45200 23.35200
H  0.85000 40.49600 24.52700
H  -2.53200 35.37800 21.45000
H  -4.85900 33.73300 22.04200
H  -5.09900 35.78900 20.86100
H  -3.88800 37.00200 20.75500
H  -4.98100 36.83800 22.26000
H  -2.80300 33.43900 20.50400
H  -3.51300 31.92700 21.26400
H  -0.87200 33.18600 21.58600
H  -1.33500 31.49900 21.67700
H  -1.49000 32.69800 23.11100
H  -5.30400 29.82800 25.06400
H  -6.60400 30.39300 26.16800
H  -5.54200 29.06900 26.59800
H  -3.04300 31.50700 30.68000
H  -5.63100 31.24500 34.32000
H  -6.83400 31.78800 33.13200
H  -5.81000 32.94000 34.04900

