158

Mg 46.48900 4.47400 48.27300
C  44.16100 6.71700 47.44100
C  44.26500 1.94000 47.29400
C  48.90700 2.06200 48.49700
C  48.99400 6.86200 48.25400
N  44.49000 4.36800 47.25400
C  43.63600 5.45800 47.17000
C  42.26200 5.08000 46.62700
C  42.23100 3.49000 46.77100
C  43.76700 3.20900 47.07900
C  41.20400 2.96800 47.80600
C  41.83200 5.66800 45.18600
C  40.77700 6.83500 45.09200
H  39.89000 6.64100 43.91600
N  46.53800 2.34700 48.10300
C  45.51300 1.51200 47.68700
C  45.90700 0.14600 47.69100
C  47.24900 0.09000 48.01700
C  47.64800 1.57900 48.19300
C  44.90000 -1.00200 47.35000
C  48.08200 -1.18900 48.24500
O  47.54200 -2.28700 48.25800
C  49.56300 -1.20800 48.45500
N  48.70600 4.51100 48.33100
C  49.43900 3.37900 48.59700
C  50.95700 3.70700 48.76300
C  50.82500 5.26200 48.92000
C  49.38900 5.56000 48.45200
C  51.70000 2.94100 49.88500
C  51.87400 5.96800 47.96600
C  53.32300 5.43400 47.77800
N  46.59000 6.40100 48.01700
C  47.65700 7.28500 48.00600
C  47.13300 8.62200 47.85600
C  45.77600 8.48800 47.69800
C  45.50600 7.06600 47.70000
C  48.07500 9.82800 47.83100
C  44.54800 9.11500 47.52000
O  44.34400 10.30400 47.45300
C  43.41800 8.00500 47.43400
C  42.50100 8.07800 48.69600
O  42.57500 7.34700 49.61200
O  41.48100 9.00700 48.46000
C  40.33800 8.53300 49.19600
H  43.49900 1.24200 46.95000
H  49.60500 1.22900 48.60500
H  49.72300 7.63300 48.51200
H  41.63000 5.50800 47.40600
H  42.05900 3.09200 45.77100
H  40.52100 2.35500 47.21900
H  40.65800 3.86500 48.09900
H  41.71900 2.55800 48.67500
H  41.52500 4.85500 44.52700
H  42.80400 6.00100 44.82300
H  41.42800 7.69400 44.93100
H  40.25600 6.89300 46.04800
H  44.82100 -1.69500 48.18700
H  45.36900 -1.57100 46.54700
H  43.93100 -0.84300 46.87700
H  49.78900 -0.70900 49.39700
H  50.04500 -0.81000 47.56200
H  49.99200 -2.19600 48.62400
H  51.33600 3.60500 47.74600
H  51.02900 5.60600 49.93400
H  52.24500 2.12400 49.41100
H  51.04700 2.62800 50.70000
H  52.49600 3.53700 50.33100
H  51.89600 7.02600 48.22700
H  51.49400 5.99200 46.94500
H  53.99700 6.28000 47.91500
H  53.41800 4.92400 46.81900
H  53.62200 4.79100 48.60700
H  48.29900 10.03800 48.87700
H  47.59700 10.73600 47.46300
H  48.86600 9.49000 47.16200
H  42.78600 8.22200 46.57200
H  39.77400 7.78700 48.63700
H  39.59400 9.32900 49.19300
H  40.44000 8.25800 50.24600
Mg 5.35700 54.96200 40.63600
C  4.87800 51.45500 40.78000
C  8.41200 54.63100 39.68300
C  5.26700 58.31400 39.92400
C  1.87000 55.28700 41.49000
N  6.38800 53.24900 40.09900
C  6.10900 51.90100 40.18100
C  7.32200 51.05000 39.71400
C  8.49900 52.12500 39.75900
C  7.67500 53.40900 39.81800
C  9.60700 52.00100 40.87900
C  7.03100 50.41600 38.31800
C  5.99200 51.14200 37.37700
H  6.69800 51.93300 36.28100
N  6.81200 56.44200 40.07000
C  8.03500 56.04500 39.58000
C  8.76900 57.23900 39.20600
C  7.84600 58.39600 39.37100
C  6.56000 57.78700 39.80600
C  10.14800 57.33400 38.64100
C  8.08100 59.84100 39.12600
O  9.10600 60.19200 38.54300
C  7.01200 60.90400 39.40000
N  3.73900 56.59800 40.71200
C  4.02200 57.87200 40.33700
C  2.74800 58.78400 40.36200
C  1.63100 57.74000 40.70300
C  2.43900 56.51600 41.00400
C  2.74500 60.03200 41.24800
C  0.48500 57.46300 39.69900
C  -0.09400 58.67600 38.98800
N  3.64100 53.68600 41.02200
C  2.36300 53.96500 41.45800
C  1.72200 52.71400 41.88700
C  2.62600 51.66700 41.71200
C  3.73700 52.33100 41.13000
C  0.45500 52.51900 42.59100
C  3.01100 50.30000 41.94000
O  2.48700 49.41900 42.61300
C  4.40000 50.04600 41.20400
C  4.28600 49.02500 40.04900
O  3.81000 49.23800 38.97300
O  4.63800 47.83200 40.48100
C  4.31500 46.59900 39.76600
H  9.48300 54.45100 39.57000
H  5.01900 59.35800 39.72400
H  0.84800 55.25900 41.87100
H  7.46200 50.29200 40.48500
H  8.92500 52.11900 38.75600
H  10.58200 51.87300 40.40800
H  9.43500 51.07800 41.43200
H  9.56800 52.86700 41.54000
H  6.68000 49.40000 38.49900
H  7.94900 50.31900 37.73800
H  5.29700 51.78000 37.92400
H  5.39200 50.37800 36.88300
H  10.82500 57.52500 39.47300
H  10.38000 57.91100 37.74500
H  10.43100 56.28400 38.56000
H  6.22700 60.92800 38.64500
H  7.49700 61.87200 39.53200
H  6.48900 60.64900 40.32200
H  2.61800 59.16300 39.34900
H  1.20200 58.05200 41.65500
H  1.78900 60.14900 41.75900
H  2.91900 60.94000 40.67200
H  3.60700 59.97600 41.91300
H  -0.31400 56.96100 40.24500
H  0.91600 56.77500 38.97200
H  0.50300 58.89300 38.10300
H  -0.09800 59.46500 39.74000
H  -1.12800 58.47200 38.71100
H  0.59200 52.13300 43.60100
H  -0.12100 51.77800 42.03600
H  -0.10600 53.44600 42.71500
H  5.06500 49.58600 41.93500
H  4.71400 46.68200 38.75500
H  3.24900 46.45200 39.59500
H  4.69500 45.71400 40.27700

