158

Mg 36.80900 50.20500 26.78400
C  37.22800 47.80800 29.22200
C  35.72600 52.37500 29.11000
C  36.27700 52.55300 24.30300
C  37.75300 47.93300 24.37600
N  36.21100 49.96100 28.86300
C  36.52500 48.89800 29.69200
C  36.18100 49.30000 31.16500
C  35.43800 50.70600 31.00700
C  35.90000 51.02800 29.58000
C  33.86800 50.74700 31.18800
C  37.51300 49.36600 32.08200
C  37.35500 48.96900 33.53200
H  35.95500 49.01900 34.16100
N  36.21700 52.28800 26.73400
C  35.82200 52.92400 27.81300
C  35.62100 54.35000 27.46400
C  35.67400 54.36300 26.02400
C  36.01400 53.02100 25.63200
C  35.29100 55.38800 28.54900
C  35.33000 55.46600 25.05600
O  35.17300 55.25800 23.88100
C  35.15700 56.81800 25.63300
N  36.88700 50.12800 24.70500
C  36.70600 51.29500 23.93700
C  36.98000 50.96000 22.40000
C  37.70200 49.57900 22.53900
C  37.42100 49.21700 23.90100
C  35.65400 50.85400 21.52000
C  39.19600 49.64900 22.08900
C  40.20600 49.75900 23.24600
N  37.35300 48.28700 26.72900
C  37.69700 47.44100 25.70000
C  38.15200 46.20900 26.19800
C  37.99500 46.28700 27.57800
C  37.45400 47.52700 27.87900
C  38.80900 45.07600 25.47200
C  38.27700 45.62900 28.86300
O  38.80400 44.52700 29.03300
C  37.69700 46.57700 29.98900
C  36.62400 45.93000 30.75100
O  35.52700 45.51500 30.34200
O  37.08900 45.77400 32.06300
C  36.03500 45.25800 32.94700
H  35.37700 53.03100 29.91000
H  35.95100 53.24900 23.52700
H  38.17100 47.20300 23.68000
H  35.52700 48.55100 31.60900
H  35.82100 51.42000 31.73600
H  33.37100 50.79100 30.21900
H  33.54300 51.55800 31.84100
H  33.60500 49.76400 31.57900
H  37.91200 50.37900 32.03900
H  38.21500 48.68800 31.59600
H  38.03500 49.52200 34.18100
H  37.62500 47.91500 33.58700
H  36.21800 55.94600 28.41400
H  35.20000 55.01900 29.57000
H  34.41400 55.88900 28.13900
H  34.21300 56.95100 26.16200
H  35.38500 57.61000 24.91900
H  35.93600 56.84900 26.39500
H  37.64400 51.72200 21.99100
H  37.11500 48.80100 22.05200
H  34.84400 51.19900 22.16300
H  35.44700 49.87700 21.08300
H  35.74500 51.40900 20.58600
H  39.38300 50.54800 21.50100
H  39.34800 48.83500 21.38000
H  40.72900 50.71600 23.27200
H  40.91900 48.96500 23.02300
H  39.90600 49.54300 24.27100
H  39.41800 45.47900 24.66300
H  38.07800 44.36000 25.09400
H  39.53600 44.58300 26.11700
H  38.58700 46.72400 30.60100
H  35.22500 45.97100 32.78900
H  36.45000 45.23700 33.95400
H  35.66700 44.24500 32.78600
Mg -6.27800 24.76900 25.32200
C  -4.58600 26.26200 28.15700
C  -7.63300 22.52200 27.49200
C  -7.09300 23.06800 22.72200
C  -3.90100 26.61100 23.44900
N  -6.11900 24.37200 27.63900
C  -5.49400 25.20800 28.55000
C  -6.06200 24.86700 29.98100
C  -6.79500 23.46900 29.70700
C  -6.90600 23.46400 28.20800
C  -6.09700 22.16500 30.28700
C  -6.90200 26.04800 30.53300
C  -6.98800 26.28300 32.05200
H  -6.42700 25.20500 32.96100
N  -7.36300 23.11400 25.16300
C  -7.90400 22.32800 26.06800
C  -8.78000 21.34500 25.50100
C  -8.67200 21.59000 24.09000
C  -7.65800 22.67900 23.94500
C  -9.77600 20.36300 26.26200
C  -9.30200 20.84300 22.96100
O  -9.08300 21.15700 21.75600
C  -10.21900 19.64300 23.15600
N  -5.49700 24.80300 23.39500
C  -6.14000 24.04500 22.45500
C  -5.43600 24.17600 21.08500
C  -4.77500 25.58500 21.22700
C  -4.67700 25.67300 22.78400
C  -4.46700 23.05100 20.69400
C  -5.63400 26.80900 20.80400
C  -5.29400 27.16000 19.29700
N  -4.69100 26.33700 25.66800
C  -3.77200 26.94500 24.80600
C  -2.85800 27.86300 25.53800
C  -3.18200 27.60200 26.92500
C  -4.22800 26.64000 26.88900
C  -1.81400 28.76800 24.96900
C  -2.77600 27.95000 28.32100
O  -1.85400 28.61900 28.83200
C  -3.76500 27.11000 29.16300
C  -2.98600 26.25000 30.07800
O  -2.32100 25.32700 29.68700
O  -2.97900 26.71900 31.34100
C  -2.24600 26.08700 32.41700
H  -8.12000 21.74900 28.08900
H  -7.42800 22.52200 21.83800
H  -3.28400 27.18300 22.75300
H  -5.15900 24.72300 30.57500
H  -7.82300 23.53500 30.06300
H  -5.80000 21.57000 29.42300
H  -6.85300 21.61300 30.84400
H  -5.16500 22.29900 30.83500
H  -7.93600 25.93100 30.20700
H  -6.55700 27.01200 30.15800
H  -8.05800 26.32000 32.25800
H  -6.63300 27.28500 32.29400
H  -9.41700 19.36100 26.02700
H  -10.80000 20.60200 25.97200
H  -9.62200 20.28800 27.33800
H  -11.13900 20.00600 23.61400
H  -9.67800 18.92100 23.76700
H  -10.49200 19.25500 22.17400
H  -6.25500 24.24100 20.37000
H  -3.77900 25.61300 20.78600
H  -3.45700 23.39800 20.91100
H  -4.57000 22.70300 19.66700
H  -4.66700 22.13600 21.25300
H  -5.37500 27.63600 21.46500
H  -6.71700 26.72200 20.89200
H  -5.02900 26.24500 18.76700
H  -4.41700 27.79700 19.40900
H  -6.15300 27.61700 18.80600
H  -1.28600 29.36300 25.71400
H  -2.26800 29.33800 24.15800
H  -1.15100 28.03100 24.51500
H  -4.40800 27.69900 29.81700
H  -1.40300 26.72200 32.69000
H  -1.85900 25.13300 32.06100
H  -2.90700 25.88100 33.25900

