158

Mg 28.23800 57.53400 42.61700
C  25.92100 55.64400 40.82700
C  30.68100 56.26300 40.71600
C  30.04500 60.14400 43.67200
C  25.34300 59.07200 44.26000
N  28.20100 56.33600 40.77600
C  27.19400 55.53700 40.30000
C  27.66800 54.61900 39.14500
C  29.24600 54.78700 39.31400
C  29.44000 55.78000 40.45400
C  30.10900 53.51500 39.48200
C  27.08700 55.03200 37.78200
C  26.52900 53.83600 37.00200
H  27.10500 53.45100 35.64600
N  30.13800 58.04500 42.39800
C  31.07300 57.33000 41.60900
C  32.34400 57.95300 41.77400
C  32.19900 59.07800 42.59900
C  30.74600 59.19300 42.90900
C  33.63800 57.42000 41.06900
C  33.29800 60.04700 42.93900
O  34.41400 59.95100 42.44900
C  33.15500 61.24300 43.94100
N  27.70900 59.46000 43.74300
C  28.70200 60.26600 44.11400
C  28.15400 61.48700 44.85300
C  26.74700 60.99900 45.21800
C  26.54100 59.82800 44.34900
C  29.00400 61.89500 46.03600
C  25.64200 62.06400 45.25600
C  24.85700 62.22400 46.59500
N  26.09800 57.31900 42.69900
C  25.11500 57.99400 43.39900
C  23.76600 57.45000 43.12100
C  24.09200 56.60800 42.06800
C  25.51300 56.45700 41.90300
C  22.33400 57.88600 43.54300
C  23.42600 55.71600 41.09400
O  22.23500 55.46800 40.97100
C  24.57700 54.99100 40.32500
C  24.36600 53.57900 40.52200
O  24.52100 52.95100 41.56500
O  24.23000 53.06200 39.24500
C  24.28100 51.58000 39.11200
H  31.51500 55.81200 40.17500
H  30.62100 61.02600 43.96300
H  24.49200 59.52700 44.77100
H  27.38700 53.59100 39.37600
H  29.62000 55.30600 38.43200
H  30.52600 53.52400 40.48900
H  30.82500 53.49300 38.66100
H  29.46500 52.64300 39.36900
H  27.78600 55.46300 37.06500
H  26.36200 55.83300 37.92400
H  25.50800 54.13700 36.76800
H  26.58800 52.93500 37.61300
H  33.59100 56.33200 41.10600
H  34.52100 57.78300 41.59500
H  33.76700 57.69600 40.02200
H  32.57700 62.03900 43.47300
H  34.11700 61.63800 44.26800
H  32.72500 60.84300 44.86000
H  28.07500 62.25200 44.08100
H  26.77500 60.41400 46.13800
H  28.36700 62.08400 46.90000
H  29.49400 62.81900 45.72900
H  29.73700 61.14300 46.33100
H  24.88900 61.76400 44.52800
H  25.84300 63.08000 44.91500
H  24.87700 63.28700 46.83800
H  25.24000 61.70600 47.47500
H  23.85400 61.85900 46.37400
H  22.06900 58.93800 43.44700
H  22.23600 57.48900 44.55300
H  21.75300 57.37400 42.77600
H  24.52500 55.33400 39.29200
H  24.49800 51.50100 38.04700
H  23.28500 51.27500 39.43400
H  25.01200 51.22500 39.83900
Mg 1.23300 41.52800 25.17900
C  2.27200 42.12300 28.39200
C  -1.73900 40.29400 26.35500
C  0.40800 40.86200 22.06300
C  4.37700 42.74200 23.99500
N  0.35700 41.25900 27.17200
C  0.88500 41.75200 28.31100
C  -0.03000 41.60700 29.56300
C  -1.31500 40.98400 28.85200
C  -0.88900 40.76600 27.41600
C  -2.06500 39.78600 29.51600
C  -0.39500 42.95100 30.24800
C  0.11200 43.10900 31.73000
H  -0.92900 43.14500 32.85600
N  -0.40700 40.71100 24.37800
C  -1.50900 40.25300 24.97100
C  -2.45000 39.76100 23.99800
C  -1.86400 39.95400 22.68000
C  -0.56900 40.55400 22.97900
C  -3.92400 39.29600 24.34600
C  -2.44200 39.65700 21.21300
O  -1.89100 40.14600 20.20500
C  -3.67400 38.85400 20.97700
N  2.21700 41.78000 23.33500
C  1.66300 41.50300 22.19400
C  2.53800 42.06200 20.99900
C  3.69800 42.70800 21.64700
C  3.37300 42.41200 23.10600
C  2.93700 40.88300 20.02500
C  3.71600 44.28700 21.48000
C  3.89000 44.84600 20.05200
N  2.99000 42.09500 25.98300
C  4.17400 42.54800 25.38800
C  5.15100 42.85800 26.39500
C  4.44500 42.70900 27.64500
C  3.15500 42.26900 27.32600
C  6.61100 43.28300 26.13100
C  4.59900 42.64900 29.04600
O  5.59400 42.87700 29.75200
C  3.18100 42.41300 29.65900
C  3.34400 41.22000 30.59600
O  3.48800 40.02400 30.30600
O  3.43000 41.69100 31.88600
C  3.56200 40.77400 33.01900
H  -2.66400 39.79900 26.65800
H  0.15900 40.79100 21.00200
H  5.23200 43.34700 23.68600
H  0.51800 40.98000 30.26700
H  -2.15300 41.67800 28.78600
H  -2.35700 39.10900 28.71400
H  -2.92700 40.15000 30.07500
H  -1.37200 39.18100 30.10200
H  -1.47000 43.12500 30.30800
H  0.04900 43.70800 29.60100
H  0.86300 43.89700 31.67700
H  0.70900 42.20100 31.82100
H  -4.61900 39.36300 23.50900
H  -4.40300 39.84900 25.15400
H  -3.93300 38.25900 24.68000
H  -3.69800 38.05500 21.71700
H  -3.51700 38.45200 19.97600
H  -4.54500 39.50100 21.07800
H  1.93500 42.80200 20.47300
H  4.67700 42.30000 21.39300
H  2.06100 40.82200 19.38000
H  2.99800 39.94700 20.58000
H  3.88700 41.09600 19.53300
H  4.67100 44.56400 21.92700
H  2.80100 44.71400 21.89200
H  3.62800 43.99000 19.43000
H  4.85400 45.30300 19.83200
H  3.20900 45.69300 19.96700
H  6.95100 43.46300 25.11100
H  7.14400 42.41500 26.51900
H  6.86000 44.16100 26.72600
H  2.95800 43.28600 30.27200
H  4.59200 40.69300 33.36600
H  3.10800 39.79200 32.88900
H  2.97400 41.23300 33.81400

