158

Mg 44.36200 3.62100 47.25300
C  42.28200 6.40500 46.93500
C  41.54100 1.65800 46.66300
C  46.40800 0.88700 46.99600
C  47.11600 5.75500 47.23100
N  42.12400 3.98800 46.78200
C  41.52800 5.23700 46.77100
C  40.04000 5.09800 46.80300
C  39.76100 3.48400 46.79900
C  41.18600 2.95700 46.74300
C  38.95300 2.88300 47.99600
C  39.17700 5.81100 45.73200
C  39.47900 5.49700 44.24400
H  39.74200 6.75300 43.36400
N  44.01800 1.59500 46.88900
C  42.84600 0.97000 46.67900
C  42.93800 -0.46500 46.68600
C  44.31700 -0.66600 46.48300
C  45.02500 0.61200 46.76600
C  41.76000 -1.40600 46.65400
C  44.98200 -1.94700 45.98900
O  44.27600 -2.92700 45.79000
C  46.37100 -2.00400 45.51500
N  46.38300 3.30900 47.11400
C  47.02000 2.11800 47.24600
C  48.56200 2.32000 47.41600
C  48.73600 3.85800 47.34800
C  47.31200 4.33700 47.21700
C  49.12900 1.64600 48.67400
C  49.69300 4.42300 46.23800
C  51.24000 4.06600 46.45300
N  44.64100 5.67700 47.12300
C  45.85700 6.40700 47.21500
C  45.49200 7.85400 47.29700
C  44.13900 7.87900 47.25900
C  43.62300 6.55700 47.04000
C  46.55500 8.94200 47.46100
C  43.04300 8.71400 47.40200
O  42.94800 9.88600 47.79900
C  41.78800 7.83100 47.03200
C  40.82700 8.06600 48.15800
O  40.80700 7.55000 49.26200
O  39.90800 8.95300 47.79700
C  38.91800 9.46800 48.78000
H  40.67200 1.00200 46.58100
H  47.06200 0.01900 47.09900
H  47.96700 6.41800 47.40200
H  39.68300 5.42500 47.78000
H  39.22600 3.05100 45.95300
H  38.60400 3.70200 48.62400
H  39.60000 2.36100 48.70200
H  38.19100 2.14800 47.73700
H  39.14700 6.87500 45.96800
H  38.15900 5.49900 45.96800
H  38.59800 5.04900 43.78300
H  40.24000 4.71900 44.19400
H  42.00300 -2.27400 47.26800
H  41.41300 -1.60900 45.64100
H  40.82900 -1.00100 47.04900
H  46.48300 -1.05400 44.99300
H  46.40100 -2.75300 44.72300
H  47.05700 -2.07600 46.35900
H  48.95400 1.85900 46.51000
H  49.00100 4.17600 48.35600
H  48.47400 1.01200 49.27100
H  49.46200 2.41100 49.37600
H  50.04900 1.19200 48.30600
H  49.57600 5.50500 46.17900
H  49.45200 4.02600 45.25200
H  51.85500 4.96200 46.53300
H  51.51100 3.41600 45.62100
H  51.42500 3.51700 47.37600
H  47.10900 8.78700 48.38600
H  46.10900 9.93400 47.38200
H  47.28000 8.93700 46.64700
H  41.36600 8.13400 46.07400
H  38.96200 9.10200 49.80600
H  37.97800 9.07900 48.38800
H  38.91600 10.53200 49.01500
Mg 41.26500 7.29100 29.36500
C  43.14800 8.46500 32.06800
C  39.04800 5.98400 31.61100
C  39.45100 6.21300 26.77300
C  43.96400 7.97700 27.24800
N  41.11600 7.19700 31.59700
C  41.86400 7.88700 32.46500
C  41.22500 7.97100 33.82700
C  40.22200 6.77200 33.73600
C  40.13900 6.58200 32.24200
C  40.67900 5.42400 34.42400
C  40.68000 9.31200 34.14300
C  40.58700 9.68000 35.59800
H  41.53300 10.72200 36.30200
N  39.52200 6.27100 29.22400
C  38.71500 5.83400 30.21600
C  37.55600 5.18400 29.57700
C  37.54800 5.39100 28.20900
C  38.91600 5.95600 28.02200
C  36.55300 4.42200 30.50200
C  36.49800 5.06700 27.24400
O  36.58800 5.04100 26.04200
C  35.11000 4.85400 27.81400
N  41.71800 6.91600 27.33500
C  40.72100 6.62600 26.48800
C  41.10500 6.79700 24.98400
C  42.49600 7.45800 25.08200
C  42.84400 7.38500 26.66800
C  40.98300 5.55200 24.07400
C  42.58400 8.94600 24.48500
C  42.13600 10.12800 25.42100
N  43.18100 8.12800 29.55800
C  44.15600 8.29900 28.62700
C  45.26000 9.01700 29.21400
C  44.87600 9.14300 30.57900
C  43.63400 8.55300 30.76700
C  46.40100 9.64500 28.51800
C  45.29600 9.74100 31.84200
O  46.27000 10.39400 32.16000
C  44.10300 9.33800 32.80000
C  44.61700 8.66000 34.00300
O  44.44700 7.44400 34.28400
O  45.44200 9.48800 34.78800
C  45.88500 8.82300 36.01600
H  38.28800 5.58000 32.28300
H  38.73100 5.96900 25.98900
H  44.66800 8.19300 26.44200
H  42.05600 7.79700 34.51000
H  39.26400 7.06700 34.16400
H  40.11900 5.16700 35.32300
H  41.75000 5.56000 34.57700
H  40.60400 4.56800 33.75500
H  39.68900 9.45800 33.71400
H  41.30400 9.99300 33.56400
H  40.56500 8.77700 36.20800
H  39.58200 10.09900 35.66200
H  37.09300 4.06200 31.37800
H  36.08400 3.55700 30.03300
H  35.78500 5.13000 30.81500
H  35.16800 3.83200 28.18700
H  34.39300 5.06600 27.02100
H  34.97200 5.53400 28.65600
H  40.42400 7.50600 24.51200
H  43.30000 6.90200 24.59900
H  40.22400 4.83300 24.38100
H  41.96300 5.07500 24.07000
H  40.73200 5.89300 23.06900
H  41.97700 8.85800 23.58400
H  43.49400 9.15500 23.92400
H  41.85000 9.84400 26.43400
H  41.30400 10.56400 24.86700
H  42.91100 10.89500 25.44200
H  46.26600 10.14300 27.55800
H  47.18900 8.89300 28.48200
H  46.90900 10.38500 29.13700
H  43.68600 10.28800 33.13500
H  45.05300 8.63900 36.69600
H  46.56600 9.52600 36.49700
H  46.46900 7.92400 35.82200

