158

Mg 36.02000 49.71400 24.86300
C  36.09700 47.64800 27.84100
C  35.31500 52.39200 26.95100
C  35.54400 51.41100 22.10700
C  36.61200 46.65500 23.10500
N  35.74100 50.00600 27.12300
C  35.87400 49.06300 28.10300
C  35.65900 49.71400 29.52700
C  35.15000 51.12900 29.10700
C  35.39500 51.21300 27.61700
C  33.73700 51.41000 29.69300
C  37.03400 49.77200 30.41300
C  36.82000 49.39800 31.92600
H  35.59600 49.87700 32.61500
N  35.54800 51.67800 24.53200
C  35.39300 52.66000 25.55400
C  35.25800 53.93200 24.91400
C  35.15500 53.68600 23.48800
C  35.38900 52.19300 23.30000
C  35.35900 55.23500 25.67700
C  34.83800 54.72600 22.35100
O  34.76200 54.39300 21.15900
C  34.57800 56.12900 22.63600
N  35.89100 49.04000 22.84400
C  35.90600 50.01200 21.93200
C  36.35600 49.44900 20.56100
C  36.87500 47.97900 20.95000
C  36.40400 47.87000 22.40100
C  35.21400 49.52900 19.36800
C  38.44000 47.90700 20.71100
C  38.93300 47.05300 19.56600
N  36.22600 47.59800 25.28400
C  36.41500 46.49300 24.48800
C  36.67000 45.31900 25.28200
C  36.46100 45.67700 26.55200
C  36.26500 47.08300 26.57600
C  36.86200 43.90100 24.78600
C  36.37200 45.24000 27.92900
O  36.44500 44.14500 28.42700
C  36.23900 46.47900 28.75500
C  35.08200 46.35700 29.65000
O  33.87400 46.30800 29.24700
O  35.43500 46.11000 30.92800
C  34.46200 45.67000 31.85800
H  35.24400 53.25500 27.61600
H  35.42700 51.93900 21.15800
H  37.02900 45.94200 22.39100
H  34.86300 49.12500 29.98300
H  35.81500 51.90300 29.49000
H  32.91900 51.20300 29.00200
H  33.66700 52.46100 29.97400
H  33.59000 50.74000 30.54100
H  37.40500 50.79300 30.32300
H  37.76700 49.14700 29.90300
H  37.66400 49.82100 32.47000
H  36.84600 48.31200 32.02600
H  34.39100 55.72400 25.57400
H  36.13200 55.82600 25.18500
H  35.72900 55.20700 26.70200
H  35.28100 56.63800 23.29500
H  33.60900 56.05600 23.12900
H  34.63000 56.67500 21.69400
H  37.17300 50.11200 20.27800
H  36.29300 47.23200 20.41100
H  34.18700 49.78800 19.62700
H  35.18000 48.59600 18.80600
H  35.54200 50.33100 18.70800
H  38.91500 47.57100 21.63400
H  38.84200 48.91000 20.57100
H  38.43300 47.33000 18.63700
H  38.78600 45.97500 19.62300
H  39.98200 47.28700 19.38100
H  35.88300 43.46600 24.58600
H  37.40400 43.33200 25.54100
H  37.44300 43.95300 23.86500
H  37.09300 46.70500 29.39300
H  33.98100 46.40600 32.50300
H  34.97500 45.08000 32.61800
H  33.60900 45.10000 31.48900
Mg -10.31700 16.81000 43.16000
C  -6.83400 17.67300 43.14200
C  -10.93700 20.06000 42.48800
C  -13.57000 16.00900 42.90400
C  -9.43300 13.45800 43.07100
N  -8.99400 18.62400 42.92800
C  -7.64300 18.81100 42.95100
C  -7.17500 20.27800 42.63800
C  -8.53000 21.03200 42.61600
C  -9.57900 19.85900 42.68900
C  -8.76000 22.04500 43.78400
C  -6.31400 20.37800 41.39300
C  -4.97900 21.08900 41.48300
H  -3.79500 20.24100 41.03600
N  -12.02200 17.92600 42.77400
C  -12.11300 19.24600 42.53500
C  -13.50900 19.68400 42.50000
C  -14.32100 18.51000 42.49000
C  -13.32500 17.42700 42.73600
C  -14.01900 21.06200 42.29400
C  -15.81900 18.43900 42.18500
O  -16.50900 19.45600 42.04800
C  -16.49200 17.05500 42.11000
N  -11.32800 14.98500 42.75200
C  -12.63500 14.92000 42.96400
C  -13.13000 13.51700 43.29800
C  -11.86400 12.66500 42.96500
C  -10.79500 13.74100 42.92400
C  -13.76500 13.39400 44.72300
C  -11.95200 11.81000 41.71300
C  -12.20500 10.33700 41.95300
N  -8.54100 15.73200 43.17600
C  -8.39500 14.36900 43.22600
C  -7.01100 14.08300 43.38500
C  -6.36300 15.36600 43.33000
C  -7.34700 16.30000 43.24900
C  -6.40400 12.70800 43.47200
C  -5.09400 16.04500 43.45400
O  -3.93500 15.65900 43.69700
C  -5.38300 17.56200 43.20000
C  -4.87600 18.42400 44.35800
O  -5.48800 18.70600 45.44700
O  -3.66100 18.85800 44.01000
C  -2.96900 19.81200 44.84700
H  -11.18100 21.12400 42.46600
H  -14.56600 15.57600 43.01800
H  -9.27000 12.38400 43.18700
H  -6.59300 20.57900 43.50800
H  -8.76600 21.43500 41.63100
H  -7.75000 22.40500 43.97700
H  -9.26200 21.63100 44.65800
H  -9.36100 22.82800 43.32200
H  -6.93600 20.96100 40.71400
H  -6.33800 19.38000 40.95500
H  -4.90600 21.33700 42.54200
H  -4.88700 22.01500 40.91600
H  -14.71500 21.01800 41.45700
H  -13.29600 21.79200 41.93000
H  -14.39700 21.40500 43.25700
H  -17.49400 17.25400 41.73100
H  -16.56900 16.61500 43.10500
H  -15.87500 16.38300 41.51400
H  -13.93500 13.23300 42.62000
H  -11.69800 12.02800 43.83400
H  -14.85300 13.46300 44.72000
H  -13.37400 14.21100 45.32900
H  -13.63400 12.42600 45.20800
H  -11.01600 11.97600 41.18000
H  -12.88100 12.11600 41.23300
H  -11.97200 9.83100 42.89000
H  -11.81400 9.76700 41.11000
H  -13.29400 10.30800 41.91900
H  -5.53200 12.89700 44.09800
H  -6.09200 12.31300 42.50500
H  -7.06900 12.01000 43.98000
H  -5.00300 17.97400 42.26600
H  -3.52300 20.16800 45.71600
H  -2.74600 20.57700 44.10300
H  -2.03500 19.41400 45.24300

