158

Mg 43.75800 3.75800 47.50100
C  41.44500 6.39800 47.19100
C  41.18500 1.54500 47.49400
C  46.01200 1.19300 47.05700
C  46.35800 5.98700 46.71900
N  41.47500 4.00200 47.06500
C  40.79400 5.16700 47.34900
C  39.23600 4.84700 47.53000
C  39.27300 3.28200 47.63100
C  40.72300 2.87100 47.40600
C  38.62700 2.65900 48.97000
C  38.32100 5.44300 46.39400
C  38.41900 4.77100 44.96500
H  38.36400 5.88200 43.85900
N  43.69000 1.74000 47.45100
C  42.49100 0.99500 47.47300
C  42.80200 -0.37500 47.29400
C  44.17700 -0.51600 47.01100
C  44.73400 0.83900 47.19700
C  41.81700 -1.46900 47.25100
C  44.94300 -1.77300 46.62100
O  44.29100 -2.73800 46.17200
C  46.46600 -1.90400 46.56600
N  45.95700 3.58800 47.31700
C  46.62900 2.46200 47.25300
C  48.13300 2.71500 46.99200
C  48.22800 4.23400 46.70800
C  46.80400 4.65600 46.90300
C  49.01300 2.22300 48.12400
C  48.98700 4.60400 45.33300
C  50.42800 5.04000 45.52700
N  43.89000 5.78800 47.11800
C  45.02600 6.55800 46.82200
C  44.56600 7.97600 46.56100
C  43.21100 7.89100 46.73100
C  42.83700 6.59000 47.05300
C  45.46100 9.18100 46.23600
C  41.95500 8.74000 46.74100
O  41.78600 9.93700 46.65600
C  40.73700 7.73100 46.95100
C  39.91200 8.28700 48.10900
O  39.90400 7.75800 49.21800
O  39.17600 9.33700 47.72800
C  38.24900 9.81800 48.70700
H  40.35700 0.85100 47.65200
H  46.75800 0.46400 46.73300
H  47.02000 6.66600 46.17700
H  38.89500 5.17000 48.51300
H  38.62600 2.79500 46.90200
H  37.99400 1.79100 48.78600
H  37.93000 3.34500 49.45300
H  39.40300 2.26600 49.62600
H  38.26800 6.53100 46.43500
H  37.32600 5.09600 46.67200
H  37.57800 4.10500 44.77000
H  39.32700 4.18300 44.83100
H  41.96300 -2.17600 48.06700
H  42.00300 -1.93600 46.28300
H  40.77100 -1.17400 47.16700
H  46.96300 -1.48200 47.44000
H  46.98300 -1.56900 45.66700
H  46.61600 -2.98300 46.62200
H  48.44100 2.06600 46.17300
H  48.71000 4.70000 47.56800
H  49.64200 1.43200 47.71500
H  48.42900 1.77300 48.92700
H  49.60400 3.04800 48.52100
H  48.34900 5.35000 44.85900
H  49.00500 3.68500 44.74800
H  50.51400 6.00800 45.03300
H  51.07900 4.21700 45.23000
H  50.56000 5.15000 46.60300
H  44.92600 9.86300 45.57400
H  46.26300 8.79000 45.61000
H  45.85000 9.69000 47.11800
H  40.14900 7.65600 46.03700
H  38.78700 9.99200 49.63900
H  37.40000 9.18500 48.96300
H  37.91000 10.80700 48.39700
Mg 46.74600 24.96000 28.86900
C  47.46000 27.46300 31.26900
C  45.75900 22.91400 31.34700
C  46.58000 22.51900 26.55900
C  48.31900 26.97600 26.48600
N  46.76800 25.20000 31.01700
C  46.94400 26.29900 31.79200
C  46.58000 26.07400 33.26400
C  46.17700 24.52300 33.32900
C  46.23700 24.17400 31.80400
C  47.14300 23.62100 34.19000
C  45.35300 27.01500 33.81800
C  44.90500 26.76200 35.25400
H  45.86700 26.49700 36.46100
N  46.03300 23.02500 28.92900
C  45.72300 22.35500 30.04400
C  45.26300 21.02500 29.65000
C  45.31200 20.93800 28.16600
C  46.04700 22.20200 27.81500
C  44.80500 19.97700 30.61900
C  44.84300 19.83600 27.16900
O  44.96300 19.93700 25.95900
C  44.17500 18.63100 27.76300
N  47.42900 24.72000 26.89000
C  47.34800 23.64400 26.15500
C  48.03500 23.65800 24.82300
C  48.37400 25.17400 24.75500
C  47.94200 25.71600 26.18400
C  49.09500 22.61000 24.75000
C  47.72000 26.08100 23.64400
C  48.70400 26.79000 22.70200
N  47.60100 26.85400 28.80900
C  48.13800 27.55300 27.75500
C  48.52200 28.89500 28.20300
C  48.30900 28.89600 29.60600
C  47.81400 27.61700 29.89800
C  49.08800 29.95400 27.42200
C  48.40000 29.69300 30.82800
O  48.82300 30.81600 31.01600
C  47.97600 28.73000 31.98800
C  49.13700 28.45500 32.91900
O  50.20900 27.93700 32.62100
O  48.65200 28.59000 34.20600
C  49.73700 28.48000 35.23700
H  45.50400 22.29000 32.20600
H  46.56000 21.68400 25.85500
H  48.87000 27.65000 25.82800
H  47.45400 26.39000 33.83300
H  45.14200 24.44500 33.66400
H  46.51100 23.13100 34.93000
H  47.90000 24.24200 34.66900
H  47.70000 22.92000 33.56900
H  44.44400 26.84500 33.24200
H  45.52900 28.08800 33.73900
H  44.22100 25.91300 35.27200
H  44.25100 27.58700 35.53500
H  43.74000 20.03400 30.84500
H  45.41600 20.12000 31.50900
H  45.07300 18.99400 30.23000
H  43.48200 18.85000 28.57500
H  44.90700 17.92600 28.15900
H  43.61300 18.15300 26.96000
H  47.26500 23.46400 24.07600
H  49.44700 25.32300 24.63900
H  49.01200 21.89800 23.92800
H  49.10300 22.00600 25.65800
H  50.06400 23.09800 24.65100
H  47.10100 26.84200 24.12000
H  47.02500 25.48300 23.05600
H  48.86900 27.83400 22.96900
H  48.51400 26.75900 21.62900
H  49.71200 26.43200 22.91100
H  50.17700 29.96400 27.43900
H  48.68300 30.84800 27.89600
H  48.77200 29.89700 26.38000
H  47.25000 29.21700 32.63900
H  50.75700 28.38000 34.86400
H  49.52300 27.65400 35.91500
H  49.84800 29.48300 35.65000

