158

Mg 30.13800 59.39800 40.45200
C  26.96000 58.15900 39.21100
C  31.62400 56.67500 38.90300
C  33.12200 61.02900 40.54100
C  28.47400 62.36800 41.13700
N  29.30500 57.65300 39.11200
C  28.00700 57.25100 38.91600
C  28.01600 55.94400 38.03300
C  29.42300 55.34100 38.37200
C  30.16200 56.63900 38.78700
C  29.41700 54.31000 39.54400
C  27.87100 56.28100 36.49000
C  26.71000 55.58100 35.69900
H  26.96800 54.83000 34.33500
N  32.05100 58.96400 39.93300
C  32.47200 57.70400 39.42000
C  33.99100 57.71900 39.27200
C  34.37400 58.91400 39.83700
C  33.19600 59.69600 40.18200
C  34.84400 56.58700 38.65000
C  35.81900 59.34000 39.91700
O  36.73800 58.60200 39.55100
C  36.25800 60.65800 40.56000
N  30.64600 61.43700 40.79400
C  31.96600 61.87700 40.69100
C  31.95700 63.44700 40.92200
C  30.52100 63.78900 41.49600
C  29.78300 62.51200 41.08500
C  33.06000 64.07000 41.67600
C  29.87600 65.10900 41.01900
C  29.58800 66.14700 42.09100
N  28.17200 60.12400 40.33100
C  27.65100 61.31600 40.64500
C  26.21600 61.29700 40.56600
C  25.86900 60.10900 39.94300
C  27.09900 59.39600 39.81000
C  25.41000 62.42200 41.03200
C  24.76000 59.33200 39.45900
O  23.54200 59.52800 39.60700
C  25.44200 57.98400 38.91900
C  24.83600 56.76400 39.59200
O  24.60900 56.61600 40.78800
O  24.66400 55.76000 38.62600
C  24.03000 54.50800 39.12600
H  32.24600 55.79600 38.72000
H  34.03200 61.63300 40.56800
H  27.81600 63.18900 41.43100
H  27.29400 55.16300 38.27300
H  30.00300 54.86500 37.58100
H  28.42600 54.30400 39.99700
H  30.09700 54.67500 40.31400
H  29.71000 53.32400 39.18400
H  28.81500 56.12600 35.96700
H  27.67100 57.35100 36.43900
H  25.92200 56.30500 35.48800
H  26.14200 54.85400 36.28000
H  35.42900 57.00600 37.83100
H  34.14500 55.82200 38.31200
H  35.46000 56.10400 39.40800
H  35.99400 61.54100 39.97800
H  37.33200 60.51300 40.67400
H  35.87600 60.75700 41.57600
H  32.00700 63.91200 39.93700
H  30.64500 63.85100 42.57700
H  32.72600 65.03300 42.06300
H  33.94500 64.06400 41.04000
H  33.32800 63.43300 42.51900
H  29.01600 64.91800 40.37700
H  30.69600 65.52200 40.43200
H  28.57200 66.54000 42.05500
H  30.12300 67.03500 41.75500
H  29.81100 65.89100 43.12700
H  25.58100 62.43100 42.10800
H  24.35200 62.20700 40.87800
H  25.74600 63.40800 40.70900
H  25.18500 57.89700 37.86300
H  23.00000 54.83900 39.25900
H  24.45000 54.13200 40.05900
H  23.94300 53.74300 38.35500
Mg 8.33400 48.28400 25.22600
C  6.37500 48.40200 28.17200
C  11.01000 49.10100 27.08900
C  10.10500 48.38700 22.47100
C  5.37700 47.90800 23.41100
N  8.57500 48.78400 27.34500
C  7.75500 48.56100 28.39300
C  8.44400 48.87400 29.71700
C  9.74800 49.43100 29.20600
C  9.83200 49.10900 27.77600
C  9.94500 50.99500 29.50700
C  8.63000 47.70500 30.76700
C  7.85600 47.75000 32.12600
H  7.59400 46.38100 32.92400
N  10.38300 48.62200 24.82600
C  11.31300 48.87900 25.74700
C  12.58200 49.02300 25.07100
C  12.38600 48.82700 23.70900
C  10.90800 48.64400 23.60200
C  13.88100 49.19300 25.79700
C  13.36400 48.68400 22.54800
O  12.96000 48.65600 21.36700
C  14.85800 48.80700 22.78100
N  7.78800 48.42800 23.22000
C  8.74300 48.32300 22.28100
C  8.12800 47.98600 20.91400
C  6.70900 47.72800 21.19100
C  6.58200 47.91400 22.70600
C  8.33700 49.05200 19.86800
C  6.25700 46.27200 20.72200
C  4.76600 46.08800 20.35200
N  6.26100 48.20300 25.64500
C  5.18600 48.14700 24.79200
C  3.93100 48.15800 25.52500
C  4.36400 48.19700 26.86200
C  5.72900 48.35100 26.87100
C  2.55100 47.79400 25.00100
C  3.94400 48.13900 28.24200
O  2.80100 47.98800 28.73900
C  5.24100 48.33600 29.17800
C  5.21100 47.20200 30.11400
O  5.78300 46.10700 29.87900
O  4.31700 47.46600 31.15800
C  4.01000 46.31100 32.08000
H  11.85400 49.39500 27.71700
H  10.68100 48.33100 21.54500
H  4.50800 47.85300 22.75200
H  7.76400 49.58100 30.19200
H  10.58900 48.94500 29.70100
H  10.95700 51.35300 29.31900
H  9.73500 51.21700 30.55300
H  9.32500 51.58000 28.82700
H  9.67800 47.49600 30.98300
H  8.25500 46.83200 30.23400
H  6.96800 48.38300 32.11400
H  8.58400 48.34500 32.67800
H  13.69600 49.50700 26.82400
H  14.47100 50.00700 25.37400
H  14.49400 48.29300 25.84300
H  15.10000 48.18400 23.64100
H  15.01800 49.87700 22.91700
H  15.53100 48.57500 21.95600
H  8.62000 47.07000 20.58600
H  6.00900 48.49200 20.85400
H  7.47500 49.67400 19.62600
H  8.61900 48.60800 18.91400
H  9.17300 49.61800 20.28000
H  6.32100 45.69900 21.64700
H  6.92600 45.73200 20.05200
H  4.68500 46.93300 19.66800
H  4.05900 46.12200 21.18100
H  4.70100 45.18000 19.75300
H  2.52800 47.77400 23.91200
H  1.81700 48.55700 25.26200
H  2.34600 46.82600 25.45900
H  4.96900 49.30800 29.58900
H  3.96600 45.36800 31.53500
H  2.98900 46.47000 32.42700
H  4.71500 46.19700 32.90300

