158

Mg 41.10100 8.82700 29.67600
C  42.81500 10.61600 32.08500
C  38.88600 7.79400 32.01600
C  39.85000 7.05300 27.23500
C  43.81600 9.64400 27.41000
N  40.94700 9.22500 31.83700
C  41.64400 10.08700 32.59700
C  41.12800 10.24600 34.01300
C  39.91900 9.21600 33.91500
C  39.82100 8.72900 32.45900
C  39.99400 8.00800 34.86500
C  40.74900 11.70600 34.46300
C  41.53200 12.18500 35.72600
H  40.76000 12.77400 36.84300
N  39.55400 7.66900 29.62300
C  38.75400 7.37900 30.70000
C  37.68900 6.56500 30.22500
C  37.83100 6.39800 28.79500
C  39.13800 7.02900 28.47400
C  36.56100 5.93200 31.13600
C  36.93600 5.71600 27.80200
O  37.25000 5.73500 26.57800
C  35.63800 5.01900 28.17800
N  41.81900 8.35900 27.62900
C  41.02300 7.61400 26.80400
C  41.40400 7.79000 25.35000
C  42.84100 8.42300 25.46900
C  42.86100 8.84100 26.94200
C  41.28000 6.55300 24.33300
C  43.09600 9.66400 24.60100
C  42.61700 11.07200 24.97700
N  42.89900 9.86000 29.70600
C  43.87700 10.09200 28.73500
C  44.90000 10.99000 29.35900
C  44.57900 11.17600 30.66200
C  43.34500 10.46400 30.82900
C  46.02700 11.45800 28.62000
C  44.98300 11.78800 31.89700
O  45.93800 12.54300 32.20700
C  43.86400 11.48800 32.86300
C  44.34400 10.69400 34.03000
O  44.57900 9.49200 33.97300
O  44.69500 11.52200 35.09200
C  45.31300 10.85900 36.23300
H  37.98000 7.66900 32.61300
H  39.28500 6.68500 26.37600
H  44.72400 9.78900 26.82100
H  41.97400 9.87300 34.59100
H  39.02700 9.75500 34.23700
H  40.93200 8.04900 35.41900
H  39.75300 7.00800 34.50500
H  39.29800 8.05600 35.70300
H  39.71000 11.76800 34.78700
H  40.92500 12.27900 33.55300
H  42.23800 12.97100 35.45800
H  42.00300 11.28600 36.12400
H  36.79300 5.96600 32.20000
H  36.51500 4.87900 30.85600
H  35.62000 6.46400 30.99500
H  35.16000 4.54100 27.32300
H  34.97000 5.76900 28.60000
H  35.74600 4.20900 28.90000
H  40.81200 8.57100 24.87300
H  43.65000 7.70000 25.36400
H  40.34500 6.67600 23.78700
H  41.10100 5.63400 24.89200
H  42.20800 6.45400 23.77000
H  42.65600 9.40300 23.63800
H  44.16900 9.75800 24.43700
H  43.38500 11.69200 25.43900
H  41.79100 10.92100 25.67200
H  42.23900 11.57300 24.08500
H  45.66200 12.24200 27.95600
H  46.44300 10.59200 28.10600
H  46.72200 11.84000 29.36800
H  43.45300 12.46300 33.12700
H  45.97500 10.07500 35.86500
H  44.59800 10.43300 36.93700
H  45.96700 11.57700 36.72900
Mg 0.16100 43.32300 26.96900
C  2.70200 43.17900 29.07000
C  -2.08100 42.66900 29.39700
C  -2.37100 43.33100 24.54100
C  2.38600 44.05800 24.34900
N  0.28300 42.90100 29.04900
C  1.44000 42.95500 29.74700
C  1.16900 42.89800 31.25100
C  -0.24900 42.21100 31.30800
C  -0.77500 42.68800 29.86300
C  -0.23500 40.66300 31.58500
C  1.51500 44.34300 31.95400
C  1.87600 44.44800 33.43400
H  1.64500 43.25400 34.32400
N  -2.01800 43.17800 27.01100
C  -2.67700 42.91400 28.12100
C  -4.10200 42.70500 27.76400
C  -4.18200 42.70600 26.30200
C  -2.82000 43.06400 25.87500
C  -5.19100 42.43400 28.80100
C  -5.22700 42.41000 25.32900
O  -5.04400 42.39100 24.10300
C  -6.65900 42.07800 25.86200
N  -0.02000 43.74500 24.86900
C  -1.11500 43.55200 24.09600
C  -0.80900 43.64600 22.61100
C  0.62600 44.20500 22.58000
C  1.01500 44.05100 24.00000
C  -1.09900 42.32100 21.75500
C  0.77900 45.72500 22.11700
C  0.03100 46.13200 20.86100
N  2.12900 43.44200 26.68500
C  2.91200 43.76100 25.61000
C  4.33100 43.75400 25.99600
C  4.27300 43.43300 27.35800
C  2.92400 43.33400 27.72600
C  5.48300 44.07900 25.07700
C  5.13200 43.31300 28.53700
O  6.35800 43.21900 28.70600
C  4.10200 43.36400 29.66300
C  4.32700 42.20800 30.46100
O  4.51800 41.02600 30.16700
O  4.45800 42.65600 31.73600
C  5.05900 41.65000 32.67700
H  -2.71900 42.31500 30.21000
H  -2.99400 43.15500 23.66100
H  3.11700 44.32300 23.58200
H  1.93200 42.25700 31.69400
H  -0.86200 42.57300 32.13300
H  -1.17200 40.29800 31.16500
H  -0.12900 40.46200 32.65100
H  0.63700 40.20900 31.11600
H  0.75800 45.09400 31.72800
H  2.37000 44.69700 31.37900
H  1.37000 45.36200 33.74600
H  2.94400 44.66300 33.47500
H  -6.11700 43.00400 28.72300
H  -4.73800 42.54300 29.78700
H  -5.44100 41.38500 28.64500
H  -7.29300 41.79600 25.02100
H  -7.02400 42.93800 26.42400
H  -6.61600 41.18600 26.48700
H  -1.39700 44.45000 22.16900
H  1.23800 43.58900 21.92100
H  -1.44000 41.58200 22.48000
H  -0.11500 42.01000 21.40400
H  -1.79600 42.48200 20.93300
H  1.83300 45.80100 21.85000
H  0.52900 46.37000 22.95900
H  0.06600 45.16300 20.36300
H  0.45000 46.98500 20.32800
H  -0.99600 46.36100 21.14500
H  5.17200 43.96000 24.03900
H  6.31700 43.39700 25.24200
H  5.90200 45.07700 25.20200
H  4.09000 44.28200 30.25100
H  6.14000 41.70300 32.54800
H  4.81800 40.58700 32.67800
H  4.82000 41.96100 33.69300

