158

Mg -11.87500 38.95200 41.82200
C  -9.92100 35.98000 41.28600
C  -9.58900 40.59900 39.68300
C  -13.92900 41.43600 41.63800
C  -14.40200 36.88900 43.22200
N  -10.03800 38.27900 40.59900
C  -9.43900 37.08100 40.55300
C  -8.18300 37.02500 39.66100
C  -8.03600 38.54400 39.18800
C  -9.27700 39.19100 39.86700
C  -6.71900 39.44800 39.34800
C  -8.40300 35.99100 38.49600
C  -7.42900 34.75600 38.42400
H  -6.29200 34.83600 37.32900
N  -11.61800 40.93200 41.05200
C  -10.62900 41.42900 40.23500
C  -10.84000 42.88600 40.21000
C  -12.07900 43.14800 40.85000
C  -12.59400 41.79400 41.17700
C  -9.86800 43.88500 39.55600
C  -12.74200 44.49400 41.05000
O  -12.18000 45.48900 40.55100
C  -14.01100 44.73900 41.67800
N  -13.93100 39.10900 42.18800
C  -14.58000 40.31000 42.07400
C  -15.97800 40.33100 42.68700
C  -16.09500 38.92200 43.26900
C  -14.72000 38.21000 42.84100
C  -16.46600 41.54400 43.59200
C  -17.41300 38.09900 42.88200
C  -18.21400 37.35100 43.98100
N  -12.12900 36.88200 42.27500
C  -13.15500 36.24300 42.91900
C  -12.73300 34.90500 43.21800
C  -11.44700 34.78900 42.61200
C  -11.14300 35.98500 42.02400
C  -13.49500 33.94600 44.13600
C  -10.40200 33.84900 42.35500
O  -10.21700 32.67200 42.65300
C  -9.28600 34.59700 41.43800
C  -7.94900 34.60100 42.09800
O  -7.04500 33.77700 42.04100
O  -7.77400 35.75200 42.85100
C  -6.48600 36.05500 43.47200
H  -8.85600 41.07500 39.02900
H  -14.59400 42.30200 41.65400
H  -15.09300 36.32100 43.84900
H  -7.36000 36.81100 40.34200
H  -8.33400 38.70100 38.15200
H  -5.83300 38.82300 39.23900
H  -6.70100 39.90200 40.33800
H  -6.64000 40.24400 38.60800
H  -8.32500 36.45000 37.51000
H  -9.37100 35.51200 38.64500
H  -8.01400 33.86400 38.19900
H  -7.06000 34.51800 39.42100
H  -9.36300 44.52700 40.27700
H  -10.51800 44.48800 38.92300
H  -9.18400 43.37000 38.88100
H  -14.71400 44.44500 40.89900
H  -14.27700 45.78900 41.79900
H  -13.97400 44.18600 42.61700
H  -16.63600 40.39600 41.82000
H  -16.13400 39.04400 44.35100
H  -17.20700 41.10400 44.26000
H  -16.88800 42.36600 43.01400
H  -15.60700 41.84400 44.19200
H  -17.33000 37.34300 42.10200
H  -18.07400 38.85700 42.46000
H  -19.10000 37.98100 44.07000
H  -17.72800 37.42900 44.95400
H  -18.31500 36.30200 43.70300
H  -13.31300 32.93300 43.77700
H  -14.56900 34.08700 44.01300
H  -13.25700 34.06900 45.19300
H  -9.25900 34.16400 40.43800
H  -6.42900 36.95600 44.08300
H  -5.85400 36.01100 42.58500
H  -6.35300 35.12500 44.02500
Mg -5.84800 24.63300 25.67300
C  -4.55800 25.78600 28.81300
C  -8.08200 22.70500 27.23700
C  -6.62300 23.26000 22.67900
C  -3.27800 26.60200 24.14600
N  -6.09600 24.21400 27.82000
C  -5.55400 24.81600 28.93400
C  -6.14400 24.18300 30.18900
C  -7.31300 23.31300 29.69100
C  -7.17400 23.38900 28.14000
C  -7.24300 21.86000 30.33200
C  -6.61100 25.26000 31.15500
C  -6.24700 25.23100 32.66000
H  -5.51600 24.01800 33.20700
N  -7.28800 23.24200 25.04400
C  -8.15400 22.62800 25.85800
C  -9.06900 21.81300 25.07100
C  -8.57100 21.86900 23.69200
C  -7.44800 22.79300 23.76700
C  -10.09600 20.92900 25.75200
C  -8.96100 21.14000 22.42300
O  -8.35300 21.16800 21.35000
C  -10.07900 20.18300 22.41600
N  -5.05900 24.84800 23.69700
C  -5.57600 24.19000 22.63300
C  -4.80200 24.55600 21.30400
C  -3.69700 25.51900 21.85900
C  -4.01000 25.66700 23.34200
C  -4.38600 23.25800 20.66600
C  -3.61800 26.88700 21.06500
C  -2.24800 27.11900 20.30100
N  -4.23700 25.96000 26.26000
C  -3.39000 26.75200 25.52000
C  -2.65700 27.56200 26.39400
C  -3.14400 27.26100 27.67700
C  -4.06200 26.24500 27.56400
C  -1.55000 28.44800 25.97900
C  -3.02700 27.66300 29.06200
O  -2.36200 28.55500 29.58800
C  -3.86400 26.67600 29.87000
C  -2.88000 25.90800 30.68400
O  -2.27200 24.90500 30.25500
O  -2.74300 26.33400 31.96400
C  -1.65900 25.83400 32.76100
H  -8.87400 22.13000 27.72200
H  -7.02600 22.92000 21.72200
H  -2.49600 27.22700 23.71000
H  -5.43100 23.57300 30.74300
H  -8.30800 23.72300 29.86200
H  -8.23400 21.53100 30.64400
H  -6.49000 21.79500 31.11700
H  -6.87100 21.19000 29.55700
H  -7.69800 25.28000 31.07000
H  -6.31900 26.20200 30.69100
H  -7.19800 25.42200 33.15600
H  -5.68000 26.12700 32.91500
H  -10.82500 20.62100 25.00200
H  -10.71200 21.34800 26.54800
H  -9.56800 20.06800 26.16000
H  -9.85800 19.44500 23.18700
H  -10.01800 19.63500 21.47500
H  -11.07000 20.62600 22.51600
H  -5.48200 25.15400 20.69600
H  -2.73200 25.01200 21.86600
H  -4.83600 22.32000 20.99100
H  -3.30400 23.22300 20.79300
H  -4.57400 23.33000 19.59500
H  -3.76900 27.73300 21.73400
H  -4.46200 26.90600 20.37500
H  -1.69600 26.19900 20.49200
H  -1.72000 28.02500 20.59900
H  -2.41300 27.19800 19.22600
H  -0.75100 27.85000 25.54200
H  -1.06500 28.86500 26.86200
H  -1.95700 29.20900 25.31400
H  -4.58100 27.31500 30.38400
H  -1.81700 24.81000 33.10100
H  -1.63700 26.52100 33.60700
H  -0.73600 25.77900 32.18500

