158

Mg 35.69300 0.47200 29.61100
C  33.60300 1.57000 32.20600
C  38.33400 0.45700 31.93400
C  37.89200 -0.26500 27.09100
C  33.31700 1.34300 27.35300
N  35.93700 1.01900 31.81500
C  34.88300 1.34300 32.63500
C  35.29000 1.18400 34.12400
C  36.88900 1.08900 33.99500
C  37.10900 0.82700 32.45800
C  37.54500 2.39600 34.58900
C  34.64100 0.01500 34.93300
C  34.03000 0.38000 36.32900
H  34.84000 1.38000 37.16400
N  37.76800 0.04900 29.56400
C  38.65300 0.14200 30.64600
C  39.91200 -0.35500 30.19200
C  39.80900 -0.69300 28.86700
C  38.44500 -0.36000 28.38500
C  41.18400 -0.53500 31.09800
C  40.81200 -1.24500 27.90200
O  40.65000 -1.51400 26.73300
C  42.17900 -1.59900 28.36400
N  35.66400 0.55400 27.44800
C  36.66500 0.15700 26.65600
C  36.21600 0.47300 25.19500
C  34.83300 1.21200 25.27100
C  34.52100 0.97100 26.77700
C  37.34700 1.37600 24.51300
C  33.80600 0.71300 24.30700
C  33.06500 1.82200 23.45300
N  33.78200 1.09300 29.67700
C  32.92500 1.38400 28.68300
C  31.66500 1.76100 29.26700
C  31.85100 1.86700 30.65300
C  33.19500 1.45000 30.87200
C  30.54300 2.01800 28.21700
C  31.22200 2.20900 31.88500
O  30.05200 2.55500 32.11400
C  32.35300 1.96400 32.97000
C  32.54000 3.25500 33.63600
O  33.39800 4.06400 33.37200
O  31.69300 3.36200 34.75200
C  31.93500 4.41000 35.74200
H  39.05700 0.36700 32.74800
H  38.59600 -0.62100 26.33600
H  32.69200 1.95900 26.70300
H  34.89600 2.06000 34.64000
H  37.36600 0.31300 34.59400
H  37.73400 3.13500 33.81100
H  38.47600 2.15500 35.10000
H  36.78200 3.02000 35.05400
H  35.51000 -0.60600 35.15200
H  33.93600 -0.53900 34.31200
H  34.03900 -0.61900 36.76600
H  32.95200 0.53000 36.27000
H  41.58900 -1.53500 30.94000
H  40.99400 -0.47100 32.17000
H  41.94200 0.18100 30.78500
H  41.98300 -2.38800 29.09000
H  42.59300 -0.66300 28.73800
H  42.84600 -1.98600 27.59400
H  36.14800 -0.39400 24.53800
H  34.77500 2.29200 25.13600
H  36.91300 2.24400 24.01500
H  37.89700 0.77500 23.78900
H  38.01100 1.73200 25.30000
H  33.03200 0.21100 24.88800
H  34.11800 -0.06800 23.61300
H  32.11100 2.00300 23.94800
H  32.89600 1.51200 22.42100
H  33.53500 2.80100 23.54600
H  30.56500 1.02200 27.77600
H  30.81400 2.75300 27.45800
H  29.52000 2.15300 28.56700
H  31.98900 1.25400 33.71200
H  31.54500 5.24400 35.15800
H  32.98500 4.59300 35.97400
H  31.32400 4.41400 36.64500
Mg 47.75400 45.58700 42.52000
C  44.34500 44.85700 42.28300
C  48.40900 42.32600 42.18100
C  50.95900 46.45700 42.15400
C  46.81200 49.04500 42.47800
N  46.51100 43.83300 42.06400
C  45.11100 43.70700 42.11600
C  44.66800 42.27900 42.14200
C  45.99900 41.53100 42.33000
C  47.04700 42.58200 42.13300
C  46.16500 40.59200 43.62300
C  43.75700 41.75900 40.97700
C  43.86100 42.56600 39.67400
H  43.52900 41.89400 38.33000
N  49.45700 44.58800 42.29200
C  49.53200 43.17700 42.20100
C  50.90200 42.86900 42.09100
C  51.72900 43.95600 42.16800
C  50.70800 45.03600 42.17200
C  51.30600 41.42200 42.00000
C  53.30500 44.03100 42.12600
O  53.99400 42.98500 41.97900
C  54.03500 45.22900 42.34300
N  48.76200 47.48500 42.13500
C  50.09500 47.56200 42.28000
C  50.48600 49.06700 42.33000
C  49.28200 49.87200 42.32900
C  48.23000 48.71600 42.34700
C  51.42700 49.50300 43.50000
C  49.14000 50.87200 41.11000
C  48.71600 52.35600 41.39700
N  45.98100 46.73000 42.36600
C  45.72900 48.13600 42.54000
C  44.34900 48.43900 42.57100
C  43.78600 47.13200 42.58200
C  44.77600 46.18600 42.33400
C  43.63300 49.74500 42.69600
C  42.49400 46.43800 42.54100
O  41.37900 46.90000 42.58000
C  42.82100 44.89400 42.44700
C  42.26000 44.15000 43.62500
O  41.39800 43.31000 43.62500
O  42.88100 44.60100 44.75300
C  42.41900 44.03300 45.99400
H  48.69600 41.27300 42.14500
H  52.00900 46.71100 41.99300
H  46.49000 50.08800 42.51100
H  44.12900 42.02200 43.05400
H  46.18400 40.91500 41.45000
H  47.05800 39.97400 43.52300
H  45.29200 39.94000 43.65600
H  46.29100 41.16800 44.53900
H  42.71200 41.85300 41.27300
H  44.02700 40.72700 40.75500
H  44.88100 42.92000 39.52400
H  43.22500 43.44000 39.81300
H  50.92200 40.90200 42.87800
H  52.37600 41.21900 41.96400
H  50.93300 41.05500 41.04400
H  54.00000 45.90000 41.48500
H  55.07100 44.92100 42.48500
H  53.76300 45.73100 43.27100
H  51.02600 49.20800 41.39400
H  49.07700 50.42300 43.24700
H  52.28200 50.06100 43.12000
H  51.65600 48.56500 44.00700
H  50.86800 50.14300 44.18300
H  48.35500 50.43000 40.49600
H  49.99500 50.66800 40.46500
H  49.33900 53.01800 40.79500
H  48.94400 52.62500 42.42800
H  47.66700 52.53900 41.16500
H  44.24700 50.55900 43.08200
H  42.69200 49.64800 43.23700
H  43.41100 49.97700 41.65400
H  42.25400 44.58400 41.56900
H  41.34300 43.87900 45.91900
H  42.74800 44.64100 46.83700
H  42.98800 43.10400 46.02200

