158

Mg 49.69600 47.09400 43.49100
C  46.45600 47.60200 42.30700
C  49.78400 44.07200 41.78000
C  52.99300 46.80500 44.09100
C  49.82500 50.49000 44.13800
N  48.26900 45.96600 42.29100
C  47.03500 46.36200 41.87600
C  46.35300 45.25600 41.04800
C  47.29200 44.05100 41.27300
C  48.57600 44.71900 41.71600
C  46.97500 42.86900 42.20300
C  45.96100 45.59200 39.54000
C  44.46500 45.25800 39.09800
H  44.21200 44.69100 37.65300
N  51.15600 45.53200 43.26400
C  50.98200 44.38500 42.53700
C  52.17900 43.64700 42.51100
C  53.21400 44.35900 43.22700
C  52.51500 45.60600 43.67500
C  52.31800 42.35200 41.77800
C  54.58500 43.91700 43.39300
O  54.93400 42.81700 42.97100
C  55.66600 44.69300 44.08900
N  51.17800 48.42700 44.18600
C  52.47700 48.09400 44.36800
C  53.36600 49.25900 44.74800
C  52.44400 50.48600 44.47200
C  51.05400 49.77200 44.27800
C  53.95500 49.29900 46.20000
C  53.00000 51.38200 43.35900
C  53.27100 52.87500 43.73300
N  48.38100 48.74900 43.39300
C  48.54200 50.00800 43.82400
C  47.34200 50.67300 43.78900
C  46.35900 49.76100 43.40400
C  47.15000 48.61700 43.01900
C  47.07200 52.09000 44.18900
C  44.96800 49.63300 43.01600
O  43.99400 50.37400 43.06200
C  45.02100 48.15700 42.24400
C  44.02100 47.33500 42.96100
O  44.06800 46.91300 44.14100
O  42.98700 47.00800 42.12100
C  42.03600 46.00900 42.59400
H  49.73800 43.13200 41.22600
H  54.06700 46.63600 44.19100
H  49.82700 51.54600 44.41300
H  45.40700 45.05600 41.55100
H  47.44300 43.55100 40.31700
H  46.50900 42.12600 41.55600
H  46.33100 43.04400 43.06500
H  47.82700 42.35000 42.64200
H  46.74100 45.05000 39.00500
H  46.05500 46.66800 39.38800
H  44.01800 46.25100 39.11400
H  44.07000 44.54000 39.81800
H  52.94900 42.32300 40.88900
H  51.37200 41.87500 41.52400
H  52.86400 41.70500 42.46500
H  56.53500 44.05200 44.23900
H  55.19000 44.90800 45.04600
H  55.91500 45.62600 43.58300
H  54.11900 49.21400 43.96200
H  52.27600 51.14800 45.32100
H  55.02400 49.47800 46.08600
H  53.75800 48.29800 46.58400
H  53.41200 49.97800 46.85800
H  52.28300 51.33100 42.53900
H  53.96900 51.04400 42.99000
H  54.31400 53.01400 44.01700
H  52.55900 53.13500 44.51600
H  53.06800 53.52800 42.88500
H  47.83200 52.64300 43.63600
H  47.03700 52.30000 45.25800
H  46.17800 52.42300 43.66200
H  44.65200 48.05100 41.22300
H  41.34300 46.07300 41.75500
H  41.51000 46.33300 43.49300
H  42.45600 45.00400 42.55800
Mg 26.68300 50.32900 26.65500
C  24.66600 51.27300 29.25300
C  28.92800 49.04600 28.85400
C  28.86000 49.96500 24.19400
C  24.39800 51.83700 24.47600
N  26.68300 50.11500 28.75500
C  25.74400 50.52300 29.68500
C  26.22700 50.38800 31.15700
C  27.63000 49.81700 30.88500
C  27.74200 49.62000 29.44000
C  28.84000 50.55400 31.37600
C  25.26200 49.61800 32.02800
C  24.92800 50.29700 33.43200
H  25.96400 50.94700 34.32600
N  28.60100 49.39900 26.51100
C  29.35500 48.99500 27.56300
C  30.71600 48.74200 27.12100
C  30.67600 49.10100 25.74600
C  29.36100 49.56500 25.41600
C  31.89800 48.39200 28.04200
C  31.85800 49.18100 24.74900
O  31.70600 49.67800 23.64200
C  33.30500 48.89900 25.26600
N  26.71400 51.00900 24.57600
C  27.68300 50.53700 23.72600
C  27.30500 50.94800 22.28400
C  25.80000 51.39000 22.40300
C  25.57000 51.37100 23.95300
C  28.28000 51.90900 21.67200
C  24.78800 50.44800 21.66400
C  23.94600 51.06600 20.47000
N  24.92600 51.35800 26.76700
C  24.07400 51.92000 25.82600
C  23.03700 52.65000 26.40500
C  23.23900 52.46000 27.77900
C  24.39300 51.65000 27.94900
C  22.04800 53.56600 25.82200
C  22.80300 52.82100 29.03500
O  21.98500 53.70000 29.30400
C  23.75300 52.09600 30.11600
C  24.62200 53.21500 30.80700
O  25.52800 53.80800 30.25400
O  24.33600 53.37300 32.14500
C  25.14400 54.42400 32.81800
H  29.68500 48.68200 29.55300
H  29.51600 49.81900 23.33400
H  23.71100 52.31100 23.77200
H  26.35400 51.36900 31.61400
H  27.72500 48.95700 31.54800
H  29.62900 49.84200 31.62100
H  28.70600 51.07500 32.32400
H  29.25400 51.26900 30.66400
H  25.79400 48.71500 32.32700
H  24.37100 49.39200 31.44300
H  24.52500 49.43700 33.96600
H  24.10400 50.97900 33.22200
H  32.17900 47.33900 28.02300
H  31.54500 48.40700 29.07300
H  32.86700 48.88000 27.93600
H  33.95300 49.19800 24.44200
H  33.41100 47.89200 25.67200
H  33.51200 49.65300 26.02500
H  27.22000 50.00300 21.74800
H  25.74200 52.43800 22.11100
H  29.06500 51.76000 22.41300
H  27.94900 52.91400 21.40700
H  28.52700 51.45300 20.71400
H  24.06800 50.06500 22.38600
H  25.27000 49.65600 21.09000
H  23.79900 52.09700 20.79200
H  23.03500 50.48400 20.33200
H  24.52100 50.92100 19.55600
H  22.34400 54.57700 26.10100
H  21.09600 53.37500 26.31800
H  21.97800 53.37600 24.75100
H  23.15900 51.50300 30.81100
H  26.22800 54.36400 32.71700
H  24.73400 54.29500 33.82000
H  24.83200 55.38900 32.42000

