158

Mg 49.85100 46.42600 43.09600
C  47.27200 48.67900 42.24700
C  47.95400 43.89400 41.84400
C  52.66200 44.70600 43.00500
C  51.64600 49.33900 43.95900
N  47.86800 46.36900 42.22500
C  46.99800 47.35400 41.85100
C  45.80900 46.77900 41.16100
C  45.83300 45.28200 41.67700
C  47.33600 45.16200 41.86800
C  45.14300 44.93500 42.95700
C  45.80300 46.86700 39.60600
C  44.40100 46.68900 38.93200
H  44.46700 45.55700 37.92400
N  50.24300 44.55200 42.55200
C  49.37500 43.69100 42.01300
C  49.98200 42.46400 41.84100
C  51.32900 42.60000 42.17900
C  51.53300 43.99900 42.60500
C  49.34900 41.11200 41.42100
C  52.44500 41.60400 41.87600
O  52.22100 40.51900 41.39400
C  53.93900 41.93000 42.19300
N  51.90300 46.99400 43.32500
C  52.87400 45.99500 43.32200
C  54.18200 46.48100 43.95300
C  53.91700 48.00100 43.81600
C  52.36700 48.16000 43.66500
C  54.64600 45.94000 45.34700
C  54.68600 48.76300 42.75800
C  56.19400 49.11600 43.01200
N  49.53700 48.51500 43.37000
C  50.28600 49.51700 43.80400
C  49.53100 50.80100 43.84000
C  48.39700 50.55600 43.12600
C  48.42700 49.12600 42.87100
C  50.22700 52.09700 44.27700
C  47.19600 51.14900 42.64300
O  46.74800 52.27700 42.77600
C  46.41000 49.96000 41.99100
C  45.11600 49.79500 42.66100
O  45.00400 49.28500 43.70700
O  44.10200 49.91900 41.73300
C  42.78000 49.54500 42.29100
H  47.31800 43.13300 41.38800
H  53.63300 44.24400 43.19300
H  52.22100 50.21300 44.27200
H  44.90100 47.24900 41.53900
H  45.55900 44.57600 40.89400
H  44.27500 44.31000 42.75000
H  44.77500 45.86900 43.38100
H  45.79000 44.43800 43.67900
H  46.44000 46.01600 39.36800
H  46.12500 47.82700 39.20200
H  44.14600 47.61300 38.41200
H  43.60100 46.33500 39.58200
H  48.26000 41.15900 41.43600
H  49.64600 40.41800 42.20800
H  49.79200 40.84800 40.46100
H  53.94000 42.14700 43.26100
H  54.06500 42.92800 41.77100
H  54.64700 41.20800 41.78700
H  54.99700 46.24600 43.26800
H  54.24200 48.51100 44.72300
H  55.72700 46.02200 45.46100
H  54.40300 44.88400 45.46400
H  54.31600 46.62000 46.13300
H  54.08400 49.61000 42.42900
H  54.73900 48.09300 41.90000
H  56.18700 50.20500 42.98200
H  56.86600 48.60000 42.32700
H  56.46800 48.92000 44.04800
H  51.20100 52.16800 43.79200
H  50.49100 52.11000 45.33400
H  49.62900 52.99300 44.11100
H  46.33100 50.21000 40.93300
H  42.68000 48.46800 42.42900
H  41.98000 49.89600 41.64000
H  42.73200 50.14100 43.20200
Mg -5.33400 25.23300 25.45300
C  -3.87100 26.63500 28.25700
C  -7.07100 23.17400 27.54400
C  -6.19000 23.42100 22.70700
C  -3.27500 27.20200 23.53400
N  -5.28700 24.85300 27.65400
C  -4.71500 25.59600 28.62400
C  -5.04300 25.17600 30.02600
C  -5.95100 23.93400 29.79000
C  -6.09200 23.92600 28.22700
C  -5.54400 22.54500 30.31600
C  -5.71900 26.29500 30.88500
C  -5.30600 26.44200 32.38000
H  -4.58600 25.27500 33.05900
N  -6.68900 23.62600 25.15100
C  -7.32200 22.99000 26.12900
C  -8.28600 22.09600 25.52800
C  -7.86600 22.03600 24.14400
C  -6.93000 23.09200 23.89300
C  -9.27800 21.27800 26.34100
C  -8.37400 21.09500 23.01200
O  -8.00800 21.19100 21.85200
C  -9.47900 20.11900 23.34700
N  -4.96300 25.41800 23.40700
C  -5.26700 24.48900 22.50200
C  -4.63200 24.77300 21.19700
C  -3.78400 26.08400 21.41800
C  -4.02900 26.22200 22.89500
C  -3.82200 23.52600 20.58000
C  -4.36300 27.35700 20.68000
C  -3.46400 27.92700 19.60700
N  -3.93800 26.69300 25.73600
C  -3.16800 27.39400 24.84700
C  -2.25800 28.28400 25.55400
C  -2.54200 28.07300 26.94400
C  -3.51300 27.05200 26.96900
C  -1.24900 29.13700 24.97200
C  -2.30500 28.52100 28.31800
O  -1.59900 29.43300 28.80100
C  -2.98500 27.42900 29.19700
C  -1.83600 26.69200 29.85600
O  -0.96000 26.08100 29.26800
O  -1.81200 26.82500 31.18500
C  -0.64700 26.28400 31.95300
H  -7.64900 22.58000 28.25500
H  -6.31900 22.82200 21.80400
H  -2.58400 27.70800 22.85600
H  -4.11100 24.90200 30.52100
H  -6.98500 23.98600 30.13000
H  -6.51000 22.13400 30.61100
H  -4.80300 22.51700 31.11500
H  -5.22700 21.88500 29.50900
H  -6.77800 26.04600 30.95700
H  -5.61100 27.27900 30.42900
H  -6.26100 26.51400 32.90000
H  -4.81300 27.38400 32.61900
H  -9.05300 20.21300 26.39100
H  -10.32100 21.34400 26.03200
H  -9.35500 21.65200 27.36200
H  -9.72900 19.52400 22.46900
H  -10.28000 20.83800 23.52100
H  -9.18700 19.52300 24.21100
H  -5.51900 24.97500 20.59800
H  -2.70800 25.92700 21.35000
H  -3.65800 22.81900 21.39300
H  -2.86000 23.89800 20.22600
H  -4.38300 23.08500 19.75500
H  -4.72300 28.15200 21.33400
H  -5.26300 27.02100 20.16500
H  -2.94300 28.85600 19.83700
H  -4.12100 28.10000 18.75500
H  -2.62100 27.26100 19.42200
H  -0.39000 29.42000 25.58100
H  -1.79000 29.99900 24.58300
H  -0.77000 28.65300 24.12100
H  -3.48900 28.05500 29.93300
H  0.31100 26.70200 31.64400
H  -0.63000 25.19800 31.86200
H  -0.82800 26.50500 33.00500

