158

Mg 35.23700 1.02900 29.58500
C  33.23900 2.48900 32.06600
C  37.83200 0.97600 32.03700
C  37.18500 -0.23100 27.30300
C  32.60700 1.52400 27.27200
N  35.57100 1.94900 31.80500
C  34.51700 2.22500 32.60200
C  35.03300 2.31800 34.04600
C  36.59300 2.06700 33.93600
C  36.66900 1.59500 32.52200
C  37.61400 3.17600 34.28900
C  34.23800 1.45400 35.03700
C  34.13100 1.88200 36.53500
H  34.52900 3.26400 37.01900
N  37.34200 0.48600 29.62600
C  38.12600 0.39000 30.71400
C  39.40200 0.01700 30.21400
C  39.26100 -0.37000 28.87400
C  37.89100 -0.06100 28.55600
C  40.61500 0.06600 31.09800
C  40.26800 -0.73200 27.86000
O  40.00800 -0.84000 26.70500
C  41.64800 -1.01600 28.25800
N  34.98400 0.82200 27.55100
C  35.94600 0.18900 26.83600
C  35.42000 -0.02600 25.36500
C  34.03100 0.48600 25.38100
C  33.83600 0.90900 26.83800
C  36.33700 0.63000 24.29800
C  32.92600 -0.51600 24.95600
C  32.52000 -1.57500 26.01300
N  33.36700 1.90700 29.53300
C  32.37200 2.03000 28.59100
C  31.23600 2.69100 29.09700
C  31.52800 2.88500 30.50900
C  32.85200 2.40600 30.70200
C  29.89500 2.97000 28.34700
C  30.97000 3.27100 31.74100
O  29.83500 3.55900 32.11300
C  32.01600 2.97000 32.88000
C  32.18700 4.29900 33.61700
O  32.81900 5.23400 33.13700
O  31.38200 4.22400 34.74400
C  31.32300 5.46200 35.46200
H  38.55800 0.75800 32.82300
H  37.65600 -0.82500 26.51700
H  31.86100 1.64100 26.48300
H  34.75200 3.35400 34.23600
H  36.85100 1.20600 34.55300
H  38.60100 3.03200 33.85000
H  37.78700 3.14000 35.36500
H  37.12900 4.12900 34.07600
H  34.68200 0.45900 35.00300
H  33.28100 1.42700 34.51600
H  34.51800 1.18500 37.27900
H  33.07800 1.78500 36.79900
H  40.50100 0.74700 31.94100
H  41.42500 0.60000 30.60200
H  40.99200 -0.93100 31.32500
H  42.20500 -0.11400 28.51300
H  42.12700 -1.40000 27.35700
H  41.58600 -1.77100 29.04100
H  35.36000 -1.09200 25.14600
H  33.84500 1.35900 24.75600
H  36.65200 -0.14200 23.59600
H  37.24600 0.90100 24.83600
H  36.01500 1.52100 23.76000
H  33.37000 -0.97200 24.07100
H  32.04800 0.05000 24.64300
H  32.43000 -2.50600 25.45300
H  31.53500 -1.32700 26.40900
H  33.13100 -1.65200 26.91300
H  29.69700 2.29700 27.51200
H  29.82900 3.95000 27.87400
H  29.03300 2.79400 28.99100
H  31.68500 2.18400 33.55800
H  30.48100 6.07800 35.14400
H  32.22900 6.06400 35.39000
H  31.33000 5.22300 36.52500
Mg -0.91700 33.52400 26.67100
C  -2.48500 31.97900 29.52200
C  0.68900 35.45300 28.80500
C  -0.14100 35.31500 24.03500
C  -2.78800 31.31900 24.63000
N  -0.96700 33.65100 28.95100
C  -1.57400 32.97400 29.91500
C  -1.08200 33.18500 31.30100
C  -0.06800 34.40000 31.12100
C  -0.05300 34.57000 29.53000
C  -0.30000 35.71600 31.98900
C  -0.43700 31.93800 31.98200
C  -1.06100 31.55700 33.38100
H  -0.26000 32.09100 34.66500
N  0.12400 35.21400 26.50800
C  0.76700 35.85800 27.46300
C  1.53500 36.92500 26.91500
C  1.23300 36.91700 25.53600
C  0.37100 35.75400 25.31300
C  2.37600 37.83900 27.77000
C  1.71400 37.80000 24.43300
O  1.36400 37.73000 23.24600
C  2.66000 38.84600 24.84400
N  -1.65800 33.49800 24.55800
C  -0.99900 34.26800 23.66800
C  -1.47500 33.91500 22.27600
C  -2.09500 32.51500 22.46900
C  -2.22300 32.41000 23.96200
C  -2.42100 34.92800 21.67900
C  -1.23600 31.27300 21.95000
C  0.22200 31.07100 22.30500
N  -2.32700 31.95400 26.97700
C  -2.94700 31.14800 26.02900
C  -3.75200 30.24500 26.72400
C  -3.68400 30.54300 28.09400
C  -2.73800 31.58000 28.23300
C  -4.77400 29.29400 26.10200
C  -4.19900 30.28800 29.46400
O  -5.00900 29.49600 29.82800
C  -3.34800 31.14800 30.46500
C  -4.33200 31.91400 31.22800
O  -5.07200 32.82300 30.75900
O  -4.29400 31.62700 32.52900
C  -5.23900 32.43400 33.28800
H  1.46500 35.89600 29.43200
H  0.08700 35.82100 23.09500
H  -3.07900 30.52900 23.93400
H  -1.94000 33.49500 31.89900
H  0.98400 34.14100 31.24600
H  -0.66800 36.46600 31.29000
H  0.68600 36.03900 32.32400
H  -0.90500 35.53000 32.87700
H  0.60600 32.17500 32.19100
H  -0.50400 31.10600 31.28000
H  -1.04300 30.47500 33.50800
H  -2.04400 32.00700 33.52000
H  3.44700 37.67300 27.88600
H  2.03600 37.82300 28.80600
H  2.02100 38.80900 27.42200
H  2.94500 39.43000 23.96900
H  3.58800 38.35300 25.13400
H  2.20100 39.52600 25.56200
H  -0.65100 33.81200 21.57100
H  -3.06800 32.47600 21.97800
H  -1.94000 35.83300 21.30700
H  -3.12500 35.18100 22.47300
H  -3.03300 34.49000 20.89100
H  -1.25600 31.44100 20.87300
H  -1.80100 30.36500 22.16300
H  0.47600 31.90200 22.96300
H  0.84100 31.22700 21.42200
H  0.30800 30.13600 22.85900
H  -4.82400 29.33000 25.01300
H  -5.81600 29.48800 26.35300
H  -4.59200 28.29800 26.50600
H  -2.80000 30.44800 31.09600
H  -6.27000 32.08300 33.23500
H  -5.20200 33.49800 33.05400
H  -5.05800 32.34600 34.35900

