158

Mg 46.33000 24.89600 28.41500
C  46.85900 26.91900 31.30800
C  44.71200 22.78400 30.58900
C  46.12300 22.71700 25.91400
C  48.07100 27.20200 26.49700
N  45.79400 24.83800 30.74800
C  46.18300 25.70400 31.77100
C  45.67100 25.30500 33.14500
C  45.12800 23.88300 32.77800
C  45.22600 23.82100 31.24400
C  45.98600 22.78000 33.51000
C  44.59600 26.27600 33.69300
C  44.83600 26.77700 35.10900
H  43.69000 26.85400 36.09500
N  45.48400 23.08400 28.28500
C  44.81800 22.37000 29.28200
C  44.42100 21.10400 28.73300
C  44.90900 21.06900 27.37500
C  45.47300 22.39100 27.11100
C  43.63500 20.11200 29.54600
C  44.85600 19.86300 26.44700
O  45.20000 19.89900 25.27200
C  44.40200 18.40700 27.00600
N  46.89900 24.97300 26.46800
C  46.83400 23.89100 25.63600
C  47.69400 24.18000 24.38300
C  48.27600 25.58600 24.58300
C  47.70100 25.99800 25.94400
C  48.78800 23.14800 24.15300
C  47.99200 26.55700 23.44000
C  46.86400 27.54000 23.54700
N  47.21100 26.63800 28.78600
C  47.89700 27.49800 27.95800
C  48.27200 28.73400 28.60400
C  47.82600 28.51800 29.91400
C  47.25600 27.21000 30.00000
C  48.88500 29.97500 28.00400
C  47.84100 29.14900 31.23900
O  48.22400 30.20400 31.65900
C  47.26700 28.14300 32.22100
C  48.25500 27.65600 33.22200
O  49.45600 27.53000 32.91900
O  47.73700 27.57000 34.50300
C  48.56400 27.22700 35.71700
H  44.14400 22.14800 31.27100
H  46.09700 22.01300 25.07900
H  48.57300 27.96100 25.89300
H  46.51100 25.14000 33.82000
H  44.10700 23.72100 33.12200
H  46.69500 22.18300 32.93600
H  45.27700 22.07000 33.93500
H  46.62000 23.19000 34.29600
H  43.61700 25.79800 33.73000
H  44.49300 27.17500 33.08600
H  45.33700 27.74000 35.00900
H  45.67000 26.17300 35.46600
H  42.87400 19.65700 28.91100
H  43.22300 20.57200 30.44400
H  44.29700 19.25200 29.64500
H  44.94400 17.95400 27.83700
H  44.68700 17.73000 26.20100
H  43.33000 18.22800 27.09100
H  47.08400 24.11000 23.48300
H  49.36300 25.60300 24.66200
H  48.43800 22.57200 23.29600
H  48.93200 22.54700 25.05100
H  49.72800 23.60100 23.83900
H  48.01800 26.06700 22.46700
H  48.87900 27.18800 23.49400
H  47.37100 28.47300 23.79500
H  46.19900 27.34600 24.38900
H  46.28300 27.68000 22.63500
H  48.09400 30.46400 27.43500
H  49.64200 29.67300 27.28000
H  49.22200 30.55400 28.86400
H  46.43600 28.60900 32.75100
H  48.11500 26.39200 36.25600
H  48.90200 28.08600 36.29500
H  49.49400 26.89400 35.25600
Mg 9.77700 47.00200 25.42000
C  7.48600 46.87500 27.97200
C  12.28600 47.70200 27.55900
C  11.83200 47.70100 22.70000
C  7.07600 46.75300 23.10500
N  9.81400 47.39500 27.56400
C  8.78000 47.16600 28.45000
C  9.36200 47.35100 29.89700
C  10.80100 47.82100 29.68500
C  10.99900 47.59500 28.16300
C  11.15300 49.22200 30.20900
C  9.13500 46.17400 30.93400
C  10.07800 46.16400 32.16800
H  9.33700 45.74200 33.42300
N  11.84500 47.56100 25.16000
C  12.70600 47.75200 26.16300
C  14.06900 47.86700 25.59300
C  13.95300 47.71600 24.18600
C  12.47000 47.70600 23.95000
C  15.31100 48.02100 26.41400
C  15.01100 47.61300 23.10500
O  14.66800 47.56300 21.91700
C  16.52900 47.41500 23.40700
N  9.50000 47.23700 23.13700
C  10.51900 47.44800 22.31800
C  10.08000 47.35600 20.88500
C  8.55400 46.99000 20.99500
C  8.34300 46.91700 22.53400
C  10.44800 48.58100 19.96000
C  8.02400 45.70600 20.26900
C  6.85400 45.83200 19.28000
N  7.68600 46.78800 25.48800
C  6.69600 46.74500 24.49700
C  5.36800 46.56800 25.06800
C  5.68100 46.63700 26.39800
C  7.07700 46.72100 26.64500
C  4.08900 46.29000 24.32300
C  5.11900 46.51500 27.74500
O  3.96100 46.28700 28.07700
C  6.24500 46.62300 28.73500
C  6.26400 45.43300 29.55400
O  7.10700 44.54900 29.46600
O  5.36300 45.52900 30.57500
C  5.45000 44.50300 31.69000
H  13.14600 47.74400 28.23100
H  12.57400 47.75500 21.90100
H  6.33600 46.42000 22.37500
H  8.80900 48.20700 30.28300
H  11.47600 47.08700 30.12600
H  11.84900 49.16300 31.04700
H  10.32200 49.70300 30.72300
H  11.55200 49.85100 29.41300
H  9.36600 45.31300 30.30700
H  8.12700 46.14100 31.34700
H  10.59800 47.12000 32.22400
H  10.82000 45.37800 32.03000
H  15.14500 47.90800 27.48600
H  15.72300 49.00900 26.20700
H  15.99000 47.20500 26.16600
H  16.42000 46.52300 24.02400
H  16.94800 48.29000 23.90400
H  16.95700 47.20300 22.42700
H  10.53800 46.51400 20.36500
H  7.95500 47.84500 20.67900
H  10.97400 48.22400 19.07500
H  10.99800 49.43500 20.35400
H  9.66000 49.05900 19.37800
H  7.86200 44.93200 21.01900
H  8.85000 45.30000 19.68500
H  6.72700 44.94900 18.65500
H  6.93500 46.72000 18.65200
H  5.93500 45.89600 19.86300
H  4.13400 46.38300 23.23800
H  3.35600 47.02700 24.65100
H  3.68100 45.31800 24.60200
H  6.15700 47.48500 29.39600
H  4.62000 44.53900 32.39600
H  6.44600 44.53000 32.13100
H  5.41400 43.51400 31.23300

