158

Mg 1.37600 7.55600 25.85600
C  2.28600 9.43700 28.59300
C  1.96500 4.66200 27.78200
C  0.64700 5.66300 23.16800
C  1.42200 10.43200 23.88200
N  2.22100 7.09700 27.89600
C  2.33500 8.06200 28.84600
C  2.53000 7.40100 30.21500
C  2.76200 5.91500 29.87100
C  2.28200 5.87800 28.43300
C  4.20100 5.35400 30.02800
C  1.26300 7.56600 31.18200
C  1.41900 8.15600 32.57100
H  2.35500 7.30900 33.55000
N  1.44100 5.47100 25.49900
C  1.57500 4.47500 26.40700
C  1.19900 3.16400 25.82900
C  0.85500 3.43700 24.47800
C  0.98700 4.91700 24.32900
C  1.35400 1.93500 26.52100
C  0.14000 2.50300 23.52300
O  -0.19700 2.88900 22.39300
C  -0.15000 1.06100 23.77200
N  1.30100 7.96700 23.78000
C  0.79000 7.03600 22.91800
C  0.49500 7.69800 21.50200
C  0.43700 9.17100 21.88900
C  1.05400 9.22300 23.30000
C  1.47200 7.21900 20.36500
C  -0.90900 9.94000 21.76700
C  -1.05300 11.10600 20.69400
N  1.85100 9.53700 26.09500
C  1.84100 10.66400 25.22700
C  2.22500 11.87100 25.92400
C  2.45100 11.46300 27.22500
C  2.14200 10.06700 27.29700
C  2.20300 13.26600 25.38800
C  2.75700 11.85400 28.56400
O  3.11000 12.92400 28.95900
C  2.40100 10.62200 29.55400
C  3.57000 10.53100 30.46800
O  4.68600 10.22400 30.16800
O  3.21900 11.00000 31.72900
C  4.26000 11.35400 32.74500
H  2.04000 3.76500 28.40100
H  0.15400 5.12100 22.35800
H  1.41300 11.39900 23.37600
H  3.42000 7.85600 30.65000
H  2.14100 5.36500 30.57900
H  4.58000 5.28800 29.00800
H  4.36200 4.38900 30.50800
H  4.71100 6.13800 30.58800
H  0.79800 6.58900 31.31400
H  0.50800 8.17000 30.67900
H  0.39500 8.22700 32.94000
H  1.90700 9.13000 32.54200
H  1.95000 2.03600 27.42800
H  1.86100 1.24300 25.84900
H  0.32700 1.63500 26.73200
H  -0.82900 0.60300 23.05400
H  -0.75600 1.21400 24.66500
H  0.72300 0.43900 23.97300
H  -0.51600 7.43400 21.19300
H  1.18100 9.57300 21.20200
H  1.90500 8.07800 19.85100
H  0.91600 6.63300 19.63300
H  2.20500 6.58400 20.86300
H  -1.01000 10.33900 22.77600
H  -1.83600 9.37100 21.69700
H  -1.81700 11.02000 19.92100
H  -0.12500 11.18000 20.12800
H  -1.19700 12.07400 21.17400
H  3.21900 13.62900 25.23400
H  1.63400 13.96900 25.99700
H  1.65300 13.15900 24.45400
H  1.48800 10.79400 30.12300
H  4.16600 10.65800 33.57800
H  3.90800 12.31400 33.12300
H  5.29900 11.40400 32.41900
Mg 53.93000 22.43200 44.52200
C  51.51900 24.83500 43.49400
C  51.76600 19.98400 43.48400
C  56.46400 20.24000 44.76400
C  56.06300 24.97500 45.28400
N  51.91100 22.50300 43.56700
C  51.09300 23.56900 43.13200
C  49.88800 23.03600 42.38000
C  49.89200 21.55100 42.63700
C  51.23600 21.33600 43.39200
C  48.67200 21.00800 43.47600
C  49.89300 23.36100 40.87400
C  48.50000 23.45400 40.17000
H  48.15800 22.73400 38.81000
N  54.09900 20.37400 44.12600
C  53.08500 19.52200 43.75200
C  53.56800 18.16300 43.65500
C  54.92700 18.18200 44.16200
C  55.21000 19.66500 44.39000
C  52.77000 16.97200 43.20600
C  55.86900 16.90400 44.29900
O  55.50600 15.77600 44.01100
C  57.32600 17.09600 44.67200
N  56.01900 22.58900 44.69400
C  56.84900 21.55100 44.90700
C  58.27200 21.94700 45.20100
C  58.06000 23.38100 45.59800
C  56.60200 23.71500 45.13800
C  58.95800 21.13400 46.34000
C  59.13500 24.51800 45.09500
C  60.10600 25.01700 46.22900
N  53.79200 24.51200 44.51200
C  54.76300 25.42300 44.92300
C  54.11300 26.74400 45.00400
C  52.88300 26.54500 44.37600
C  52.73800 25.17300 44.14800
C  54.77300 28.00300 45.56600
C  51.65100 27.22700 43.97700
O  51.26500 28.36500 44.13500
C  50.70400 26.10400 43.37400
C  50.48800 26.51600 41.90400
O  51.44100 26.55900 41.11300
O  49.22200 26.90100 41.65800
C  48.93900 27.37600 40.30000
H  51.05300 19.15800 43.45200
H  57.21900 19.55800 45.15900
H  56.69600 25.72700 45.76200
H  49.02900 23.43600 42.91800
H  49.83900 21.06600 41.66200
H  48.93900 20.50400 44.40500
H  48.13800 20.31900 42.82100
H  47.93300 21.77800 43.69800
H  50.40100 22.60600 40.27300
H  50.43500 24.29400 40.71800
H  48.20900 24.48200 39.95100
H  47.75900 23.10100 40.88600
H  53.37900 16.51400 42.42600
H  51.78200 17.16800 42.78900
H  52.63100 16.40900 44.12900
H  57.67100 17.74600 43.86800
H  57.80500 16.11700 44.68200
H  57.48800 17.52300 45.66200
H  58.88900 21.90000 44.30400
H  57.92400 23.50500 46.67300
H  59.62400 20.35700 45.96500
H  58.09700 20.67000 46.82100
H  59.49900 21.72500 47.07900
H  58.65100 25.25700 44.45500
H  59.73800 23.98800 44.35800
H  61.05700 24.63400 45.85700
H  59.90600 24.46200 47.14500
H  59.97600 26.08900 46.37500
H  55.85500 27.98300 45.44200
H  54.48400 28.19900 46.59900
H  54.41500 28.79300 44.90600
H  49.73600 26.08900 43.87500
H  48.79500 28.45600 40.33400
H  47.99400 26.96400 39.94600
H  49.68000 27.21200 39.51800

