158

Mg -12.30200 15.86400 42.07300
C  -9.17500 14.27000 41.65600
C  -11.21700 18.47200 40.07900
C  -15.34800 17.08800 42.10600
C  -13.35300 12.91200 43.76200
N  -10.37500 16.32200 41.00300
C  -9.23100 15.58200 40.98300
C  -8.10400 16.29700 40.26400
C  -8.86800 17.54400 39.62400
C  -10.25300 17.46500 40.28600
C  -8.09000 18.90900 39.95900
C  -7.28500 15.46000 39.20600
C  -5.79300 15.55800 39.34600
H  -4.95600 14.80200 38.38000
N  -13.14600 17.62700 41.34000
C  -12.51000 18.57400 40.57000
C  -13.41100 19.68600 40.33400
C  -14.70500 19.27200 40.81700
C  -14.45400 17.94800 41.45800
C  -12.91100 20.99000 39.66900
C  -15.94400 20.06500 40.68100
O  -15.91000 21.11400 40.02300
C  -17.18500 19.66500 41.16000
N  -14.19400 14.96800 42.66400
C  -15.25600 15.80500 42.70700
C  -16.42800 14.99900 43.27900
C  -15.74800 13.82400 44.01800
C  -14.34500 13.89200 43.47300
C  -17.39600 15.88400 44.08300
C  -16.55700 12.51500 43.74100
C  -17.11400 11.89800 45.07400
N  -11.51200 13.93200 42.60400
C  -12.07000 12.85600 43.24800
C  -11.03100 11.83500 43.49300
C  -9.90800 12.35900 42.97200
C  -10.23300 13.60000 42.31400
C  -11.30100 10.59700 44.30800
C  -8.50300 12.07900 42.64400
O  -7.75700 11.10200 42.94200
C  -7.98900 13.30100 41.75600
C  -6.93000 13.94400 42.48100
O  -7.13800 14.88200 43.26300
O  -5.73900 13.38200 42.10900
C  -4.53900 14.06100 42.62500
H  -10.92600 19.22600 39.34500
H  -16.38200 17.41700 42.22200
H  -13.66400 12.06500 44.37700
H  -7.51500 16.73100 41.07200
H  -9.00400 17.58800 38.54400
H  -8.51500 19.40900 40.82900
H  -8.13200 19.48500 39.03400
H  -7.03600 18.66700 40.09400
H  -7.62200 15.81400 38.23200
H  -7.66800 14.44000 39.15700
H  -5.53300 15.15100 40.32300
H  -5.48700 16.59000 39.51600
H  -11.84500 21.13600 39.84000
H  -13.37500 21.84400 40.16300
H  -13.19700 20.98400 38.61700
H  -17.50400 18.74100 40.67800
H  -17.84500 20.50300 40.93500
H  -17.11300 19.53200 42.23900
H  -16.99000 14.62400 42.42400
H  -15.71900 14.05700 45.08300
H  -17.59600 15.41200 45.04500
H  -18.28900 16.08400 43.49100
H  -17.05100 16.89000 44.32300
H  -15.81900 11.82400 43.33300
H  -17.36100 12.70700 43.03100
H  -18.16700 11.73700 44.84100
H  -17.01000 12.50000 45.97600
H  -16.67800 10.91800 45.26700
H  -11.80800 10.85900 45.23700
H  -10.34100 10.16600 44.59300
H  -11.94100 9.93000 43.73000
H  -7.50200 12.98900 40.83200
H  -3.74600 13.93200 41.88700
H  -4.22500 13.55900 43.54000
H  -4.49100 15.13600 42.79200
Mg -6.31300 24.61200 26.53700
C  -4.68500 25.90200 29.41000
C  -7.97000 22.42500 28.48900
C  -7.37400 22.97600 23.73600
C  -3.75300 26.20200 24.53900
N  -6.21800 24.12000 28.68300
C  -5.71500 24.93800 29.69400
C  -6.35700 24.70600 31.08500
C  -7.07100 23.38200 30.80300
C  -7.01800 23.21700 29.20100
C  -6.58900 22.10400 31.57900
C  -7.32400 25.96100 31.43000
C  -7.76800 25.98800 32.89900
H  -7.38900 24.78400 33.84800
N  -7.78500 23.10200 26.13900
C  -8.31500 22.32100 27.10800
C  -9.27900 21.45000 26.51100
C  -9.14200 21.67900 25.11800
C  -8.09400 22.63700 24.90700
C  -10.24100 20.54900 27.24500
C  -9.99700 21.11700 23.97200
O  -9.85000 21.36500 22.78000
C  -10.97700 20.08300 24.19500
N  -5.57400 24.44700 24.51900
C  -6.27500 23.79900 23.56300
C  -5.74600 24.07200 22.09800
C  -4.63500 25.14800 22.37600
C  -4.63900 25.26600 23.91400
C  -5.29600 22.80500 21.28600
C  -4.80100 26.53700 21.60700
C  -3.50900 27.26800 21.13100
N  -4.51100 25.74000 26.88300
C  -3.65600 26.42900 25.94800
C  -2.80600 27.30300 26.78900
C  -3.14900 27.04800 28.06700
C  -4.15300 26.15600 28.15300
C  -1.76300 28.30400 26.42300
C  -2.97300 27.57200 29.44700
O  -2.11600 28.36900 29.90800
C  -3.89000 26.80600 30.40400
C  -3.01100 26.07800 31.37800
O  -2.57700 24.97700 31.17900
O  -2.57400 27.00800 32.36600
C  -1.66200 26.42900 33.37200
H  -8.51900 21.74300 29.14100
H  -7.64000 22.48800 22.79600
H  -3.02500 26.69400 23.89000
H  -5.60300 24.64600 31.87000
H  -8.12100 23.46200 31.08200
H  -6.27100 21.34300 30.86700
H  -7.41800 21.78200 32.20900
H  -5.67600 22.29900 32.14100
H  -8.17900 25.83800 30.76500
H  -6.79200 26.89100 31.22900
H  -8.85800 25.96800 32.92400
H  -7.46100 26.92800 33.35700
H  -9.78300 19.57300 27.40800
H  -11.26200 20.61700 26.87200
H  -10.32500 21.00900 28.23000
H  -10.54900 19.36700 24.89700
H  -11.24300 19.50400 23.31000
H  -11.89300 20.39300 24.69700
H  -6.63300 24.41900 21.56700
H  -3.67000 24.70300 22.13400
H  -5.57300 21.91000 21.84300
H  -4.23100 22.82700 21.05200
H  -5.85600 22.60400 20.37300
H  -5.31400 27.21400 22.29000
H  -5.51900 26.40200 20.79800
H  -3.52200 27.37600 20.04600
H  -2.55600 26.75100 21.24900
H  -3.39500 28.27800 21.52300
H  -1.80400 28.60800 25.37700
H  -0.80400 27.88300 26.72600
H  -1.97000 29.21900 26.97900
H  -4.55900 27.43300 30.99300
H  -1.74700 25.36000 33.57100
H  -1.90300 26.84500 34.35000
H  -0.59800 26.55600 33.17300

