158

Mg 1.54800 -0.88400 44.44100
C  4.72200 0.46400 43.75400
C  0.11900 1.85200 43.09200
C  -1.36600 -2.67900 44.24600
C  3.16700 -3.90000 45.31800
N  2.37000 0.89800 43.37600
C  3.69500 1.27300 43.27500
C  3.89700 2.58500 42.50800
C  2.39900 3.18200 42.71200
C  1.54700 1.91900 43.10000
C  2.25800 4.26300 43.76600
C  4.28300 2.38600 40.96500
C  5.22200 3.52600 40.48600
H  4.81100 4.33800 39.19800
N  -0.31800 -0.46100 43.81900
C  -0.71400 0.75400 43.28200
C  -2.10900 0.77600 43.01700
C  -2.58700 -0.50300 43.36500
C  -1.40700 -1.30200 43.87000
C  -2.84000 1.97900 42.42700
C  -4.07700 -0.84600 43.41400
O  -4.93700 0.01000 43.23100
C  -4.53000 -2.20700 43.72300
N  0.96600 -3.09000 44.84900
C  -0.27100 -3.43800 44.78700
C  -0.46300 -4.83200 45.28500
C  0.96200 -5.23300 45.70100
C  1.79000 -4.04500 45.24600
C  -1.52300 -4.92200 46.46400
C  1.46700 -6.61800 45.00000
C  2.38800 -7.46800 45.85600
N  3.51000 -1.55900 44.70200
C  3.99200 -2.82700 44.96200
C  5.48000 -2.82000 44.94500
C  5.78800 -1.49200 44.55900
C  4.54800 -0.79100 44.35300
C  6.38100 -4.01800 45.43800
C  6.86100 -0.59900 44.24600
O  8.05300 -0.79600 44.34100
C  6.20800 0.74100 43.60300
C  6.70400 1.93600 44.29200
O  6.26500 2.44500 45.32000
O  7.72000 2.50500 43.62000
C  8.16700 3.83200 44.08500
H  -0.51300 2.63200 42.66100
H  -2.31400 -3.22100 44.25800
H  3.67000 -4.77900 45.72700
H  4.56600 3.28700 43.00600
H  1.97400 3.54700 41.77700
H  3.05300 5.00300 43.67200
H  2.08400 3.80000 44.73800
H  1.29300 4.73300 43.57700
H  3.42300 2.57200 40.32200
H  4.74300 1.40800 40.82500
H  6.23000 3.11700 40.41800
H  5.45000 4.16700 41.33800
H  -2.76800 1.99500 41.34000
H  -2.50300 2.92600 42.84700
H  -3.86900 2.08600 42.77200
H  -5.59200 -2.21100 43.47800
H  -4.29300 -2.52800 44.73700
H  -3.95100 -2.74800 42.97400
H  -0.72100 -5.31300 44.34200
H  1.00900 -5.44400 46.76900
H  -2.25500 -5.61500 46.05200
H  -1.92200 -3.92600 46.65600
H  -1.02700 -5.24300 47.38000
H  2.01000 -6.27500 44.11900
H  0.60500 -7.22000 44.71500
H  3.44100 -7.47100 45.57700
H  2.15000 -8.53200 45.84600
H  2.35700 -7.27300 46.92800
H  6.89200 -4.50800 44.61000
H  5.78100 -4.70500 46.03600
H  7.14100 -3.65100 46.12800
H  6.57000 0.90800 42.58900
H  9.15700 4.07500 43.69900
H  8.39100 3.65500 45.13700
H  7.42700 4.58200 43.80600
Mg 17.22800 -0.01600 28.24400
C  16.00600 1.73200 30.97700
C  18.99000 -2.02400 30.34600
C  18.27200 -1.76100 25.55500
C  14.94700 1.92500 26.13300
N  17.50200 -0.00200 30.40400
C  16.86400 0.70900 31.33700
C  17.11700 0.17200 32.78500
C  18.22700 -0.85900 32.52800
C  18.24400 -1.01300 30.99700
C  19.56100 -0.45400 33.27300
C  15.83300 -0.38100 33.54300
C  15.29500 0.37800 34.76900
H  16.36000 0.88100 35.73500
N  18.60500 -1.60000 28.00600
C  19.16400 -2.33500 28.99000
C  19.97000 -3.42300 28.38500
C  19.75800 -3.30600 26.99200
C  18.84300 -2.19300 26.76600
C  20.71700 -4.41100 29.23200
C  20.28000 -4.22900 25.82800
O  20.01200 -4.03700 24.63900
C  21.13700 -5.37000 26.09900
N  16.64400 0.12900 26.09800
C  17.28000 -0.78100 25.21600
C  16.84500 -0.42300 23.79600
C  15.55300 0.56600 24.01100
C  15.70600 0.91600 25.48000
C  18.08900 0.25400 23.02200
C  14.21300 -0.08400 23.56300
C  13.49500 0.66800 22.32100
N  15.88800 1.61100 28.46300
C  15.02200 2.30700 27.51700
C  14.33700 3.32300 28.25000
C  14.68900 3.11000 29.61900
C  15.67800 2.11100 29.62900
C  13.43500 4.31600 27.63100
C  14.34700 3.51400 30.97000
O  13.48200 4.25300 31.35500
C  15.25600 2.66700 31.90100
C  16.16500 3.62200 32.59300
O  17.17200 4.14900 32.10300
O  15.76900 3.81000 33.90900
C  16.43600 4.96700 34.62100
H  19.62900 -2.70500 30.91200
H  18.50700 -2.29900 24.63500
H  14.30600 2.58000 25.53900
H  17.49800 1.05100 33.30400
H  17.94700 -1.85400 32.87300
H  19.46600 0.15200 34.17400
H  20.21600 0.04300 32.55700
H  20.07400 -1.33800 33.65300
H  15.95100 -1.39900 33.91500
H  15.00200 -0.32700 32.84000
H  14.71100 -0.33100 35.35500
H  14.70200 1.26500 34.54700
H  20.45700 -4.33400 30.28800
H  21.79800 -4.38400 29.09100
H  20.31100 -5.35200 28.86100
H  20.53700 -6.10200 26.64000
H  21.97100 -5.04000 26.71800
H  21.41700 -5.78800 25.13200
H  16.59700 -1.27900 23.16800
H  15.70300 1.44900 23.39000
H  18.18600 -0.23800 22.05400
H  19.00000 0.03300 23.57800
H  17.90200 1.30500 22.80000
H  13.45200 -0.02000 24.34000
H  14.21400 -1.12800 23.25100
H  12.61200 1.18900 22.68900
H  13.12600 -0.10100 21.64200
H  14.27400 1.23400 21.81000
H  12.54700 3.78600 27.28900
H  13.94200 4.78900 26.79000
H  13.10400 4.98100 28.42900
H  14.66000 2.19800 32.68400
H  16.64700 5.81600 33.97100
H  17.21100 4.41900 35.15600
H  15.71400 5.29200 35.37000

