158

Mg -1.98700 17.73000 27.37400
C  -2.84200 15.50200 30.10100
C  -2.61300 20.23200 29.43800
C  -1.67000 19.50500 24.77900
C  -1.93700 14.74700 25.31700
N  -2.92700 17.84300 29.45000
C  -2.97200 16.86100 30.44200
C  -2.99300 17.46100 31.84400
C  -3.15200 18.97800 31.58700
C  -2.83100 19.04200 30.03800
C  -4.62800 19.45600 31.90200
C  -1.71100 16.94600 32.62900
C  -1.25000 17.82500 33.78200
H  -0.92200 17.04500 35.10800
N  -2.08900 19.66300 27.14400
C  -2.36100 20.57200 28.08500
C  -2.26100 21.91500 27.55700
C  -2.05200 21.71500 26.18100
C  -1.89800 20.27700 26.05400
C  -2.37500 23.15400 28.33700
C  -1.90200 22.76800 25.07300
O  -1.65800 22.46300 23.88300
C  -2.28500 24.12100 25.35600
N  -1.76900 17.22200 25.38000
C  -1.72300 18.15300 24.48600
C  -1.67800 17.60600 23.07000
C  -1.45000 16.11400 23.24700
C  -1.65900 16.01800 24.75800
C  -2.89300 17.85700 22.14200
C  -0.02600 15.56800 22.63800
C  1.27000 16.31800 22.89900
N  -2.23700 15.64400 27.54800
C  -2.19700 14.58700 26.64900
C  -2.44800 13.31900 27.29200
C  -2.69300 13.66600 28.62300
C  -2.56500 15.06000 28.76800
C  -2.51600 11.92400 26.64200
C  -3.08400 13.12700 29.93100
O  -3.28400 12.00200 30.26900
C  -2.98200 14.26200 30.96700
C  -1.80600 13.98100 31.77300
O  -0.61800 14.28200 31.43200
O  -2.19900 13.37600 32.93000
C  -1.12300 12.99900 33.79200
H  -2.57000 21.05200 30.15800
H  -1.59100 20.13900 23.89300
H  -1.79800 13.87200 24.67900
H  -3.78700 17.16000 32.52700
H  -2.44500 19.60200 32.13300
H  -5.31400 19.46900 31.05500
H  -4.62100 20.45100 32.34600
H  -5.05800 18.85500 32.70300
H  -0.94400 16.81400 31.86600
H  -1.95000 16.01200 33.13700
H  -1.95400 18.60800 34.06600
H  -0.35400 18.31700 33.40100
H  -1.61000 23.84600 27.98500
H  -2.40800 23.08200 29.42400
H  -3.29200 23.68800 28.08800
H  -2.30600 24.78100 24.48900
H  -1.51300 24.42500 26.06200
H  -3.29500 24.05400 25.76000
H  -0.82900 18.05900 22.55900
H  -2.22000 15.43400 22.88200
H  -3.46300 16.98700 21.81300
H  -2.47000 18.39000 21.29100
H  -3.60600 18.58200 22.53300
H  -0.19600 15.41900 21.57200
H  0.04400 14.60700 23.14800
H  1.62200 16.56300 21.89700
H  1.89200 15.62300 23.46300
H  1.00800 17.20400 23.47900
H  -1.50600 11.51700 26.61100
H  -3.00700 12.02600 25.67400
H  -3.10700 11.37400 27.37400
H  -3.89900 14.43100 31.53200
H  -1.44100 12.12100 34.35400
H  -0.77800 13.75400 34.49800
H  -0.27400 12.74700 33.15600
Mg 25.38700 1.28400 29.86500
C  27.26200 1.40500 32.79200
C  22.56000 1.87200 31.91200
C  23.50900 1.17000 27.09700
C  28.19100 0.52200 27.86500
N  24.96000 1.46700 32.19600
C  25.92700 1.61900 33.13100
C  25.40500 1.88900 34.51000
C  23.78900 1.84600 34.20900
C  23.71100 1.75900 32.63900
C  22.93800 0.70500 34.73000
C  25.90500 3.20100 35.21900
C  26.84900 3.09000 36.45000
H  26.65800 4.06100 37.56900
N  23.34700 1.48600 29.55600
C  22.39000 1.67700 30.54500
C  21.13300 1.60400 29.89800
C  21.35000 1.45300 28.48000
C  22.78300 1.37400 28.27900
C  19.80200 1.53200 30.65800
C  20.36300 1.25800 27.40600
O  20.64800 0.99400 26.24300
C  18.92900 1.37500 27.70500
N  25.80300 0.66300 27.67700
C  24.80500 0.81800 26.76800
C  25.32500 0.83600 25.33500
C  26.90500 0.65200 25.58300
C  27.01900 0.50200 27.12200
C  24.73800 -0.22000 24.38200
C  27.82400 1.66000 24.86700
C  28.71500 1.11300 23.75000
N  27.32000 0.96600 30.23000
C  28.40800 0.68800 29.28800
C  29.68100 0.67000 30.03500
C  29.25900 0.94200 31.37500
C  27.81300 1.06300 31.50100
C  31.09000 0.45100 29.55500
C  29.76500 1.05800 32.69200
O  30.88600 0.91800 33.08000
C  28.49900 1.37500 33.65600
C  28.40300 0.33600 34.61300
O  27.68800 -0.67600 34.62400
O  29.08300 0.64200 35.76100
C  28.77800 -0.23000 37.01100
H  21.66900 2.05300 32.51800
H  22.92800 1.05900 26.17900
H  28.98800 0.60900 27.12400
H  25.66200 0.99200 35.07200
H  23.29300 2.74000 34.58800
H  22.23700 0.29400 34.00300
H  22.45000 1.12500 35.61000
H  23.57200 -0.14100 34.99400
H  25.03500 3.79000 35.50900
H  26.48400 3.74600 34.47300
H  27.88100 3.21500 36.12400
H  26.84100 2.07700 36.85400
H  19.43000 0.52700 30.46200
H  19.09900 2.31100 30.36200
H  19.90900 1.55800 31.74200
H  18.65200 0.48700 28.27300
H  18.38000 1.45400 26.76600
H  18.64600 2.22100 28.33100
H  25.04100 1.81500 24.94700
H  27.28100 -0.28000 25.16100
H  25.48100 -0.88600 23.94400
H  24.05700 0.02800 23.56800
H  24.02600 -0.70900 25.04700
H  28.42900 2.10900 25.65500
H  27.28800 2.51100 24.44600
H  29.76300 1.16000 24.04600
H  28.62900 1.79300 22.90200
H  28.48000 0.11700 23.37400
H  31.26000 0.90800 28.58000
H  31.36100 -0.60400 29.54100
H  31.65300 1.00500 30.30600
H  28.74100 2.36100 34.05300
H  28.91400 -1.29100 36.80200
H  27.74600 -0.01500 37.28800
H  29.43600 0.06100 37.83000

