158

Mg 35.89300 1.72000 29.83200
C  33.51800 2.72700 32.09600
C  38.14100 1.65000 32.54300
C  38.49600 1.40000 27.65700
C  33.75400 2.35800 27.25200
N  35.82300 2.20900 32.01500
C  34.73200 2.60300 32.71400
C  35.06200 2.78500 34.19700
C  36.62800 2.79700 34.19400
C  36.87700 2.14200 32.81800
C  37.16100 4.26600 34.33700
C  34.57700 1.64900 35.13400
C  34.08600 2.04200 36.56600
H  34.67200 3.25300 37.19300
N  38.01800 1.40600 30.11300
C  38.70800 1.35700 31.27200
C  40.13700 0.98200 30.99200
C  40.24400 0.90100 29.55800
C  38.82900 1.20400 29.04400
C  41.28400 0.85600 31.93200
C  41.40000 0.48300 28.71800
O  41.38100 0.48700 27.47900
C  42.71100 0.05600 29.35000
N  36.11300 1.81800 27.79200
C  37.27300 1.71000 27.11000
C  37.07400 1.89300 25.62000
C  35.52300 2.14900 25.42500
C  35.06300 2.07900 26.93300
C  38.02500 2.98700 24.97700
C  34.73600 1.09900 24.50400
C  33.98600 1.66600 23.25900
N  33.97100 2.26500 29.67700
C  33.14700 2.41300 28.53200
C  31.82000 2.87400 28.96500
C  31.88200 2.95000 30.34400
C  33.22400 2.55700 30.71900
C  30.72800 3.45100 28.17100
C  31.16100 3.33600 31.57900
O  29.99300 3.73400 31.70100
C  32.20800 3.20300 32.73500
C  32.23700 4.56100 33.36500
O  32.70300 5.54300 32.89500
O  31.51000 4.49500 34.52300
C  31.38600 5.63400 35.32600
H  38.76500 1.44100 33.41500
H  39.30100 1.50200 26.92600
H  33.02000 2.52300 26.46100
H  34.64200 3.69600 34.62400
H  37.12500 2.18100 34.94400
H  37.83900 4.44700 33.50300
H  37.65300 4.25700 35.31000
H  36.36000 5.00500 34.30100
H  35.38400 0.93900 35.31800
H  33.80000 1.13700 34.56700
H  34.35900 1.18900 37.18700
H  33.00600 2.11900 36.69000
H  41.67000 -0.15700 32.03900
H  40.86400 1.26400 32.85100
H  42.08600 1.56900 31.74200
H  42.60300 -0.64300 30.18000
H  43.16800 0.98600 29.68800
H  43.41900 -0.26100 28.58400
H  37.29700 0.91900 25.18400
H  35.36900 3.17700 25.09600
H  37.54800 3.56400 24.18500
H  38.85900 2.46500 24.50700
H  38.43000 3.60400 25.77900
H  33.92400 0.63900 25.06700
H  35.38800 0.29500 24.16100
H  32.89900 1.65900 23.34400
H  34.19600 1.16400 22.31400
H  34.21300 2.69100 22.96800
H  30.92800 3.29000 27.11200
H  30.47100 4.50300 28.28700
H  29.86000 2.83700 28.41100
H  31.87000 2.42300 33.41800
H  30.36600 5.83100 35.65400
H  31.88300 6.54300 34.98700
H  31.86500 5.34200 36.26000
Mg 42.08800 41.08400 27.05100
C  41.19700 43.69200 29.40000
C  42.79600 39.06400 29.64400
C  42.92500 38.80200 24.85800
C  41.82600 43.46300 24.47200
N  41.89800 41.31500 29.21700
C  41.50100 42.38800 29.94000
C  41.54700 42.11700 31.48200
C  42.23200 40.68800 31.49500
C  42.32500 40.33400 30.03800
C  43.65300 40.61500 32.24500
C  40.21100 42.25100 32.20700
C  39.86600 41.36500 33.43200
H  39.41900 42.18900 34.70800
N  42.67900 39.22500 27.22100
C  42.96800 38.55800 28.37000
C  43.49100 37.23200 27.98200
C  43.58200 37.13400 26.59300
C  43.03200 38.42300 26.15800
C  43.79800 36.18300 28.97000
C  44.00300 36.00900 25.75400
O  43.97700 36.03100 24.52900
C  44.60400 34.80300 26.34900
N  42.32700 41.17500 24.98000
C  42.53500 40.02900 24.33100
C  42.67800 40.33500 22.80400
C  42.15300 41.76100 22.66800
C  42.07000 42.14400 24.12600
C  44.06800 39.97200 22.25800
C  40.82300 41.81900 21.89700
C  39.73300 40.71500 22.17400
N  41.72100 43.20400 26.88500
C  41.58100 43.98900 25.75700
C  41.12200 45.27700 26.18800
C  40.99400 45.26000 27.62000
C  41.28700 43.92800 28.02400
C  40.79200 46.45200 25.30300
C  40.53700 45.93900 28.86600
O  39.96600 46.99700 29.04100
C  40.78500 44.90800 30.13400
C  41.95700 45.38400 30.90800
O  43.12100 45.25400 30.61900
O  41.50800 45.87700 32.09400
C  42.46100 46.03400 33.14400
H  43.12600 38.38500 30.43400
H  42.96700 37.97200 24.14900
H  41.61800 44.11200 23.61900
H  42.21300 42.83200 31.96500
H  41.56700 39.92700 31.90200
H  43.54900 40.10200 33.20100
H  43.83700 41.66700 32.46600
H  44.42300 40.23700 31.57400
H  39.51000 41.81800 31.49400
H  39.93500 43.25800 32.51800
H  40.67100 40.67900 33.69500
H  39.14200 40.63200 33.07700
H  43.21600 36.31900 29.88200
H  44.87500 36.09700 29.10900
H  43.45100 35.19000 28.68400
H  45.27600 34.35200 25.61800
H  43.81000 34.13100 26.67200
H  45.30700 35.13500 27.11300
H  41.94300 39.58800 22.50500
H  42.83900 42.35700 22.06600
H  44.21000 38.96200 21.87300
H  44.83700 40.16400 23.00500
H  44.43900 40.71900 21.55600
H  41.09100 41.78000 20.84100
H  40.35100 42.79300 22.03300
H  39.53900 40.10600 21.29100
H  38.76100 41.12100 22.45400
H  40.03000 40.09100 23.01700
H  40.60900 46.05900 24.30300
H  41.57500 47.21000 25.30700
H  39.80900 46.83800 25.57300
H  39.96600 44.69700 30.82100
H  42.93300 47.01700 33.11500
H  43.14500 45.18800 33.20100
H  41.88000 45.74200 34.01900

