158

Mg 5.94100 55.92800 41.64000
C  5.91300 52.33200 41.61500
C  9.08500 55.82100 40.40600
C  5.90300 59.24700 41.70400
C  2.78200 55.85700 43.09000
N  7.21000 54.25400 40.92700
C  7.03200 52.86800 40.84600
C  8.13900 52.10600 40.12000
C  9.24000 53.19800 40.14400
C  8.49000 54.52800 40.52200
C  10.40300 52.88000 41.11600
C  7.55000 51.68500 38.70500
C  8.03000 50.39700 38.00100
H  7.15700 49.90600 36.87600
N  7.27300 57.35400 40.99700
C  8.55800 57.07100 40.64400
C  9.29000 58.36200 40.54800
C  8.31800 59.40300 40.61300
C  7.07100 58.67000 41.19400
C  10.77300 58.52800 40.35000
C  8.45800 60.91700 40.32800
O  9.56100 61.33300 39.95200
C  7.32300 61.93400 40.37800
N  4.40900 57.36600 41.94900
C  4.69000 58.66600 42.03300
C  3.39000 59.47300 42.33600
C  2.45800 58.31000 42.91200
C  3.26400 57.07800 42.66100
C  3.64600 60.65300 43.28700
C  1.02300 58.21900 42.21900
C  -0.15100 58.13700 43.18200
N  4.45100 54.44700 42.08100
C  3.31000 54.56500 42.84400
C  2.88400 53.28900 43.24400
C  3.83100 52.35500 42.76200
C  4.82700 53.09300 42.07600
C  1.66500 52.96900 44.08900
C  4.24600 50.92100 42.72300
O  3.68800 49.96400 43.27200
C  5.61400 50.90700 42.00900
C  5.46700 49.87500 40.97000
O  4.64700 49.91100 40.06700
O  6.35400 48.86600 41.20100
C  6.18900 47.77900 40.22800
H  10.14700 55.81500 40.14900
H  6.04500 60.32700 41.78300
H  1.80800 55.89500 43.58200
H  8.47300 51.30600 40.78100
H  9.69700 53.26700 39.15800
H  10.43800 51.80300 41.27800
H  10.23800 53.50100 41.99600
H  11.35300 53.20700 40.69100
H  7.77000 52.55300 38.08300
H  6.46600 51.60100 38.62900
H  8.22000 49.65200 38.77300
H  8.97800 50.63300 37.51800
H  11.15300 59.30300 41.01500
H  10.94400 59.02600 39.39500
H  11.42100 57.68200 40.57800
H  7.25600 62.26600 41.41400
H  6.35500 61.48400 40.15700
H  7.50200 62.76500 39.69500
H  2.98900 59.91900 41.42600
H  2.48200 58.49900 43.98500
H  2.74700 60.80500 43.88400
H  3.83600 61.51800 42.65100
H  4.53300 60.58400 43.91500
H  1.07300 57.36100 41.54800
H  0.79800 59.10000 41.61800
H  -0.83100 58.98400 43.08700
H  0.15700 58.09100 44.22700
H  -0.65800 57.20200 42.94500
H  0.88700 52.60400 43.41900
H  1.10800 53.75900 44.59400
H  1.89000 52.11400 44.72700
H  6.28400 50.46100 42.74400
H  6.94400 47.98600 39.47000
H  5.25400 47.74600 39.67000
H  6.40700 46.76300 40.55600
Mg 8.98500 47.75700 24.56500
C  6.91900 47.96900 27.33900
C  11.61500 48.68300 26.42300
C  10.89000 47.35200 21.69700
C  6.09100 47.50300 22.59300
N  9.23300 48.24000 26.68800
C  8.25900 48.24200 27.68300
C  8.93700 48.56700 29.00400
C  10.28200 49.29700 28.53700
C  10.41100 48.74700 27.09500
C  10.13900 50.91300 28.65700
C  9.25700 47.32100 29.97900
C  9.30800 47.66700 31.51700
H  8.59900 46.85900 32.54100
N  10.89500 47.98500 24.15500
C  11.88700 48.31600 25.07100
C  13.20300 48.13100 24.51800
C  12.97600 47.82300 23.14000
C  11.53400 47.74400 22.91600
C  14.47500 48.48400 25.30500
C  13.97400 47.69900 22.03700
O  13.65900 47.48900 20.84600
C  15.41700 47.73100 22.33800
N  8.53700 47.60300 22.37700
C  9.54200 47.24200 21.52100
C  8.89800 46.41300 20.41500
C  7.37000 46.73300 20.47000
C  7.29000 47.34500 21.86800
C  9.45900 46.76200 18.99500
C  6.44700 45.54000 20.34600
C  5.23400 45.61500 19.40400
N  6.94500 47.82900 24.84600
C  5.92900 47.68900 23.97400
C  4.73700 47.57800 24.70000
C  5.05600 47.68000 26.07300
C  6.44100 47.77700 26.06500
C  3.38900 47.36100 24.19600
C  4.50200 47.79000 27.47400
O  3.38100 47.67800 27.85900
C  5.73500 47.92800 28.33000
C  5.67700 46.78900 29.19400
O  6.09900 45.69800 29.02200
O  4.97800 47.07900 30.32200
C  4.63400 45.92800 31.18400
H  12.43100 48.91400 27.11100
H  11.44100 46.70200 21.01400
H  5.19500 47.22400 22.03500
H  8.30100 49.26100 29.55400
H  11.14000 48.98200 29.13000
H  10.88600 51.26600 29.36700
H  9.18800 51.25700 29.06300
H  10.28300 51.37500 27.68000
H  10.24500 47.04000 29.61400
H  8.62400 46.46800 29.73500
H  8.98700 48.70100 31.64800
H  10.35700 47.77000 31.79600
H  14.34800 48.55400 26.38500
H  14.88200 49.42300 24.93000
H  15.18900 47.66100 25.28800
H  15.53200 46.87300 23.00000
H  15.44700 48.74400 22.73800
H  15.89900 47.57400 21.37300
H  9.08400 45.34700 20.54500
H  6.96000 47.58400 19.92500
H  10.24400 47.51800 18.98100
H  8.74500 47.29000 18.36200
H  9.91000 45.87400 18.55200
H  6.09300 45.14900 21.30000
H  7.07600 44.71200 20.01900
H  5.22700 44.74500 18.74800
H  5.33700 46.41000 18.66500
H  4.31300 45.71400 19.98000
H  3.33800 46.50000 23.52900
H  2.99400 48.23500 23.67800
H  2.67800 47.07200 24.97100
H  5.70500 48.89000 28.84200
H  4.22500 45.19500 30.48900
H  3.87300 46.34500 31.84300
H  5.54400 45.61900 31.69700

