158

Mg 8.17100 2.29600 27.34300
C  9.66500 1.11100 30.24100
C  6.29400 4.35800 29.30500
C  6.83600 3.63400 24.61400
C  9.69800 -0.12000 25.42900
N  7.95100 2.61000 29.49100
C  8.64400 2.05200 30.51100
C  8.39600 2.64200 31.88800
C  7.22700 3.60500 31.52900
C  7.11700 3.52400 30.02700
C  5.76900 3.46700 32.21100
C  9.57000 3.37200 32.55500
C  9.28200 4.37300 33.69500
H  10.22400 4.26000 34.86400
N  6.70900 3.76700 27.01500
C  6.05600 4.52100 27.96400
C  5.03600 5.30300 27.34700
C  5.20100 5.16200 25.88600
C  6.27500 4.14000 25.80700
C  3.99500 6.12100 28.18800
C  4.48100 5.82700 24.83100
O  4.76100 5.58200 23.65600
C  3.31800 6.76800 25.11900
N  8.25800 1.75000 25.28900
C  7.67100 2.53600 24.32700
C  8.15600 2.16700 22.95400
C  8.88000 0.80500 23.17600
C  9.00100 0.81000 24.71100
C  7.14300 2.14100 21.74600
C  10.30900 0.68900 22.43600
C  10.27400 -0.45500 21.43100
N  9.45800 0.79600 27.73900
C  10.08600 -0.04500 26.83900
C  11.01000 -0.89300 27.59200
C  10.89400 -0.45800 28.90500
C  9.96800 0.56000 28.92800
C  11.87000 -1.99400 27.02300
C  11.31600 -0.65700 30.29200
O  12.07600 -1.54300 30.69800
C  10.52400 0.39500 31.25900
C  9.77300 -0.32100 32.37100
O  8.61400 -0.60800 32.28500
O  10.60700 -0.46700 33.46700
C  10.06800 -1.24500 34.65000
H  5.65500 4.92300 29.98700
H  6.36300 3.96400 23.68600
H  10.23400 -0.87200 24.84600
H  8.03700 1.88300 32.58300
H  7.58900 4.61500 31.72100
H  4.97700 3.20900 31.50900
H  5.55400 4.37300 32.77800
H  5.73200 2.68700 32.97200
H  10.12500 3.94600 31.81300
H  10.22600 2.60700 32.97000
H  8.24800 4.27200 34.02600
H  9.43900 5.38800 33.33000
H  4.22700 6.17600 29.25200
H  3.01700 5.65700 28.06400
H  3.90000 7.15300 27.85200
H  3.57800 7.67700 25.66200
H  2.58700 6.16200 25.65400
H  2.94700 7.12400 24.15900
H  8.87200 2.96200 22.74300
H  8.16200 0.10000 22.75400
H  7.49600 1.51900 20.92300
H  7.08700 3.15900 21.36000
H  6.24400 1.59600 22.03500
H  11.22800 0.67400 23.02100
H  10.37800 1.54000 21.75800
H  10.35900 0.01700 20.45200
H  9.36100 -1.04800 21.48100
H  11.13000 -1.09500 21.64300
H  11.70900 -2.88500 27.63100
H  12.95300 -1.87900 27.05300
H  11.48600 -2.31800 26.05600
H  11.22900 1.11800 31.66800
H  9.88100 -0.52500 35.44700
H  10.73600 -2.09600 34.78800
H  9.11700 -1.69000 34.36100
Mg 26.99300 50.10500 25.47400
C  25.12200 51.38600 28.07300
C  29.45100 49.16900 27.71400
C  28.94600 49.29200 22.87400
C  24.71300 51.64400 23.22600
N  27.28000 50.36900 27.70000
C  26.31100 50.84400 28.54900
C  26.78900 50.54600 30.06900
C  28.21600 49.96300 29.82400
C  28.31100 49.75700 28.32200
C  29.37800 50.86100 30.38600
C  25.82900 49.53500 30.82600
C  25.23500 49.87500 32.17400
H  25.96000 50.74600 33.28100
N  28.88700 49.29200 25.28000
C  29.73600 48.91900 26.33100
C  30.93800 48.42100 25.79100
C  30.87800 48.62600 24.37300
C  29.47900 49.16200 24.12600
C  32.10800 47.87800 26.72900
C  31.95300 48.46500 23.31900
O  31.75600 48.68400 22.11600
C  33.26300 47.88700 23.76000
N  26.79900 50.41000 23.42900
C  27.73200 49.92500 22.60800
C  27.21700 50.01300 21.12600
C  25.87900 50.68700 21.15100
C  25.76200 50.94500 22.65600
C  28.27800 50.68000 20.14200
C  24.59000 49.82100 20.71200
C  23.95100 50.29800 19.39800
N  25.21700 51.28600 25.57400
C  24.37000 51.79500 24.61000
C  23.32600 52.43600 25.22500
C  23.54900 52.26600 26.58200
C  24.74200 51.55500 26.76400
C  22.04700 52.89200 24.48400
C  22.98500 52.57200 27.93200
O  22.00100 53.19800 28.28700
C  23.93200 51.93700 28.87700
C  24.17400 52.96600 29.91100
O  25.06600 53.82600 29.94800
O  23.21900 52.82800 30.91100
C  23.29500 53.75000 32.01100
H  30.10900 48.77200 28.49000
H  29.39400 48.92500 21.94800
H  24.08100 52.19000 22.52300
H  26.77500 51.47500 30.63900
H  28.35100 48.96600 30.24500
H  29.82400 50.25700 31.17600
H  29.01300 51.81300 30.76900
H  30.19100 51.14800 29.71900
H  26.28000 48.56000 30.64400
H  25.00700 49.66600 30.12200
H  25.03800 48.91700 32.65500
H  24.35700 50.51300 32.07100
H  32.86200 48.66200 26.65500
H  32.47600 46.94200 26.30800
H  31.81700 47.89100 27.77900
H  33.68200 48.71500 24.33100
H  33.85900 47.66800 22.87400
H  33.10900 46.94900 24.29400
H  27.15700 48.95800 20.86200
H  25.92000 51.71300 20.78500
H  27.88100 51.57900 19.67000
H  28.47000 50.01100 19.30300
H  29.24600 50.84700 20.61500
H  23.89700 49.65200 21.53600
H  24.98300 48.83900 20.44800
H  24.45400 51.21300 19.08600
H  22.86700 50.30000 19.51000
H  24.21800 49.65100 18.56200
H  21.36900 53.04900 25.32400
H  21.53400 52.24300 23.77500
H  22.43000 53.79600 24.01000
H  23.34300 51.17400 29.38600
H  24.15400 53.36000 32.55700
H  22.44300 53.66000 32.68500
H  23.49900 54.75600 31.64400

