158

Mg 0.94400 8.29100 25.92700
C  1.88500 10.41300 28.66900
C  1.16300 5.66000 28.03100
C  0.57600 6.29700 23.21600
C  1.22000 11.10400 23.90100
N  1.55800 8.07400 28.23400
C  1.81500 9.06600 29.11100
C  2.10800 8.42300 30.47700
C  2.06700 6.80400 30.12400
C  1.50400 6.83600 28.70500
C  3.32500 5.93300 30.28400
C  1.17700 8.99600 31.57300
C  1.38800 8.48700 33.09100
H  2.61000 7.59400 33.25100
N  0.68400 6.26100 25.62500
C  0.74200 5.39300 26.68900
C  0.36100 4.04000 26.24800
C  0.26600 4.15700 24.80500
C  0.58700 5.56500 24.45600
C  0.23600 2.91700 27.27500
C  0.12700 3.04100 23.72400
O  0.14200 3.39300 22.51700
C  0.02600 1.65300 24.10100
N  1.11000 8.60000 23.83700
C  0.82500 7.62700 22.91200
C  0.75400 8.29200 21.54000
C  0.47300 9.76600 21.83900
C  0.91800 9.85900 23.25400
C  2.09400 7.95600 20.77500
C  -0.97800 10.48500 21.74800
C  -0.88500 11.79300 20.92800
N  1.47200 10.33900 26.11800
C  1.47400 11.34100 25.21100
C  1.79900 12.63000 25.81500
C  1.93200 12.28600 27.17800
C  1.74300 10.89700 27.33000
C  2.01500 13.99000 25.17300
C  2.13800 12.85200 28.46500
O  2.43900 14.01500 28.70800
C  2.09700 11.67900 29.48800
C  3.41500 11.57600 30.25800
O  4.54200 11.37300 29.82100
O  3.05700 11.89800 31.59900
C  4.19000 11.73000 32.57600
H  1.17500 4.76700 28.66000
H  0.18000 5.69100 22.39800
H  1.09100 11.95400 23.22700
H  3.12600 8.66400 30.78000
H  1.28200 6.31400 30.70000
H  4.06600 6.62500 30.68200
H  3.59200 5.56100 29.29400
H  3.04200 5.14200 30.97900
H  0.12800 8.94200 31.28500
H  1.46900 10.04600 31.60000
H  0.46300 8.10900 33.52600
H  1.66000 9.32300 33.73500
H  0.00300 2.01600 26.70800
H  -0.45400 3.19200 28.07400
H  1.25300 2.86300 27.66400
H  0.00300 1.09600 23.16400
H  -0.83600 1.35300 24.69600
H  0.84600 1.30200 24.72700
H  -0.03200 7.75100 21.01300
H  1.15800 10.34900 21.22400
H  2.80000 8.76800 20.60100
H  1.77200 7.71200 19.76300
H  2.66600 7.10500 21.14300
H  -1.25300 10.66600 22.78700
H  -1.61200 9.72800 21.28500
H  0.11300 12.18800 20.73900
H  -1.48900 12.58000 21.38100
H  -1.31000 11.52200 19.96100
H  2.96500 14.46900 25.40800
H  1.30200 14.62000 25.70500
H  1.77100 14.00600 24.11000
H  1.33200 11.89000 30.23600
H  5.21200 11.72700 32.19800
H  4.07400 10.82100 33.16700
H  4.02900 12.39500 33.42400
Mg 26.58200 0.36000 29.15300
C  28.32100 -0.15100 32.09900
C  23.68800 0.95300 30.98000
C  24.80100 0.31100 26.19600
C  29.40200 -0.70300 27.33700
N  26.09600 0.27900 31.28200
C  27.00200 0.21000 32.30300
C  26.34300 0.34600 33.74500
C  24.79000 0.45800 33.27600
C  24.85400 0.54300 31.76100
C  23.75400 -0.56600 33.72300
C  26.90700 1.43700 34.60700
C  27.36400 1.02800 36.06300
H  27.03500 1.91400 37.17200
N  24.56000 0.78800 28.66200
C  23.52300 1.04700 29.56400
C  22.32400 1.36800 28.80800
C  22.64600 1.16300 27.42000
C  24.06200 0.70200 27.39200
C  21.07200 1.80200 29.49900
C  21.72300 1.27000 26.21800
O  22.01500 1.03400 25.05100
C  20.28600 1.50500 26.59700
N  27.04900 -0.21700 26.95300
C  26.14900 -0.05900 26.00900
C  26.74200 0.05700 24.55500
C  28.32800 -0.13800 24.97700
C  28.28300 -0.40600 26.52300
C  26.23400 -1.03000 23.50600
C  29.24600 1.00600 24.59400
C  29.57900 1.12200 23.11700
N  28.44000 -0.33700 29.52800
C  29.48500 -0.78300 28.75400
C  30.63100 -1.14700 29.55400
C  30.22400 -0.91000 30.89800
C  28.88600 -0.39900 30.83100
C  31.89600 -1.57200 28.99600
C  30.67900 -0.94300 32.30600
O  31.71500 -1.08200 32.87300
C  29.41000 -0.46800 33.10300
C  29.04100 -1.44200 34.10100
O  28.25800 -2.37600 33.89100
O  29.75200 -1.15200 35.21700
C  29.56000 -2.11500 36.36100
H  22.83700 1.24900 31.59700
H  24.19400 0.27500 25.28900
H  30.33500 -0.90100 26.80600
H  26.46300 -0.63400 34.20800
H  24.38900 1.37300 33.71200
H  24.32200 -1.30900 34.28300
H  23.21300 -1.08800 32.93400
H  23.02200 -0.10300 34.38400
H  26.11200 2.17600 34.71100
H  27.72800 1.96800 34.12600
H  28.44200 0.87000 36.09700
H  26.96100 0.05000 36.32600
H  20.79300 2.82500 29.24500
H  21.19400 1.84500 30.58100
H  20.27100 1.06800 29.41100
H  19.84800 0.71600 27.20800
H  19.73100 1.63600 25.66800
H  20.31500 2.51400 27.00900
H  26.56900 1.07200 24.19900
H  28.68800 -1.05300 24.50500
H  25.50700 -1.69900 23.96800
H  27.08900 -1.56400 23.09200
H  25.69700 -0.51400 22.71000
H  30.14500 1.05200 25.20900
H  28.68100 1.91700 24.78900
H  28.99900 1.95700 22.72400
H  29.31800 0.18500 22.62400
H  30.63500 1.37800 23.03300
H  32.12800 -1.06200 28.06100
H  31.89400 -2.61400 28.67500
H  32.73600 -1.40000 29.66900
H  29.69300 0.40400 33.69300
H  29.43200 -3.14600 36.03200
H  28.67800 -1.75100 36.88900
H  30.43800 -2.09400 37.00600

