158

Mg 30.80900 58.06800 40.44100
C  28.34500 55.92100 38.91500
C  33.21900 56.06300 39.20500
C  33.06300 60.58400 41.17200
C  28.19900 60.46200 40.83400
N  30.78700 56.03800 39.38000
C  29.65200 55.50000 38.67500
C  30.14900 54.35300 37.79600
C  31.67400 54.26600 38.22000
C  31.95200 55.54000 38.95500
C  31.93100 52.98900 39.06400
C  29.86200 54.69800 36.39400
C  29.63000 53.55400 35.37700
H  28.61000 53.85700 34.29100
N  32.92400 58.20600 40.30400
C  33.70400 57.27900 39.82300
C  35.09100 57.68100 39.97200
C  35.03800 58.95000 40.59500
C  33.65100 59.31300 40.66800
C  36.26200 56.80300 39.47000
C  36.28400 59.72900 40.96400
O  37.38500 59.17900 40.77600
C  36.35200 61.10800 41.50700
N  30.65800 60.24600 40.84900
C  31.73600 60.97900 41.26100
C  31.41400 62.34300 41.75200
C  29.81000 62.41700 41.52800
C  29.51900 60.98400 40.95100
C  31.73200 62.52600 43.19500
C  29.26800 63.57500 40.68400
C  28.79600 64.88500 41.51000
N  28.70500 58.16700 40.09500
C  27.83800 59.26900 40.23000
C  26.49200 58.85200 39.89800
C  26.63200 57.48700 39.45600
C  27.99400 57.14700 39.57700
C  25.30400 59.72700 40.04700
C  25.94600 56.35400 38.85300
O  24.71300 56.24500 38.63600
C  27.04000 55.34600 38.46600
C  26.81500 53.94200 38.95800
O  27.05900 53.57900 40.12700
O  26.48800 53.14800 37.93800
C  26.03700 51.77900 38.29800
H  34.01000 55.55500 38.65000
H  33.70100 61.38400 41.55300
H  27.48000 61.20600 41.18300
H  29.58700 53.46400 38.08200
H  32.35900 54.31400 37.37300
H  32.86800 52.55600 38.71400
H  31.14200 52.24200 38.98800
H  32.02900 53.22300 40.12400
H  30.72800 55.23400 36.00700
H  29.04300 55.41500 36.33800
H  29.46500 52.60300 35.88300
H  30.58700 53.46500 34.86300
H  37.09300 57.45200 39.19200
H  35.94900 56.23200 38.59600
H  36.63600 56.16400 40.27000
H  37.41300 61.23200 41.72200
H  35.79500 61.14000 42.44400
H  36.08100 61.86100 40.76700
H  31.85100 63.09800 41.09900
H  29.27700 62.40500 42.47900
H  32.64200 61.98400 43.45300
H  31.02200 62.10100 43.90500
H  31.79000 63.55100 43.56300
H  28.31100 63.39400 40.19400
H  30.13300 63.67400 40.02900
H  29.01300 64.70100 42.56200
H  27.75600 65.07200 41.24100
H  29.32000 65.70700 41.02400
H  25.48200 60.72600 39.64900
H  25.14000 59.70500 41.12400
H  24.47100 59.25800 39.52300
H  26.97800 55.35800 37.37800
H  26.80900 51.13800 38.72200
H  25.59200 51.33200 37.40900
H  25.20400 51.87700 38.99400
Mg 26.81100 50.50300 25.67800
C  24.98500 51.39600 28.53500
C  29.27000 49.18400 27.88900
C  29.00300 50.03900 23.13700
C  24.56200 51.91600 23.64400
N  27.08700 50.31900 27.98900
C  26.18100 50.80900 28.93600
C  26.61200 50.47400 30.35700
C  28.04700 49.78400 30.04300
C  28.11600 49.73100 28.56900
C  29.25900 50.57100 30.64600
C  25.62600 49.55200 31.06400
C  25.20700 50.10600 32.39500
H  25.19400 49.10600 33.59900
N  28.86900 49.70400 25.48700
C  29.67400 49.16900 26.54600
C  30.95200 48.76600 25.98200
C  30.92100 49.04900 24.61000
C  29.55800 49.67900 24.33100
C  32.04100 48.17200 26.81300
C  31.86400 48.83000 23.51500
O  31.76600 49.35000 22.39100
C  33.09100 48.01700 23.80800
N  26.77200 51.02800 23.64600
C  27.76700 50.72100 22.81000
C  27.22700 50.82300 21.42300
C  25.95100 51.61300 21.59300
C  25.65900 51.41100 23.07600
C  28.18400 51.53100 20.48400
C  24.73000 51.25100 20.64100
C  24.06900 49.95900 20.91900
N  25.08200 51.48200 25.99200
C  24.26800 52.07200 25.05800
C  23.14000 52.73900 25.67200
C  23.37000 52.49000 27.06200
C  24.56100 51.69800 27.20400
C  22.04900 53.39100 24.89300
C  22.88500 52.73800 28.40700
O  21.91500 53.35600 28.70600
C  23.90500 52.04000 29.38400
C  24.42900 52.99300 30.41000
O  25.44700 53.58000 30.29400
O  23.63500 52.99200 31.50700
C  24.10000 53.83300 32.62000
H  30.07100 48.83600 28.54400
H  29.53200 49.71200 22.24000
H  23.83400 52.39500 22.98600
H  26.85700 51.38500 30.90200
H  28.00900 48.76900 30.44000
H  29.04100 51.00600 31.62100
H  29.70000 51.30700 29.97400
H  30.01300 49.78300 30.65300
H  26.13600 48.62300 31.32000
H  24.79100 49.36300 30.39000
H  24.20400 50.52400 32.31000
H  25.87600 50.91700 32.68500
H  31.79300 47.98600 27.85800
H  32.87400 48.87200 26.88000
H  32.40300 47.24000 26.37900
H  33.79800 48.65900 24.33200
H  33.44100 47.54800 22.88800
H  32.94000 47.18400 24.49600
H  27.02500 49.81000 21.07400
H  26.24200 52.65600 21.47000
H  27.75000 52.37000 19.94100
H  28.39100 50.90900 19.61300
H  29.11000 51.70900 21.03100
H  25.05600 51.29600 19.60200
H  24.01900 52.04600 20.87000
H  23.00400 50.15500 21.03800
H  24.41300 49.40800 21.79400
H  24.16900 49.29400 20.06100
H  22.55100 54.31500 24.60800
H  21.18600 53.51800 25.54700
H  21.84000 52.85200 23.96900
H  23.42100 51.35100 30.07500
H  24.32100 54.86000 32.32900
H  25.02800 53.36000 32.94200
H  23.38000 53.90800 33.43400

