158

Mg 24.02400 -5.04800 45.77500
C  25.98500 -2.50100 44.34600
C  21.46200 -4.04900 43.73100
C  22.55200 -8.03300 46.12600
C  26.95700 -6.31000 47.14500
N  23.74900 -3.39800 44.24200
C  24.67700 -2.41800 43.91100
C  24.06500 -1.45200 42.96000
C  22.51800 -1.74200 43.17500
C  22.56800 -3.13800 43.78100
C  21.78000 -0.79900 44.14700
C  24.59900 -1.62900 41.49200
C  24.80100 -0.27700 40.68600
H  24.75400 -0.21500 39.14800
N  22.18400 -5.86200 45.17900
C  21.32400 -5.30100 44.28600
C  20.19000 -6.14500 44.07700
C  20.39600 -7.27000 44.93200
C  21.81600 -7.11400 45.42200
C  18.98600 -5.88100 43.10500
C  19.33400 -8.34300 45.22800
O  18.20300 -8.31300 44.73900
C  19.64200 -9.50500 46.17300
N  24.67000 -6.88100 46.51200
C  23.82600 -7.94500 46.66800
C  24.51700 -9.16100 47.34700
C  25.92500 -8.64600 47.71500
C  25.87500 -7.15900 47.09100
C  23.78200 -9.67400 48.66900
C  26.98100 -9.57600 47.03000
C  28.27700 -9.83900 47.73000
N  26.03100 -4.47200 45.86800
C  27.11000 -5.05800 46.51800
C  28.24500 -4.25700 46.44900
C  27.86200 -3.30000 45.48100
C  26.51100 -3.47100 45.24600
C  29.66900 -4.54400 47.01600
C  28.35800 -2.08200 44.83800
O  29.42500 -1.59700 44.92300
C  27.18100 -1.55800 43.99600
C  26.93900 -0.05500 44.08500
O  26.56900 0.49900 45.07000
O  27.28700 0.57000 42.92400
C  27.12300 1.99300 43.01700
H  20.61400 -3.69600 43.14000
H  22.15000 -9.04100 46.24400
H  27.83500 -6.69200 47.67100
H  24.31400 -0.47800 43.38200
H  22.00400 -1.85600 42.22100
H  22.32000 0.08700 44.48000
H  21.31100 -1.39600 44.92900
H  20.98500 -0.29400 43.59900
H  23.82300 -2.20000 40.98200
H  25.53700 -2.17400 41.59700
H  25.72400 0.18500 41.03500
H  23.95400 0.32500 41.01300
H  18.86300 -6.63300 42.32600
H  19.24800 -4.96700 42.57200
H  18.05700 -5.70700 43.64900
H  20.06300 -9.31400 47.15900
H  20.13700 -10.21500 45.51000
H  18.70800 -9.97500 46.48200
H  24.52700 -9.91800 46.56200
H  26.27800 -8.52000 48.73900
H  23.28900 -10.64300 48.59500
H  23.02100 -8.93000 48.90600
H  24.45200 -9.71600 49.52800
H  27.20600 -9.21700 46.02600
H  26.52500 -10.56300 46.95700
H  28.53400 -9.15800 48.54100
H  29.09400 -9.63200 47.03900
H  28.29700 -10.84700 48.14500
H  29.95800 -5.57500 46.81400
H  29.65600 -4.47200 48.10400
H  30.36300 -3.84500 46.55000
H  27.50400 -1.87200 43.00400
H  27.68000 2.33900 42.14600
H  27.66600 2.33800 43.89700
H  26.11200 2.39900 43.02500
Mg 47.07400 25.63400 28.90400
C  47.84400 27.80400 31.44300
C  46.37500 23.22500 31.34700
C  46.59600 23.41600 26.43900
C  48.44700 27.82000 26.64600
N  47.20500 25.53100 31.16700
C  47.33800 26.64400 31.99300
C  47.06300 26.24900 33.51500
C  46.77700 24.69200 33.36100
C  46.77900 24.48000 31.85300
C  47.82800 23.74300 34.04900
C  45.94300 27.13200 34.14900
C  46.24000 27.56300 35.59900
H  45.14000 27.64100 36.67900
N  46.44300 23.67300 28.87900
C  46.22400 22.84600 29.92200
C  45.71500 21.56800 29.41100
C  45.94000 21.62300 28.02400
C  46.34100 22.95600 27.72400
C  45.17700 20.42700 30.26700
C  45.66300 20.51200 26.96700
O  45.93200 20.61400 25.79500
C  45.19300 19.17500 27.49100
N  47.39900 25.63800 26.75000
C  47.07400 24.60200 25.89300
C  47.27300 24.85400 24.42400
C  47.81000 26.35300 24.48000
C  47.83300 26.69100 26.01500
C  48.28100 23.84300 23.73200
C  46.97800 27.51600 23.76600
C  47.85700 28.20600 22.62100
N  47.98100 27.40900 28.99300
C  48.60300 28.12500 27.98900
C  49.24100 29.29600 28.48400
C  48.96100 29.22100 29.84600
C  48.21800 28.02600 30.12100
C  49.92000 30.42200 27.71800
C  48.94600 30.00700 31.07900
O  49.20600 31.20200 31.33300
C  48.34300 29.01000 32.18000
C  49.34600 28.70300 33.24000
O  50.25100 27.88400 33.07700
O  49.14800 29.49800 34.35300
C  49.90300 29.25600 35.59700
H  45.99100 22.48600 32.05300
H  46.37100 22.71400 25.63400
H  48.96000 28.49400 25.95700
H  48.01200 26.31000 34.04700
H  45.79800 24.42600 33.75900
H  48.46700 23.23600 33.32600
H  47.25200 22.91200 34.45500
H  48.36500 24.19800 34.88200
H  45.02500 26.55100 34.05800
H  45.79500 28.03900 33.56200
H  46.62600 28.58300 35.58500
H  47.05800 26.88600 35.84400
H  44.08900 20.40700 30.32700
H  45.47800 20.59800 31.30000
H  45.73700 19.50000 30.14000
H  46.01000 18.81100 28.11400
H  44.95900 18.51200 26.65800
H  44.35100 19.39500 28.14700
H  46.30100 24.83400 23.93100
H  48.83500 26.46500 24.12500
H  48.44700 22.94500 24.32800
H  49.26700 24.26400 23.53300
H  47.89800 23.50600 22.76900
H  46.38200 28.24400 24.31800
H  46.23200 26.96700 23.19200
H  47.51700 29.22800 22.44800
H  47.88800 27.53600 21.76300
H  48.93500 28.15700 22.77300
H  49.19700 31.22500 27.57700
H  50.38500 30.05700 26.80200
H  50.65900 30.74400 28.45200
H  47.51600 29.47000 32.72200
H  49.23600 29.04100 36.43100
H  50.55600 30.09500 35.83400
H  50.38000 28.28600 35.45300

