158

Mg 17.21300 -1.56100 28.24400
C  16.04600 0.59200 30.77200
C  19.19400 -3.12600 30.48800
C  18.49600 -3.42600 25.61600
C  15.45200 0.38400 25.85700
N  17.55900 -1.26300 30.30200
C  16.88600 -0.42900 31.23900
C  17.11700 -0.80700 32.69000
C  18.31600 -1.76500 32.48000
C  18.39800 -2.04700 30.95500
C  19.73000 -1.13800 32.77600
C  15.88000 -1.44500 33.47500
C  15.43100 -0.73800 34.70900
H  16.56900 -0.29300 35.69200
N  18.54500 -3.12500 28.09000
C  19.25500 -3.65000 29.15100
C  20.05600 -4.75800 28.71200
C  19.87900 -4.87200 27.29700
C  18.91200 -3.82100 26.93500
C  20.90700 -5.49700 29.74500
C  20.56600 -5.79800 26.39500
O  20.45600 -5.63300 25.18900
C  21.50400 -6.87000 26.87500
N  16.99700 -1.50700 26.10900
C  17.67500 -2.37900 25.22800
C  17.56800 -1.96400 23.76900
C  16.41300 -0.84800 23.87400
C  16.25700 -0.62700 25.37300
C  18.90100 -1.61000 23.01200
C  15.01400 -1.17800 23.16100
C  13.95600 -1.90900 23.97800
N  15.93100 0.11600 28.25700
C  15.24500 0.74900 27.20500
C  14.45400 1.87700 27.75100
C  14.77500 1.86800 29.13200
C  15.66300 0.81700 29.37400
C  13.56000 2.68900 26.83000
C  14.52500 2.50000 30.41800
O  13.85600 3.44500 30.77000
C  15.31300 1.67200 31.56100
C  16.22700 2.60300 32.27600
O  17.40600 2.83700 32.07600
O  15.56400 3.07900 33.38200
C  16.38100 3.76300 34.32600
H  19.69100 -3.57900 31.34900
H  18.76000 -4.13100 24.82500
H  15.03100 0.92900 25.01000
H  17.30200 0.14100 33.19400
H  18.22200 -2.67600 33.07000
H  19.58000 -0.18000 33.27300
H  20.39400 -0.94200 31.93400
H  20.31500 -1.82700 33.38500
H  15.92400 -2.49500 33.76200
H  15.05500 -1.33800 32.77100
H  14.76800 -1.35400 35.31600
H  14.91900 0.18800 34.44900
H  20.86200 -6.58000 29.62700
H  20.60900 -5.28600 30.77200
H  21.93100 -5.20700 29.50800
H  22.20900 -6.42000 27.57400
H  21.91900 -7.36200 25.99600
H  20.82000 -7.65600 27.19600
H  17.26600 -2.83200 23.18200
H  16.86200 0.01200 23.37700
H  19.10500 -0.57100 22.75200
H  19.00200 -2.10800 22.04800
H  19.81200 -1.75900 23.59200
H  15.46000 -1.71600 22.32600
H  14.51300 -0.30900 22.73500
H  13.62500 -2.61500 23.21700
H  13.04300 -1.35800 24.20200
H  14.31100 -2.54500 24.79000
H  13.87800 3.73000 26.88900
H  12.56500 2.71700 27.27300
H  13.43400 2.36200 25.79800
H  14.53100 1.25500 32.19600
H  16.98700 4.57400 33.92100
H  17.14900 3.12300 34.75800
H  15.69200 4.35900 34.92600
Mg 48.82200 45.14000 43.00900
C  45.48300 45.51300 41.89000
C  48.48500 41.70500 42.79200
C  52.18500 44.84200 43.44300
C  49.17900 48.73400 42.88300
N  47.17900 43.84800 42.29600
C  45.89500 44.12200 41.92000
C  45.01200 42.85400 41.66200
C  46.02400 41.74400 42.12500
C  47.31700 42.50000 42.44500
C  45.44000 40.91700 43.32900
C  44.58000 42.60100 40.15500
C  45.54500 43.04800 39.08100
H  45.48000 42.18300 37.84500
N  50.17400 43.50400 43.01800
C  49.84100 42.18700 43.00200
C  51.03400 41.45700 42.89100
C  52.16200 42.25400 43.17100
C  51.53900 43.59000 43.25200
C  51.02600 39.99600 42.48900
C  53.54600 41.82000 43.23600
O  53.87200 40.62900 43.23300
C  54.78700 42.75700 43.23000
N  50.44400 46.55700 42.95900
C  51.66800 46.19200 43.39200
C  52.62600 47.40600 43.59500
C  51.71800 48.61000 43.39100
C  50.37700 47.88100 43.02800
C  53.49400 47.49900 44.89300
C  52.14700 49.58300 42.21300
C  52.07000 50.99200 42.58500
N  47.54800 46.89200 42.64000
C  47.84200 48.26500 42.65600
C  46.53600 48.97600 42.35700
C  45.68700 47.92000 42.10700
C  46.26200 46.69400 42.26000
C  46.33500 50.51200 42.24600
C  44.31700 47.66600 41.67200
O  43.41600 48.47100 41.49300
C  44.13100 46.05800 41.43500
C  42.96700 45.48700 42.25100
O  42.29400 44.51100 41.92700
O  42.67400 46.17900 43.38600
C  41.68000 45.57700 44.28600
H  48.39700 40.62200 42.90000
H  53.20700 44.79000 43.82600
H  49.19100 49.82200 42.97200
H  44.08800 42.90700 42.23800
H  46.11300 41.01500 41.32000
H  45.63500 39.92000 42.93400
H  44.40000 41.18300 43.51900
H  46.05900 41.04300 44.21700
H  43.62600 43.12800 40.17900
H  44.36000 41.54700 39.98300
H  46.56600 43.13000 39.45500
H  45.27700 44.08100 38.86000
H  51.27600 39.97000 41.42800
H  50.07100 39.50300 42.67200
H  51.62000 39.31700 43.10100
H  54.49200 43.62000 42.63400
H  55.72600 42.32900 42.87900
H  54.90600 43.03300 44.27800
H  53.38200 47.37700 42.81000
H  51.62800 49.15100 44.33300
H  53.13200 48.23500 45.61000
H  54.49900 47.73200 44.54000
H  53.53600 46.49800 45.32200
H  51.61500 49.38600 41.28200
H  53.19000 49.36300 41.98600
H  51.46300 51.18200 43.47000
H  51.70200 51.55500 41.72800
H  53.10100 51.30800 42.74200
H  46.47500 50.83400 41.21400
H  46.95100 51.16900 42.86100
H  45.31200 50.72100 42.55900
H  44.00200 45.78700 40.38700
H  40.69200 45.74300 43.85600
H  41.74400 46.02000 45.28000
H  41.78200 44.49200 44.30000

