158

Mg 3.23800 -0.73700 43.94100
C  6.66500 -0.18000 43.75000
C  2.79200 2.21900 42.26600
C  0.24700 -1.90400 43.19600
C  4.02400 -3.94500 45.38000
N  4.63500 0.81900 42.92700
C  5.96100 0.83600 43.00400
C  6.55700 2.02600 42.21700
C  5.27400 2.91800 42.16400
C  4.18500 1.95800 42.46200
C  5.23200 4.11300 43.25600
C  7.11200 1.41100 40.94100
C  8.59400 1.65500 40.77000
H  9.11700 1.86600 39.35400
N  1.68900 0.11500 43.00000
C  1.68400 1.33700 42.40400
C  0.40100 1.65400 41.85000
C  -0.42600 0.44900 42.08900
C  0.47300 -0.51700 42.88300
C  0.06200 2.97000 41.16000
C  -1.92000 0.21000 41.71500
O  -2.56000 0.93300 40.98300
C  -2.68800 -0.95200 42.25100
N  2.25200 -2.77900 44.25200
C  0.95000 -2.96600 43.85100
C  0.36300 -4.33800 44.38500
C  1.64300 -4.93100 45.17400
C  2.65400 -3.76300 45.03300
C  -0.94900 -4.21300 45.23200
C  2.18900 -6.27900 44.67900
C  2.58400 -7.38600 45.61400
N  4.91500 -1.84500 44.47100
C  5.07200 -3.00200 45.18200
C  6.48700 -3.15300 45.58500
C  7.13300 -1.98900 45.11800
C  6.12200 -1.27800 44.41000
C  7.07800 -4.33000 46.34200
C  8.40500 -1.29800 44.99500
O  9.53700 -1.62900 45.35900
C  8.14300 -0.09400 44.16200
C  8.28700 1.13600 44.99400
O  7.66500 1.33800 45.98000
O  9.06600 2.07900 44.34300
C  9.00700 3.42200 44.87500
H  2.50900 3.19300 41.86200
H  -0.64500 -2.33500 42.73800
H  4.19700 -4.95400 45.76100
H  7.34400 2.64100 42.65300
H  5.20300 3.31000 41.14900
H  6.11000 4.06200 43.89900
H  4.33300 4.12200 43.87300
H  5.24300 5.03900 42.68100
H  6.64300 1.81900 40.04500
H  7.04400 0.32600 40.86300
H  9.27800 0.98000 41.28400
H  8.99200 2.51000 41.31600
H  0.75500 3.31400 40.39300
H  0.09800 3.71500 41.95400
H  -0.95200 3.00800 40.76100
H  -3.74800 -0.79100 42.05000
H  -2.49100 -1.04700 43.31900
H  -2.37500 -1.85700 41.73100
H  0.06700 -4.93900 43.52500
H  1.42300 -4.98300 46.24000
H  -1.70800 -4.58100 44.54200
H  -1.07900 -3.18700 45.57600
H  -0.96700 -4.95400 46.03200
H  3.13100 -6.07600 44.17000
H  1.48300 -6.69800 43.96100
H  3.58000 -7.75600 45.36700
H  1.84600 -8.18500 45.54300
H  2.65700 -6.98600 46.62500
H  6.50200 -5.25400 46.38600
H  7.32800 -4.06700 47.37000
H  7.99900 -4.70600 45.89600
H  8.75100 0.00200 43.26300
H  9.96200 3.62500 45.35900
H  8.27500 3.71300 45.62900
H  8.78100 4.17200 44.11800
Mg 16.75900 52.40200 26.87200
C  18.68100 50.70700 29.26700
C  14.67900 53.41900 29.45100
C  14.70900 53.77600 24.41400
C  18.71000 51.08800 24.42400
N  16.47200 51.77100 29.00700
C  17.60600 51.28800 29.80800
C  17.42800 51.53800 31.36100
C  15.93200 51.92100 31.26300
C  15.71400 52.52600 29.85100
C  14.83500 50.85700 31.47300
C  18.45200 52.60100 31.95400
C  18.51100 52.67400 33.44700
H  17.43300 51.92600 34.22100
N  15.16400 53.59400 26.93500
C  14.44000 53.84000 28.06400
C  13.24800 54.74100 27.71000
C  13.25000 54.91100 26.30100
C  14.39300 54.03200 25.81400
C  12.33200 55.28800 28.81700
C  12.31800 55.77300 25.40200
O  12.40300 55.74600 24.18100
C  11.22400 56.68600 26.01200
N  16.67600 52.33300 24.70300
C  15.75800 52.96500 23.92300
C  16.11700 52.85700 22.38300
C  17.56300 52.33900 22.54700
C  17.63700 51.75600 23.95200
C  15.20200 51.94500 21.48300
C  18.78100 53.32600 22.32900
C  20.06100 52.74800 21.61300
N  18.32200 51.11600 26.81600
C  19.05800 50.68900 25.72000
C  20.21600 49.81900 26.13600
C  20.08600 49.83600 27.51200
C  18.97400 50.64600 27.87900
C  21.34500 49.26900 25.32300
C  20.64800 49.32000 28.78600
O  21.63000 48.59700 29.04200
C  19.79100 49.91600 29.90000
C  19.11400 48.88400 30.81900
O  18.31900 48.01300 30.45700
O  19.66700 49.03300 32.05500
C  19.32500 48.12200 33.12400
H  13.99400 53.69000 30.25700
H  14.12200 54.16500 23.57900
H  19.36800 50.66900 23.66000
H  17.40100 50.61500 31.94000
H  15.83500 52.76900 31.94200
H  14.00500 50.88500 30.76700
H  14.33000 50.98200 32.43000
H  15.17200 49.82000 31.47900
H  18.03100 53.56800 31.68000
H  19.42200 52.48000 31.47200
H  18.58300 53.74700 33.62600
H  19.46300 52.17700 33.63600
H  12.21400 56.36400 28.69000
H  12.69100 55.27600 29.84600
H  11.36900 54.77900 28.77900
H  10.55900 57.12000 25.26500
H  11.71700 57.52100 26.50900
H  10.72200 56.12700 26.80200
H  16.08400 53.86200 21.96200
H  17.81900 51.52600 21.86700
H  14.47400 51.36700 22.05400
H  15.75800 51.22900 20.87700
H  14.68500 52.68200 20.86900
H  19.19000 53.69100 23.27100
H  18.61900 54.11600 21.59700
H  19.99400 51.66700 21.49100
H  20.86000 53.00000 22.31100
H  20.30100 53.30600 20.70800
H  21.26900 49.23300 24.23600
H  21.54700 48.29400 25.76500
H  22.31000 49.74500 25.49700
H  20.41800 50.60100 30.47100
H  19.80600 47.15700 32.96600
H  18.25700 47.90400 33.15600
H  19.67500 48.47600 34.09400

