158

Mg 16.48300 -2.97700 28.01300
C  15.89300 -0.92900 30.74300
C  18.26200 -5.04600 30.24700
C  17.71100 -4.76700 25.40100
C  15.36200 -0.49400 25.92700
N  17.02800 -2.94300 30.26100
C  16.54900 -2.08400 31.17700
C  16.90000 -2.49000 32.58900
C  17.65900 -3.78700 32.42800
C  17.74700 -3.89800 30.85200
C  19.09100 -3.96500 33.12700
C  15.66000 -2.73300 33.53000
C  15.67400 -1.93100 34.84600
H  17.03100 -1.58800 35.44600
N  17.64400 -4.76700 27.86600
C  18.28100 -5.47500 28.87200
C  18.82900 -6.59900 28.31900
C  18.78500 -6.48200 26.91200
C  18.03700 -5.29300 26.66400
C  19.40100 -7.56200 29.24200
C  19.51000 -7.38500 25.95800
O  19.44900 -7.22400 24.74100
C  20.31600 -8.51100 26.45100
N  16.59700 -2.60600 26.05100
C  17.11500 -3.49900 25.07700
C  17.10900 -2.90300 23.63600
C  16.20600 -1.65800 23.85700
C  16.01200 -1.56400 25.36900
C  18.51800 -2.45100 23.08000
C  14.87800 -1.56400 22.95300
C  13.61400 -1.99500 23.71100
N  15.47100 -1.21000 28.24200
C  15.12400 -0.25600 27.33500
C  14.47700 0.79600 27.94400
C  14.72800 0.57300 29.30500
C  15.42900 -0.66300 29.44900
C  13.74500 1.96400 27.27000
C  14.62400 1.12900 30.63300
O  14.15300 2.21500 30.95900
C  15.28500 0.17300 31.61100
C  16.32000 0.88100 32.38600
O  17.50800 1.04900 32.13000
O  15.71500 1.50900 33.38200
C  16.47800 2.47100 34.18400
H  18.76000 -5.62800 31.02600
H  17.92800 -5.28700 24.46600
H  15.08500 0.31200 25.24400
H  17.53100 -1.66900 32.92900
H  17.07400 -4.62600 32.80400
H  19.83800 -3.76100 32.36100
H  19.07300 -4.95500 33.58300
H  19.20600 -3.31700 33.99600
H  15.60100 -3.80400 33.72200
H  14.85800 -2.37900 32.88200
H  15.18300 -2.54200 35.60300
H  15.02900 -1.06200 34.71900
H  18.75000 -7.85500 30.06600
H  20.26800 -7.20400 29.79600
H  19.62000 -8.52000 28.76900
H  21.13000 -8.24000 27.12400
H  20.82500 -8.96600 25.60100
H  19.72500 -9.31100 26.89700
H  16.51000 -3.49300 22.94200
H  16.74200 -0.73500 23.63400
H  19.12700 -2.36600 23.98000
H  18.60600 -1.45200 22.65200
H  19.08000 -3.08900 22.40000
H  14.95700 -2.11400 22.01500
H  14.73100 -0.50700 22.73200
H  13.81500 -2.87100 24.32800
H  12.93900 -2.29500 22.91000
H  13.17900 -1.23000 24.35500
H  12.94000 1.65500 26.60400
H  14.48600 2.45800 26.64100
H  13.37500 2.57500 28.09300
H  14.53400 -0.11300 32.34700
H  16.51400 3.49000 33.79900
H  17.52700 2.23000 34.35200
H  16.01300 2.56100 35.16600
Mg 47.75500 44.37600 42.59400
C  44.32000 43.99200 42.73500
C  48.16200 40.91200 42.38700
C  50.86100 44.88200 41.20300
C  47.08800 47.83100 41.81000
N  46.38200 42.63400 42.60300
C  44.98600 42.79300 42.78900
C  44.34400 41.32100 42.92000
C  45.60400 40.37400 42.96900
C  46.77500 41.29500 42.67400
C  45.72200 39.63400 44.30900
C  43.32900 40.85300 41.79000
C  43.71000 41.33200 40.39900
H  43.44000 40.36600 39.24700
N  49.36000 43.06500 41.92700
C  49.32100 41.69900 42.05600
C  50.60600 41.14000 41.71700
C  51.43200 42.28200 41.22900
C  50.55500 43.49100 41.43600
C  50.95900 39.69800 41.64500
C  52.78100 42.11400 40.56200
O  53.33800 41.02500 40.55800
C  53.47200 43.37800 40.07200
N  48.92700 46.16500 41.75200
C  50.18100 46.05800 41.44900
C  50.78500 47.49300 41.28100
C  49.56400 48.40300 41.22400
C  48.47500 47.47400 41.59200
C  51.85400 48.00800 42.29100
C  49.33600 49.08600 39.86900
C  48.89900 50.60500 39.90800
N  46.14700 45.74600 42.57200
C  46.01800 47.06600 42.17700
C  44.64100 47.49400 42.32500
C  43.90600 46.34800 42.57200
C  44.89700 45.31300 42.53800
C  44.07300 48.83600 41.94200
C  42.52800 45.74600 42.75900
O  41.42900 46.31500 42.78200
C  42.82100 44.18800 43.01600
C  42.55500 43.84600 44.42300
O  42.80400 44.49400 45.39200
O  42.04900 42.52100 44.55100
C  42.02600 41.85500 45.80600
H  48.26900 39.83000 42.49400
H  51.90200 45.18300 41.06900
H  46.86000 48.89700 41.74900
H  43.85000 41.32300 43.89200
H  45.58000 39.67700 42.13100
H  44.89600 39.92100 44.96000
H  46.62300 39.87400 44.87300
H  45.77600 38.58000 44.03600
H  42.29200 41.08600 42.03400
H  43.44700 39.77100 41.73700
H  44.77300 41.56800 40.35400
H  43.11200 42.19600 40.10700
H  51.11500 39.43900 40.59800
H  50.12900 39.09600 42.01400
H  51.84300 39.42000 42.21900
H  52.82800 43.91300 39.37300
H  54.29600 43.11100 39.41000
H  53.84600 43.98500 40.89600
H  51.29400 47.42900 40.31900
H  49.63000 49.12900 42.03500
H  51.51500 47.58800 43.23800
H  51.96600 49.09000 42.36800
H  52.88900 47.74700 42.07500
H  48.48200 48.56900 39.43100
H  50.18700 48.86800 39.22300
H  49.46700 51.19500 39.18900
H  49.22700 50.97000 40.88100
H  47.82100 50.69100 39.77200
H  43.16400 49.06100 42.49900
H  43.70900 48.76500 40.91800
H  44.85000 49.56800 42.16800
H  42.21800 43.50000 42.42200
H  41.61900 42.35300 46.68600
H  43.08800 41.67000 45.96600
H  41.61400 40.84800 45.74600

