158

Mg 46.28300 24.27300 28.58400
C  46.68200 26.89200 30.93200
C  45.46600 22.11800 31.10300
C  46.19000 21.91600 26.39300
C  47.95700 26.42100 26.19000
N  46.23100 24.53400 30.68300
C  46.32700 25.69200 31.45600
C  46.03600 25.41700 32.91500
C  46.00400 23.82900 33.01200
C  45.84000 23.44000 31.52100
C  47.09700 23.15200 33.87300
C  44.74000 26.10800 33.41400
C  44.92400 26.86200 34.85700
H  44.09300 26.60000 36.07700
N  45.75100 22.29600 28.69500
C  45.43500 21.57500 29.82600
C  45.09000 20.23200 29.43800
C  45.26400 20.20300 28.07700
C  45.74900 21.48800 27.62100
C  44.68200 19.11000 30.39900
C  44.95100 19.09400 27.15100
O  45.23400 19.10000 25.92400
C  44.12200 17.88900 27.62900
N  47.10700 24.19900 26.61300
C  46.83900 23.05800 25.90300
C  47.39800 23.10700 24.50300
C  47.80600 24.54500 24.33700
C  47.67700 25.11600 25.80900
C  48.45800 22.01700 24.14000
C  47.00200 25.34300 23.28100
C  45.60700 25.94600 23.54500
N  47.00400 26.34300 28.43400
C  47.69800 27.03300 27.42900
C  47.80200 28.41700 27.90600
C  47.59200 28.40300 29.30500
C  47.12000 27.11000 29.59500
C  48.27300 29.61300 27.07100
C  47.68700 29.10700 30.59700
O  47.94900 30.25800 30.69200
C  47.22400 28.08700 31.72100
C  48.43900 27.81600 32.49000
O  49.52400 27.40400 32.00200
O  48.25400 28.02700 33.84600
C  49.39800 27.79300 34.71000
H  45.32600 21.48100 31.97900
H  46.29200 21.10300 25.67100
H  48.48200 27.11800 25.53300
H  46.97500 25.72200 33.37800
H  45.09800 23.51700 33.53200
H  47.37700 22.21200 33.39700
H  46.57800 22.90900 34.80100
H  47.90700 23.85200 34.07600
H  43.92800 25.41900 33.64700
H  44.32600 26.83900 32.71900
H  44.80300 27.90700 34.57200
H  45.89900 26.60300 35.26800
H  43.66900 18.80400 30.13700
H  44.82500 19.34800 31.45400
H  45.24900 18.22800 30.10100
H  44.57300 17.41900 28.50300
H  44.04900 17.19100 26.79500
H  43.06300 18.12600 27.73400
H  46.52200 22.91800 23.88200
H  48.86300 24.58800 24.07400
H  48.69900 21.39700 25.00300
H  49.45500 22.39800 23.92300
H  48.06000 21.41700 23.32200
H  46.82400 24.61000 22.49400
H  47.62400 26.14200 22.87800
H  45.02600 25.33100 24.23200
H  44.98200 25.90200 22.65300
H  45.55000 26.99600 23.83400
H  48.03000 30.59500 27.47700
H  48.00600 29.54600 26.01600
H  49.35200 29.53400 27.20500
H  46.47300 28.59200 32.32800
H  50.25400 27.32000 34.23000
H  49.04100 27.25100 35.58600
H  49.70200 28.76800 35.09300
Mg 9.29600 47.86600 27.42300
C  7.52000 47.44700 30.35100
C  12.10900 48.49700 29.28800
C  10.88200 48.53600 24.55400
C  6.18300 47.92600 25.58500
N  9.69300 48.13600 29.57700
C  8.87900 47.66100 30.58500
C  9.55900 47.98700 31.93400
C  11.07600 48.09000 31.57400
C  10.94500 48.20700 30.07100
C  11.68000 49.31700 32.26300
C  9.26800 46.92400 32.99600
C  10.33000 46.49300 34.06700
H  9.83800 45.80200 35.35300
N  11.24900 48.54300 26.96600
C  12.27000 48.68800 27.88100
C  13.46500 48.97500 27.20100
C  13.22200 48.90200 25.80400
C  11.75900 48.69500 25.73800
C  14.87500 49.08600 27.85800
C  14.16200 49.01600 24.60600
O  13.80300 48.95700 23.44800
C  15.60700 49.06500 24.89000
N  8.57400 48.14600 25.33000
C  9.52300 48.38700 24.35900
C  8.79000 48.59800 22.98100
C  7.29100 48.33800 23.29600
C  7.33800 48.06800 24.80000
C  9.14700 50.11400 22.49800
C  6.72400 47.18200 22.45600
C  6.66600 47.52600 20.95600
N  7.27400 47.51200 27.83200
C  6.18300 47.62500 26.99700
C  4.97300 47.37900 27.84000
C  5.48200 47.28700 29.13100
C  6.85300 47.38500 29.06800
C  3.51700 47.46400 27.47600
C  5.10500 47.09300 30.48200
O  3.95000 46.89700 30.90700
C  6.42100 47.19800 31.37700
C  6.48700 45.87200 32.11100
O  7.02500 44.86800 31.70300
O  5.66400 46.00500 33.24400
C  5.66500 44.85900 34.19800
H  13.10100 48.54900 29.74000
H  11.48200 48.60900 23.64400
H  5.19200 48.02800 25.13600
H  9.03000 48.90600 32.18500
H  11.56900 47.13000 31.73100
H  12.75200 49.32300 32.46300
H  11.09700 49.43100 33.17700
H  11.53500 50.14100 31.56500
H  9.03700 46.04200 32.39700
H  8.33900 47.23300 33.47500
H  10.70200 47.45900 34.40900
H  11.14100 45.96300 33.56800
H  15.45900 48.24200 27.49300
H  14.93300 49.04600 28.94500
H  15.22400 50.10400 27.68200
H  15.83500 49.88400 25.57200
H  16.09000 49.19900 23.92200
H  15.86300 48.05900 25.22100
H  9.31900 47.94600 22.28600
H  6.82500 49.31500 23.16900
H  9.88800 50.13700 21.69900
H  9.50800 50.70600 23.33900
H  8.23600 50.57800 22.12000
H  5.67500 47.04300 22.71800
H  7.12100 46.21900 22.77900
H  6.84400 46.64300 20.34200
H  7.35500 48.34500 20.74800
H  5.68200 47.81700 20.58700
H  3.11400 48.46100 27.65200
H  2.93400 46.76900 28.08100
H  3.40700 47.27900 26.40800
H  6.36700 48.02500 32.08500
H  5.62300 45.14400 35.24900
H  6.44800 44.10100 34.15800
H  4.64200 44.51100 34.05100

