158

Mg 8.95000 2.92200 27.57500
C  10.59400 1.47700 30.29400
C  7.61400 5.14900 29.68400
C  7.41900 4.21000 24.91300
C  10.29800 0.47800 25.54500
N  8.92000 3.14400 29.79900
C  9.73600 2.54900 30.70800
C  9.52800 3.15000 32.14700
C  8.53600 4.30900 31.89500
C  8.25000 4.14300 30.41800
C  7.26800 4.39600 32.76700
C  10.78100 3.72000 32.82600
C  10.53400 4.52600 34.09400
H  11.40100 4.22900 35.31900
N  7.77400 4.45900 27.28400
C  7.41200 5.32800 28.31100
C  6.58200 6.35600 27.75600
C  6.52400 6.17400 26.35900
C  7.17000 4.89200 26.10500
C  6.05900 7.55300 28.61100
C  5.90100 7.04600 25.28300
O  6.05100 6.81500 24.13200
C  5.14300 8.24200 25.72100
N  8.86200 2.49000 25.50600
C  8.05700 3.07700 24.58000
C  8.25100 2.51000 23.22400
C  9.33200 1.42000 23.40900
C  9.62100 1.50900 24.93000
C  6.99100 2.09000 22.56400
C  10.61500 1.45400 22.44400
C  10.75000 0.40500 21.32900
N  10.20500 1.29900 27.83100
C  10.61100 0.40700 26.90400
C  11.38500 -0.59200 27.47300
C  11.47200 -0.21300 28.83100
C  10.72800 0.95500 28.96300
C  12.03000 -1.74600 26.81800
C  11.94800 -0.53100 30.16100
O  12.57900 -1.42700 30.71200
C  11.36700 0.58100 31.11400
C  10.45100 -0.07600 32.14000
O  9.44700 -0.71800 31.93400
O  10.90000 0.31300 33.36400
C  10.20300 -0.27400 34.49500
H  7.14100 5.91000 30.30700
H  6.98700 4.71000 24.04400
H  10.48400 -0.42700 24.96200
H  9.16200 2.37800 32.82400
H  9.03200 5.27900 31.87000
H  6.33100 4.34100 32.21200
H  7.25800 5.37800 33.23900
H  7.23500 3.68100 33.58800
H  11.31800 4.28800 32.06700
H  11.53500 2.97800 33.08800
H  9.47600 4.39700 34.32100
H  10.50600 5.60300 33.92700
H  6.50200 8.52800 28.40700
H  5.86700 7.30100 29.65300
H  5.01100 7.70900 28.35600
H  5.90100 8.74400 26.32200
H  4.25800 7.96800 26.29500
H  4.66500 8.74300 24.88000
H  8.64800 3.34900 22.65300
H  8.84800 0.45200 23.27700
H  7.01200 1.08200 22.15100
H  6.78400 2.77100 21.73800
H  6.18000 2.20100 23.28400
H  11.49800 1.36100 23.07600
H  10.80500 2.43500 22.00900
H  9.79000 -0.05900 21.10800
H  11.42600 -0.38700 21.65300
H  11.19300 0.68500 20.37300
H  12.85900 -1.33500 26.24200
H  11.45200 -2.34000 26.11000
H  12.32600 -2.30800 27.70400
H  12.15000 1.14200 31.62600
H  9.28700 -0.82500 34.27800
H  9.93100 0.40200 35.30600
H  10.85700 -0.99100 34.99300
Mg 40.72300 8.36900 29.49400
C  42.34500 9.74200 32.22800
C  38.59300 6.71300 31.67900
C  39.36900 6.90000 26.77900
C  43.24800 9.56300 27.50500
N  40.50100 8.31500 31.67600
C  41.30000 8.99600 32.62000
C  40.58300 8.99000 34.00400
C  39.49200 7.82700 33.77700
C  39.51900 7.60000 32.27100
C  39.63700 6.49800 34.50400
C  39.93900 10.28100 34.44900
C  39.47400 10.39600 35.96000
H  40.10300 11.59400 36.72800
N  39.29500 6.97000 29.28000
C  38.49200 6.43300 30.28100
C  37.52100 5.55000 29.69900
C  37.53600 5.76100 28.32300
C  38.75000 6.62700 28.05800
C  36.78000 4.53600 30.51200
C  36.66500 5.03900 27.35400
O  37.03900 4.92300 26.22200
C  35.40000 4.40500 27.66100
N  41.18900 8.24400 27.35100
C  40.47300 7.65000 26.44000
C  41.01700 7.87700 24.99100
C  42.30200 8.68700 25.28100
C  42.27900 8.84800 26.81200
C  41.27600 6.51400 24.44600
C  42.36100 10.07400 24.59800
C  41.44900 10.32300 23.38900
N  42.49600 9.44300 29.75600
C  43.46800 9.75500 28.87500
C  44.46500 10.59800 29.55500
C  44.06500 10.69200 30.85300
C  42.89700 9.88200 30.93200
C  45.67500 11.18600 28.89800
C  44.38800 11.21700 32.17600
O  45.32000 11.90900 32.53400
C  43.21200 10.72800 33.10200
C  43.85500 10.10300 34.25000
O  44.86300 9.42700 34.34000
O  43.03100 10.38800 35.37700
C  43.37200 9.62700 36.63000
H  37.86400 6.19900 32.30900
H  38.78700 6.56800 25.91700
H  44.07200 9.89300 26.86700
H  41.23300 8.78500 34.85400
H  38.50900 8.15000 34.12000
H  39.09000 6.61200 35.43900
H  40.67300 6.42700 34.83600
H  39.42100 5.60800 33.91200
H  39.06400 10.56500 33.86500
H  40.75400 11.00400 34.42200
H  39.72300 9.42300 36.38400
H  38.39900 10.50000 35.81700
H  35.74000 4.80700 30.69200
H  37.16100 4.33800 31.51400
H  36.91800 3.60000 29.97200
H  35.61400 3.43600 28.11100
H  34.84700 4.28100 26.73100
H  34.85500 5.05000 28.35000
H  40.23500 8.42000 24.45900
H  43.25500 8.21100 25.05100
H  42.18900 6.49100 23.85200
H  40.48800 6.22200 23.75100
H  41.45700 5.78400 25.23400
H  43.37400 10.41600 24.38500
H  42.01800 10.83100 25.30400
H  41.29000 9.43800 22.77200
H  41.90400 11.04600 22.71200
H  40.50300 10.76400 23.70400
H  45.72600 12.16300 29.37900
H  45.59600 11.27900 27.81500
H  46.48300 10.60100 29.33800
H  42.56800 11.55700 33.39600
H  43.06600 8.58800 36.51000
H  42.80700 10.05000 37.46100
H  44.44700 9.72100 36.78200

