158

Mg 47.29400 16.23700 28.68800
C  45.03600 16.21400 31.27600
C  49.29900 18.30300 30.51400
C  49.13700 16.56500 25.91600
C  44.69600 14.83100 26.65000
N  47.16100 17.07600 30.66000
C  46.27100 16.73800 31.63200
C  46.69200 17.19900 33.02700
C  47.84500 18.23800 32.70400
C  48.09300 17.87300 31.17700
C  47.46200 19.77600 32.98400
C  47.06600 15.93800 33.89500
C  46.44700 15.97100 35.28200
H  46.35100 17.32100 36.10700
N  49.07800 17.20100 28.30400
C  49.75300 17.99000 29.17600
C  51.04700 18.36300 28.57400
C  51.03400 17.91700 27.20700
C  49.69600 17.21200 27.06400
C  52.07300 19.07000 29.44000
C  52.07300 18.09400 26.11300
O  51.90500 17.58800 25.01400
C  53.41800 18.85700 26.31200
N  46.99000 15.75900 26.59900
C  47.92700 15.89100 25.67200
C  47.57600 15.37100 24.27200
C  46.19700 14.65400 24.66100
C  45.88800 15.15500 26.09200
C  47.54800 16.60200 23.27600
C  46.48700 13.13100 24.62100
C  46.62700 12.42500 23.24200
N  45.28800 15.62100 28.78500
C  44.39100 14.98100 27.94800
C  43.16700 14.62500 28.72000
C  43.37100 15.17700 29.98700
C  44.65100 15.76700 29.98100
C  42.05000 13.83800 28.08100
C  42.74500 15.33700 31.28000
O  41.68100 14.92200 31.64100
C  43.84900 15.87400 32.18900
C  43.28300 16.86600 33.08000
O  42.78300 17.88100 32.69600
O  43.32300 16.37500 34.36000
C  42.40300 17.08500 35.23900
H  50.01500 18.82400 31.15400
H  49.75900 16.63900 25.02200
H  43.94200 14.29700 26.06900
H  45.82500 17.69100 33.46800
H  48.76700 18.06600 33.25900
H  46.42700 19.83700 33.32200
H  47.64500 20.21900 32.00400
H  48.23500 20.21600 33.61300
H  48.13400 15.83000 34.08000
H  46.74600 15.03200 33.37900
H  47.12800 15.33100 35.84300
H  45.44300 15.55200 35.21400
H  51.67400 19.98900 29.86800
H  52.97800 19.46100 28.97500
H  52.39800 18.47500 30.29300
H  54.04000 18.41200 27.08900
H  53.17600 19.79000 26.82000
H  53.97900 19.15300 25.42500
H  48.35700 14.64700 24.03800
H  45.44200 14.95200 23.93400
H  47.83500 17.54300 23.74400
H  46.53500 16.79600 22.92400
H  48.25700 16.41400 22.46900
H  45.56000 12.72700 25.02900
H  47.32900 12.93700 25.28500
H  47.68400 12.17600 23.14900
H  46.25400 13.03300 22.41800
H  46.09200 11.48700 23.09700
H  42.40100 12.84300 27.80800
H  41.72400 14.25500 27.12800
H  41.21700 13.83100 28.78300
H  44.23000 14.98500 32.69200
H  41.34900 16.97400 34.98400
H  42.68600 18.13700 35.22800
H  42.45500 16.67400 36.24800
Mg -5.84800 25.32900 26.44300
C  -4.80200 26.72500 29.66300
C  -7.68200 22.97500 28.27600
C  -6.52400 23.98500 23.57100
C  -3.52400 27.54600 25.10300
N  -6.18800 24.96200 28.66500
C  -5.72200 25.67200 29.80200
C  -6.29800 25.10000 31.04900
C  -6.92400 23.70500 30.54400
C  -6.93100 23.91400 29.07100
C  -6.09800 22.43500 30.99300
C  -7.03900 26.02100 31.96200
C  -6.91500 25.88800 33.54800
H  -6.19900 24.60100 34.05500
N  -6.88500 23.75400 26.00000
C  -7.70300 22.95000 26.87100
C  -8.46400 22.05600 26.07000
C  -8.22100 22.34600 24.74700
C  -7.17900 23.39800 24.68600
C  -9.30700 20.94700 26.71000
C  -8.79800 21.73200 23.49000
O  -8.43800 22.07300 22.38400
C  -9.87200 20.72900 23.59800
N  -5.10600 25.70400 24.66900
C  -5.60900 25.06600 23.58800
C  -5.00000 25.61600 22.24200
C  -4.04900 26.73700 22.83100
C  -4.16200 26.62300 24.31600
C  -4.21800 24.63400 21.34000
C  -4.17200 28.19300 22.20200
C  -3.24100 28.45600 20.99100
N  -4.49600 26.93200 27.18100
C  -3.65700 27.71200 26.46200
C  -2.92000 28.69200 27.32600
C  -3.39000 28.30900 28.58900
C  -4.29000 27.26400 28.49000
C  -2.04400 29.78600 26.88400
C  -3.31900 28.72200 29.99200
O  -2.83100 29.67200 30.55800
C  -4.24800 27.70000 30.70600
C  -3.48700 26.89000 31.64000
O  -2.81300 25.92700 31.35800
O  -3.58300 27.44600 32.93500
C  -2.75500 26.94400 33.95400
H  -8.24800 22.31700 28.93900
H  -6.75000 23.53300 22.60300
H  -2.77300 28.17500 24.62100
H  -5.34700 24.85400 31.52200
H  -7.90800 23.56000 30.98900
H  -5.19800 22.71900 31.53800
H  -5.67400 21.95000 30.11400
H  -6.83800 21.85700 31.54500
H  -8.11500 25.86300 31.88300
H  -6.87900 27.03800 31.60300
H  -7.93100 26.05000 33.90800
H  -6.40900 26.77400 33.93100
H  -10.34500 20.89900 26.37800
H  -9.44700 21.16000 27.76900
H  -8.80400 20.00000 26.51300
H  -9.36000 19.79900 23.84300
H  -10.34300 20.55800 22.63000
H  -10.65500 21.12300 24.24600
H  -5.73400 26.11500 21.60900
H  -3.06200 26.34300 22.59200
H  -3.78300 23.79100 21.87700
H  -3.41000 25.19100 20.86600
H  -4.84400 24.26500 20.52700
H  -3.97300 28.95100 22.96100
H  -5.22200 28.36400 21.96700
H  -2.41000 29.12200 21.22600
H  -3.65600 28.89800 20.08500
H  -2.81500 27.47600 20.77500
H  -1.08500 29.53800 26.42700
H  -1.87000 30.37200 27.78600
H  -2.56200 30.45400 26.19600
H  -5.08800 28.10100 31.27300
H  -3.33000 26.25300 34.57100
H  -2.45300 27.75300 34.61900
H  -1.89000 26.40900 33.56300

