158

Mg 49.20500 35.39400 27.23200
C  46.98400 34.01100 29.68200
C  49.59300 38.09800 29.35200
C  51.32400 36.51000 25.06800
C  48.06900 32.90000 25.06700
N  48.48500 35.95000 29.31200
C  47.60600 35.18500 30.11400
C  47.60900 35.78800 31.57400
C  48.09900 37.25500 31.27300
C  48.70300 37.13100 29.84400
C  47.03300 38.38800 31.33700
C  48.56600 34.98200 32.47300
C  49.71300 35.70600 33.20100
H  49.23400 36.76100 34.31900
N  50.37700 37.07000 27.20200
C  50.46300 38.08000 28.13900
C  51.42800 39.04800 27.76000
C  51.97300 38.57000 26.49700
C  51.18400 37.35500 26.15600
C  51.68300 40.40500 28.56500
C  53.05500 39.35900 25.61900
O  53.21700 39.04200 24.42500
C  53.82700 40.56400 26.16200
N  49.42900 34.95500 25.19200
C  50.47300 35.52400 24.58700
C  50.83000 34.77700 23.24400
C  49.67000 33.75300 23.14100
C  49.00400 33.84500 24.52600
C  50.86600 35.60300 21.94100
C  50.00500 32.38900 22.61400
C  49.10100 31.68900 21.53400
N  47.87100 33.80000 27.32100
C  47.53200 32.83400 26.40300
C  46.56800 31.92900 26.89000
C  46.29700 32.36600 28.15700
C  47.09300 33.50700 28.39500
C  46.11700 30.69900 26.18400
C  45.59100 32.03100 29.38800
O  44.76700 31.13300 29.50800
C  45.98100 33.02300 30.40900
C  46.48400 32.42400 31.66800
O  47.43800 31.63600 31.83100
O  45.58800 32.70300 32.70500
C  45.87300 32.23800 34.09500
H  49.71500 38.90300 30.07900
H  52.09500 36.67600 24.31300
H  47.83900 32.06600 24.40100
H  46.54300 35.71700 31.79000
H  48.87200 37.62900 31.94400
H  47.42500 39.18300 31.97000
H  46.10700 37.91500 31.66300
H  46.93000 38.83500 30.34800
H  48.81500 34.05000 31.96600
H  47.86700 34.79400 33.28800
H  50.31200 36.15500 32.40900
H  50.33800 34.92700 33.63900
H  52.66400 40.28700 29.02500
H  51.00200 40.44900 29.41500
H  51.57300 41.16800 27.79500
H  53.27600 41.45400 26.46600
H  54.79200 40.65100 25.66100
H  54.12200 40.13400 27.12000
H  51.74500 34.22600 23.46000
H  48.88700 34.24500 22.56300
H  50.23500 36.47800 22.10000
H  50.44200 35.10000 21.07100
H  51.91100 35.90400 21.87900
H  50.16100 31.84400 23.54600
H  50.95500 32.49500 22.09000
H  48.39700 32.49300 21.32100
H  48.65600 30.76600 21.90700
H  49.53700 31.40200 20.57600
H  45.51600 31.05000 25.34500
H  45.51900 30.02900 26.80200
H  46.93800 30.04100 25.90100
H  44.99100 33.45000 30.56400
H  44.95200 32.05300 34.64700
H  46.36300 33.09200 34.56300
H  46.47700 31.33300 34.16100
Mg 10.19600 46.53500 26.33200
C  8.39900 46.97600 29.24000
C  12.73100 48.32900 27.87100
C  12.03400 46.36100 23.49500
C  7.36000 45.77100 24.51600
N  10.52500 47.41200 28.33300
C  9.74700 47.22800 29.43800
C  10.46800 47.50300 30.71300
C  11.73200 48.33100 30.22000
C  11.70100 47.97600 28.72700
C  11.74000 49.87100 30.45200
C  10.78600 46.39100 31.66100
C  10.03400 46.41500 32.98400
H  9.98700 45.20600 33.91300
N  12.20900 47.15500 25.72800
C  13.05300 47.93000 26.50400
C  14.26500 48.23100 25.79200
C  14.09400 47.59600 24.46200
C  12.76100 47.05400 24.51200
C  15.48900 48.82000 26.47600
C  15.05500 47.47800 23.30000
O  14.72000 47.00300 22.24400
C  16.43500 48.25800 23.35100
N  9.78900 46.10200 24.28500
C  10.77100 45.92600 23.31800
C  10.21900 45.29800 22.07200
C  8.76000 44.89600 22.50500
C  8.63400 45.58300 23.86800
C  10.31600 46.06200 20.68600
C  8.60800 43.34200 22.56200
C  8.62000 42.49400 23.82600
N  8.27700 46.45900 26.70600
C  7.20300 46.16400 25.87500
C  5.98100 46.29800 26.74600
C  6.47200 46.47200 28.01300
C  7.82500 46.63400 27.93400
C  4.57700 46.12600 26.21300
C  6.00500 46.57100 29.39300
O  4.91800 46.43600 29.91700
C  7.27000 46.69000 30.21500
C  7.39800 45.38600 30.84300
O  7.95100 44.41800 30.35500
O  6.70100 45.39100 32.00200
C  6.96500 44.28700 32.97700
H  13.45300 49.05300 28.25300
H  12.63600 46.17600 22.60300
H  6.46200 45.45500 23.98100
H  9.78700 48.17900 31.22900
H  12.60000 47.95600 30.76100
H  12.48400 50.00700 31.23700
H  10.80800 50.08900 30.97300
H  11.81700 50.42900 29.51900
H  11.84400 46.36900 31.92100
H  10.52200 45.39100 31.31700
H  9.07000 46.87500 32.76900
H  10.61300 47.20000 33.47000
H  15.67900 49.79100 26.02000
H  16.30700 48.11900 26.30800
H  15.31700 48.79400 27.55200
H  16.97000 47.99300 24.26300
H  16.00900 49.23300 23.11500
H  17.02800 47.92500 22.49900
H  10.81300 44.40900 21.86200
H  7.93700 45.36400 21.96600
H  9.35900 46.04200 20.16500
H  11.02300 45.59700 19.99800
H  10.58000 47.11800 20.74300
H  9.37400 42.83200 21.97800
H  7.72200 43.11400 21.97000
H  9.00900 43.08200 24.65700
H  9.20200 41.58400 23.67800
H  7.58000 42.35100 24.12200
H  4.06400 47.07300 26.37800
H  4.08100 45.29100 26.70800
H  4.76000 45.87000 25.16900
H  7.24900 47.48000 30.96500
H  7.06800 44.84400 33.90900
H  7.70800 43.53700 32.70700
H  6.04000 43.71100 33.02000

