158

Mg 47.97800 24.58800 28.17300
C  48.71100 26.97600 30.60300
C  46.65700 22.42900 30.43100
C  47.68300 22.26200 25.67000
C  49.81600 26.57800 25.91200
N  47.74800 24.77000 30.27700
C  48.11600 25.76200 31.10400
C  47.80800 25.35100 32.55500
C  47.33900 23.88600 32.47400
C  47.17500 23.65500 30.96500
C  48.12500 22.72400 33.18500
C  46.78600 26.35300 33.27500
C  47.23800 26.81200 34.72400
H  47.00800 25.90700 35.89400
N  47.21200 22.58800 28.08500
C  46.62400 21.93000 29.13800
C  45.94900 20.69600 28.60700
C  46.26400 20.60700 27.18800
C  47.04800 21.84700 26.91000
C  45.25500 19.75700 29.47900
C  45.82600 19.58800 26.10700
O  46.03800 19.78400 24.88100
C  45.03100 18.38600 26.54800
N  48.70000 24.39100 26.14700
C  48.43900 23.37000 25.26500
C  49.09600 23.61800 23.87500
C  49.70700 25.01700 24.03200
C  49.35800 25.41900 25.47700
C  50.15800 22.54900 23.52500
C  49.06100 26.02700 22.98200
C  47.54500 26.30400 22.98500
N  49.01600 26.44900 28.13700
C  49.76400 27.06000 27.16900
C  50.40000 28.28100 27.71200
C  49.88000 28.35400 29.05500
C  49.12700 27.17000 29.26500
C  51.22300 29.29800 26.94900
C  49.82400 29.14000 30.24100
O  50.20100 30.24100 30.38900
C  49.16200 28.23600 31.30200
C  50.21800 27.95700 32.33300
O  51.26900 27.26900 32.17900
O  49.98100 28.74200 33.39600
C  50.87000 28.96700 34.54500
H  46.28600 21.75900 31.20900
H  47.57200 21.57100 24.83100
H  50.39500 27.16200 25.19300
H  48.73700 25.33000 33.12600
H  46.32500 23.76900 32.85700
H  48.83100 22.22300 32.52300
H  47.41800 21.99200 33.57500
H  48.66300 23.13600 34.03900
H  45.85800 25.80200 33.42500
H  46.55400 27.20300 32.63300
H  46.74300 27.71500 35.07900
H  48.27900 27.13400 34.74100
H  44.16900 19.74100 29.38100
H  45.42000 20.01100 30.52600
H  45.66100 18.78700 29.19200
H  44.08600 18.82800 26.86700
H  45.53900 17.81500 27.32500
H  44.85500 17.73300 25.69400
H  48.33900 23.62000 23.09000
H  50.78700 24.87600 24.06900
H  50.61000 22.18300 24.44700
H  50.83900 23.18400 22.95700
H  49.62300 21.80100 22.93900
H  49.31100 25.46500 22.08200
H  49.68500 26.91400 22.88000
H  47.06600 26.18900 22.01300
H  47.42800 27.33400 23.32100
H  46.97400 25.59100 23.57900
H  50.88800 29.37200 25.91400
H  52.21100 28.83700 26.94100
H  51.31500 30.21900 27.52400
H  48.37700 28.82300 31.77900
H  51.79600 28.41800 34.37300
H  50.47400 28.52500 35.45900
H  51.13300 30.01100 34.71600
Mg 42.59300 40.64600 25.67500
C  41.69500 42.81800 28.18400
C  43.53000 38.37300 28.09200
C  43.80700 38.62100 23.18600
C  42.05600 43.09900 23.32400
N  42.54800 40.68700 27.84600
C  41.98700 41.57800 28.67300
C  41.94600 41.11300 30.21000
C  42.78500 39.78200 30.11800
C  42.94900 39.55500 28.57600
C  44.02200 39.74700 30.93000
C  40.59000 41.11900 30.92500
C  40.43900 40.65300 32.39400
H  39.70900 41.52200 33.46200
N  43.46900 38.75200 25.62600
C  43.75400 37.98300 26.75200
C  44.28400 36.72800 26.27700
C  44.29900 36.67200 24.81400
C  43.85300 38.06500 24.47900
C  44.59400 35.55700 27.21700
C  44.71400 35.60500 23.86100
O  44.83700 35.82300 22.63900
C  45.07000 34.18200 24.36900
N  42.83000 40.82400 23.46600
C  43.27300 39.79900 22.68500
C  43.31800 40.18500 21.20600
C  42.69000 41.62800 21.31100
C  42.51500 41.91200 22.77700
C  44.76600 40.14100 20.50400
C  41.35800 41.89100 20.54100
C  40.18500 40.99600 21.01300
N  42.00200 42.55800 25.67600
C  41.88300 43.48800 24.69000
C  41.62300 44.73800 25.27600
C  41.46600 44.51900 26.63300
C  41.75500 43.19300 26.86200
C  41.46500 46.00900 24.53400
C  41.13100 45.12500 27.88600
O  40.73200 46.23100 28.23000
C  41.17600 44.00700 28.95300
C  42.05900 44.50500 30.01600
O  43.28900 44.51100 29.97100
O  41.28900 44.79300 31.09300
C  41.95600 45.42600 32.23000
H  43.87400 37.65200 28.83700
H  44.29000 38.11700 22.34700
H  41.89900 43.95000 22.65700
H  42.55600 41.86400 30.71300
H  42.15300 38.95800 30.44800
H  44.10300 38.73700 31.33100
H  44.05800 40.56900 31.64600
H  44.81300 39.91700 30.19900
H  39.95500 40.64900 30.17400
H  40.35300 42.18100 30.86000
H  41.46800 40.39100 32.64200
H  39.85100 39.73600 32.35100
H  43.81200 34.82700 27.00700
H  44.61800 35.80200 28.27900
H  45.57700 35.14700 26.98500
H  45.22700 33.57000 23.48100
H  44.21700 33.66300 24.80600
H  45.91200 34.14100 25.05900
H  42.63900 39.47000 20.74100
H  43.34400 42.39000 20.88500
H  45.20700 41.09900 20.23000
H  44.61100 39.84200 19.46700
H  45.37400 39.37100 20.97700
H  41.56800 41.62000 19.50600
H  41.04000 42.93400 20.54200
H  40.03600 40.17800 20.30800
H  39.31400 41.59700 21.27600
H  40.48300 40.44800 21.90700
H  40.53700 45.87800 23.97900
H  42.33200 46.43400 24.02800
H  41.09300 46.66400 25.32200
H  40.16000 43.80100 29.28900
H  42.13400 44.63800 32.96200
H  41.40600 46.28500 32.61500
H  42.94400 45.86400 32.09100

