158

Mg 24.06700 -7.16600 45.85200
C  26.35700 -4.87700 44.52600
C  21.81600 -5.99600 43.57700
C  22.32300 -9.81000 46.54900
C  26.86000 -8.65500 47.65400
N  24.19000 -5.78700 44.04300
C  25.23600 -4.94000 43.76000
C  24.98200 -4.15200 42.48500
C  23.41000 -4.24800 42.35300
C  23.09900 -5.42400 43.34100
C  22.58900 -2.93500 42.70300
C  25.79400 -4.77400 41.24200
C  26.44800 -3.62300 40.27900
H  25.85300 -3.36900 38.93800
N  22.23300 -7.76300 45.22000
C  21.43300 -7.13100 44.33200
C  20.15000 -7.77800 44.19200
C  20.21300 -8.92600 45.10100
C  21.60600 -8.93600 45.65300
C  18.95500 -7.43000 43.29000
C  19.09000 -9.86400 45.45100
O  17.97700 -9.72600 44.99000
C  19.24800 -10.93200 46.49500
N  24.61900 -9.06200 46.76600
C  23.60600 -9.87400 47.09900
C  24.03400 -10.99500 48.06300
C  25.44000 -10.57600 48.46400
C  25.65400 -9.34600 47.57500
C  23.02700 -11.30900 49.22300
C  26.48500 -11.68900 48.51500
C  27.63700 -11.64300 49.53100
N  26.16400 -6.76700 46.27600
C  27.19700 -7.48400 46.93300
C  28.40000 -6.64300 47.00400
C  28.11400 -5.68800 45.99300
C  26.74700 -5.75000 45.61100
C  29.65700 -7.01000 47.86500
C  28.74100 -4.58300 45.25000
O  29.83900 -4.03600 45.36900
C  27.62200 -4.05100 44.31200
C  27.35200 -2.60800 44.59600
O  27.24700 -1.99400 45.65300
O  27.31900 -1.90800 43.43100
C  27.04900 -0.47300 43.40700
H  21.04100 -5.65000 42.89000
H  21.73900 -10.70300 46.78000
H  27.65900 -9.07100 48.27100
H  25.21500 -3.09200 42.58900
H  23.19500 -4.57700 41.33600
H  23.26100 -2.09600 42.88500
H  21.98900 -3.02600 43.60800
H  21.95400 -2.66100 41.86100
H  25.09200 -5.34200 40.63100
H  26.57700 -5.43000 41.62000
H  27.51300 -3.84200 40.20200
H  26.33000 -2.65900 40.77400
H  18.64800 -8.35500 42.80300
H  19.27900 -6.73700 42.51400
H  18.05500 -6.98600 43.71500
H  19.46100 -10.40100 47.42200
H  20.03000 -11.64100 46.22300
H  18.37700 -11.57800 46.60900
H  24.06900 -11.90900 47.47000
H  25.37900 -10.23000 49.49600
H  22.46300 -12.19700 48.93800
H  22.26900 -10.54400 49.39300
H  23.42200 -11.62600 50.18800
H  26.86300 -11.91100 47.51700
H  26.03400 -12.63300 48.82000
H  27.75800 -12.56400 50.10000
H  27.41100 -10.83800 50.23000
H  28.50500 -11.64300 48.87200
H  29.41600 -7.19300 48.91200
H  30.30900 -6.14500 47.97500
H  30.16700 -7.90800 47.51700
H  27.87600 -3.99600 43.25300
H  26.27300 -0.22200 44.13000
H  26.75200 -0.22400 42.38800
H  27.96600 0.05500 43.66800
Mg -0.02200 43.49200 26.43200
C  2.61700 43.10100 28.91100
C  -2.07000 42.08400 28.92200
C  -2.49700 43.62400 24.29100
C  2.41300 44.16600 24.24000
N  0.27200 42.76900 28.69800
C  1.37500 42.77800 29.47800
C  1.09700 42.59400 30.93900
C  -0.32300 41.96800 30.86500
C  -0.75500 42.27900 29.44400
C  -0.53500 40.44400 31.17800
C  1.14100 44.00000 31.66700
C  1.73800 44.01700 33.16500
H  1.57400 42.75600 34.02000
N  -1.96500 42.91700 26.55400
C  -2.59800 42.43500 27.66200
C  -4.01100 42.16600 27.21500
C  -4.16700 42.51600 25.84900
C  -2.86100 43.03000 25.50500
C  -5.00500 41.54600 28.20600
C  -5.26700 42.38700 24.95800
O  -5.22700 42.78500 23.80200
C  -6.62800 41.93500 25.45500
N  -0.02800 43.62000 24.41000
C  -1.20000 43.84700 23.76000
C  -0.89900 44.26200 22.30600
C  0.57300 44.71500 22.41400
C  1.05600 44.13300 23.75200
C  -1.20000 43.14900 21.26900
C  0.74000 46.27300 22.24000
C  1.14400 46.67100 20.83000
N  2.04200 43.48600 26.48400
C  2.89500 43.80300 25.47000
C  4.23500 43.73700 25.96300
C  4.16100 43.59900 27.28500
C  2.81000 43.30900 27.54600
C  5.38800 44.09000 25.08700
C  4.93400 43.57700 28.49700
O  6.10000 43.65700 28.77800
C  3.90600 43.36000 29.54200
C  4.34900 42.09100 30.20900
O  4.38000 40.96300 29.74700
O  4.79300 42.39200 31.53000
C  5.09000 41.14600 32.24000
H  -2.76800 41.64200 29.63600
H  -3.27400 43.74300 23.53300
H  3.22100 44.37200 23.53400
H  1.78700 41.87300 31.37900
H  -0.99000 42.40100 31.61200
H  -1.05000 39.99300 30.33000
H  -1.15100 40.30700 32.06700
H  0.42000 39.93100 31.29500
H  0.15700 44.46800 31.64800
H  1.81000 44.66300 31.11900
H  1.26300 44.84800 33.68500
H  2.76800 44.37400 33.17000
H  -5.51000 42.37600 28.70000
H  -4.63200 40.87200 28.97700
H  -5.73600 40.90800 27.70900
H  -6.81900 42.44900 26.39700
H  -6.62100 40.84500 25.48700
H  -7.27300 42.38200 24.69900
H  -1.60800 45.06900 22.12000
H  1.16600 44.06400 21.77200
H  -2.26300 43.26200 21.05700
H  -0.97600 42.14300 21.62400
H  -0.63400 43.37800 20.36600
H  1.47200 46.66000 22.94800
H  -0.21800 46.75100 22.44400
H  2.15000 47.08600 20.88800
H  0.41500 47.43100 20.55000
H  1.16600 45.82500 20.14300
H  5.95600 44.89700 25.55000
H  4.99600 44.40300 24.11900
H  5.96000 43.16900 25.20100
H  3.94000 44.08600 30.35400
H  5.35300 41.43900 33.25600
H  5.96700 40.68200 31.78700
H  4.17600 40.55400 32.27200

