158

Mg 47.24000 25.24100 28.18500
C  48.11900 27.53800 30.64800
C  46.19300 23.05200 30.55900
C  46.41700 23.08200 25.74200
C  48.50000 27.39700 25.73300
N  47.24200 25.27400 30.37000
C  47.53300 26.34700 31.17400
C  47.39400 26.03400 32.69800
C  46.84600 24.55600 32.57600
C  46.81900 24.26100 31.06300
C  47.65000 23.58400 33.40300
C  46.54500 27.16700 33.41600
C  45.83700 26.62600 34.69500
H  45.42300 27.63300 35.84000
N  46.43800 23.34900 28.13000
C  46.08100 22.57900 29.21400
C  45.63700 21.26100 28.82300
C  45.55600 21.27900 27.42300
C  46.16000 22.57200 27.00900
C  45.34000 20.09300 29.74700
C  45.04400 20.19400 26.50000
O  45.05100 20.36700 25.28600
C  44.54400 18.90100 27.03000
N  47.36900 25.21600 25.97900
C  47.02700 24.27600 25.27000
C  47.22400 24.43700 23.75500
C  47.69700 25.94300 23.67100
C  47.89900 26.24300 25.22600
C  48.15600 23.39800 23.06100
C  46.80100 26.94400 22.95000
C  47.32100 27.37800 21.51800
N  48.17000 27.04700 28.16600
C  48.56400 27.85300 27.13200
C  49.08900 29.09900 27.62200
C  48.97300 29.07400 28.97900
C  48.36900 27.76600 29.28200
C  49.73100 30.20300 26.91300
C  49.19300 29.74000 30.23900
O  49.65300 30.85000 30.49200
C  48.53100 28.88200 31.30000
C  49.49600 28.71800 32.37400
O  50.31700 27.83300 32.62900
O  49.11800 29.60200 33.37900
C  49.74700 29.48500 34.66700
H  45.69400 22.50600 31.36200
H  46.20100 22.36400 24.94800
H  48.84000 28.09900 24.96900
H  48.44500 26.14100 32.96400
H  45.82500 24.47600 32.95000
H  47.84400 22.71300 32.77700
H  47.08500 23.20500 34.25500
H  48.63700 23.97900 33.64600
H  45.91700 27.73300 32.72800
H  47.21900 27.91200 33.83700
H  46.49800 25.85900 35.09800
H  44.90900 26.15300 34.37300
H  46.04900 19.31800 29.45300
H  44.30400 19.76200 29.81700
H  45.63900 20.37300 30.75700
H  45.44700 18.61600 27.57000
H  44.29600 18.27600 26.17300
H  43.74200 19.05200 27.75300
H  46.27500 24.47200 23.22000
H  48.72400 25.90100 23.30600
H  49.03400 23.89700 22.65100
H  47.63300 23.06100 22.16500
H  48.45500 22.54700 23.67300
H  46.79200 27.77800 23.65100
H  45.77700 26.56900 22.92900
H  46.36900 27.37300 20.98800
H  48.01100 26.61300 21.16100
H  47.75000 28.37800 21.57800
H  49.36300 31.09200 27.42500
H  49.54600 30.29600 25.84300
H  50.80700 30.06800 27.02200
H  47.60300 29.36400 31.60700
H  49.25800 28.78500 35.34400
H  49.90500 30.43600 35.17600
H  50.81100 29.28700 34.53600
Mg -5.34900 24.95300 26.12400
C  -3.98900 26.29300 29.12400
C  -6.93000 22.69100 28.06800
C  -6.48100 23.63700 23.34900
C  -3.02900 26.76400 24.34400
N  -5.53200 24.61200 28.40000
C  -4.91200 25.24000 29.38200
C  -5.41700 24.84400 30.73600
C  -6.18700 23.52200 30.42800
C  -6.26700 23.56300 28.88600
C  -5.62900 22.19700 31.06200
C  -6.25500 25.92700 31.47900
C  -5.86400 26.31500 32.86600
H  -5.01600 25.30100 33.76700
N  -6.64000 23.47100 25.74100
C  -7.24300 22.73700 26.70100
C  -8.37100 21.99000 26.12100
C  -8.18400 22.11700 24.72200
C  -7.04500 23.09500 24.53600
C  -9.35900 21.29300 27.03500
C  -8.95100 21.36600 23.63400
O  -8.84100 21.69700 22.45400
C  -9.63400 20.10900 23.99700
N  -4.74900 25.06500 24.06300
C  -5.36900 24.40700 23.08200
C  -4.84000 24.70700 21.63800
C  -3.62100 25.69000 22.04600
C  -3.86200 25.92600 23.56500
C  -4.37900 23.44200 20.91300
C  -3.72400 27.00600 21.14600
C  -2.54500 27.39800 20.13900
N  -3.85500 26.28200 26.63800
C  -2.95100 27.01500 25.75700
C  -2.13300 27.91100 26.53900
C  -2.50600 27.64200 27.87100
C  -3.49700 26.63500 27.90000
C  -1.09100 28.82700 26.02300
C  -2.23500 28.05500 29.26900
O  -1.48600 28.95400 29.74500
C  -3.11200 27.09500 30.17800
C  -2.05200 26.24700 30.81800
O  -1.57900 25.20500 30.43600
O  -1.67800 26.82900 31.95300
C  -0.47200 26.23900 32.61700
H  -7.34900 21.86800 28.65100
H  -6.97200 23.25500 22.45200
H  -2.27500 27.32600 23.78800
H  -4.54800 24.66200 31.36800
H  -7.18900 23.68700 30.82500
H  -5.26700 21.60000 30.22500
H  -6.31800 21.56900 31.62700
H  -4.79700 22.36400 31.74500
H  -7.20800 25.42000 31.62400
H  -6.36700 26.73100 30.75100
H  -6.78000 26.51200 33.42300
H  -5.25300 27.21600 32.81400
H  -9.55400 21.74300 28.00800
H  -9.22800 20.21400 26.95100
H  -10.27000 21.50200 26.47300
H  -10.64500 20.09400 24.40300
H  -8.90200 19.68200 24.68200
H  -9.72700 19.48500 23.10800
H  -5.59800 25.32300 21.15500
H  -2.68200 25.15900 21.88900
H  -3.32700 23.20600 21.07400
H  -4.55000 23.50800 19.83900
H  -4.90300 22.54900 21.25500
H  -3.79400 27.75500 21.93400
H  -4.65600 26.95300 20.58300
H  -2.87800 27.10700 19.14300
H  -1.64800 26.80500 20.32000
H  -2.34900 28.45700 20.31000
H  -1.50100 29.51400 25.28300
H  -0.39000 28.19200 25.48000
H  -0.74800 29.42600 26.86600
H  -3.71800 27.55300 30.96000
H  0.40700 26.73900 32.21100
H  -0.47900 25.15700 32.48000
H  -0.47700 26.40500 33.69400

