158

Mg 23.83100 -5.17900 46.20200
C  25.71500 -2.66300 44.47200
C  21.07000 -4.25600 44.42200
C  22.51900 -8.13600 46.92500
C  26.87800 -6.28600 47.44700
N  23.52400 -3.65100 44.60800
C  24.38300 -2.63000 44.11700
C  23.58300 -1.72900 43.20000
C  22.08100 -2.10900 43.59100
C  22.22200 -3.41100 44.26000
C  21.43700 -0.97500 44.49600
C  23.98100 -1.90800 41.69500
C  24.57300 -0.64000 40.99100
H  24.66300 -0.75600 39.44500
N  21.95500 -6.01900 45.79400
C  20.96000 -5.46100 45.06500
C  19.84600 -6.36500 44.99100
C  20.18200 -7.53200 45.74500
C  21.64600 -7.29500 46.17300
C  18.56600 -6.01800 44.24100
C  19.20900 -8.72300 45.95300
O  18.13800 -8.70700 45.44400
C  19.59700 -9.90400 46.80100
N  24.57900 -6.86800 47.20000
C  23.79500 -8.00100 47.36000
C  24.58500 -9.24200 47.92200
C  25.99900 -8.49400 48.28700
C  25.84600 -7.13900 47.57000
C  23.89600 -9.76900 49.21600
C  27.18900 -9.33400 47.78200
C  28.23500 -9.61300 48.82900
N  25.93200 -4.48900 46.26100
C  27.00100 -5.01300 46.86000
C  28.17400 -4.22100 46.57700
C  27.74600 -3.21900 45.73700
C  26.38800 -3.49800 45.43800
C  29.58700 -4.44900 47.13500
C  28.07000 -2.06900 44.95600
O  29.14400 -1.45000 44.93500
C  26.77300 -1.67800 44.21900
C  26.38700 -0.23000 44.57000
O  25.52400 0.02200 45.43400
O  27.23300 0.64500 43.94800
C  26.99900 2.04300 44.46000
H  20.25000 -3.84100 43.83300
H  22.03800 -9.06500 47.23700
H  27.86400 -6.48600 47.87200
H  23.79000 -0.68100 43.41700
H  21.45300 -2.12400 42.70000
H  21.99300 -0.03900 44.55100
H  21.32600 -1.39800 45.49400
H  20.51900 -0.66500 43.99600
H  23.13300 -2.29800 41.13100
H  24.84500 -2.56700 41.60300
H  25.55000 -0.27100 41.30300
H  23.88700 0.16500 41.25600
H  18.90600 -5.57000 43.30700
H  17.98400 -5.32900 44.85200
H  17.96300 -6.88600 43.97100
H  18.67800 -10.28800 47.24400
H  20.19100 -9.59100 47.66000
H  20.08900 -10.64200 46.16800
H  24.72300 -10.07400 47.23100
H  26.06400 -8.16100 49.32300
H  22.87900 -9.37900 49.26700
H  24.53400 -9.61500 50.08600
H  23.75400 -10.81300 48.93600
H  27.64400 -9.01000 46.84600
H  26.78800 -10.29200 47.45100
H  28.72100 -10.56100 48.59600
H  27.86000 -9.48800 49.84500
H  29.02400 -8.87400 48.69200
H  30.37100 -3.72300 46.91600
H  29.98100 -5.45000 46.96100
H  29.45500 -4.48700 48.21600
H  27.02200 -1.81700 43.16700
H  27.92000 2.50900 44.11100
H  26.99300 2.08500 45.54900
H  26.04900 2.38500 44.04900
Mg 39.49500 10.31900 29.70400
C  41.45500 11.75200 32.23900
C  37.37800 9.12600 32.04100
C  37.72600 8.81000 27.09900
C  42.19300 10.66700 27.58300
N  39.48500 10.34600 31.96600
C  40.33600 11.05600 32.74600
C  39.78400 11.08500 34.22900
C  38.64300 9.99500 34.15900
C  38.46400 9.77300 32.59500
C  38.85000 8.62300 34.85300
C  39.42400 12.52500 34.78600
C  40.14700 12.96200 36.05000
H  39.33300 13.57300 37.21600
N  37.73900 9.24800 29.57700
C  37.05300 8.75500 30.70700
C  35.77700 8.25600 30.23600
C  35.87200 8.11500 28.79500
C  37.19000 8.68800 28.44600
C  34.74800 7.87800 31.27100
C  34.84900 7.67300 27.78500
O  34.98700 7.61000 26.58000
C  33.58700 7.22500 28.35700
N  39.91000 9.77600 27.64100
C  38.95600 9.39000 26.71500
C  39.50600 9.44800 25.28800
C  40.98300 9.70600 25.57800
C  41.05300 10.11700 27.01500
C  39.27600 8.15600 24.43200
C  41.61200 10.71000 24.54400
C  41.36000 12.19700 24.73400
N  41.43600 11.05600 29.80500
C  42.41800 11.14800 28.87900
C  43.55100 11.81800 29.32100
C  43.25700 12.05200 30.66700
C  41.95300 11.52900 30.94400
C  44.69200 12.12100 28.56300
C  43.73400 12.61800 31.88300
O  44.79200 13.23200 31.98000
C  42.69000 12.35900 32.99700
C  43.20000 11.30400 33.93100
O  43.55900 10.17200 33.64300
O  43.29100 11.73000 35.25300
C  43.72100 10.76900 36.30200
H  36.67300 8.69100 32.75300
H  37.12800 8.39700 26.28400
H  43.03000 10.77500 26.88900
H  40.50300 10.74000 34.97200
H  37.68100 10.27700 34.58800
H  39.77100 8.62600 35.43700
H  38.92400 7.85000 34.08900
H  37.98800 8.30200 35.43700
H  38.35800 12.57600 35.00700
H  39.55900 13.23300 33.96800
H  41.01300 13.55800 35.76200
H  40.45500 12.01000 36.48200
H  34.91000 6.82600 31.50600
H  33.74900 8.04100 30.86600
H  34.75500 8.54200 32.13400
H  32.99400 7.91100 28.96100
H  33.78500 6.38200 29.01900
H  32.88600 6.82100 27.62600
H  39.11100 10.30000 24.73500
H  41.49900 8.74800 25.64900
H  39.15200 8.28800 23.35700
H  38.29300 7.77100 24.70200
H  39.90800 7.28400 24.60500
H  41.21000 10.37200 23.58900
H  42.68300 10.52300 24.46600
H  40.46100 12.46500 25.28900
H  41.26100 12.64400 23.74400
H  42.20600 12.65200 25.24800
H  45.47200 12.45700 29.24600
H  44.49700 12.99000 27.93400
H  44.93500 11.23900 27.97100
H  42.38400 13.24100 33.56100
H  44.73800 10.50200 36.01500
H  43.03200 9.92600 36.23700
H  43.73300 11.17700 37.31200

