158

Mg 0.20600 7.40700 24.71900
C  0.92300 9.29900 27.58800
C  0.70800 4.56800 26.60700
C  0.03600 5.61500 21.84100
C  0.46200 10.42300 22.77700
N  0.80600 7.02700 26.79100
C  0.78000 7.89900 27.83800
C  0.68300 7.20700 29.17900
C  0.91900 5.76400 28.79600
C  0.73100 5.74800 27.29600
C  2.41600 5.18000 29.17600
C  -0.66600 7.51400 29.90900
C  -0.65500 7.58100 31.47200
H  0.63500 7.25500 32.38100
N  0.46200 5.36200 24.32700
C  0.60400 4.32600 25.21700
C  0.53100 3.07900 24.52500
C  0.30100 3.37500 23.12500
C  0.32200 4.82000 23.04100
C  0.59800 1.75500 25.28100
C  0.17100 2.40000 21.98600
O  -0.09000 2.71900 20.84300
C  0.12200 0.94100 22.24200
N  0.22500 7.98300 22.57300
C  0.08100 6.97800 21.61200
C  0.25300 7.73100 20.27400
C  0.05600 9.22400 20.57000
C  0.21400 9.26600 22.06500
C  1.55600 7.28400 19.49200
C  -1.18700 10.04800 20.11200
C  -2.38700 10.38500 21.03600
N  0.67600 9.41600 25.07000
C  0.66500 10.51500 24.22600
C  0.97600 11.72300 24.99900
C  1.01800 11.23600 26.32500
C  0.83200 9.86300 26.33000
C  1.00600 13.16200 24.47200
C  1.28500 11.63600 27.65100
O  1.63500 12.76500 28.03900
C  1.03200 10.34200 28.60700
C  2.19900 10.33200 29.53900
O  3.25200 9.71400 29.39900
O  1.87200 11.16300 30.63600
C  3.00100 11.28800 31.58100
H  0.50500 3.67900 27.20900
H  0.08800 5.04500 20.91100
H  0.41100 11.40400 22.30100
H  1.48900 7.61700 29.78800
H  0.17400 5.09500 29.22600
H  2.98100 5.93900 29.71700
H  3.00300 4.86900 28.31200
H  2.19500 4.35900 29.85700
H  -1.37600 6.71800 29.68400
H  -1.04700 8.44400 29.48500
H  -1.37100 6.79800 31.72100
H  -1.23500 8.45200 31.77700
H  -0.44500 1.54400 25.51400
H  1.09900 1.96900 26.22600
H  1.25600 0.98300 24.88300
H  1.12500 0.71000 22.60100
H  0.04800 0.28500 21.37500
H  -0.75000 0.70800 22.85400
H  -0.58900 7.37700 19.68000
H  0.87600 9.82900 20.18400
H  1.27800 6.81000 18.55000
H  2.18800 6.59500 20.05200
H  2.22500 8.14400 19.52700
H  -1.54200 9.56600 19.20100
H  -0.73700 10.99700 19.81800
H  -2.50000 11.45100 20.84200
H  -2.10900 10.25000 22.08100
H  -3.18000 9.74400 20.65100
H  0.07500 13.38600 23.95100
H  1.87600 13.17600 23.81500
H  1.16600 13.93400 25.22400
H  0.11900 10.60100 29.14500
H  2.84000 10.41200 32.20900
H  2.89800 12.15600 32.23300
H  3.95900 11.17300 31.07400
Mg 36.05200 48.27300 25.08300
C  36.26600 46.49400 28.03500
C  34.93500 50.95900 26.81600
C  35.71300 49.86200 22.08000
C  37.47400 45.64000 23.39100
N  35.57900 48.60900 27.12600
C  35.79700 47.75700 28.14200
C  35.45500 48.47800 29.51800
C  34.94000 49.87700 29.06200
C  35.18000 49.84600 27.55300
C  33.37200 50.11800 29.39000
C  36.68700 48.62900 30.41100
C  36.60800 48.20500 31.91500
H  35.28200 48.05000 32.45100
N  35.33100 50.15900 24.51200
C  34.94200 51.16500 25.36300
C  34.76600 52.31200 24.61700
C  34.80400 52.03900 23.18700
C  35.25000 50.63200 23.22800
C  34.66500 53.60900 25.29000
C  34.63300 53.02900 21.98600
O  34.86900 52.75000 20.78800
C  33.97500 54.44300 22.37000
N  36.31500 47.70500 22.92200
C  36.18300 48.54100 21.95100
C  37.01000 48.13800 20.66300
C  37.58300 46.75900 21.09000
C  37.21400 46.76500 22.59000
C  36.04900 48.16300 19.35500
C  39.07400 46.60800 20.97700
C  39.62800 45.28000 20.32000
N  36.73700 46.45700 25.50400
C  37.17700 45.41500 24.70000
C  37.51000 44.24500 25.50400
C  37.12200 44.61500 26.83300
C  36.64300 45.95000 26.78200
C  38.12100 42.99600 25.00900
C  36.96500 44.09600 28.19600
O  37.23900 43.01500 28.61900
C  36.38400 45.33800 29.04700
C  35.18100 44.98900 29.83400
O  34.03100 44.97000 29.42700
O  35.62700 44.67400 31.07900
C  34.76700 43.81300 31.89500
H  34.53800 51.83000 27.34200
H  35.59500 50.29100 21.08200
H  37.88900 44.75800 22.89800
H  34.66000 47.94200 30.03600
H  35.45000 50.72000 29.52800
H  33.21900 51.04100 29.95000
H  32.90000 49.34200 29.99300
H  32.82300 50.21900 28.45400
H  37.13000 49.62100 30.49800
H  37.47900 47.96500 30.06200
H  37.19500 48.75300 32.65200
H  37.06800 47.22000 31.83700
H  35.23300 53.51000 26.21500
H  33.61300 53.88100 25.37600
H  35.24800 54.38400 24.79200
H  33.13600 54.31500 23.05300
H  33.59800 54.85100 21.43200
H  34.70000 55.16300 22.75000
H  37.82600 48.86000 20.67800
H  37.10200 45.97200 20.50900
H  35.02200 48.14200 19.71800
H  36.10400 47.24300 18.77400
H  36.42800 49.07400 18.89100
H  39.50200 46.82100 21.95700
H  39.42600 47.41200 20.33200
H  39.04500 44.43600 20.69000
H  40.64000 45.04400 20.65000
H  39.65200 45.25500 19.23100
H  37.31300 42.32200 24.72300
H  38.66400 42.46600 25.79200
H  38.72700 43.20900 24.12800
H  37.10900 45.58600 29.82200
H  35.34400 43.53700 32.77800
H  34.33500 42.97200 31.35300
H  33.96400 44.48800 32.19000

