158

Mg 44.09600 5.27200 47.05300
C  42.07500 8.17200 46.73900
C  41.33600 3.31400 46.45600
C  45.99400 2.57300 46.54000
C  46.83600 7.34400 46.95100
N  41.91600 5.73400 46.75600
C  41.34700 6.91400 46.51300
C  39.90900 6.74700 45.98500
C  39.62200 5.19300 46.34200
C  41.00900 4.67900 46.49900
C  38.60100 4.86900 47.56100
C  39.71200 7.04500 44.41200
C  39.08500 8.40300 44.00300
H  39.70500 9.19800 42.87300
N  43.69200 3.19300 46.60400
C  42.50000 2.57000 46.43700
C  42.63400 1.19800 46.16900
C  44.02200 0.91100 46.20000
C  44.67400 2.23100 46.45400
C  41.48300 0.29400 45.87000
C  44.65800 -0.53400 46.01300
O  43.93000 -1.53000 45.77400
C  46.10500 -0.71800 45.77400
N  46.09400 4.98200 46.95500
C  46.65800 3.79400 46.79000
C  48.17500 3.84200 46.71100
C  48.53100 5.34200 46.66000
C  47.09200 5.95400 46.92200
C  48.80400 2.96300 47.84200
C  49.03200 5.92100 45.28100
C  50.29400 5.31900 44.66100
N  44.45800 7.35000 46.99000
C  45.63800 8.01300 46.97500
C  45.36100 9.42400 46.95300
C  43.96200 9.54900 46.91000
C  43.45100 8.24400 46.92800
C  46.36400 10.57600 46.88800
C  42.84200 10.49000 46.84300
O  42.80700 11.71100 46.81000
C  41.58800 9.60900 46.66400
C  40.61500 9.94400 47.72800
O  40.65500 9.46600 48.86000
O  39.67000 10.86300 47.30700
C  38.58600 11.17500 48.13900
H  40.44400 2.69000 46.37500
H  46.68200 1.82200 46.14600
H  47.66400 8.05600 46.97600
H  39.24600 7.45200 46.48600
H  39.20100 4.74300 45.44300
H  38.16900 3.91800 47.25200
H  37.76800 5.51400 47.84200
H  39.21800 4.86700 48.46000
H  39.15500 6.18700 44.03600
H  40.67900 6.95500 43.91700
H  39.04900 8.99200 44.92000
H  38.01600 8.22400 43.89200
H  40.48300 0.70200 46.01900
H  41.63800 -0.56500 46.52200
H  41.73200 -0.13900 44.90100
H  46.38000 0.08100 45.08600
H  46.30000 -1.73500 45.43400
H  46.65600 -0.69700 46.71400
H  48.49600 3.36500 45.78600
H  49.11400 5.56200 47.55400
H  49.54300 3.53700 48.40200
H  49.23600 2.00100 47.56600
H  48.10200 2.78500 48.65600
H  49.37300 6.93700 45.48100
H  48.16700 5.86600 44.62000
H  50.28400 4.91700 43.64800
H  50.64600 4.57400 45.37500
H  51.16100 5.98000 44.66200
H  46.38800 11.05800 45.91000
H  47.33600 10.22800 47.23800
H  45.90700 11.24200 47.61900
H  41.20000 9.72000 45.65200
H  37.67100 10.91700 47.60600
H  38.46500 12.23400 48.36900
H  38.43100 10.47800 48.96200
Mg -10.60500 38.74000 42.16000
C  -8.66700 36.00500 41.34700
C  -8.28800 40.83600 40.42800
C  -12.84600 41.31000 42.33900
C  -13.15400 36.55000 43.21500
N  -8.72200 38.44600 40.99800
C  -8.14200 37.22600 40.81100
C  -6.81500 37.31500 40.03600
C  -6.54200 38.88800 40.09600
C  -7.96100 39.46200 40.54300
C  -5.44500 39.26800 41.18200
C  -6.93500 36.70900 38.55800
C  -5.86800 35.70900 38.15900
H  -4.85800 36.14700 37.07400
N  -10.47300 40.87200 41.56600
C  -9.41700 41.51800 40.96100
C  -9.74300 42.94100 40.99500
C  -11.11100 43.11400 41.46500
C  -11.52400 41.71400 41.83200
C  -8.77900 43.98500 40.58300
C  -11.88900 44.43200 41.58200
O  -11.20100 45.43400 41.42800
C  -13.32900 44.45500 41.93800
N  -12.75200 38.88700 42.45100
C  -13.36200 40.06400 42.61700
C  -14.75700 39.94500 43.23200
C  -14.91600 38.38500 43.23400
C  -13.49400 37.88900 42.99500
C  -14.84500 40.70200 44.56300
C  -15.83400 37.65000 42.15000
C  -17.14000 36.87300 42.65600
N  -10.88300 36.69500 42.28500
C  -11.93100 35.89100 42.80100
C  -11.56000 34.51100 42.94200
C  -10.21600 34.49100 42.41600
C  -9.88500 35.85200 42.05100
C  -12.31900 33.46600 43.64900
C  -9.08300 33.69900 42.15500
O  -8.85200 32.48600 42.30200
C  -7.99100 34.68400 41.42800
C  -6.74700 34.64600 42.21500
O  -6.03100 33.67100 42.18200
O  -6.39700 35.79100 42.91800
C  -5.20300 35.70500 43.82700
H  -7.46900 41.44400 40.03800
H  -13.67000 42.00100 42.53200
H  -13.91500 35.93500 43.70000
H  -6.02400 36.72600 40.50000
H  -6.38500 39.33500 39.11500
H  -5.86600 39.51400 42.15700
H  -4.88000 40.11200 40.78600
H  -4.82500 38.39100 41.36900
H  -6.89600 37.58100 37.90600
H  -7.90100 36.24900 38.35200
H  -6.41600 34.83700 37.80200
H  -5.30400 35.52500 39.07300
H  -9.06100 44.46500 39.64500
H  -7.76800 43.59000 40.48400
H  -8.66900 44.80300 41.29400
H  -13.48800 44.18000 42.98100
H  -13.72600 43.62000 41.36100
H  -13.89200 45.33700 41.63400
H  -15.46500 40.35100 42.51000
H  -15.27700 37.98400 44.18100
H  -15.10600 41.73600 44.33800
H  -13.89300 40.56800 45.07800
H  -15.67700 40.33900 45.16500
H  -15.24100 37.00400 41.50300
H  -16.15700 38.42900 41.46000
H  -17.04600 36.87300 43.74200
H  -17.23400 35.86000 42.26500
H  -18.00100 37.47300 42.36000
H  -11.65600 32.82900 44.23500
H  -12.78000 32.90000 42.83900
H  -13.15900 33.70600 44.30100
H  -7.87900 34.37800 40.38700
H  -4.29400 35.98000 43.29300
H  -5.05300 34.83900 44.47200
H  -5.55900 36.40800 44.57900

