158

Mg -1.72400 17.55900 25.39400
C  -2.02900 15.36000 28.01300
C  -2.08900 20.10400 27.59200
C  -2.40100 19.73600 22.76500
C  -2.05600 14.79700 23.21000
N  -1.99400 17.72100 27.53600
C  -2.05700 16.67500 28.39700
C  -2.08500 17.17100 29.86400
C  -2.30100 18.74900 29.75000
C  -2.13200 18.89700 28.23300
C  -3.64500 19.22700 30.28500
C  -0.94700 16.72000 30.78300
C  -0.38500 17.52100 31.99700
H  -0.14200 16.75100 33.36400
N  -1.88800 19.65400 25.20700
C  -2.00900 20.51400 26.27200
C  -1.90200 21.84700 25.77500
C  -1.96000 21.77600 24.32200
C  -2.11000 20.34900 24.05900
C  -2.01700 23.04800 26.73800
C  -1.92700 22.86600 23.21100
O  -2.04600 22.65900 22.02200
C  -1.57100 24.25500 23.71700
N  -2.25700 17.36500 23.24900
C  -2.46100 18.36700 22.40200
C  -2.75000 17.81500 21.06400
C  -2.40500 16.29700 21.05800
C  -2.22700 16.13200 22.57600
C  -4.23900 18.02100 20.59000
C  -1.09100 16.00600 20.24500
C  0.29300 16.14600 20.88500
N  -1.87200 15.44500 25.46800
C  -1.85300 14.45100 24.55500
C  -1.95200 13.15900 25.18300
C  -2.06000 13.42700 26.56200
C  -1.88900 14.84000 26.68300
C  -2.14400 11.87300 24.52900
C  -2.22300 12.83700 27.82200
O  -2.31600 11.65900 28.15700
C  -2.25700 14.09000 28.86800
C  -1.35600 13.74000 29.98900
O  -0.15100 13.73800 29.96300
O  -2.13300 13.29700 31.08000
C  -1.38100 12.74300 32.20500
H  -2.21800 20.94900 28.27200
H  -2.62600 20.37100 21.90500
H  -2.11900 13.91400 22.57100
H  -2.99700 16.76100 30.29700
H  -1.45500 19.27500 30.19100
H  -4.33500 18.45600 30.62800
H  -4.24900 19.72500 29.52600
H  -3.49700 20.02500 31.01300
H  -0.16600 16.42000 30.08400
H  -1.26600 15.80000 31.27200
H  -0.96700 18.40800 32.24700
H  0.62000 17.78300 31.66500
H  -3.00600 23.48100 26.59200
H  -1.31700 23.85800 26.53300
H  -1.83800 22.83600 27.79300
H  -0.58600 24.01400 24.11800
H  -2.29500 24.56300 24.47100
H  -1.57300 24.84500 22.80000
H  -2.13600 18.39800 20.37800
H  -3.24000 15.68400 20.71700
H  -4.38800 19.03200 20.21000
H  -4.95700 17.84400 21.39000
H  -4.46000 17.25900 19.84200
H  -1.03000 16.75600 19.45600
H  -1.16200 15.06500 19.70000
H  0.91500 16.68600 20.17200
H  0.63000 15.11000 20.93500
H  0.40000 16.72000 21.80500
H  -2.07000 11.92400 23.44300
H  -3.10700 11.44200 24.80000
H  -1.46100 11.12900 24.93800
H  -3.29300 14.14400 29.20000
H  -1.33200 13.58500 32.89500
H  -0.35100 12.47100 31.97400
H  -1.83800 11.90200 32.72700
Mg 25.41200 50.04200 26.18500
C  23.34700 51.22800 28.81400
C  27.70000 49.37200 28.57400
C  27.61100 49.41300 23.76700
C  23.23100 51.26700 23.93400
N  25.38800 50.06100 28.52300
C  24.48300 50.70200 29.36400
C  24.82600 50.39100 30.82000
C  26.33300 50.09600 30.68500
C  26.53300 49.79200 29.18200
C  27.38400 51.18300 31.21400
C  23.97100 49.24100 31.35300
C  23.61900 49.31700 32.92600
H  24.37300 50.24500 33.84400
N  27.39300 49.37900 26.22000
C  28.14100 49.21100 27.30300
C  29.44900 48.74400 26.93800
C  29.47000 48.71200 25.51300
C  28.13800 49.10400 25.07700
C  30.58700 48.35700 27.88900
C  30.60500 48.43000 24.53900
O  30.54400 48.68700 23.32200
C  31.94900 47.91700 25.03500
N  25.40900 50.27400 24.15500
C  26.44500 49.94700 23.34400
C  25.99600 50.01500 21.85300
C  24.54300 50.52300 21.85000
C  24.36900 50.70200 23.40900
C  26.98200 50.63400 20.83300
C  23.50100 49.53000 21.31100
C  22.22400 50.10900 20.76800
N  23.65500 51.07600 26.32000
C  22.88000 51.55100 25.32000
C  21.69800 52.25800 25.84900
C  21.86700 52.11600 27.21500
C  23.07000 51.46700 27.43300
C  20.65800 52.93400 25.03800
C  21.32400 52.41800 28.50300
O  20.27100 53.02400 28.82000
C  22.21600 51.85800 29.60200
C  22.60300 53.02200 30.43900
O  23.15500 53.98400 30.03800
O  22.06600 52.88500 31.71500
C  22.43600 54.00600 32.61000
H  28.51900 49.22300 29.28100
H  28.22000 49.22300 22.88100
H  22.45500 51.55600 23.22100
H  24.67500 51.34400 31.32500
H  26.60400 49.16500 31.18100
H  26.88300 52.14400 31.32100
H  28.15000 51.39800 30.47000
H  27.83300 50.98800 32.18800
H  24.47900 48.32400 31.05400
H  23.00800 49.21300 30.84400
H  23.67500 48.28800 33.28000
H  22.56400 49.59100 32.92500
H  30.47500 48.78800 28.88400
H  31.58400 48.61100 27.52800
H  30.61000 47.27000 27.96500
H  32.46300 47.52700 24.15600
H  31.80800 47.04600 25.67600
H  32.48200 48.73300 25.52200
H  25.97000 48.98900 21.48600
H  24.39800 51.44400 21.28500
H  27.89900 50.87300 21.37100
H  26.51500 51.56600 20.51500
H  27.19100 49.90500 20.05100
H  23.22400 48.76600 22.03800
H  23.99100 48.97900 20.50900
H  21.50900 50.09300 21.59100
H  21.94700 49.66000 19.81500
H  22.34800 51.18400 20.63000
H  20.34400 52.53900 24.07200
H  21.06400 53.94200 24.95600
H  19.77800 53.02900 25.67400
H  21.60600 51.10800 30.10600
H  21.65500 54.75900 32.50300
H  23.41800 54.45100 32.44700
H  22.39100 53.71700 33.66000

