158

Mg 0.50200 8.22200 27.24000
C  1.10100 10.34900 29.97500
C  0.64900 5.57900 29.33500
C  0.50000 6.27800 24.53900
C  0.72500 11.04400 25.11500
N  0.91000 7.97500 29.41600
C  1.01900 8.99700 30.34800
C  0.74700 8.45400 31.76300
C  1.03000 6.99600 31.54200
C  0.77700 6.76600 30.00000
C  2.43700 6.49800 31.94300
C  -0.68900 8.79200 32.27100
C  -1.04700 9.19000 33.79200
H  -0.02700 8.94100 34.92300
N  0.56800 6.15700 26.98500
C  0.63500 5.19000 27.95600
C  0.65500 3.86200 27.38900
C  0.54400 4.01200 25.99600
C  0.55500 5.57300 25.77400
C  0.81500 2.57000 28.13700
C  0.43500 2.98000 24.88500
O  0.36000 3.34900 23.70800
C  0.36300 1.53000 25.18200
N  0.56300 8.64700 25.15500
C  0.52500 7.66900 24.26100
C  0.33300 8.18100 22.84200
C  -0.04500 9.70500 23.10500
C  0.41200 9.79800 24.52600
C  1.60800 8.09700 22.00600
C  -1.50300 10.03000 22.93400
C  -1.77100 11.28600 22.14000
N  0.77600 10.33000 27.48200
C  0.99500 11.30600 26.50600
C  1.27400 12.54800 27.15400
C  1.35600 12.26300 28.50700
C  1.09000 10.87000 28.61700
C  1.40500 13.86000 26.56800
C  1.57400 12.80400 29.86100
O  1.78400 13.91500 30.23600
C  1.26100 11.58200 30.83000
C  2.39200 11.48400 31.85600
O  3.42300 10.89400 31.67300
O  1.97400 12.10100 33.04300
C  2.98800 12.35500 33.98100
H  0.80400 4.82700 30.11200
H  0.38600 5.76400 23.58200
H  0.59400 11.79300 24.33200
H  1.46200 8.90200 32.45200
H  0.32700 6.39500 32.12000
H  2.94400 7.34300 32.40800
H  3.14500 6.09700 31.21800
H  2.20300 5.63800 32.57000
H  -1.30800 7.94500 31.97500
H  -0.93100 9.68600 31.69700
H  -2.03400 8.76900 33.98300
H  -1.26900 10.25500 33.84300
H  0.85700 2.69000 29.21900
H  1.68100 1.94400 27.92200
H  -0.09400 1.97800 28.03300
H  1.22100 1.09400 25.69400
H  0.32000 1.04600 24.20700
H  -0.51400 1.30200 25.78800
H  -0.53900 7.66400 22.44300
H  0.52100 10.38200 22.46500
H  1.59700 7.06400 21.65800
H  2.49700 8.14100 22.63500
H  1.70600 8.85800 21.23100
H  -2.01400 10.01500 23.89600
H  -2.10700 9.24700 22.47600
H  -0.92500 11.58900 21.52200
H  -2.04100 12.05200 22.86600
H  -2.59000 11.13900 21.43500
H  1.69900 14.55000 27.35900
H  0.44800 14.28800 26.27000
H  2.08800 13.84300 25.71800
H  0.33600 11.96400 31.26300
H  2.60100 12.79300 34.90100
H  3.73600 13.06000 33.61900
H  3.62300 11.49200 34.17700
Mg 8.33200 4.05200 27.71400
C  9.49000 2.59700 30.71400
C  5.97400 5.91300 29.67400
C  7.24800 5.52900 24.95800
C  10.26000 1.81700 25.87500
N  7.80700 4.13500 29.91700
C  8.50200 3.59600 30.94500
C  7.99100 4.14200 32.29400
C  6.68800 4.90200 31.89300
C  6.83800 5.03000 30.37300
C  5.33600 4.15500 32.24900
C  8.96300 4.95700 33.17400
C  9.23800 4.39200 34.59000
H  9.91100 5.31800 35.64000
N  6.85800 5.56200 27.34200
C  5.99600 6.19400 28.23500
C  5.24200 7.15700 27.57400
C  5.57400 7.13300 26.22700
C  6.59200 5.99400 26.11100
C  4.19600 8.06800 28.26700
C  5.10000 8.04500 25.02000
O  5.43500 7.86900 23.81300
C  4.19000 9.04800 25.29200
N  8.66200 3.58900 25.72000
C  8.22100 4.51600 24.77600
C  8.82000 4.22200 23.42300
C  9.91500 3.17500 23.74500
C  9.62200 2.81300 25.21800
C  7.83400 3.78600 22.30700
C  11.39800 3.57600 23.48400
C  11.97900 4.57800 24.47700
N  9.56600 2.44100 28.17400
C  10.29400 1.62900 27.36200
C  10.98100 0.57700 28.10600
C  10.73600 0.94100 29.45700
C  9.84300 2.04900 29.41300
C  11.82500 -0.43600 27.50700
C  11.04700 0.57900 30.77500
O  11.67300 -0.26700 31.31100
C  10.31000 1.73800 31.73700
C  9.54100 0.89800 32.75600
O  8.45700 0.33900 32.58200
O  10.23400 0.87500 33.91100
C  9.75700 0.04500 35.06700
H  5.33900 6.54600 30.29700
H  6.96700 6.09000 24.06400
H  10.96000 1.14200 25.37700
H  7.66300 3.19900 32.73200
H  6.69200 5.89100 32.35200
H  4.64600 4.34600 31.42700
H  5.01600 4.56600 33.20700
H  5.51200 3.11700 32.53300
H  8.54100 5.96200 33.18200
H  9.96200 4.96400 32.73800
H  9.91200 3.53900 34.51300
H  8.33900 3.85900 34.90100
H  4.10600 8.01500 29.35200
H  3.25600 7.86300 27.75400
H  4.51600 9.11000 28.27800
H  3.26100 8.56600 25.59900
H  4.09500 9.69200 24.41800
H  4.68300 9.53000 26.13600
H  9.30800 5.14100 23.09800
H  9.78600 2.24700 23.18800
H  6.87900 3.77600 22.83100
H  8.08600 2.80400 21.90700
H  7.87300 4.58600 21.56700
H  11.43600 4.04200 22.49900
H  11.99800 2.66900 23.41200
H  11.33800 4.61800 25.35800
H  11.89200 5.51300 23.92400
H  13.00800 4.52100 24.83400
H  12.39000 0.04800 26.71100
H  11.36200 -1.25700 26.95900
H  12.52800 -0.77900 28.26700
H  11.12000 2.34800 32.13700
H  8.87800 0.58900 35.41400
H  10.50300 -0.07200 35.85300
H  9.38100 -0.90500 34.68700

