158

Mg 53.65800 24.82400 45.52700
C  51.17400 27.03500 44.41700
C  52.02800 22.20200 43.88200
C  56.54400 22.86400 45.78100
C  55.51600 27.62800 46.49800
N  51.80300 24.74600 44.18100
C  50.95800 25.72500 43.89800
C  49.79700 25.10200 43.03500
C  49.89100 23.57200 43.30800
C  51.32400 23.53600 43.84700
C  48.78400 22.95100 44.26500
C  49.70400 25.52800 41.53300
C  50.99300 25.52700 40.69200
H  52.17300 24.59700 41.03500
N  54.12900 22.77200 44.95900
C  53.27900 21.85200 44.35000
C  53.96000 20.54500 44.41800
C  55.27200 20.74300 44.99500
C  55.35500 22.19600 45.25600
C  53.31500 19.39600 43.70900
C  56.31700 19.66400 45.25000
O  56.10600 18.51500 44.91500
C  57.58500 19.83900 45.95400
N  55.73900 25.19500 45.92500
C  56.70000 24.24200 46.03400
C  58.02700 24.76300 46.59600
C  57.74300 26.32600 46.51700
C  56.20800 26.40500 46.33100
C  58.29100 24.22800 48.00900
C  58.55600 27.13600 45.48900
C  58.69700 28.64200 45.71100
N  53.36700 26.88800 45.60700
C  54.19400 27.85600 46.17400
C  53.41400 29.02100 46.32400
C  52.26700 28.82300 45.57400
C  52.32100 27.48700 45.07600
C  53.79500 30.23100 47.05200
C  51.04800 29.41900 45.11800
O  50.57400 30.55500 45.28000
C  50.29500 28.30500 44.29600
C  50.03500 28.72400 42.90400
O  50.88800 28.93800 42.03800
O  48.65000 28.82800 42.71900
C  48.28900 29.18400 41.31600
H  51.56500 21.37200 43.34400
H  57.49000 22.33600 45.91600
H  56.02200 28.53600 46.83300
H  48.88200 25.54100 43.43400
H  49.88800 22.92600 42.43000
H  47.86800 23.54200 44.23000
H  49.12600 22.76400 45.28300
H  48.69700 21.96200 43.81600
H  49.18100 26.47100 41.37400
H  49.08400 24.80200 41.00800
H  51.33700 26.55200 40.55300
H  50.67500 25.32500 39.67000
H  53.11000 19.64800 42.66800
H  52.29800 19.18100 44.03800
H  53.84500 18.44400 43.73900
H  57.81400 18.83700 46.31500
H  57.50700 20.44000 46.86100
H  58.36700 20.25900 45.32200
H  58.81500 24.46700 45.90400
H  58.05300 26.78300 47.45700
H  58.05200 23.17500 48.15800
H  57.83600 24.86800 48.76500
H  59.37800 24.21900 47.93800
H  58.07200 27.02900 44.51800
H  59.54500 26.67800 45.45300
H  59.73900 28.70500 46.02400
H  57.99800 28.98000 46.47600
H  58.53100 29.17600 44.77600
H  54.37000 30.08200 47.96600
H  52.89200 30.78700 47.30400
H  54.45100 30.85900 46.45100
H  49.34000 28.10800 44.78400
H  48.76800 28.55200 40.56800
H  48.37600 30.24800 41.09300
H  47.27200 28.96500 40.98900
Mg 37.46500 50.29900 25.11200
C  37.40100 48.36900 27.98800
C  36.01600 52.73600 26.79100
C  37.21100 51.88100 22.13900
C  38.45600 47.33300 23.20700
N  36.86700 50.55100 27.16800
C  37.02000 49.64800 28.20300
C  36.52000 50.31200 29.46600
C  36.22400 51.74900 29.10200
C  36.36700 51.67200 27.60100
C  34.81100 52.31000 29.46700
C  37.55400 50.08100 30.72900
C  37.01400 49.46400 32.03300
H  35.44800 49.52200 32.13500
N  36.65500 52.08300 24.54300
C  36.07500 52.95200 25.37300
C  35.65300 54.14400 24.65200
C  35.95200 53.86500 23.30300
C  36.73800 52.57000 23.30200
C  34.84000 55.26400 25.33900
C  35.62000 54.70200 22.06400
O  36.10300 54.53300 20.88700
C  34.83500 56.07400 22.16000
N  37.78300 49.62500 22.93900
C  37.63000 50.57100 21.93600
C  37.90100 49.92600 20.55400
C  38.55600 48.55200 20.90500
C  38.25700 48.47900 22.39200
C  36.63900 49.85300 19.64400
C  40.02900 48.46200 20.61300
C  41.08300 48.84200 21.62400
N  37.91100 48.26900 25.47800
C  38.25700 47.19600 24.63400
C  38.49300 46.03800 25.48900
C  38.18000 46.44100 26.84000
C  37.79600 47.79400 26.76500
C  39.04600 44.79300 24.98000
C  38.18400 45.97400 28.16300
O  38.41700 44.86500 28.63400
C  37.61600 47.21700 29.01200
C  36.38600 46.74900 29.74900
O  35.19600 46.79500 29.41400
O  36.83300 46.05300 30.87800
C  35.83600 45.55200 31.85700
H  35.64700 53.50400 27.47500
H  37.09000 52.43400 21.20500
H  38.81000 46.46000 22.65400
H  35.60200 49.73500 29.58500
H  37.00800 52.36200 29.54600
H  34.54900 51.82900 30.40900
H  34.03600 52.06400 28.74100
H  34.68000 53.38000 29.63400
H  38.10300 50.99500 30.95500
H  38.41700 49.48400 30.43500
H  37.43500 49.91900 32.92900
H  37.25500 48.40200 31.99900
H  33.75800 55.14400 25.39700
H  35.19000 56.23900 25.00100
H  35.10300 55.36500 26.39200
H  33.84100 55.95600 22.59200
H  34.88900 56.49000 21.15400
H  35.40600 56.80300 22.73400
H  38.65800 50.65600 20.26600
H  38.12400 47.63500 20.50300
H  36.53700 48.82000 19.31100
H  36.86200 50.48400 18.78400
H  35.75500 50.15000 20.20900
H  40.28300 49.09500 19.76200
H  40.23400 47.47200 20.20500
H  40.77000 48.70200 22.65900
H  41.47500 49.84900 21.48100
H  41.92700 48.16300 21.50300
H  38.17100 44.32100 24.53300
H  39.26000 44.21300 25.87800
H  39.88100 45.08600 24.34400
H  38.32000 47.35400 29.83300
H  34.82500 45.55500 31.44800
H  35.81300 46.34400 32.60600
H  36.17400 44.65300 32.37200

