158

Mg 25.45000 0.73500 30.56300
C  27.66800 1.08700 33.37500
C  22.78200 1.12800 32.92500
C  23.35700 0.01700 28.06800
C  28.19300 0.03900 28.62800
N  25.30200 1.17800 32.92800
C  26.35200 1.26800 33.84100
C  25.79400 1.56400 35.23800
C  24.25500 1.48000 35.10900
C  24.08100 1.17900 33.58000
C  23.42200 0.43500 36.00800
C  26.28800 2.99100 35.72700
C  26.51100 2.98500 37.27500
H  25.65000 3.86200 38.20200
N  23.45300 0.62000 30.47900
C  22.53800 0.88100 31.48900
C  21.21600 0.83700 30.86900
C  21.37200 0.36300 29.51900
C  22.76800 0.30200 29.33500
C  19.98700 0.95200 31.67600
C  20.26100 -0.06200 28.44500
O  20.48300 -0.35000 27.27700
C  18.80700 -0.03000 28.81700
N  25.74000 -0.06600 28.62900
C  24.72100 -0.11900 27.68700
C  25.20300 -0.11100 26.24700
C  26.69300 0.08400 26.53000
C  26.93400 0.04200 28.01100
C  24.76000 -1.19500 25.29500
C  27.32800 1.46800 25.89500
C  26.95700 2.80500 26.62800
N  27.46800 0.39600 30.86700
C  28.47900 0.19900 29.98400
C  29.72100 0.13700 30.61100
C  29.47300 0.50900 31.90800
C  28.08600 0.77300 31.99400
C  31.01200 -0.35300 30.07500
C  30.06900 0.60600 33.24400
O  31.25300 0.29200 33.57100
C  28.99400 1.16100 34.20400
C  29.00100 0.16000 35.37300
O  28.75900 -1.04800 35.21900
O  29.23600 0.81700 36.60200
C  29.17900 -0.00600 37.84200
H  21.99100 1.33900 33.64800
H  22.72400 -0.02300 27.17900
H  28.88200 -0.10300 27.79300
H  26.16900 0.76900 35.88200
H  23.92400 2.50100 35.29900
H  23.35000 -0.54800 35.54400
H  22.39000 0.71200 36.22500
H  24.04300 0.26200 36.88700
H  25.61100 3.77500 35.38900
H  27.26000 3.17200 35.26700
H  27.52700 3.30600 37.50600
H  26.30400 1.96500 37.60100
H  19.30400 0.15000 31.39700
H  19.46100 1.87300 31.42700
H  20.19200 1.05400 32.74100
H  18.14200 -0.28000 27.99100
H  18.51100 0.94500 29.20400
H  18.53400 -0.74000 29.59700
H  24.86200 0.79600 25.74800
H  27.23100 -0.73500 26.05400
H  25.62200 -1.85500 25.20700
H  24.48200 -0.62500 24.40900
H  23.96600 -1.86300 25.63100
H  26.94100 1.65100 24.89200
H  28.41300 1.36300 25.90700
H  27.09400 2.63000 27.69500
H  25.94000 3.08900 26.35900
H  27.64400 3.55700 26.24000
H  31.13900 -1.25200 30.67800
H  31.76900 0.41000 30.25400
H  30.99300 -0.52700 28.99900
H  29.37900 2.09600 34.61200
H  30.07800 -0.61800 37.91500
H  28.30700 -0.65200 37.74000
H  28.97400 0.60300 38.72200
Mg 41.99200 41.52800 27.48300
C  41.15000 43.91500 29.89900
C  42.86600 39.32200 29.93900
C  42.87500 39.28500 25.14600
C  41.49600 43.98500 25.11800
N  42.01800 41.67400 29.78600
C  41.57300 42.70200 30.55500
C  41.69100 42.33600 32.07900
C  42.41100 40.91200 32.01900
C  42.49900 40.61200 30.53300
C  43.84600 40.72700 32.74300
C  40.39500 42.39800 32.79300
C  40.19800 43.22000 34.12600
H  39.51100 42.38000 35.21400
N  42.73900 39.59200 27.53900
C  43.00800 38.85300 28.64300
C  43.48500 37.52600 28.27100
C  43.42100 37.47600 26.84900
C  43.02300 38.84200 26.44500
C  44.05700 36.44500 29.27300
C  43.88100 36.37400 25.93700
O  43.91900 36.46900 24.71000
C  44.42900 35.03100 26.60000
N  42.13500 41.57400 25.50000
C  42.46200 40.54700 24.70000
C  42.41000 40.85900 23.20100
C  41.61100 42.22400 23.26100
C  41.78700 42.66400 24.68400
C  43.73400 40.99700 22.57300
C  40.11900 42.07200 22.76400
C  38.98600 41.79400 23.79700
N  41.60800 43.51900 27.46500
C  41.30700 44.35100 26.36800
C  40.72300 45.60800 26.82800
C  40.72000 45.51000 28.19100
C  41.20000 44.20400 28.52800
C  40.54000 46.87800 25.95300
C  40.56900 46.28800 29.45300
O  40.16300 47.45400 29.59800
C  40.86200 45.25500 30.63500
C  41.92900 45.80900 31.51500
O  43.09200 46.01200 31.18000
O  41.35700 46.02600 32.79400
C  42.21600 46.69700 33.84600
H  43.14300 38.53100 30.63800
H  43.11300 38.51100 24.41400
H  41.29000 44.67000 24.29300
H  42.28900 43.11300 32.55500
H  41.73800 40.18100 32.46800
H  44.59200 40.33900 32.05000
H  43.68700 39.90800 33.44400
H  44.24300 41.63600 33.19400
H  40.05400 41.37300 32.93400
H  39.67400 42.77400 32.06600
H  39.47900 44.02800 33.99200
H  41.16000 43.61800 34.44900
H  44.97700 36.02400 28.86700
H  43.37300 35.62300 29.48300
H  44.25200 36.96300 30.21200
H  45.40900 35.12000 27.06800
H  44.53300 34.37800 25.73300
H  43.67500 34.60600 27.26200
H  41.82000 40.11400 22.66800
H  42.08100 42.97500 22.62500
H  44.02600 42.01700 22.32300
H  43.79900 40.61800 21.55300
H  44.53100 40.48300 23.11100
H  40.14700 41.25000 22.05000
H  39.90600 43.07200 22.38600
H  38.06200 42.27900 23.48100
H  39.25100 42.09100 24.81200
H  38.69600 40.74500 23.85300
H  39.49600 47.13600 25.77800
H  41.00100 46.75200 24.97300
H  41.10600 47.69800 26.39500
H  40.03900 45.16100 31.34500
H  43.22200 46.92800 33.49700
H  42.33000 45.97500 34.65500
H  41.75800 47.64100 34.14100

