158

Mg 48.18300 15.89700 28.48400
C  46.17700 15.61900 31.38800
C  50.25000 18.00000 30.21800
C  50.07200 16.06100 25.81000
C  45.83200 14.00900 26.75700
N  48.09500 16.77700 30.55800
C  47.23200 16.36400 31.57100
C  47.75800 16.94700 32.94600
C  48.94300 17.86600 32.47300
C  49.05700 17.57200 30.96000
C  48.74200 19.44500 32.68500
C  48.19900 15.90200 33.92300
C  48.03200 16.33700 35.45200
H  49.10900 15.89200 36.41400
N  49.86800 16.96100 28.16500
C  50.59500 17.77600 28.95600
C  51.82200 18.21300 28.31200
C  51.79700 17.64900 26.96900
C  50.56900 16.80300 26.91600
C  52.89800 19.02100 29.02000
C  52.86100 17.74700 25.86800
O  52.81200 17.09800 24.82800
C  54.09800 18.54900 26.03800
N  47.88400 15.29300 26.53300
C  48.91500 15.37100 25.60500
C  48.58300 14.68200 24.27700
C  47.14500 14.23100 24.53100
C  46.92900 14.51200 25.99900
C  48.57900 15.70400 23.00500
C  46.97600 12.72800 24.14500
C  47.80100 11.64500 24.93800
N  46.38100 15.05700 28.94100
C  45.54500 14.25200 28.11500
C  44.37000 13.97900 28.83300
C  44.57000 14.45200 30.14300
C  45.82500 15.09200 30.16300
C  43.18600 13.19800 28.26700
C  43.95800 14.47300 31.43400
O  42.89600 14.00600 31.85900
C  44.98700 15.16800 32.34300
C  44.43100 16.48400 32.88500
O  44.11800 17.50400 32.23800
O  44.29500 16.38000 34.28100
C  44.08500 17.70200 34.93600
H  50.88200 18.68800 30.78300
H  50.74700 16.17000 24.95900
H  45.08100 13.41000 26.23700
H  46.98300 17.57200 33.39000
H  49.86300 17.56200 32.97100
H  48.58700 20.05700 31.79600
H  49.56900 19.82500 33.28400
H  47.86000 19.73400 33.25600
H  49.25600 15.73000 33.72200
H  47.67100 14.97800 33.68800
H  47.12000 15.80700 35.72400
H  47.86400 17.41000 35.53300
H  52.81600 19.10200 30.10400
H  53.06800 19.98700 28.54500
H  53.76900 18.39400 28.83100
H  53.85000 19.38000 26.69900
H  54.30600 18.86500 25.01600
H  54.99300 18.05800 26.42200
H  49.26000 13.85100 24.08000
H  46.35800 14.85000 24.10100
H  47.58100 15.84500 22.58800
H  49.22300 15.34100 22.20400
H  48.85000 16.72300 23.27900
H  47.42800 12.64500 23.15700
H  45.90200 12.58200 24.03200
H  47.08100 10.87400 25.21200
H  48.34200 12.02800 25.80200
H  48.57700 11.19300 24.32100
H  42.80900 13.40500 27.26500
H  42.36900 13.46700 28.93600
H  43.38000 12.12600 28.30200
H  45.34300 14.42300 33.05500
H  44.50600 18.49600 34.31900
H  44.60800 17.67300 35.89200
H  43.00100 17.81600 34.92600
Mg 8.56500 47.03400 25.33600
C  6.86300 47.06100 28.30000
C  11.22300 48.27700 27.03600
C  10.26900 46.72600 22.48200
C  5.58300 46.87600 23.55400
N  8.92400 47.66200 27.37000
C  8.14200 47.50300 28.46900
C  8.79200 47.90500 29.81800
C  10.07400 48.57400 29.28700
C  10.09700 48.21200 27.78600
C  10.15800 50.13900 29.57700
C  9.04400 46.76800 30.81300
C  8.82000 47.12100 32.30500
H  8.48100 45.91900 33.19500
N  10.47800 47.43000 24.84000
C  11.48300 47.93800 25.63300
C  12.76400 47.78700 24.97300
C  12.53700 47.46500 23.59700
C  11.09500 47.23800 23.53900
C  14.10600 47.99200 25.71700
C  13.50500 47.08800 22.45600
O  13.18800 46.59200 21.39700
C  15.06600 47.41000 22.73600
N  7.98400 46.77400 23.27300
C  8.90300 46.59900 22.29600
C  8.30800 46.08400 21.02900
C  6.78900 46.48600 21.21900
C  6.72100 46.73200 22.77200
C  8.91800 46.56900 19.63800
C  5.93700 45.36000 20.67100
C  4.35800 45.50200 20.68900
N  6.64800 46.89200 25.75900
C  5.51000 46.87100 24.92700
C  4.25800 46.78300 25.75100
C  4.77900 46.77100 27.08900
C  6.24500 46.84800 27.03100
C  2.77300 46.59200 25.34800
C  4.38300 46.78900 28.47900
O  3.30700 46.73700 28.98800
C  5.73000 46.85300 29.27300
C  5.76200 45.59800 30.10200
O  6.08400 44.48600 29.73800
O  5.35300 45.82400 31.40700
C  5.46400 44.65800 32.31800
H  12.04700 48.57000 27.69000
H  10.82300 46.41400 21.59500
H  4.59800 46.90000 23.08300
H  8.19200 48.69500 30.27000
H  10.98600 48.09700 29.64500
H  10.70000 50.75100 28.85500
H  10.56500 50.24300 30.58300
H  9.13500 50.51100 29.53000
H  10.04500 46.36300 30.66400
H  8.40800 45.91600 30.57700
H  8.19700 48.01100 32.40200
H  9.82200 47.41500 32.61800
H  13.92400 48.35800 26.72700
H  14.67400 48.78500 25.23100
H  14.69000 47.07200 25.73100
H  15.41100 46.75300 23.53500
H  15.17300 48.47100 22.96100
H  15.69200 47.24500 21.85900
H  8.46900 45.00700 20.98800
H  6.64000 47.45500 20.74300
H  9.82500 47.14600 19.81600
H  8.18400 47.15300 19.08300
H  9.22800 45.68400 19.08300
H  6.25000 44.42400 21.13300
H  6.22700 45.31600 19.62100
H  4.16200 46.52300 21.01700
H  4.05200 44.77500 21.44200
H  3.83600 45.32200 19.75000
H  2.52800 45.62200 25.78100
H  2.58700 46.52500 24.27600
H  2.16600 47.40400 25.74700
H  5.55500 47.74400 29.87700
H  5.72000 45.06800 33.29500
H  6.34200 44.03200 32.15900
H  4.57500 44.03800 32.19700

