158

Mg 35.86800 0.71400 29.56400
C  33.73200 1.81400 32.07200
C  38.51500 0.41800 31.88000
C  37.86400 -0.04800 27.03000
C  33.27400 1.11200 27.29700
N  36.05400 1.30100 31.72500
C  35.09300 1.56600 32.53200
C  35.58700 1.50000 33.97000
C  37.09500 1.35600 33.89500
C  37.26700 0.88500 32.39200
C  37.92300 2.70000 34.22200
C  34.80300 0.46400 34.81600
C  34.24100 0.75800 36.22400
H  35.00800 1.89200 36.97800
N  37.89100 0.21600 29.49300
C  38.78400 0.15600 30.54300
C  40.05600 -0.34600 30.01300
C  39.92900 -0.54200 28.64300
C  38.52000 -0.07900 28.31000
C  41.24000 -0.64900 30.83500
C  40.88600 -1.18300 27.63300
O  40.60900 -1.10200 26.45300
C  42.03300 -1.92100 28.05400
N  35.62300 0.43900 27.49700
C  36.61100 0.23300 26.59400
C  36.12800 0.34900 25.10100
C  34.64300 0.44800 25.30500
C  34.47200 0.60900 26.77300
C  36.85600 1.44500 24.27100
C  33.87000 -0.72800 24.63100
C  33.38700 -1.92200 25.52000
N  33.89500 1.38900 29.55800
C  32.98300 1.46200 28.55600
C  31.69600 1.79500 29.13100
C  31.93400 2.05000 30.48800
C  33.33300 1.72600 30.74200
C  30.38600 1.91800 28.38500
C  31.39700 2.51300 31.75200
O  30.28200 2.86800 32.11300
C  32.53500 2.27600 32.82600
C  32.72700 3.56000 33.53700
O  33.41700 4.52600 33.24100
O  31.80100 3.60800 34.59200
C  31.66300 4.84200 35.29700
H  39.19200 0.27900 32.72600
H  38.54700 -0.32700 26.22500
H  32.46900 1.14000 26.56100
H  35.41900 2.45700 34.46300
H  37.44500 0.52400 34.50500
H  38.33300 2.62100 35.22900
H  37.30000 3.58300 34.07700
H  38.79100 2.80600 33.57200
H  35.42600 -0.41700 34.97100
H  33.95200 0.08500 34.25000
H  34.28800 -0.09600 36.89900
H  33.25800 1.20900 36.08500
H  42.19600 -0.35500 30.40200
H  41.19800 -1.68400 31.17300
H  41.21700 0.01000 31.70300
H  42.35100 -2.48600 27.17800
H  41.62500 -2.60300 28.79900
H  42.80800 -1.21600 28.35600
H  36.38800 -0.60600 24.64500
H  34.25100 1.39200 24.92600
H  37.55700 1.98100 24.91000
H  36.20000 2.18100 23.80600
H  37.44800 0.92900 23.51500
H  34.33400 -1.08400 23.71100
H  32.95200 -0.25200 24.28800
H  33.67900 -2.87400 25.07800
H  32.31900 -1.84700 25.72700
H  33.81400 -1.83600 26.51900
H  29.54700 1.44700 28.89700
H  30.40400 1.43500 27.40800
H  29.95700 2.91700 28.30300
H  32.22300 1.52400 33.55200
H  32.57900 5.02000 35.85900
H  31.01100 4.77000 36.16700
H  31.40800 5.58700 34.54300
Mg 47.07100 24.47200 28.61700
C  47.47500 26.79100 31.19400
C  46.27200 22.06800 30.91600
C  47.55800 22.19500 26.18400
C  48.62900 26.85400 26.33200
N  46.86100 24.46700 30.82400
C  47.09100 25.51100 31.67600
C  46.75700 25.12700 33.12900
C  46.42100 23.61800 33.04100
C  46.52300 23.35200 31.54200
C  47.20700 22.69400 33.95100
C  45.59300 25.96500 33.78600
C  45.72100 26.65500 35.20400
H  44.55300 26.52300 36.24400
N  46.62000 22.55000 28.51700
C  46.25100 21.71500 29.55300
C  46.04500 20.43100 29.01800
C  46.46800 20.39500 27.67000
C  46.90700 21.79000 27.40500
C  45.55300 19.36300 29.89200
C  46.63500 19.27100 26.74800
O  46.96000 19.46200 25.56100
C  46.52500 17.84700 27.22200
N  47.88400 24.53300 26.56200
C  47.98200 23.42300 25.76800
C  48.63100 23.71500 24.44700
C  48.49800 25.27100 24.37700
C  48.39800 25.59900 25.88300
C  50.18200 23.19200 24.46800
C  47.09900 25.61700 23.57100
C  46.45600 27.05300 23.71400
N  47.89900 26.40200 28.71300
C  48.50000 27.26000 27.71700
C  48.75400 28.48800 28.27600
C  48.38900 28.30800 29.62500
C  47.83100 27.08500 29.87200
C  49.12500 29.78800 27.48200
C  48.45600 29.01800 30.88500
O  48.93300 30.08700 31.16900
C  47.84500 28.03200 31.96800
C  48.90400 27.72000 33.05300
O  49.99600 27.26500 32.77300
O  48.49600 28.06800 34.38200
C  49.35900 27.78600 35.55600
H  46.01100 21.27400 31.61900
H  47.76000 21.49300 25.37300
H  49.13800 27.48100 25.59600
H  47.68700 25.28200 33.67800
H  45.38600 23.34000 33.24200
H  47.88100 22.03300 33.40800
H  46.49400 22.16000 34.58000
H  47.87700 23.24700 34.60900
H  44.67300 25.40200 33.94300
H  45.25800 26.74400 33.10100
H  45.91700 27.70700 34.99700
H  46.58100 26.21200 35.70600
H  44.95600 18.74700 29.21900
H  44.93200 19.62800 30.74800
H  46.44200 18.79100 30.15700
H  47.28500 17.67300 27.98300
H  46.74000 17.24500 26.33800
H  45.50600 17.64700 27.55400
H  48.02000 23.20100 23.70600
H  49.24800 25.79300 23.78300
H  50.64800 23.16200 25.45300
H  50.81100 23.85000 23.86900
H  50.18400 22.16400 24.10500
H  46.33300 24.89900 23.86400
H  47.24500 25.46900 22.50100
H  45.53900 26.91000 24.28600
H  46.15300 27.57900 22.80900
H  47.23300 27.64200 24.20200
H  48.41900 29.97700 26.67300
H  50.03900 29.55000 26.93600
H  49.25200 30.69500 28.07200
H  47.05700 28.59400 32.47000
H  49.92900 26.85700 35.55000
H  48.74100 27.66500 36.44600
H  50.06800 28.61500 35.54200

