158

Mg 54.32500 25.33700 44.10200
C  51.57200 27.63800 43.61700
C  52.45600 22.85300 42.96400
C  57.17700 23.57900 43.81200
C  56.28400 28.30600 44.74200
N  52.29400 25.33300 43.05000
C  51.28500 26.29300 43.16100
C  49.89900 25.69100 42.78100
C  50.26600 24.12600 42.93400
C  51.73600 24.06900 42.98300
C  49.65600 23.43200 44.09200
C  49.44600 26.07900 41.37300
C  50.59100 26.38200 40.28400
H  50.14500 26.58400 38.87700
N  54.81100 23.43800 43.64700
C  53.87800 22.58500 43.16100
C  54.57300 21.32500 42.87200
C  55.91000 21.47200 43.33400
C  56.01300 22.85900 43.54400
C  53.85100 20.08700 42.33000
C  56.95200 20.38100 43.40200
O  56.55200 19.20600 43.24700
C  58.39800 20.60400 43.77800
N  56.42700 25.89400 44.20300
C  57.41700 24.90800 44.14700
C  58.82900 25.55800 44.39500
C  58.52600 27.03100 44.75100
C  56.99800 27.12900 44.66500
C  59.67900 24.77300 45.46200
C  59.19100 27.92100 43.68000
C  59.95800 29.13300 44.22500
N  54.06200 27.52200 44.28500
C  54.90300 28.52700 44.67200
C  54.22100 29.77600 44.87600
C  52.98200 29.43000 44.43200
C  52.87100 28.06100 44.09100
C  54.69800 31.11000 45.21800
C  51.68800 30.05500 44.24700
O  51.33700 31.22600 44.36700
C  50.81700 28.94200 43.54200
C  50.58400 29.43600 42.19000
O  51.45100 29.95800 41.51500
O  49.24500 29.51300 42.00400
C  48.79700 29.97800 40.69400
H  51.86500 21.98300 42.67000
H  58.15500 23.09500 43.76100
H  56.93400 29.09300 45.13000
H  49.16300 26.10400 43.47100
H  50.03800 23.46800 42.09500
H  49.79300 22.35300 44.15900
H  48.58200 23.57500 44.21000
H  50.05600 23.79300 45.04000
H  49.07200 27.08700 41.55000
H  48.73300 25.33600 41.01400
H  51.27600 25.53800 40.36500
H  51.08600 27.29500 40.61500
H  53.60100 19.39300 43.13200
H  54.55800 19.57900 41.67400
H  53.00800 20.29200 41.67000
H  58.90400 19.63900 43.73500
H  58.44900 20.94900 44.81100
H  58.80500 21.17200 42.94200
H  59.27100 25.42400 43.40800
H  58.75700 27.22800 45.79700
H  60.47900 24.17900 45.02000
H  59.18000 23.90100 45.88700
H  60.12500 25.53800 46.09600
H  58.60200 28.41700 42.90900
H  59.86400 27.30200 43.08700
H  59.76700 30.02700 43.63200
H  61.03600 28.96800 44.20900
H  59.74900 29.15800 45.29400
H  55.77000 31.29200 45.14800
H  54.32200 31.47000 46.17500
H  54.24800 31.79300 44.49800
H  49.90400 28.85900 44.13000
H  49.65300 30.14100 40.03900
H  48.13600 30.84400 40.67500
H  48.27000 29.13900 40.24000
Mg -11.73800 37.90500 41.11100
C  -9.40600 35.22900 40.43200
C  -9.41500 40.10000 39.92700
C  -14.23700 40.19100 41.03800
C  -13.99700 35.41600 42.14200
N  -9.78500 37.60900 40.03300
C  -8.97900 36.47600 40.00300
C  -7.56300 36.77000 39.42700
C  -7.57700 38.36200 39.44300
C  -9.02200 38.69100 39.81200
C  -6.67100 39.03300 40.50400
C  -7.39100 36.18300 38.02100
C  -6.38900 35.04300 37.90500
H  -5.25600 35.25800 36.87800
N  -11.80500 39.86400 40.63200
C  -10.67800 40.64100 40.25000
C  -11.14500 41.97200 40.18300
C  -12.50400 42.03000 40.51000
C  -12.91500 40.65000 40.69600
C  -10.25800 43.14400 39.80800
C  -13.34800 43.26600 40.58800
O  -12.94800 44.37800 40.22300
C  -14.84300 43.21800 41.04700
N  -13.81800 37.77800 41.43400
C  -14.66300 38.88600 41.38300
C  -16.12300 38.44500 41.67700
C  -15.89200 36.98700 42.20800
C  -14.47500 36.70600 41.94400
C  -16.94500 39.45500 42.57900
C  -16.87500 35.85800 41.75700
C  -17.58400 35.00900 42.89400
N  -11.83100 35.80500 41.29200
C  -12.75400 34.95400 41.85200
C  -12.22200 33.63300 41.99800
C  -10.97900 33.67900 41.38700
C  -10.77200 34.99500 40.96900
C  -12.82200 32.40600 42.60200
C  -9.79600 32.87100 41.14000
O  -9.51700 31.73000 41.43800
C  -8.79300 33.88300 40.57300
C  -7.52700 33.74900 41.34400
O  -6.68600 32.83100 41.14900
O  -7.38900 34.73400 42.22400
C  -6.14000 34.84600 43.05300
H  -8.67300 40.88000 39.74500
H  -15.13100 40.81900 41.06400
H  -14.58000 34.66100 42.67500
H  -6.82400 36.41500 40.14500
H  -7.21700 38.81800 38.52100
H  -6.64500 40.05400 40.12200
H  -5.64500 38.66900 40.54300
H  -7.23500 38.97100 41.43500
H  -6.99600 36.88600 37.28800
H  -8.35500 35.84500 37.64100
H  -6.93400 34.15300 37.58900
H  -5.97500 34.92200 38.90600
H  -9.24400 42.78400 39.63500
H  -10.17900 43.96000 40.52600
H  -10.63800 43.50500 38.85200
H  -15.05000 44.28800 41.03900
H  -14.88400 42.80400 42.05400
H  -15.51300 42.70300 40.35900
H  -16.71000 38.39700 40.75900
H  -16.02200 37.00500 43.29000
H  -17.58800 38.95700 43.30500
H  -17.51700 40.03700 41.85600
H  -16.25300 40.09400 43.12800
H  -16.39200 35.24800 40.99300
H  -17.77400 36.27400 41.30000
H  -18.56400 35.46000 43.05500
H  -17.02700 35.10000 43.82600
H  -17.73700 33.97200 42.59400
H  -13.89900 32.49500 42.74700
H  -12.37200 32.08200 43.54000
H  -12.69800 31.51500 41.98700
H  -8.67600 33.48700 39.56500
H  -5.28100 34.53000 42.46100
H  -6.22300 34.26900 43.97400
H  -5.97000 35.91000 43.21700

