158

Mg 26.44100 49.11600 26.91300
C  24.35600 50.27900 29.48500
C  28.81400 48.38800 29.27900
C  28.50100 48.23700 24.42200
C  24.06600 50.43900 24.58400
N  26.56200 49.28400 29.15300
C  25.55100 49.65300 29.96700
C  25.91700 49.40900 31.44500
C  27.44900 49.01000 31.40000
C  27.64800 48.85700 29.83800
C  28.39600 50.04300 32.07400
C  25.07600 48.26000 32.12600
C  24.72800 48.18200 33.64800
H  25.55200 49.02100 34.58400
N  28.38400 48.36600 26.83000
C  29.18600 48.12500 27.91300
C  30.46100 47.60900 27.46700
C  30.42700 47.66500 26.02800
C  29.02600 48.10500 25.68100
C  31.47700 46.98000 28.43900
C  31.46500 47.26800 25.00500
O  31.28800 47.48400 23.81100
C  32.68500 46.73200 25.57100
N  26.26800 49.36200 24.82000
C  27.21100 48.76200 24.04600
C  26.66000 48.77500 22.62700
C  25.22900 49.40800 22.67100
C  25.14600 49.73800 24.11300
C  27.58600 49.47300 21.59000
C  23.99900 48.44200 22.28900
C  22.92000 49.19000 21.42600
N  24.63700 50.20900 26.95000
C  23.79300 50.65200 25.95800
C  22.75900 51.42900 26.52300
C  22.95400 51.33300 27.92700
C  24.11100 50.59200 28.13100
C  21.68900 52.29900 25.76000
C  22.39700 51.71100 29.18100
O  21.48900 52.49100 29.45400
C  23.24700 50.92200 30.32600
C  23.77400 51.89900 31.35900
O  24.72500 52.62100 31.24300
O  23.08700 51.62300 32.53300
C  23.17400 52.73600 33.39300
H  29.55500 48.22300 30.06300
H  28.98200 47.65800 23.63000
H  23.38500 50.85400 23.83800
H  25.78600 50.34500 31.98700
H  27.62400 48.01500 31.80700
H  29.07300 50.44200 31.31800
H  29.04500 49.51400 32.77200
H  27.94100 50.76800 32.74900
H  25.65400 47.35200 31.95500
H  24.14700 48.32700 31.56000
H  24.83100 47.15500 33.99800
H  23.69200 48.47400 33.82000
H  31.37100 47.20200 29.50100
H  32.48100 47.34700 28.22800
H  31.59200 45.89700 28.38800
H  33.20000 46.51400 24.63500
H  32.56300 45.74100 26.00800
H  33.09100 47.44200 26.29100
H  26.57300 47.72700 22.33900
H  25.35800 50.36700 22.17000
H  28.44700 49.92100 22.08600
H  27.19300 50.26200 20.94900
H  27.83400 48.79600 20.77300
H  23.51700 48.08300 23.19800
H  24.24900 47.61000 21.63100
H  23.30600 50.18300 21.19800
H  21.97400 49.24500 21.96600
H  22.72800 48.57500 20.54600
H  22.15300 52.46400 24.78800
H  21.66300 53.24900 26.29300
H  20.79600 51.68000 25.67100
H  22.71700 50.09000 30.79100
H  23.42500 53.72000 32.99600
H  23.77400 52.46600 34.26200
H  22.17000 52.95700 33.75400
Mg 16.62000 51.08800 26.75100
C  18.60500 49.60200 29.40100
C  14.43500 52.25700 29.13100
C  14.62900 52.07800 24.36300
C  18.88900 49.66000 24.44100
N  16.59100 51.07200 29.04900
C  17.44700 50.35200 29.88000
C  17.11700 50.68800 31.35200
C  15.71600 51.35500 31.23700
C  15.54000 51.60100 29.73100
C  14.51100 50.54500 31.76900
C  18.23200 51.52800 32.04600
C  18.32900 51.44900 33.60300
H  17.30500 50.67500 34.42400
N  14.75200 52.05600 26.78500
C  14.05700 52.54400 27.84800
C  12.89200 53.32900 27.36700
C  12.91400 53.27600 25.93700
C  14.09100 52.42600 25.63700
C  11.92500 54.04800 28.28900
C  12.01100 54.10200 24.94700
O  12.20600 54.08700 23.79300
C  10.97600 54.93200 25.49200
N  16.76400 50.90300 24.74200
C  15.78000 51.41800 23.97300
C  16.02300 51.12100 22.42800
C  17.50900 50.57300 22.51100
C  17.72600 50.29100 23.96000
C  14.89600 50.15900 21.98800
C  18.54200 51.68000 21.88600
C  19.40900 52.66400 22.83800
N  18.32600 49.83000 26.86500
C  19.15400 49.39500 25.78700
C  20.32200 48.65400 26.39300
C  20.10700 48.75500 27.80200
C  18.92100 49.46000 28.04000
C  21.36500 47.88200 25.61900
C  20.55800 48.21000 29.03400
O  21.45700 47.43800 29.33000
C  19.71100 48.95800 30.21800
C  19.22800 48.01000 31.21000
O  18.23500 47.32000 31.10800
O  20.05200 47.99700 32.35500
C  19.58700 47.01800 33.35500
H  13.70400 52.60100 29.86600
H  14.08900 52.34700 23.45300
H  19.56500 49.35900 23.63700
H  17.25500 49.67000 31.71700
H  15.76200 52.33100 31.72000
H  14.67500 49.50500 32.05000
H  13.70300 50.48900 31.04000
H  14.09900 51.16000 32.56900
H  17.88500 52.52700 31.78100
H  19.19100 51.23800 31.61700
H  18.45800 52.39900 34.12200
H  19.26500 50.91700 33.76800
H  11.88300 55.13300 28.20200
H  12.18300 53.89800 29.33800
H  10.90200 53.68000 28.21000
H  10.13600 54.37900 25.91200
H  10.53700 55.43800 24.63200
H  11.43300 55.66900 26.15300
H  16.00600 52.03500 21.83300
H  17.62000 49.68000 21.89600
H  14.05700 50.14900 22.68300
H  15.40000 49.19400 21.93300
H  14.48300 50.57900 21.07100
H  18.13600 52.35300 21.13000
H  19.27200 51.02900 21.40400
H  18.91700 52.90200 23.78100
H  19.63000 53.57500 22.28100
H  20.33300 52.09100 22.90900
H  22.07700 47.63200 26.40500
H  21.82500 48.53500 24.87600
H  20.95200 46.96300 25.20400
H  20.42400 49.57900 30.76100
H  19.75100 45.98900 33.03700
H  18.57600 47.09200 33.75700
H  20.11500 47.23000 34.28500

