158

Mg 30.50600 57.97300 40.22200
C  27.86600 56.01000 38.77300
C  32.66700 55.68100 38.99400
C  32.91900 60.25400 40.62700
C  28.01000 60.44900 40.93800
N  30.28000 56.08000 38.93100
C  29.15200 55.45300 38.55600
C  29.52800 54.16000 37.75700
C  31.11000 54.01800 38.02200
C  31.37500 55.26600 38.79100
C  31.64000 52.72500 38.71900
C  29.26200 54.33200 36.22800
C  27.98700 53.66300 35.69400
H  27.11400 54.54300 34.85300
N  32.53100 57.97100 40.00100
C  33.18300 56.88000 39.51400
C  34.61900 57.25600 39.35800
C  34.69800 58.62800 39.77800
C  33.33100 59.03300 40.19000
C  35.78400 56.35800 38.81600
C  36.02800 59.52200 39.67900
O  37.08000 58.96900 39.41100
C  36.06200 60.96000 39.89600
N  30.47500 60.08400 40.62600
C  31.62600 60.72300 40.89200
C  31.35500 62.12700 41.37200
C  29.80100 62.16600 41.66700
C  29.35400 60.86100 41.06400
C  32.29100 62.66700 42.43800
C  29.10900 63.54200 41.13200
C  28.27400 64.40300 42.10400
N  28.34500 58.24600 39.98900
C  27.50400 59.21700 40.46500
C  26.10900 58.90200 40.18400
C  26.21800 57.59500 39.57400
C  27.58400 57.30000 39.42700
C  24.88700 59.75200 40.34400
C  25.47800 56.54800 38.93200
O  24.26200 56.52500 38.67200
C  26.48600 55.36300 38.48400
C  26.22500 54.11900 39.34900
O  27.00900 53.56100 40.13400
O  24.97000 53.66800 39.05600
C  24.48100 52.40800 39.67300
H  33.42100 54.99500 38.60300
H  33.68900 61.01300 40.78100
H  27.25800 61.17500 41.25300
H  28.96300 53.36800 38.24800
H  31.54700 54.14400 37.03200
H  30.84300 51.98500 38.79100
H  32.09100 52.87200 39.70100
H  32.51400 52.26000 38.26200
H  30.09900 53.88100 35.69500
H  29.22400 55.40200 36.02500
H  27.46500 53.44500 36.62700
H  28.14100 52.80600 35.03800
H  36.25500 56.70900 37.89800
H  35.44100 55.33600 38.65400
H  36.68700 56.34300 39.42600
H  35.20700 61.35800 39.35000
H  36.92500 61.47500 39.47600
H  36.02300 61.16300 40.96700
H  31.51500 62.62700 40.41700
H  29.67100 62.11100 42.74800
H  31.72000 63.30200 43.11500
H  33.05500 63.28300 41.96400
H  32.77400 61.88500 43.02400
H  28.47900 63.25400 40.29000
H  29.86500 64.17900 40.67100
H  27.24000 64.34700 41.76400
H  28.56100 65.45300 42.16000
H  28.36700 64.11600 43.15200
H  24.03600 59.55600 39.69200
H  25.02600 60.83300 40.31500
H  24.60700 59.51900 41.37100
H  26.12200 55.24900 37.46300
H  24.89400 51.60900 39.05700
H  23.40200 52.43800 39.82800
H  24.87900 52.26300 40.67800
Mg 7.02500 53.92100 40.30900
C  6.63900 50.37100 39.94600
C  10.38800 53.41700 39.86700
C  7.17800 57.10900 39.53900
C  3.51800 54.06300 40.26400
N  8.32700 52.06300 39.76400
C  7.94500 50.77300 39.70200
C  9.17400 49.87900 39.63000
C  10.34400 50.85900 40.05600
C  9.67500 52.18500 39.95200
C  11.05400 50.57900 41.43800
C  9.41900 49.25300 38.17700
C  9.24700 50.34000 36.95100
H  7.98200 50.21500 36.06100
N  8.61900 55.12600 39.91100
C  9.92000 54.75500 39.84000
C  10.72100 55.89100 39.58600
C  9.83900 57.00400 39.36900
C  8.46700 56.49100 39.60500
C  12.16200 55.86600 39.64700
C  10.20200 58.45500 39.00800
O  11.40400 58.80200 39.04100
C  9.17000 59.49700 38.68500
N  5.57400 55.36000 39.81500
C  5.91700 56.66600 39.73900
C  4.68300 57.52400 39.54200
C  3.45700 56.53300 39.70500
C  4.20100 55.23700 39.93700
C  4.54600 58.77200 40.46800
C  2.39700 56.59200 38.45000
C  0.87500 56.59800 38.85500
N  5.43100 52.55600 40.25600
C  4.10800 52.78900 40.43000
C  3.32600 51.52400 40.61800
C  4.29100 50.54200 40.51900
C  5.57100 51.23700 40.18000
C  1.75500 51.37200 40.78300
C  4.60500 49.11700 40.53500
O  3.91400 48.16800 40.88400
C  6.14400 48.93800 40.16900
C  6.11200 48.16500 38.97600
O  5.77400 48.58200 37.87300
O  6.51200 46.83800 39.24000
C  6.16900 45.88300 38.18000
H  11.47300 53.29700 39.87400
H  7.17400 58.19200 39.39800
H  2.42700 54.09600 40.23000
H  9.11200 48.97900 40.24300
H  11.02800 50.83100 39.20800
H  10.75200 51.21800 42.26900
H  12.13500 50.71500 41.45900
H  10.73500 49.58600 41.75400
H  8.69900 48.50500 37.84400
H  10.44600 48.92400 38.02500
H  10.19900 50.28900 36.42300
H  9.29500 51.34600 37.36900
H  12.59100 56.72600 39.13300
H  12.56800 54.93700 39.24700
H  12.57300 55.81300 40.65500
H  9.72100 60.31900 38.22900
H  8.47700 59.81200 39.46600
H  8.56600 59.05700 37.89200
H  4.74200 57.89000 38.51700
H  2.97700 56.72300 40.66500
H  3.65600 58.77700 41.09700
H  4.44700 59.69300 39.89300
H  5.39200 58.92700 41.13700
H  2.65900 55.77500 37.77700
H  2.53400 57.41200 37.74500
H  0.32800 55.93700 38.18300
H  0.53800 57.63400 38.88600
H  0.74600 56.14800 39.83900
H  1.21300 51.67600 39.88700
H  1.27600 52.01300 41.52400
H  1.46200 50.34200 40.98700
H  6.70600 48.41200 40.94100
H  5.10800 45.84200 37.93700
H  6.36000 44.87000 38.53200
H  6.70500 46.13400 37.26400

