158

Mg 17.28600 -2.43100 28.12500
C  16.54300 -0.40900 30.82300
C  19.37000 -4.42900 30.14000
C  18.54300 -3.95200 25.34000
C  15.52800 -0.22900 26.05400
N  17.84100 -2.40800 30.24600
C  17.32600 -1.53600 31.20200
C  17.91300 -1.88400 32.59500
C  18.92100 -3.00800 32.35600
C  18.68400 -3.38500 30.83100
C  20.39600 -2.77700 32.68900
C  16.70200 -2.15400 33.57200
C  16.90200 -1.46500 34.98200
H  18.23400 -0.83800 35.35800
N  18.71500 -4.03200 27.82900
C  19.45100 -4.69600 28.74500
C  20.24500 -5.72800 28.07600
C  20.10200 -5.53500 26.67800
C  19.02000 -4.50600 26.52900
C  20.93300 -6.79100 28.84500
C  20.86100 -6.27400 25.47800
O  20.43100 -6.20800 24.32900
C  22.03800 -7.06200 25.69500
N  17.12000 -2.02700 25.93800
C  17.73200 -2.86000 25.04400
C  17.32400 -2.32800 23.57100
C  16.11200 -1.41600 23.84500
C  16.28900 -1.22400 25.37000
C  18.47500 -1.82800 22.73600
C  14.77000 -2.00300 23.51500
C  13.80500 -1.08500 22.71600
N  16.34100 -0.63100 28.27300
C  15.57700 0.12100 27.37400
C  14.80400 1.16100 28.03600
C  15.25500 0.98200 29.39600
C  16.25300 -0.02900 29.45800
C  13.92200 2.18400 27.37000
C  15.05400 1.51000 30.68700
O  14.27100 2.35800 31.05400
C  15.83800 0.67500 31.69100
C  16.80900 1.59800 32.32300
O  17.91800 1.73200 31.88600
O  16.32600 2.05500 33.45200
C  17.22600 2.94000 34.21000
H  19.78500 -5.18500 30.80900
H  18.94400 -4.40700 24.43200
H  14.75800 0.32900 25.51600
H  18.39400 -0.92200 32.77600
H  18.64000 -3.78500 33.06600
H  20.99100 -3.06900 31.82400
H  20.76600 -3.28500 33.58000
H  20.63000 -1.73800 32.92500
H  16.66600 -3.22900 33.75100
H  15.76300 -1.85600 33.10400
H  16.63900 -2.24400 35.69700
H  16.13000 -0.69600 35.02700
H  20.92100 -7.73500 28.30000
H  20.32600 -7.02700 29.71900
H  21.94200 -6.43200 29.04700
H  22.91000 -6.41200 25.78100
H  22.22000 -7.57900 24.75300
H  21.91700 -7.81100 26.47800
H  16.96300 -3.24300 23.10200
H  16.28300 -0.37200 23.58100
H  18.35200 -0.93700 22.12100
H  18.80800 -2.54400 21.98500
H  19.28600 -1.48400 23.37700
H  14.06000 -2.12700 24.33200
H  14.86900 -2.95900 23.00200
H  12.81200 -0.86200 23.10500
H  13.60200 -1.64000 21.80100
H  14.39900 -0.19800 22.49400
H  13.30700 2.66600 28.13000
H  13.28800 1.71600 26.61700
H  14.44500 2.95700 26.80700
H  15.25000 0.19000 32.47000
H  16.77400 3.92800 34.30200
H  18.27200 3.03100 33.91700
H  17.27000 2.45200 35.18400
Mg 43.97800 4.27600 46.79800
C  41.61600 6.75000 46.09400
C  41.57400 1.98400 46.35900
C  46.45200 1.98100 46.54000
C  46.25400 6.79600 47.49100
N  41.96000 4.35500 46.10300
C  41.16200 5.44200 45.81400
C  39.72300 4.99900 45.47900
C  39.66200 3.67000 46.22700
C  41.14000 3.28200 46.23900
C  39.17600 3.81100 47.71800
C  39.36500 4.94500 43.93700
C  38.35100 5.87000 43.44100
H  38.80300 6.54000 42.14100
N  44.00200 2.18200 46.53200
C  42.89400 1.46700 46.45100
C  43.30800 0.04200 46.31300
C  44.74400 -0.00600 46.26700
C  45.14900 1.43200 46.43400
C  42.41700 -1.13900 46.44700
C  45.58300 -1.32500 46.28800
O  45.06300 -2.37400 46.47000
C  47.06900 -1.34200 45.97200
N  46.00800 4.37800 46.88800
C  46.86600 3.28400 46.87600
C  48.31800 3.73000 47.15500
C  48.14700 5.12200 47.70500
C  46.67800 5.47300 47.29400
C  49.17900 2.68800 48.04200
C  49.24700 6.08600 47.18700
C  49.90200 6.93800 48.26000
N  43.97700 6.41500 46.76000
C  44.89300 7.30400 47.19900
C  44.45000 8.65700 47.02300
C  43.10300 8.48000 46.66300
C  42.89500 7.08700 46.51400
C  45.24500 9.92300 47.30100
C  41.89500 9.13600 46.30500
O  41.65000 10.31900 46.33300
C  40.80200 8.09100 46.00900
C  39.84800 8.16700 47.08100
O  39.97800 7.77200 48.28800
O  38.65800 8.77200 46.60200
C  37.44900 8.85100 47.37800
H  40.71400 1.32200 46.23700
H  47.30500 1.30600 46.44300
H  46.94500 7.51600 47.93500
H  38.95300 5.58300 45.98200
H  39.14000 2.88600 45.67900
H  39.88300 3.25300 48.33200
H  38.16900 3.39300 47.72600
H  39.22200 4.77300 48.22900
H  38.93700 3.97000 43.70200
H  40.29200 5.19600 43.42100
H  38.25600 6.61000 44.23600
H  37.43900 5.32600 43.19700
H  42.81600 -1.82900 45.70300
H  41.38100 -0.86100 46.25500
H  42.34000 -1.53300 47.46000
H  47.27000 -0.37600 45.51000
H  47.31800 -2.09900 45.22800
H  47.69800 -1.36400 46.86300
H  48.90400 3.86200 46.24500
H  48.22200 5.17000 48.79100
H  49.54500 3.24000 48.90800
H  49.98600 2.38700 47.37500
H  48.56200 1.86000 48.39100
H  48.89800 6.86500 46.50900
H  50.03100 5.59800 46.60800
H  49.66000 7.98900 48.10400
H  50.96400 6.69600 48.21400
H  49.53500 6.64700 49.24400
H  45.69600 10.27700 46.37400
H  46.12200 9.80600 47.93600
H  44.51100 10.66300 47.62100
H  40.39900 8.19000 45.00100
H  37.49300 8.45800 48.39400
H  36.70000 8.22200 46.89800
H  37.01300 9.84900 47.43400

