158

Mg 25.71000 -8.25000 48.72800
C  27.33000 -5.72900 47.00600
C  23.11200 -8.07200 46.59100
C  24.58900 -11.32100 49.97300
C  28.83300 -8.95100 50.24900
N  25.42400 -7.23400 46.80700
C  26.11900 -6.13400 46.41200
C  25.34700 -5.42000 45.30200
C  23.89300 -5.99900 45.33600
C  24.14100 -7.09200 46.41300
C  22.74900 -5.05800 45.81300
C  26.07700 -5.45200 43.89800
C  26.44700 -4.11200 43.31400
H  25.59800 -3.76000 42.01000
N  23.99900 -9.40000 48.48800
C  22.99900 -9.08700 47.55700
C  21.86300 -9.92600 47.82100
C  22.23700 -10.65000 49.02100
C  23.68500 -10.51000 49.19600
C  20.64400 -9.92100 47.01200
C  21.30500 -11.52600 49.75700
O  20.10900 -11.60800 49.46600
C  21.78400 -12.29600 50.92300
N  26.60800 -9.83900 50.02000
C  25.95600 -11.03500 50.29800
C  26.94300 -12.07800 51.00900
C  28.13600 -11.09500 51.31600
C  27.88500 -9.94800 50.41800
C  26.27600 -12.65300 52.33400
C  29.51100 -11.66700 51.07500
C  30.40500 -11.67800 52.24400
N  27.64100 -7.42600 48.78600
C  28.81000 -7.76900 49.46200
C  29.92600 -6.86100 49.15200
C  29.30200 -5.89900 48.33900
C  27.96800 -6.35600 48.08700
C  31.36300 -6.95700 49.76400
C  29.43300 -4.64200 47.61000
O  30.39000 -3.84400 47.51900
C  28.13900 -4.53300 46.78700
C  27.50400 -3.21100 46.99800
O  26.74800 -2.88000 47.90200
O  27.92600 -2.37400 45.99400
C  27.56900 -1.00500 46.07300
H  22.24300 -7.91100 45.95000
H  24.24800 -12.32500 50.23800
H  29.76100 -9.04200 50.81700
H  25.24400 -4.38000 45.61300
H  23.62500 -6.48300 44.39800
H  22.05700 -4.95600 44.97700
H  23.22200 -4.12800 46.12700
H  22.22000 -5.58600 46.60700
H  25.40100 -5.90500 43.17300
H  26.95200 -6.09200 44.01300
H  27.49600 -4.25400 43.05300
H  26.34500 -3.31800 44.05300
H  20.24500 -10.90100 46.75000
H  20.94100 -9.53900 46.03500
H  19.80000 -9.32500 47.36000
H  22.33300 -13.20300 50.66900
H  21.04100 -12.73100 51.59200
H  22.42900 -11.65100 51.51800
H  27.13900 -12.92800 50.35500
H  27.96100 -10.66700 52.30300
H  25.90200 -13.64800 52.09200
H  25.52000 -11.99700 52.76500
H  27.13200 -12.79700 52.99300
H  30.04300 -11.13200 50.28800
H  29.39200 -12.69600 50.73500
H  31.31700 -11.19700 51.89000
H  30.54700 -12.65500 52.70500
H  29.93100 -11.11000 53.04400
H  31.27200 -7.11400 50.83900
H  31.76200 -5.95600 49.60100
H  32.01900 -7.70300 49.31400
H  28.58300 -4.58200 45.79200
H  28.05800 -0.43200 45.28500
H  27.80600 -0.50300 47.01100
H  26.51800 -0.78900 45.88100
Mg 43.79400 3.91000 47.14100
C  41.75300 6.85000 46.96900
C  40.74100 2.01000 47.08200
C  45.39600 1.04600 46.50700
C  46.55400 5.79200 46.71500
N  41.49600 4.39500 47.13600
C  40.95700 5.64900 47.08300
C  39.38100 5.56200 47.23900
C  39.17800 4.03500 47.29300
C  40.55800 3.42200 47.10500
C  38.44400 3.43900 48.56100
C  38.57200 6.27700 46.13100
C  38.67100 5.74600 44.76800
H  38.65000 6.73000 43.61000
N  43.22700 1.79800 46.93500
C  41.94900 1.24300 46.90300
C  42.01200 -0.18000 46.69200
C  43.41700 -0.51500 46.52800
C  44.08900 0.78200 46.56200
C  40.84300 -1.05400 46.39800
C  43.96700 -1.92900 46.24400
O  43.28000 -2.94600 46.19600
C  45.50000 -2.22000 45.91800
N  45.68000 3.52900 46.37900
C  46.13900 2.18600 46.52400
C  47.66400 2.22500 46.55200
C  48.04900 3.75800 46.73200
C  46.71600 4.42700 46.65800
C  48.25600 1.30400 47.63200
C  49.08300 4.31600 45.67100
C  50.49800 4.31500 46.25400
N  44.17300 5.92400 46.69300
C  45.38600 6.58900 46.68100
C  45.18500 7.99200 46.70300
C  43.79500 8.15800 46.89200
C  43.19500 6.87100 46.84500
C  46.25400 8.94000 46.56300
C  42.75700 9.11100 47.00700
O  42.75200 10.34500 47.07400
C  41.47200 8.27400 47.07400
C  40.71600 8.65800 48.33700
O  40.85800 8.10800 49.42300
O  39.88000 9.64800 48.04200
C  39.17300 10.24300 49.13900
H  39.81400 1.44400 47.19000
H  45.97800 0.12800 46.40100
H  47.53000 6.28100 46.68800
H  39.17600 5.99700 48.21700
H  38.58200 3.70200 46.44300
H  38.14000 4.35500 49.06600
H  39.12400 2.79300 49.11600
H  37.54700 2.88200 48.28800
H  38.90700 7.30600 46.00800
H  37.52100 6.23700 46.41900
H  37.70700 5.28300 44.56000
H  39.43500 4.97700 44.65800
H  41.07000 -1.63800 45.50600
H  39.98400 -0.42500 46.16600
H  40.42300 -1.59000 47.24900
H  45.62800 -1.64100 45.00300
H  45.56400 -3.23200 45.51900
H  46.16900 -2.10100 46.77000
H  47.89500 1.79800 45.57600
H  48.45300 3.93800 47.72800
H  49.24900 1.66800 47.89500
H  48.35900 0.26400 47.32100
H  47.67100 1.23500 48.54900
H  48.89400 5.33500 45.33600
H  49.07500 3.65300 44.80500
H  50.44100 4.15000 47.33000
H  50.90600 5.29200 45.99600
H  51.07700 3.46300 45.89700
H  47.15000 8.44300 46.19200
H  46.36600 9.39800 47.54600
H  45.94800 9.65500 45.80000
H  40.83500 8.42700 46.20200
H  39.81000 10.30900 50.02200
H  38.42600 9.50700 49.43600
H  38.58500 11.11500 48.85400

