158

Mg 8.98100 3.43200 27.41400
C  10.84900 1.89500 29.97100
C  7.25600 5.09400 29.77400
C  7.24300 4.78300 24.94700
C  10.72000 1.34400 25.19400
N  9.04400 3.41100 29.59400
C  9.95000 2.78700 30.44200
C  9.77500 3.25400 31.85400
C  8.52300 4.17000 31.82300
C  8.27400 4.28200 30.31200
C  7.21200 3.71100 32.55000
C  11.04000 3.91400 32.43600
C  11.48400 3.38500 33.83900
H  11.54200 4.42000 34.96000
N  7.37800 4.64800 27.41700
C  6.75200 5.20400 28.44400
C  5.75700 6.08300 28.00500
C  5.81800 6.13400 26.64000
C  6.80600 5.13500 26.27100
C  4.95700 6.76200 29.03200
C  5.02000 6.93500 25.66100
O  5.24300 6.95300 24.47500
C  3.94600 7.86600 26.09200
N  8.78100 2.99600 25.38100
C  8.12700 3.80700 24.56600
C  8.39600 3.43300 23.14100
C  9.68700 2.54700 23.15200
C  9.81600 2.33800 24.67300
C  7.19600 2.77800 22.38200
C  10.93600 3.26700 22.69400
C  12.10200 2.49200 21.92200
N  10.46800 1.91300 27.49900
C  11.03200 1.14400 26.55000
C  11.97800 0.18100 27.09800
C  11.94500 0.50400 28.46200
C  11.08600 1.56400 28.62000
C  12.65000 -0.82200 26.32500
C  12.52300 0.17600 29.72500
O  13.38600 -0.66300 29.94700
C  11.89200 1.13200 30.79200
C  11.28400 0.28200 31.82900
O  10.26800 -0.33400 31.68700
O  12.04800 0.30400 32.97400
C  11.55000 -0.55100 34.15800
H  6.74400 5.61700 30.58500
H  6.74200 5.24700 24.09500
H  11.37700 0.80300 24.51100
H  9.49100 2.37000 32.42400
H  8.76100 5.15800 32.21600
H  6.40200 3.40000 31.89000
H  6.94700 4.42900 33.32600
H  7.46600 2.80500 33.09900
H  10.87800 4.98900 32.51800
H  11.93100 3.76400 31.82600
H  12.47500 2.99400 33.60500
H  10.92400 2.48500 34.09200
H  4.13000 7.36000 28.65000
H  5.56700 7.49000 29.56600
H  4.55600 6.01200 29.71500
H  4.36300 8.70300 26.65200
H  3.09100 7.28200 26.43200
H  3.54300 8.44000 25.25700
H  8.58700 4.35800 22.59600
H  9.53900 1.66000 22.53600
H  6.38800 3.24200 22.94800
H  7.16700 1.68900 22.38100
H  6.95500 3.16600 21.39200
H  11.40200 3.76000 23.54700
H  10.75800 4.15000 22.08100
H  12.27000 2.84000 20.90300
H  11.90000 1.43100 21.77400
H  13.08100 2.53600 22.40000
H  12.88800 -0.70200 25.26800
H  12.01200 -1.70400 26.27700
H  13.63200 -0.97700 26.77200
H  12.60100 1.83400 31.23000
H  11.40500 -1.62700 34.05600
H  10.52000 -0.23300 34.32200
H  11.95100 -0.27500 35.13300
Mg 44.61200 3.59100 48.12600
C  42.51600 6.44600 47.66500
C  41.90500 1.57100 47.86200
C  46.66300 0.92600 47.46100
C  47.35200 5.75500 48.01100
N  42.44000 4.01200 47.55100
C  41.80900 5.24500 47.57200
C  40.24100 5.04600 47.29200
C  40.07600 3.48800 47.70100
C  41.62700 2.96500 47.74800
C  39.30900 3.28000 49.03900
C  39.86400 5.41000 45.78600
C  38.57600 6.08900 45.63800
H  38.02200 5.96700 44.26600
N  44.28500 1.52800 47.81800
C  43.12300 0.84900 47.84400
C  43.38200 -0.56600 47.60200
C  44.73500 -0.74900 47.45400
C  45.28300 0.60500 47.46600
C  42.25600 -1.60400 47.72700
C  45.39600 -2.13400 47.16400
O  44.77400 -3.20700 47.14700
C  46.89700 -2.22600 46.89700
N  46.61900 3.39400 47.67900
C  47.25300 2.16800 47.64500
C  48.81700 2.31400 47.71500
C  48.99000 3.82400 47.78800
C  47.57000 4.36700 47.93800
C  49.31000 1.47600 48.90700
C  49.76100 4.37000 46.49000
C  51.28800 4.08600 46.51200
N  44.87900 5.68000 47.92700
C  46.09200 6.36100 47.95300
C  45.75400 7.85000 47.87500
C  44.39800 7.88200 47.74200
C  43.92200 6.55600 47.74900
C  46.80800 8.95600 48.00000
C  43.22000 8.79400 47.66300
O  43.18200 9.98700 47.63600
C  41.98800 7.85600 47.56900
C  41.15900 8.06400 48.72100
O  41.29100 7.50400 49.83400
O  40.24800 9.02900 48.36800
C  39.22600 9.47200 49.40200
H  40.96600 1.02300 47.96900
H  47.42700 0.14600 47.45100
H  48.19800 6.43100 48.15000
H  39.67100 5.65200 47.99700
H  39.54000 2.92600 46.93700
H  38.77800 4.18800 49.32700
H  40.02500 2.86100 49.74600
H  38.55600 2.51700 48.84300
H  39.88500 4.43800 45.29500
H  40.65700 5.99800 45.32400
H  38.94500 7.10600 45.76900
H  37.86500 5.86400 46.43300
H  42.44500 -2.38300 46.98800
H  41.33100 -1.13700 47.38800
H  42.29900 -2.08900 48.70200
H  47.47600 -1.91900 47.76800
H  47.19000 -1.52600 46.11600
H  47.31200 -3.21000 46.67900
H  49.19000 1.78300 46.83900
H  49.55900 4.14700 48.65900
H  49.67300 2.13500 49.69600
H  50.06600 0.75300 48.60000
H  48.51100 1.02000 49.49100
H  49.55100 5.39600 46.18700
H  49.36300 3.82500 45.63400
H  51.79400 4.73000 45.79200
H  51.60000 3.08700 46.20700
H  51.60300 4.38500 47.51200
H  46.60000 9.67500 47.20800
H  47.82000 8.55400 48.02800
H  46.72500 9.40000 48.99200
H  41.56400 8.12300 46.60100
H  38.25000 9.01900 49.22900
H  39.15400 10.55100 49.27000
H  39.45600 9.29000 50.45200

