158

Mg 7.61200 1.72900 28.60800
C  9.25600 0.28100 31.27200
C  6.09300 4.01200 30.70100
C  6.03700 3.10900 25.97800
C  9.35400 -0.51600 26.35200
N  7.62200 1.98700 30.68400
C  8.42200 1.33300 31.65200
C  8.31200 1.99900 32.99900
C  7.13600 3.06400 32.78200
C  6.93000 3.03900 31.27400
C  5.75200 2.68500 33.48700
C  9.62300 2.66400 33.47600
C  9.47500 3.44900 34.77700
H  10.49400 3.01600 35.80700
N  6.17100 3.27500 28.36300
C  5.66300 4.07700 29.31100
C  4.72700 5.03100 28.73600
C  4.59100 4.67300 27.36400
C  5.61500 3.65300 27.17800
C  4.04400 6.18800 29.51100
C  3.69800 5.17100 26.29000
O  3.88800 4.78000 25.16900
C  2.73200 6.34200 26.58600
N  7.79200 1.34200 26.52100
C  6.90700 2.06900 25.67600
C  7.06000 1.48500 24.21400
C  8.19600 0.37900 24.29600
C  8.48300 0.45300 25.78700
C  5.78100 0.96600 23.53400
C  9.50900 0.53000 23.41300
C  10.01300 -0.78700 22.72400
N  8.99900 0.12700 28.70600
C  9.59600 -0.71500 27.76100
C  10.45300 -1.64200 28.44700
C  10.37700 -1.27700 29.83300
C  9.55000 -0.18000 29.93100
C  11.30000 -2.74000 27.87200
C  10.80200 -1.59100 31.19700
O  11.67000 -2.36000 31.66600
C  10.19900 -0.57300 32.12000
C  9.55600 -1.23600 33.25500
O  8.59700 -1.97700 33.19200
O  10.13000 -0.96900 34.44200
C  9.50400 -1.55700 35.67700
H  5.76600 4.83900 31.33500
H  5.65900 3.44700 25.01100
H  10.09600 -0.97200 25.69500
H  8.02700 1.31000 33.79400
H  7.34700 4.05700 33.17900
H  5.97000 2.50200 34.53900
H  5.40000 1.75700 33.03600
H  4.98000 3.43600 33.31600
H  9.97700 3.42600 32.78100
H  10.33600 1.84100 33.52700
H  8.44300 3.30700 35.09600
H  9.77000 4.48400 34.60000
H  4.46900 7.17400 29.32000
H  4.19600 5.96300 30.56700
H  2.98300 6.30900 29.29400
H  2.13600 6.43600 25.67800
H  3.24200 7.22900 26.96100
H  2.13400 5.94800 27.40700
H  7.53800 2.26500 23.62200
H  7.66700 -0.53300 24.01800
H  5.01300 0.85900 24.30000
H  5.92900 0.11700 22.86700
H  5.27200 1.81000 23.06900
H  10.38600 0.82800 23.98900
H  9.31500 1.34200 22.71300
H  9.31300 -1.60400 22.90000
H  11.04500 -0.96200 23.02900
H  10.12100 -0.73600 21.64000
H  11.34500 -2.57800 26.79500
H  10.87100 -3.69700 28.16900
H  12.30700 -2.60600 28.26900
H  11.05300 -0.01200 32.49900
H  8.55800 -2.09500 35.60700
H  9.31200 -0.70600 36.33100
H  10.31100 -2.21200 36.00200
Mg -0.80300 33.68800 27.18500
C  -2.78200 31.91200 29.42600
C  0.49100 35.40900 29.80900
C  0.61200 35.82200 24.88000
C  -2.33700 32.00900 24.53400
N  -1.14600 33.62800 29.34400
C  -1.84700 32.73100 30.06500
C  -1.59400 32.83500 31.55700
C  -0.60000 34.06000 31.68800
C  -0.36400 34.37700 30.21800
C  -1.11800 35.21500 32.57200
C  -1.05000 31.58000 32.21300
C  -1.79800 30.96200 33.40400
H  -1.02800 30.89900 34.74100
N  0.44700 35.29800 27.35000
C  0.85400 35.84200 28.52500
C  1.76600 36.95100 28.18700
C  1.87100 37.08900 26.79300
C  0.98700 36.04500 26.24900
C  2.42600 37.77900 29.24900
C  2.60800 38.06600 25.95000
O  2.81700 37.90800 24.74900
C  3.16400 39.36200 26.55900
N  -0.86700 33.84300 25.04000
C  -0.30900 34.87700 24.31000
C  -0.80100 34.85200 22.81400
C  -1.45300 33.44900 22.74200
C  -1.61100 33.11500 24.22800
C  -1.73400 35.96600 22.50200
C  -0.55600 32.42700 21.95100
C  0.48600 31.44900 22.71600
N  -2.16000 32.19500 26.97500
C  -2.66500 31.50500 25.85200
C  -3.59400 30.50700 26.26600
C  -3.66200 30.67200 27.67700
C  -2.87800 31.71500 28.00800
C  -4.40700 29.59500 25.39000
C  -4.27100 30.23000 28.83800
O  -5.15900 29.40900 28.94900
C  -3.67100 30.95300 30.07400
C  -4.81400 31.65600 30.71700
O  -5.44700 32.59100 30.24600
O  -5.10700 31.06600 31.92400
C  -6.25900 31.47800 32.74500
H  0.90000 36.02200 30.61500
H  1.03900 36.58300 24.22300
H  -2.69300 31.30100 23.78200
H  -2.55500 33.16400 31.95200
H  0.35600 33.72500 32.09100
H  -2.00400 35.06200 33.18800
H  -1.30600 36.01300 31.85400
H  -0.36400 35.34800 33.34800
H  0.00600 31.75600 32.41700
H  -0.98200 30.78400 31.47200
H  -1.89300 29.89100 33.22500
H  -2.79400 31.39700 33.48800
H  3.50500 37.71500 29.10900
H  2.26400 37.38300 30.25100
H  1.99600 38.77900 29.30600
H  2.27700 39.66100 27.11800
H  3.48500 39.98700 25.72600
H  3.92900 39.03900 27.26500
H  0.07000 34.93400 22.16400
H  -2.42200 33.49500 22.24500
H  -1.63200 36.69000 23.31100
H  -2.78100 35.66300 22.48800
H  -1.50700 36.29200 21.48700
H  -0.06200 32.89600 21.10000
H  -1.31300 31.77000 21.52200
H  0.12200 30.42500 22.62700
H  0.47700 31.59900 23.79600
H  1.46800 31.66800 22.29600
H  -5.40500 29.59700 25.83000
H  -3.97600 28.64000 25.08800
H  -4.60900 30.17600 24.49100
H  -3.13500 30.25700 30.71900
H  -6.00100 32.40400 33.25800
H  -6.52000 30.66600 33.42400
H  -7.11100 31.70100 32.10300

