158

Mg 44.33700 4.74100 46.40500
C  42.31300 7.73300 46.02300
C  41.38700 3.00000 45.73200
C  46.27000 2.22100 45.99400
C  47.15200 6.90200 46.59500
N  42.07500 5.36400 45.95800
C  41.53200 6.57400 45.89600
C  40.01200 6.45700 45.69900
C  39.70700 4.90400 45.78500
C  41.13000 4.39100 45.81400
C  38.86600 4.39400 47.04200
C  39.54500 7.25300 44.48400
C  40.48400 7.07900 43.23800
H  39.79700 7.14400 41.78600
N  43.87300 2.87100 45.97000
C  42.62000 2.36800 45.72400
C  42.82700 0.94700 45.38400
C  44.18900 0.58700 45.47000
C  44.88600 1.87600 45.87600
C  41.75000 -0.00500 44.91400
C  44.83600 -0.79000 45.07400
O  44.15800 -1.73200 44.78600
C  46.24500 -1.01600 44.85600
N  46.41300 4.56500 46.40800
C  47.01300 3.38000 46.09200
C  48.56000 3.44400 46.19100
C  48.79400 4.98300 46.38400
C  47.37900 5.56000 46.45500
C  49.19700 2.60000 47.33100
C  49.73400 5.59800 45.32400
C  51.21500 5.46200 45.72400
N  44.72200 6.83400 46.36100
C  45.90000 7.54900 46.53900
C  45.66100 8.96600 46.59400
C  44.23800 9.05600 46.52600
C  43.71000 7.70300 46.30700
C  46.70200 10.16700 46.60000
C  43.17900 9.97700 46.49300
O  43.15900 11.19800 46.54100
C  41.90400 9.20700 46.08300
C  40.83000 9.49000 47.03900
O  40.65700 8.85800 48.09200
O  39.88700 10.32200 46.54000
C  38.58200 10.49200 47.18300
H  40.50600 2.38500 45.53700
H  46.98000 1.39300 45.92900
H  47.94400 7.63500 46.76200
H  39.55800 6.91500 46.57700
H  39.43900 4.52000 44.80100
H  39.58200 3.84700 47.65400
H  38.06800 3.76500 46.64700
H  38.39800 5.21100 47.59100
H  39.34300 8.25800 44.85500
H  38.55700 6.83700 44.28800
H  40.91700 6.08200 43.31700
H  41.21900 7.88400 43.25100
H  40.76400 0.38000 45.17500
H  41.88000 -0.87000 45.56400
H  41.84500 -0.24200 43.85400
H  46.68000 -0.99800 45.85500
H  46.66200 -0.19800 44.26900
H  46.43300 -1.94100 44.31100
H  48.88100 3.23400 45.17100
H  49.26300 5.04500 47.36600
H  48.51100 1.98100 47.90800
H  49.68800 3.12400 48.15100
H  49.88900 1.89200 46.87500
H  49.47100 6.65500 45.31100
H  49.57000 5.25800 44.30100
H  51.37800 4.96000 46.67800
H  51.57400 6.49100 45.71200
H  51.74000 4.83800 45.00100
H  46.41800 10.87900 47.37500
H  46.62100 10.50000 45.56500
H  47.68800 9.83300 46.92100
H  41.60300 9.57500 45.10200
H  37.96000 9.61300 47.35500
H  38.01100 11.15300 46.53100
H  38.69900 10.99300 48.14300
Mg 48.74100 45.94100 44.16900
C  45.50600 46.21500 42.81600
C  48.85800 42.86900 42.71200
C  51.95800 45.99900 44.80800
C  48.55300 49.41400 44.99300
N  47.29500 44.67200 42.94600
C  46.01000 44.92800 42.57500
C  45.47200 43.83900 41.58300
C  46.45400 42.69000 41.91800
C  47.62600 43.46500 42.56000
C  46.02500 41.55500 42.91500
C  45.58400 44.31700 40.05600
C  44.29400 44.48500 39.24100
H  44.03300 43.42400 38.21300
N  50.23300 44.57500 43.88500
C  50.07600 43.33400 43.31100
C  51.31400 42.57600 43.48900
C  52.31600 43.53400 43.98400
C  51.52600 44.76400 44.25000
C  51.52400 41.18700 42.97600
C  53.79700 43.32300 44.13600
O  54.19200 42.12700 44.00400
C  54.72400 44.30000 44.67100
N  50.02200 47.45700 44.91200
C  51.34100 47.20300 45.11600
C  52.22800 48.47800 45.34400
C  51.05000 49.57200 45.40400
C  49.81300 48.75700 45.12400
C  53.09400 48.44500 46.62900
C  51.22200 50.69400 44.33400
C  51.45800 52.05700 44.97200
N  47.33600 47.51900 44.15600
C  47.42300 48.86200 44.46600
C  46.14700 49.56500 44.13400
C  45.39900 48.53800 43.45200
C  46.18100 47.31000 43.42800
C  45.71500 50.96000 44.36100
C  44.11300 48.34600 42.72900
O  43.23800 49.15700 42.37300
C  44.13000 46.80400 42.33100
C  42.98100 46.14000 43.06300
O  42.81000 46.17200 44.30500
O  42.08200 45.59000 42.18700
C  41.08900 44.73500 42.81300
H  48.75600 41.80500 42.48900
H  53.04800 46.06000 44.84900
H  48.57100 50.48800 45.19000
H  44.45200 43.64200 41.91200
H  46.78500 42.23000 40.98700
H  45.67200 40.67300 42.38000
H  45.15500 41.88300 43.48400
H  46.79100 41.31800 43.65300
H  46.15000 43.52900 39.55900
H  46.20700 45.21100 40.07600
H  44.26900 45.45300 38.74100
H  43.41000 44.55200 39.87400
H  50.74700 40.99800 42.23500
H  51.46400 40.43500 43.76300
H  52.46400 41.19400 42.42300
H  55.77400 44.01100 44.64700
H  54.51600 44.44000 45.73200
H  54.70600 45.14000 43.97700
H  52.89200 48.58900 44.48700
H  50.95700 49.98500 46.40900
H  52.57100 48.91400 47.46300
H  53.88700 49.11000 46.28700
H  53.49100 47.45400 46.84800
H  50.32100 50.90300 43.75800
H  52.04500 50.39600 43.68400
H  52.51500 52.13800 45.22500
H  50.85800 52.11100 45.88100
H  51.12300 52.82400 44.27300
H  44.74800 50.87100 44.85700
H  45.79000 51.59500 43.47900
H  46.34500 51.40900 45.12800
H  43.94300 46.72900 41.25900
H  41.18300 43.71800 42.43400
H  40.09900 45.16100 42.65000
H  41.18600 44.68600 43.89700

