158

Mg 54.34100 24.33100 44.80200
C  51.74000 26.61200 43.99200
C  52.51400 21.80000 43.32600
C  57.17400 22.51000 44.58200
C  56.28500 27.17500 45.45400
N  52.32600 24.24400 43.79800
C  51.44300 25.30200 43.50400
C  50.32400 24.76300 42.62400
C  50.36600 23.24000 42.86200
C  51.80000 23.01100 43.40400
C  49.31000 22.64400 43.88600
C  50.34100 25.22600 41.16600
C  51.65300 25.78500 40.66100
H  52.57600 24.81800 39.87100
N  54.77700 22.36600 44.13500
C  53.86100 21.53600 43.59100
C  54.62500 20.32800 43.21000
C  55.96500 20.38300 43.71700
C  56.02900 21.76700 44.12900
C  53.91800 19.19600 42.41000
C  57.02300 19.25800 43.65300
O  56.69200 18.11400 43.27600
C  58.54100 19.49200 43.83000
N  56.51400 24.78900 44.83700
C  57.38800 23.83700 44.88300
C  58.83200 24.34300 45.21200
C  58.54200 25.86400 45.55100
C  56.97500 25.96700 45.22100
C  59.56400 23.71900 46.41900
C  59.36200 26.97100 44.89900
C  58.91600 27.61800 43.56500
N  54.02900 26.44600 44.96100
C  54.91900 27.48000 45.32700
C  54.18600 28.72000 45.47300
C  52.94800 28.46300 44.87000
C  52.92300 27.04600 44.57400
C  54.70300 29.97800 46.10400
C  51.59800 29.01300 44.64400
O  51.07000 30.13200 44.83400
C  50.88400 27.84900 43.89700
C  50.55800 28.35400 42.55100
O  51.38000 28.87200 41.82600
O  49.23900 28.18000 42.27500
C  48.78300 28.51300 40.84800
H  52.03400 20.90000 42.93700
H  58.14800 22.01700 44.60800
H  57.00300 27.98500 45.60000
H  49.45200 25.18000 43.12800
H  50.31500 22.68400 41.92600
H  48.84700 21.74800 43.47200
H  48.60700 23.45200 44.08900
H  49.78800 22.34100 44.81700
H  49.49200 25.89700 41.03200
H  50.31200 24.39400 40.46200
H  52.27900 26.26200 41.41500
H  51.43700 26.56700 39.93300
H  54.64300 18.63300 41.82300
H  53.21900 19.50600 41.63200
H  53.44500 18.59300 43.18400
H  58.73200 20.44100 43.32900
H  59.04900 18.67600 43.31500
H  58.58800 19.54100 44.91800
H  59.48800 24.41400 44.34400
H  58.60500 26.03900 46.62500
H  60.39700 23.13800 46.02200
H  58.81800 23.02900 46.81500
H  59.99500 24.40100 47.15200
H  60.31700 26.47000 44.73900
H  59.65000 27.77400 45.57800
H  59.49800 27.23800 42.72500
H  59.13800 28.68300 43.63200
H  57.88800 27.35200 43.32000
H  55.52800 30.49100 45.61000
H  55.02000 29.70300 47.11000
H  53.86100 30.66800 46.15100
H  49.93600 27.62900 44.38600
H  49.49800 28.33800 40.04400
H  48.46900 29.55700 40.87300
H  47.88300 27.92900 40.66000
Mg 46.65500 25.53300 29.04100
C  48.02300 27.77400 31.53700
C  46.03500 23.43300 31.76600
C  46.03600 23.14400 26.85700
C  47.92900 27.68900 26.74700
N  46.92800 25.67200 31.43800
C  47.39500 26.69500 32.16200
C  47.14300 26.48700 33.67400
C  46.79400 24.96100 33.73400
C  46.52100 24.71000 32.21800
C  47.74300 24.08400 34.50300
C  46.10400 27.35400 34.28500
C  46.43800 27.99200 35.62000
H  45.44300 28.00900 36.82400
N  45.94000 23.62200 29.28900
C  45.80400 22.93900 30.44600
C  45.30100 21.58600 30.13000
C  45.29100 21.53100 28.73400
C  45.77300 22.80400 28.19500
C  44.70100 20.69000 31.10500
C  45.05500 20.34500 27.84600
O  45.12800 20.36500 26.64800
C  44.64000 19.05200 28.42100
N  46.91700 25.43300 27.02800
C  46.55200 24.36000 26.26600
C  46.79900 24.71800 24.81700
C  47.17100 26.16900 24.80100
C  47.40800 26.41500 26.29500
C  47.79700 23.74400 24.06600
C  46.10500 27.17000 24.21700
C  46.51000 27.83600 22.87500
N  47.70100 27.41400 29.05600
C  48.12700 28.18100 28.05000
C  48.70600 29.41900 28.52700
C  48.66700 29.28500 29.91900
C  48.14600 28.04000 30.15000
C  49.33500 30.54200 27.72100
C  48.96200 29.89700 31.10900
O  49.46400 30.99500 31.42400
C  48.58200 28.98400 32.23200
C  49.72200 28.47900 33.08100
O  50.47300 27.58300 32.88100
O  49.63400 29.17500 34.26300
C  50.45500 28.72800 35.40500
H  45.96800 22.70400 32.57600
H  45.62600 22.58000 26.01600
H  48.16000 28.35600 25.91400
H  48.12100 26.66800 34.12000
H  45.84700 24.87400 34.26600
H  47.30800 23.58300 35.36700
H  48.60300 24.59300 34.93800
H  48.15700 23.29300 33.87800
H  45.15400 26.83200 34.40300
H  45.82100 28.11000 33.55200
H  46.42200 29.02000 35.25600
H  47.46800 27.81200 35.92800
H  45.55800 20.08300 31.39500
H  43.82500 20.14600 30.75100
H  44.55300 21.15900 32.07800
H  43.56400 19.09800 28.59100
H  45.25900 18.77600 29.27400
H  44.87800 18.29000 27.67900
H  45.81200 24.58400 24.37400
H  48.14300 26.32800 24.33500
H  48.66400 24.30900 23.72300
H  47.28000 23.46700 23.14800
H  48.11100 22.88500 24.65900
H  46.00500 27.97700 24.94300
H  45.12200 26.71900 24.08600
H  47.55900 27.65300 22.64200
H  46.32300 28.90900 22.91100
H  45.88000 27.37200 22.11600
H  50.23900 30.12700 27.27600
H  49.62000 31.45200 28.24900
H  48.64400 30.71700 26.89600
H  47.89400 29.60000 32.81100
H  51.47900 29.10100 35.38900
H  50.56400 27.64300 35.43300
H  50.14600 29.16300 36.35500

