158

Mg 46.95100 34.75300 26.71600
C  45.20900 33.27700 29.47800
C  47.28300 37.57700 28.69900
C  48.07500 36.37000 24.05600
C  46.45800 31.90200 24.81200
N  46.42500 35.29900 29.05600
C  45.64200 34.58600 29.89500
C  45.29800 35.38700 31.13500
C  45.94600 36.84600 30.80400
C  46.52400 36.60300 29.40800
C  44.95700 38.10600 30.85900
C  45.91700 34.80100 32.43200
C  45.84400 35.71000 33.66200
H  47.07000 36.28800 34.20900
N  47.59300 36.69200 26.47800
C  47.77700 37.65500 27.41800
C  48.51900 38.77200 26.82100
C  48.80300 38.32700 25.51200
C  48.11400 37.11900 25.25800
C  48.82500 39.99100 27.62800
C  49.79300 39.02800 24.53600
O  49.99100 38.57700 23.34900
C  50.53900 40.16900 25.04100
N  47.16900 34.23200 24.69400
C  47.66400 35.09000 23.78100
C  47.70200 34.35800 22.34200
C  47.51200 32.79300 22.67100
C  47.03200 32.93200 24.17900
C  46.60800 35.00300 21.43800
C  48.67700 31.82400 22.49100
C  49.86600 31.84400 23.45100
N  46.08300 32.96900 26.97100
C  46.02800 31.87400 26.18200
C  45.32300 30.75700 26.90400
C  44.91700 31.31100 28.09000
C  45.46700 32.62000 28.16900
C  44.86400 29.46100 26.27700
C  44.23200 31.03400 29.30900
O  43.58500 29.99600 29.66700
C  44.32700 32.31600 30.21600
C  44.75700 31.90900 31.51700
O  45.91800 31.73200 31.82500
O  43.69900 31.73100 32.32600
C  44.02900 31.12200 33.64400
H  47.46600 38.41800 29.37100
H  48.49500 36.92400 23.21400
H  46.45700 30.85500 24.49900
H  44.22000 35.35000 31.29100
H  46.69900 37.07700 31.55700
H  45.44700 38.88200 31.44700
H  44.02800 37.80100 31.34100
H  44.64500 38.40900 29.85900
H  46.91700 34.42300 32.21900
H  45.28800 33.97600 32.76700
H  45.53000 35.09600 34.50600
H  45.10700 36.49200 33.47600
H  48.39500 40.86200 27.13400
H  49.90300 40.12800 27.70100
H  48.34100 39.97700 28.60500
H  49.84500 40.84900 25.53500
H  51.15500 40.60300 24.25400
H  51.19400 39.60400 25.70400
H  48.67100 34.50200 21.86400
H  46.78500 32.30000 22.02600
H  46.08000 35.83400 21.90700
H  45.85500 34.27000 21.15000
H  47.12200 35.27900 20.51800
H  49.16900 32.12500 21.56600
H  48.30000 30.82700 22.26600
H  50.81600 31.52400 23.02300
H  49.55200 31.24500 24.30700
H  49.97900 32.87500 23.78700
H  43.84800 29.34100 26.65400
H  45.49800 28.66600 26.66900
H  44.77300 29.55400 25.19500
H  43.31400 32.71800 30.22900
H  43.20600 30.62900 34.16200
H  44.18300 31.99900 34.27300
H  44.88500 30.44900 33.70400
Mg 26.24200 50.91800 25.72200
C  24.06600 52.26400 28.05600
C  28.43700 50.13500 28.30200
C  28.54700 50.00300 23.41100
C  24.23400 52.08500 23.19900
N  26.23600 51.18900 27.95700
C  25.19800 51.64900 28.68900
C  25.46600 51.44100 30.22700
C  26.99800 50.99800 30.28800
C  27.23400 50.70600 28.76900
C  27.98500 52.16200 30.61200
C  24.54800 50.32900 30.97000
C  24.19400 50.41800 32.48000
H  25.10200 51.19300 33.41600
N  28.18100 50.15500 25.84800
C  28.89100 49.87100 27.01900
C  30.17300 49.25800 26.65400
C  30.30400 49.44200 25.24900
C  28.97900 49.90700 24.74700
C  31.23200 48.77200 27.69200
C  31.43500 49.12100 24.31200
O  31.41100 49.33000 23.10800
C  32.76100 48.57900 24.90600
N  26.46400 51.11900 23.63300
C  27.39600 50.55800 22.86000
C  27.06100 50.71600 21.37500
C  25.63600 51.34000 21.35500
C  25.43800 51.53600 22.81700
C  28.24300 51.51000 20.64900
C  24.57900 50.47200 20.50700
C  24.00800 49.17400 21.04100
N  24.42600 51.98600 25.61300
C  23.69100 52.44700 24.53500
C  22.39500 53.00400 25.04100
C  22.50400 52.91000 26.39300
C  23.75300 52.32500 26.70800
C  21.38300 53.65400 24.14600
C  21.80400 53.27200 27.57300
O  20.67400 53.79400 27.76500
C  22.83300 52.83000 28.77200
C  23.23100 53.98500 29.64000
O  24.03300 54.88800 29.43500
O  22.70100 53.92000 30.84200
C  23.09600 54.78800 31.95400
H  29.14100 49.85900 29.09000
H  29.24400 49.57500 22.68800
H  23.61800 52.45400 22.37600
H  25.26300 52.41300 30.67700
H  27.20300 50.10700 30.88000
H  28.10400 52.24600 31.69200
H  27.54600 53.07100 30.19800
H  28.94200 52.07600 30.09800
H  25.08100 49.38000 30.90600
H  23.55600 50.24800 30.52400
H  24.15300 49.43200 32.94300
H  23.17000 50.77700 32.59000
H  31.69900 47.82200 27.43400
H  30.80900 48.59600 28.68100
H  31.96100 49.58100 27.74700
H  33.52100 48.46000 24.13300
H  32.51700 47.57700 25.25600
H  33.07000 49.20600 25.74200
H  26.99600 49.73700 20.89900
H  25.55900 52.34900 20.94800
H  28.99500 51.82500 21.37300
H  27.77900 52.43700 20.31300
H  28.64700 50.97000 19.79300
H  25.02600 50.28200 19.53100
H  23.72100 51.14100 20.45100
H  22.92500 49.16500 20.92200
H  24.04900 49.03200 22.12100
H  24.46700 48.31700 20.54800
H  21.73400 53.84900 23.13300
H  21.10800 54.57300 24.66400
H  20.51600 53.00100 24.04900
H  22.33600 52.12600 29.44000
H  22.12000 55.22700 32.15800
H  23.93500 55.44400 31.72000
H  23.35200 54.20800 32.84000

