158

Mg 47.63400 16.71700 29.07900
C  45.55800 16.22200 31.93700
C  49.95200 18.16300 31.04800
C  49.31700 17.39900 26.24000
C  44.78600 15.68200 27.13000
N  47.62200 17.12800 31.21600
C  46.73800 16.86500 32.23500
C  47.32500 17.20500 33.58900
C  48.46300 18.17800 33.16200
C  48.75700 17.78700 31.73100
C  48.21000 19.69300 33.35500
C  47.70900 15.85900 34.25100
C  47.49500 15.87100 35.71800
H  47.31000 17.26200 36.35400
N  49.33700 17.67300 28.73100
C  50.20300 18.21500 29.64800
C  51.32700 18.86100 29.00900
C  51.06600 18.65800 27.58600
C  49.83200 17.94700 27.45100
C  52.44200 19.38200 29.84600
C  51.88200 19.13200 26.40200
O  51.58400 19.09500 25.25700
C  53.22100 19.77500 26.68700
N  47.16900 16.54000 27.01800
C  48.06200 16.82300 26.06200
C  47.49400 16.54700 24.69600
C  46.04500 16.07100 24.95600
C  45.98200 16.06100 26.45600
C  47.57000 17.76000 23.75500
C  45.71200 14.73500 24.30600
C  44.53100 14.77200 23.28000
N  45.62300 15.90000 29.41000
C  44.63400 15.56100 28.59000
C  43.43600 15.13900 29.38400
C  43.81300 15.37000 30.68300
C  45.07600 15.91700 30.64000
C  42.15600 14.54300 28.93900
C  43.33900 15.21300 32.05200
O  42.37800 14.66500 32.46200
C  44.40200 15.89500 32.91700
C  43.69100 17.02600 33.62400
O  43.36300 18.08700 33.09000
O  43.66400 16.86200 35.01200
C  42.98300 17.96100 35.74600
H  50.75000 18.60800 31.64600
H  49.89600 17.45600 25.31600
H  43.90400 15.38700 26.55800
H  46.48000 17.62700 34.13300
H  49.42200 17.92000 33.61100
H  48.99900 20.09600 33.99100
H  47.25700 19.90800 33.83900
H  48.34700 20.25800 32.43300
H  48.73400 15.55000 34.04400
H  47.16800 14.97900 33.90300
H  48.33500 15.34800 36.17400
H  46.75900 15.16700 36.10500
H  52.08600 20.20800 30.46100
H  53.29100 19.71800 29.25200
H  52.70200 18.72100 30.67300
H  53.97700 19.08900 27.06600
H  53.22600 20.57000 27.43300
H  53.49600 20.20800 25.72500
H  48.09500 15.73900 24.28100
H  45.33900 16.81200 24.58200
H  48.38500 17.63400 23.04300
H  47.77100 18.66400 24.32900
H  46.65500 17.94400 23.19100
H  45.49500 14.02900 25.10700
H  46.60300 14.38800 23.78300
H  44.83200 15.11800 22.29100
H  43.82000 15.52000 23.63000
H  44.19600 13.74200 23.15200
H  42.26900 13.46100 28.87300
H  41.92100 14.79800 27.90600
H  41.33400 14.87100 29.57500
H  44.73000 15.24300 33.72600
H  41.91800 17.95600 35.51700
H  43.36400 18.97200 35.60700
H  43.12500 17.67300 36.78800
Mg -10.87100 16.83500 41.33800
C  -7.58300 15.52000 41.02900
C  -9.67400 19.96300 40.75200
C  -14.04200 17.74400 40.99800
C  -11.90000 13.39600 41.64700
N  -8.83900 17.60900 40.83600
C  -7.63100 16.92600 40.87100
C  -6.49900 17.92700 40.58400
C  -7.14800 19.31200 40.81800
C  -8.60900 18.97500 40.81100
C  -6.68100 20.06600 42.04500
C  -5.81700 17.79100 39.06500
C  -4.29000 17.52000 39.00800
H  -3.78200 16.31600 38.17400
N  -11.77800 18.62800 40.94400
C  -11.15100 19.82300 40.70900
C  -12.13200 20.85300 40.49700
C  -13.40700 20.24200 40.62300
C  -13.14100 18.80100 40.81400
C  -11.79500 22.26400 40.14100
C  -14.80300 20.96800 40.45500
O  -14.79100 22.16500 40.21200
C  -16.17500 20.30000 40.55000
N  -12.67500 15.70300 41.30700
C  -13.86400 16.34000 41.13800
C  -15.07400 15.36100 41.31900
C  -14.30600 13.98300 41.50900
C  -12.83900 14.36400 41.53500
C  -16.11800 15.69500 42.45300
C  -14.74300 12.83500 40.55500
C  -14.98800 11.55100 41.35200
N  -10.01400 14.82300 41.41500
C  -10.54300 13.53700 41.58700
C  -9.53900 12.59800 41.63600
C  -8.29900 13.30500 41.48800
C  -8.67000 14.66300 41.24300
C  -9.80500 11.12300 41.89200
C  -6.89000 13.15800 41.53200
O  -6.24200 12.15500 41.78900
C  -6.39900 14.53000 41.09000
C  -5.37000 14.89700 42.00000
O  -5.45100 15.49400 43.05900
O  -4.16900 14.42600 41.45500
C  -2.98500 14.55700 42.32500
H  -9.33100 20.99800 40.69000
H  -15.03700 18.19200 40.95600
H  -12.17400 12.42600 42.06600
H  -5.65200 17.73800 41.24300
H  -6.98500 20.00000 39.98800
H  -5.68400 19.77700 42.37800
H  -7.36100 19.73100 42.82800
H  -6.71100 21.13700 41.84400
H  -6.09500 18.71900 38.56400
H  -6.26200 16.92800 38.57000
H  -3.87600 17.36800 40.00500
H  -3.78700 18.42000 38.65400
H  -12.17500 22.46800 39.14000
H  -10.73400 22.48600 40.02200
H  -12.14800 22.94400 40.91600
H  -16.14400 19.43700 39.88600
H  -17.02300 20.94900 40.32900
H  -16.26800 19.99600 41.59200
H  -15.67800 15.47400 40.41900
H  -14.48200 13.61100 42.51800
H  -16.12900 15.03200 43.31800
H  -17.09500 15.77000 41.97600
H  -15.84000 16.73200 42.64400
H  -13.94500 12.70000 39.82500
H  -15.65700 13.21500 40.09800
H  -15.84100 11.79000 41.98800
H  -14.15300 11.50100 42.05100
H  -15.09900 10.55300 40.93000
H  -10.58400 10.78600 41.20900
H  -10.04600 10.76400 42.89200
H  -8.93000 10.56700 41.55700
H  -5.89700 14.56400 40.12300
H  -2.57800 15.56700 42.38100
H  -2.18100 13.92100 41.95600
H  -3.17400 14.18400 43.33200

