158

Mg 41.44200 8.90300 29.67300
C  43.41600 10.21300 32.39200
C  39.17300 7.71600 31.84700
C  39.78000 7.62000 27.03900
C  44.13200 9.68500 27.50900
N  41.41700 8.95000 31.92400
C  42.19700 9.61800 32.88200
C  41.57400 9.39500 34.32000
C  40.37000 8.48500 34.01800
C  40.30000 8.36800 32.51000
C  40.41400 7.08800 34.62300
C  41.40300 10.82800 35.00700
C  40.38700 10.86600 36.15200
H  40.78100 11.84500 37.28000
N  39.68600 7.82900 29.52300
C  38.88000 7.49100 30.50400
C  37.61000 6.94300 30.05200
C  37.74900 7.06800 28.64900
C  39.08700 7.50000 28.31600
C  36.61300 6.21500 30.97700
C  36.69900 6.84400 27.52300
O  36.97900 6.97700 26.29800
C  35.27800 6.52600 28.02900
N  42.00700 8.30500 27.62900
C  41.08000 7.97700 26.72500
C  41.50700 8.25200 25.30300
C  42.91400 8.91400 25.35600
C  43.07400 8.97200 26.93200
C  41.32800 6.95300 24.49200
C  43.05600 10.29600 24.79000
C  42.18200 11.39000 25.42400
N  43.40400 9.77600 29.85600
C  44.33600 10.02900 28.86900
C  45.38300 10.75100 29.46300
C  45.07800 10.87300 30.84400
C  43.83700 10.23400 31.03100
C  46.45000 11.34200 28.64000
C  45.45700 11.42700 32.20200
O  46.51600 11.92000 32.49000
C  44.39700 10.93000 33.24900
C  45.14500 10.05300 34.29700
O  45.78100 9.04000 33.95100
O  44.88100 10.56300 35.55600
C  45.38000 9.78600 36.73900
H  38.39500 7.48600 32.57800
H  39.17500 7.40700 26.15500
H  44.85400 10.05800 26.78000
H  42.28400 8.80800 34.90200
H  39.47100 8.89400 34.48000
H  39.52800 6.93400 35.23800
H  41.29900 6.82500 35.20400
H  40.33800 6.28900 33.88600
H  41.06100 11.46800 34.19400
H  42.33300 11.22900 35.41100
H  40.25800 9.89000 36.61900
H  39.39400 11.26000 35.93200
H  37.12300 6.10300 31.93400
H  36.25100 5.31800 30.47500
H  35.76400 6.87900 31.14400
H  35.37600 5.64500 28.66400
H  34.52400 6.35700 27.26000
H  34.99800 7.41000 28.60100
H  40.78200 8.96800 24.91400
H  43.79200 8.33200 25.07700
H  42.15200 6.87700 23.78100
H  40.41100 7.07600 23.91500
H  41.22000 6.10200 25.16400
H  43.02900 10.39700 23.70500
H  44.12800 10.48800 24.84100
H  42.84100 12.03500 26.00500
H  41.44200 10.99700 26.12200
H  41.70800 12.09900 24.74500
H  46.83600 12.17800 29.22300
H  46.02000 11.81700 27.75900
H  47.22900 10.60600 28.44200
H  43.94900 11.78000 33.76400
H  45.90500 8.87100 36.46600
H  44.52700 9.51700 37.36100
H  45.98500 10.43900 37.36800
Mg 48.05400 15.90400 29.16600
C  45.76000 15.55900 31.71100
C  50.05900 17.71600 31.29600
C  50.08700 16.54100 26.54400
C  45.54200 14.56600 26.94000
N  47.88600 16.62100 31.29700
C  46.90000 16.26800 32.15600
C  47.35700 16.46600 33.61600
C  48.46400 17.53500 33.40000
C  48.88000 17.32100 31.95100
C  47.89800 18.97200 33.57400
C  47.93000 15.11800 34.18700
C  47.95900 14.89200 35.74500
H  48.01500 16.16200 36.68200
N  49.82300 16.90000 28.92000
C  50.50800 17.56100 29.93700
C  51.84900 17.96500 29.47800
C  51.89100 17.64500 28.07500
C  50.53400 17.00200 27.78800
C  52.88000 18.67800 30.23100
C  52.99900 17.84000 27.04300
O  52.94300 17.43800 25.91800
C  54.23000 18.71400 27.36700
N  47.77200 15.76400 27.06300
C  48.78400 16.06300 26.21300
C  48.27400 15.76400 24.76700
C  47.03400 14.90500 24.88400
C  46.75700 15.09100 26.40800
C  48.05900 17.09400 24.01700
C  47.27900 13.38400 24.50600
C  46.22100 12.82400 23.50500
N  46.11300 15.10900 29.24400
C  45.25400 14.60000 28.31600
C  44.04600 14.20200 28.94900
C  44.20400 14.50800 30.30800
C  45.46600 15.06200 30.45300
C  42.86800 13.59900 28.23000
C  43.59100 14.46400 31.59800
O  42.44800 14.07200 31.86000
C  44.59200 15.19100 32.58300
C  43.90900 16.35600 33.25900
O  43.24900 17.23200 32.76100
O  44.18100 16.20300 34.61300
C  43.41700 17.18800 35.42900
H  50.84600 18.12300 31.93500
H  50.77600 16.64900 25.70500
H  44.91100 14.01300 26.24100
H  46.50000 16.80300 34.19900
H  49.22000 17.45100 34.18100
H  48.59700 19.53600 34.19100
H  46.85100 18.96400 33.87700
H  47.91700 19.48100 32.61000
H  48.96600 15.05700 33.85500
H  47.51300 14.25500 33.66600
H  48.85700 14.32100 35.97800
H  47.15800 14.27000 36.14600
H  53.79900 18.10600 30.10500
H  52.75900 18.70800 31.31400
H  52.94400 19.74500 30.01500
H  53.74800 19.67000 27.56900
H  54.77900 18.77100 26.42700
H  54.84400 18.23300 28.12900
H  49.04300 15.20300 24.23600
H  46.21300 15.35600 24.32600
H  47.07800 17.09900 23.54300
H  48.76400 17.10800 23.18600
H  48.21100 17.87500 24.76300
H  47.26300 12.74000 25.38500
H  48.24700 13.41300 24.00600
H  45.30300 13.40700 23.42200
H  45.85400 11.88300 23.91500
H  46.72100 12.77700 22.53700
H  42.88600 12.51500 28.33800
H  42.80300 13.64800 27.14300
H  41.93000 13.97000 28.64300
H  45.02900 14.45900 33.26200
H  42.52600 16.63100 35.71800
H  43.27600 18.17900 34.99800
H  43.89300 17.36300 36.39300

