158

Mg 0.08600 7.35800 27.54100
C  1.15400 9.76900 29.93800
C  0.12500 5.06200 30.05100
C  -0.92000 5.18300 25.31200
C  0.43900 9.74200 25.10300
N  0.86000 7.42200 29.67900
C  1.04600 8.50500 30.47300
C  0.78700 8.04100 32.03800
C  0.98900 6.53000 31.96300
C  0.62100 6.31500 30.45800
C  2.27400 5.88600 32.58200
C  -0.65800 8.45500 32.62000
C  -0.79200 8.84800 34.12100
H  0.35300 8.32500 35.01000
N  -0.31200 5.38200 27.63000
C  -0.23600 4.58200 28.78100
C  -0.61900 3.27900 28.36100
C  -0.98500 3.29700 27.02600
C  -0.85600 4.67700 26.60400
C  -0.48700 2.11600 29.28700
C  -1.53900 2.10500 26.09800
O  -1.81100 2.15900 24.89700
C  -1.76100 0.79100 26.79600
N  -0.05200 7.42600 25.40100
C  -0.49800 6.39100 24.74300
C  -0.66000 6.63400 23.25800
C  -0.11300 8.05000 23.11100
C  0.13800 8.47600 24.63200
C  0.10100 5.53800 22.38300
C  -0.79400 9.17600 22.20900
C  -2.04800 9.70200 22.82900
N  0.80300 9.33100 27.43700
C  0.80400 10.16300 26.37900
C  1.36200 11.42600 26.79700
C  1.37000 11.36500 28.23600
C  1.08000 10.05400 28.59100
C  1.55700 12.61300 25.88900
C  1.66500 12.04800 29.50400
O  1.98600 13.24000 29.73600
C  1.33500 11.05300 30.65400
C  2.50400 10.98800 31.57700
O  3.68800 10.72500 31.24500
O  2.08000 11.42700 32.81000
C  3.05500 11.54000 33.89200
H  0.00400 4.44600 30.94500
H  -1.19400 4.40800 24.59300
H  0.40400 10.54100 24.35900
H  1.61700 8.45100 32.61300
H  0.13200 6.19200 32.54600
H  2.52200 6.62900 33.34000
H  3.12200 5.82900 31.90000
H  2.13200 5.00700 33.21200
H  -1.39700 7.72700 32.28400
H  -0.95500 9.31400 32.01900
H  -1.66200 8.31400 34.50200
H  -0.79000 9.93300 34.22900
H  -0.16600 1.16500 28.86300
H  -1.50200 1.86000 29.59200
H  -0.00000 2.24600 30.25400
H  -0.88500 0.27500 27.19000
H  -2.12700 0.04900 26.08700
H  -2.42300 0.86800 27.65800
H  -1.68800 6.60300 22.89800
H  0.88500 7.89400 22.70200
H  0.51800 6.00200 21.49000
H  -0.59500 4.79500 21.99300
H  0.89700 5.04300 22.93900
H  -0.94300 8.83500 21.18500
H  -0.17500 10.06600 22.09400
H  -1.92500 10.74700 23.11300
H  -2.39300 9.11700 23.68100
H  -2.86100 9.69400 22.10300
H  2.59000 12.96100 25.86600
H  0.91000 13.42000 26.23400
H  1.26000 12.37000 24.86900
H  0.46400 11.43500 31.18700
H  2.86100 10.91100 34.76100
H  3.06300 12.56900 34.25100
H  4.03700 11.27500 33.50100
Mg 47.17800 24.67600 28.21000
C  48.39500 26.86700 30.60000
C  46.66100 22.38000 30.83100
C  46.04900 22.40400 25.91600
C  48.11800 26.76200 25.77600
N  47.48900 24.60000 30.48500
C  47.89200 25.69500 31.18900
C  47.64900 25.44700 32.66100
C  47.39400 23.92900 32.80900
C  47.23400 23.56600 31.28700
C  48.54200 23.14700 33.46800
C  46.57100 26.43900 33.13600
C  46.90500 27.19800 34.51300
H  45.87900 27.14900 35.59200
N  46.31100 22.75900 28.37800
C  46.30600 21.97100 29.54300
C  45.88300 20.69000 29.19300
C  45.58900 20.67000 27.75800
C  45.95200 22.00100 27.28100
C  45.65400 19.56300 30.19400
C  45.08800 19.56400 26.95300
O  44.79300 19.68100 25.80900
C  44.78100 18.18800 27.59700
N  47.31500 24.44900 26.10700
C  46.75800 23.48000 25.35000
C  46.98400 23.83900 23.84000
C  47.41100 25.32700 23.89300
C  47.63400 25.52400 25.37000
C  47.91500 22.93300 22.90000
C  46.45000 26.33700 23.17900
C  46.81100 26.90300 21.69800
N  48.01700 26.44000 28.20000
C  48.33800 27.22600 27.08900
C  48.95700 28.45200 27.51300
C  48.99600 28.31900 28.89900
C  48.42200 27.11700 29.22500
C  49.45500 29.56300 26.65200
C  49.39400 29.02100 30.12300
O  49.97600 30.03400 30.30300
C  48.77800 28.16000 31.26900
C  49.73900 28.07500 32.37900
O  50.77200 27.44000 32.36400
O  49.22400 28.80700 33.45800
C  49.97800 28.82500 34.70600
H  46.42800 21.66300 31.62200
H  45.53400 21.81800 25.15200
H  48.35800 27.45700 24.96800
H  48.65200 25.67200 33.02200
H  46.50000 23.68500 33.38400
H  49.47200 23.71100 33.54100
H  48.86800 22.36500 32.78300
H  48.20500 22.58700 34.34100
H  45.59600 26.00500 33.35900
H  46.27200 27.14200 32.35900
H  46.96800 28.24800 34.22900
H  47.87700 26.77600 34.77000
H  44.59700 19.29700 30.19100
H  46.02400 19.70700 31.20900
H  46.08900 18.69200 29.70400
H  45.76400 17.86900 27.94400
H  44.54400 17.51200 26.77600
H  43.92300 18.18700 28.26900
H  45.98200 23.80500 23.41100
H  48.35000 25.67900 23.46600
H  48.79400 23.45100 22.51700
H  47.32900 22.63700 22.02900
H  48.27800 22.14700 23.56100
H  46.31500 27.21900 23.80500
H  45.44200 25.92500 23.13100
H  47.67900 26.38900 21.28500
H  47.02400 27.96400 21.82700
H  45.99100 27.00600 20.98700
H  49.63900 29.18400 25.64600
H  50.30600 30.05400 27.12300
H  48.62700 30.26800 26.58500
H  47.84600 28.61700 31.60100
H  51.04900 28.66100 34.59000
H  49.62200 28.06000 35.39600
H  49.93900 29.86700 35.02400

