158

Mg 0.99800 7.30000 25.59100
C  1.78500 9.13200 28.45600
C  1.20400 4.40700 27.40900
C  0.92000 5.72800 22.71500
C  1.35600 10.34700 23.79200
N  1.32800 6.86900 27.76500
C  1.57200 7.78900 28.80100
C  1.56400 6.97900 30.19500
C  1.58000 5.48400 29.71900
C  1.38100 5.58300 28.20100
C  2.97400 4.74700 30.11900
C  0.43300 7.39600 31.03300
C  0.81500 7.87300 32.42900
H  2.11000 7.47100 33.17900
N  0.88000 5.31700 25.11300
C  0.93500 4.26200 25.97500
C  0.78500 3.06800 25.22300
C  0.78400 3.38500 23.84500
C  0.88100 4.84600 23.85800
C  0.59300 1.70200 25.89500
C  0.64800 2.46600 22.68000
O  0.49900 2.91200 21.54200
C  0.52900 0.91200 22.79300
N  1.06200 7.94200 23.46900
C  1.01600 7.14000 22.45900
C  0.92000 7.78900 21.12800
C  0.66400 9.32400 21.52600
C  1.05300 9.24400 23.02200
C  2.22300 7.54200 20.17900
C  -0.77800 9.95300 21.27700
C  -0.86300 11.39300 20.73600
N  1.45500 9.31600 25.94700
C  1.53300 10.45800 25.14000
C  1.89800 11.66900 25.91600
C  2.00000 11.10300 27.19600
C  1.73300 9.71700 27.19100
C  1.87700 13.21300 25.51900
C  2.19000 11.53200 28.58800
O  2.40100 12.63300 29.10100
C  1.99300 10.22800 29.45000
C  3.08600 10.08600 30.37900
O  4.16400 9.58100 30.14600
O  2.78500 10.55400 31.63900
C  4.05000 10.80200 32.45900
H  1.23900 3.51300 28.03500
H  0.78000 5.19400 21.77300
H  1.55600 11.28100 23.26100
H  2.50700 7.17000 30.70700
H  0.83300 4.84600 30.19000
H  3.64000 5.36300 30.72200
H  3.48700 4.53900 29.18000
H  2.85400 3.88400 30.77400
H  -0.30300 6.59300 30.99900
H  0.07200 8.35000 30.64700
H  -0.01300 7.93900 33.13500
H  1.00200 8.94600 32.41600
H  -0.29500 1.30800 25.40000
H  0.41400 1.78100 26.96700
H  1.41900 1.03300 25.65200
H  1.44300 0.59500 23.29500
H  0.57300 0.44000 21.81100
H  -0.39600 0.63400 23.29900
H  0.08200 7.38700 20.55800
H  1.40400 9.89600 20.96700
H  2.23600 7.93300 19.16200
H  2.49300 6.48600 20.14900
H  2.98100 8.14200 20.68300
H  -1.46100 9.71400 22.09300
H  -1.30100 9.32700 20.55500
H  -1.22300 11.48800 19.71100
H  0.14200 11.81400 20.70800
H  -1.61200 11.85800 21.37700
H  2.88300 13.60400 25.36900
H  1.35900 13.73200 26.32500
H  1.32400 13.43100 24.60500
H  1.07000 10.33900 30.01900
H  4.77200 11.28600 31.80200
H  4.54600 9.88100 32.76400
H  3.91500 11.45500 33.32200
Mg 35.95600 1.10800 29.61400
C  33.87100 2.14800 32.36200
C  38.67800 1.15800 31.62800
C  37.69000 0.49000 26.86700
C  33.10800 1.62400 27.57000
N  36.19100 1.33800 31.77400
C  35.19800 1.84600 32.73000
C  35.80400 1.79500 34.15900
C  37.41900 1.68200 33.83300
C  37.43800 1.29900 32.35700
C  38.37900 2.89000 34.18200
C  35.34200 0.66400 35.09800
C  35.10200 0.89500 36.58700
H  35.57200 2.19800 37.27900
N  37.83300 0.80200 29.28400
C  38.81300 0.92300 30.24300
C  40.11500 0.78800 29.58100
C  39.89000 0.43400 28.24900
C  38.38500 0.48900 28.07600
C  41.44300 0.75700 30.23100
C  40.85200 -0.07200 27.21000
O  40.46500 -0.41600 26.07200
C  42.36500 -0.23800 27.44600
N  35.43900 0.90100 27.52100
C  36.35200 0.74100 26.55900
C  35.74200 0.84100 25.14400
C  34.26500 0.84300 25.48000
C  34.24800 1.03400 26.95800
C  36.35600 2.05400 24.29800
C  33.53300 -0.50100 24.97600
C  32.73100 -0.44100 23.65100
N  33.96200 1.76500 29.89800
C  32.95200 1.95600 28.93100
C  31.76200 2.45800 29.57900
C  32.06300 2.51000 30.95200
C  33.39300 2.14800 31.04400
C  30.44200 2.74800 28.81100
C  31.55300 2.91500 32.29000
O  30.54400 3.35200 32.74900
C  32.74300 2.66300 33.23100
C  32.94200 3.96200 33.96000
O  33.25500 5.02300 33.46600
O  32.58500 3.82400 35.26300
C  32.28200 5.14100 35.98600
H  39.57900 1.21900 32.24300
H  38.35400 0.23500 26.03900
H  32.21300 1.65100 26.94500
H  35.52300 2.77900 34.53300
H  37.82900 0.76300 34.25200
H  38.70400 3.42900 33.29200
H  39.34800 2.64800 34.62000
H  37.69600 3.54600 34.72200
H  35.97800 -0.21700 35.01200
H  34.37000 0.40400 34.67900
H  35.44600 0.04400 37.17400
H  34.02400 0.99300 36.71800
H  41.61900 1.46700 31.03900
H  42.19600 1.05600 29.50100
H  41.73900 -0.24800 30.53200
H  42.84900 0.73800 27.41400
H  42.69100 -0.81500 26.58100
H  42.74000 -0.85900 28.26000
H  35.88500 -0.10200 24.61700
H  33.80100 1.71200 25.01200
H  36.63400 2.90700 24.91900
H  35.50700 2.26100 23.64700
H  37.19600 1.63100 23.74800
H  32.79300 -0.81900 25.71100
H  34.25000 -1.31200 24.85000
H  31.69600 -0.71100 23.86000
H  33.12300 -1.23500 23.01600
H  32.81900 0.53600 23.17600
H  30.24600 2.10700 27.95200
H  30.42900 3.80500 28.54600
H  29.74500 2.61300 29.63800
H  32.50200 1.91300 33.98500
H  31.39000 5.64000 35.60800
H  33.10300 5.83900 36.14900
H  31.99900 4.82600 36.99100

