158

Mg 44.17300 4.85600 48.25800
C  42.38300 7.88100 48.14400
C  41.19600 3.15000 48.07400
C  45.94500 2.06300 47.93200
C  47.13300 6.73900 47.69400
N  42.09300 5.45200 47.86700
C  41.55500 6.72400 47.91600
C  40.04500 6.77800 47.72900
C  39.71400 5.29900 48.02400
C  41.10300 4.54100 47.96900
C  38.94700 5.11800 49.27100
C  39.60200 7.44900 46.44300
C  40.46000 7.35000 45.12300
H  39.74400 6.73600 43.90900
N  43.64600 2.86700 47.95200
C  42.40800 2.40600 47.99000
C  42.46000 0.95200 47.92800
C  43.80300 0.60800 47.89000
C  44.55000 1.88000 47.93900
C  41.27200 0.09600 47.61100
C  44.31900 -0.82900 47.69500
O  43.50600 -1.76800 47.57700
C  45.67000 -1.14700 47.46300
N  46.25300 4.47500 47.62700
C  46.72300 3.22500 47.85900
C  48.29200 3.19600 47.82000
C  48.62400 4.75500 47.72200
C  47.27800 5.33400 47.61100
C  48.96700 2.38200 48.93100
C  49.70700 5.24300 46.75000
C  50.87800 5.91100 47.47900
N  44.69300 6.90500 48.15700
C  45.94100 7.46600 47.93200
C  45.84600 8.88800 47.89000
C  44.41200 9.15100 48.01600
C  43.80600 7.90300 48.10000
C  46.98400 10.00300 47.65100
C  43.34400 10.16900 48.06200
O  43.38900 11.42100 48.12900
C  41.98900 9.35000 48.12900
C  41.25700 9.74800 49.39200
O  41.07700 9.05200 50.39400
O  40.58100 10.93600 49.14900
C  39.72800 11.45000 50.21400
H  40.25600 2.65800 48.33100
H  46.58000 1.17500 47.94400
H  48.04800 7.33400 47.72900
H  39.67400 7.35800 48.57400
H  39.08700 4.89200 47.23100
H  38.40800 6.04600 49.46200
H  39.56500 4.76700 50.09700
H  38.16900 4.38300 49.06500
H  39.33900 8.50300 46.53200
H  38.61900 6.98400 46.36100
H  41.36700 6.74600 45.11300
H  40.84400 8.33600 44.86400
H  41.27700 -0.36100 46.62200
H  40.33300 0.62200 47.78200
H  41.32100 -0.70200 48.35200
H  46.32800 -1.21700 48.32900
H  46.11000 -0.37300 46.83500
H  45.62600 -2.09300 46.92300
H  48.47100 2.72100 46.85500
H  48.98200 4.84900 48.74700
H  49.48500 1.52200 48.50700
H  48.28800 2.21000 49.76600
H  49.88100 2.82600 49.32600
H  49.39700 6.01800 46.04800
H  50.00100 4.28400 46.32600
H  50.44900 6.41800 48.34400
H  51.29200 6.60300 46.74700
H  51.63400 5.15200 47.68000
H  47.96800 9.63800 47.94400
H  46.70400 10.76700 48.37700
H  47.02500 10.42700 46.64800
H  41.33400 9.54400 47.28000
H  38.93000 11.92900 49.64800
H  40.27300 12.28300 50.65700
H  39.26300 10.69300 50.84600
Mg 42.36600 41.57000 26.37200
C  41.14800 43.95200 28.79000
C  43.64900 39.78800 28.90200
C  43.65900 39.67400 24.02500
C  41.64900 43.99700 23.82000
N  42.36300 41.85600 28.60200
C  41.82200 42.84200 29.37200
C  42.07200 42.58700 30.91100
C  43.03700 41.37000 30.87100
C  42.98200 40.90000 29.40200
C  44.46000 41.71500 31.31900
C  40.66200 42.34600 31.65400
C  40.39500 43.02700 32.98200
H  41.53400 43.29700 33.94700
N  43.36300 39.83800 26.48000
C  43.85400 39.30100 27.65000
C  44.53300 38.09300 27.32000
C  44.43500 37.89700 25.89700
C  43.80300 39.17200 25.39400
C  45.15600 37.27200 28.33800
C  44.85000 36.71500 24.95400
O  44.50800 36.74300 23.78300
C  45.68600 35.57400 25.54500
N  42.64900 41.81700 24.21800
C  43.09900 40.81400 23.49500
C  43.06400 41.09100 22.00300
C  42.24700 42.42200 21.93400
C  42.25500 42.79000 23.42300
C  44.44100 41.11300 21.24200
C  40.73500 42.25800 21.44800
C  39.76500 41.62000 22.45000
N  41.47500 43.55200 26.25700
C  41.35300 44.38900 25.15600
C  40.64100 45.52000 25.64000
C  40.51800 45.48300 27.05200
C  41.12000 44.25600 27.41800
C  40.15200 46.68800 24.78800
C  40.18800 46.22900 28.28400
O  39.76200 47.34900 28.45800
C  40.51400 45.16300 29.43300
C  41.56400 45.81100 30.45200
O  42.74200 45.78000 30.18900
O  40.96900 46.45100 31.52200
C  41.80700 46.87900 32.55600
H  44.02800 39.16800 29.71800
H  44.00700 38.91900 23.31600
H  41.41700 44.70900 23.02500
H  42.52300 43.50100 31.29800
H  42.66200 40.52600 31.44900
H  44.56600 42.76400 31.59400
H  45.21600 41.38000 30.60800
H  44.62000 41.11100 32.21200
H  40.48700 41.27900 31.79000
H  39.94700 42.79000 30.96200
H  39.63100 42.44200 33.49300
H  40.04300 44.03400 32.75900
H  44.51000 36.54900 28.83600
H  45.67100 37.86900 29.09200
H  45.98100 36.68600 27.93100
H  45.38700 35.20300 26.52500
H  46.67800 36.01100 25.42800
H  45.74200 34.73800 24.84800
H  42.46600 40.30000 21.55100
H  42.71200 43.27000 21.43000
H  45.30500 40.90100 21.87200
H  44.53000 42.00400 20.62200
H  44.34200 40.35800 20.46200
H  40.75400 41.59100 20.58600
H  40.42400 43.25700 21.14000
H  40.04100 41.66200 23.50300
H  39.60900 40.57600 22.17600
H  38.78400 42.04400 22.23300
H  39.31000 46.35700 24.18000
H  40.96000 47.06900 24.16400
H  39.97900 47.52800 25.46100
H  39.60900 44.98700 30.01500
H  41.62600 46.35500 33.49500
H  41.69900 47.92200 32.85600
H  42.85300 46.65000 32.35500

