158

Mg 24.39900 -5.01600 45.19600
C  26.71600 -2.57000 43.89900
C  21.96600 -3.50200 43.29800
C  22.38700 -7.78000 45.68700
C  27.00000 -6.66600 46.69000
N  24.40500 -3.31500 43.62300
C  25.39000 -2.44300 43.35200
C  24.96700 -1.53000 42.23000
C  23.42900 -1.60900 42.37600
C  23.22600 -2.84400 43.18000
C  22.94500 -0.31700 43.14100
C  25.42100 -1.94500 40.75500
C  26.39800 -0.94200 40.07700
H  26.28700 -0.95700 38.49300
N  22.40500 -5.52400 44.62100
C  21.57300 -4.68900 43.94200
C  20.30100 -5.24600 43.87300
C  20.37600 -6.55100 44.46800
C  21.78000 -6.65700 44.99300
C  19.11400 -4.62400 43.18200
C  19.32900 -7.65400 44.49300
O  18.23000 -7.37000 44.03100
C  19.58100 -9.07400 44.85300
N  24.66100 -6.97200 46.05500
C  23.64700 -7.89600 46.16900
C  24.06200 -9.17100 46.95700
C  25.50300 -8.76600 47.40600
C  25.73300 -7.35700 46.76500
C  23.11200 -9.41600 48.19700
C  26.62900 -9.77300 47.03200
C  27.60400 -10.14900 48.18300
N  26.41500 -4.67400 45.30100
C  27.33500 -5.47100 45.91200
C  28.66300 -4.93100 45.71100
C  28.48000 -3.74300 44.97600
C  27.08400 -3.64600 44.73500
C  29.88100 -5.39900 46.30100
C  29.10400 -2.62500 44.27400
O  30.26700 -2.24000 44.32100
C  27.99300 -1.90300 43.49900
C  28.04100 -0.38700 43.89200
O  27.80700 0.01900 44.99100
O  28.51000 0.35000 42.86900
C  28.68700 1.78400 43.06500
H  21.13400 -2.96100 42.84200
H  21.75200 -8.62900 45.95200
H  27.90200 -7.06500 47.15900
H  25.34800 -0.53300 42.45300
H  22.85600 -1.64300 41.45000
H  23.75900 0.11000 43.72700
H  22.17400 -0.53200 43.88100
H  22.61800 0.48600 42.48000
H  24.53500 -1.93200 40.11900
H  25.83800 -2.95200 40.77900
H  27.36900 -1.36900 40.32900
H  26.33800 0.06100 40.50200
H  19.20600 -3.53800 43.16400
H  18.16800 -4.87800 43.66200
H  19.06800 -5.10800 42.20700
H  20.43300 -9.53200 44.35000
H  18.70800 -9.68600 44.62700
H  19.73400 -9.25600 45.91700
H  24.06500 -9.98700 46.23400
H  25.57200 -8.60600 48.48200
H  22.15100 -8.94900 47.98000
H  23.60700 -9.01200 49.08000
H  22.94800 -10.45200 48.49400
H  27.28000 -9.29500 46.30000
H  26.17600 -10.70300 46.68800
H  27.51200 -9.60000 49.12000
H  28.66100 -10.19400 47.92100
H  27.34800 -11.16500 48.48300
H  29.91900 -5.27300 47.38300
H  30.77100 -4.84900 45.99700
H  30.10700 -6.44200 46.08000
H  28.07300 -2.01400 42.41700
H  29.76600 1.85400 42.92500
H  28.36100 2.08400 44.06100
H  28.09700 2.38900 42.37600
Mg 48.20600 16.69300 28.24300
C  46.39500 16.23800 31.16500
C  50.59100 18.42500 30.09700
C  49.91200 17.29100 25.40800
C  45.76100 15.03200 26.56900
N  48.32700 17.37700 30.38900
C  47.58800 16.91800 31.44600
C  48.06000 17.37500 32.87600
C  49.38200 18.15700 32.40100
C  49.44700 17.96600 30.84300
C  49.51700 19.67600 32.88200
C  48.31500 16.14300 33.74900
C  48.32300 16.27800 35.21300
H  47.78500 17.57800 35.77200
N  50.01400 17.74800 27.81400
C  50.89600 18.31800 28.75800
C  52.09900 18.73400 28.02100
C  51.84300 18.62800 26.57600
C  50.54500 17.88300 26.50100
C  53.41700 19.18800 28.75900
C  52.61100 19.12000 25.35600
O  52.24900 18.92000 24.19300
C  53.87800 19.78700 25.60600
N  47.79800 16.33300 26.22400
C  48.67100 16.65000 25.23300
C  48.11600 16.20900 23.92300
C  46.87700 15.32300 24.26900
C  46.81600 15.51900 25.78000
C  47.86200 17.39000 22.90000
C  46.86600 13.82400 23.79600
C  46.31800 13.58100 22.42700
N  46.37900 15.77300 28.68500
C  45.49900 15.16000 27.91200
C  44.30500 14.87300 28.73400
C  44.64000 15.21700 29.95700
C  45.92400 15.74100 29.89500
C  43.01100 14.29900 28.31100
C  44.22300 15.22200 31.37300
O  43.12700 14.94300 31.82200
C  45.32600 15.81000 32.20800
C  44.62000 16.92900 32.84800
O  44.33000 17.99100 32.30600
O  44.31200 16.63300 34.14900
C  43.62700 17.72700 34.85300
H  51.37100 18.84000 30.73900
H  50.52500 17.36200 24.50800
H  44.95300 14.65900 25.93600
H  47.20100 17.97900 33.17200
H  50.27200 17.71500 32.84800
H  48.62800 20.07000 33.37200
H  49.77800 20.37000 32.08200
H  50.25300 19.75000 33.68300
H  49.26300 15.76200 33.36900
H  47.56800 15.35800 33.62700
H  49.36800 16.10400 35.47000
H  47.85800 15.40000 35.66000
H  53.95000 19.93400 28.17000
H  53.97800 18.25400 28.74700
H  53.09800 19.62800 29.70400
H  53.67000 20.79700 25.96000
H  54.40100 19.74100 24.65100
H  54.53500 19.21700 26.26300
H  48.93800 15.64300 23.48400
H  45.93600 15.69100 23.86100
H  46.80200 17.47900 22.66300
H  48.39000 17.24700 21.95700
H  48.21100 18.33200 23.32400
H  46.28700 13.30900 24.56300
H  47.89100 13.45800 23.85800
H  46.30000 14.57800 21.98800
H  45.27500 13.26600 22.39000
H  46.89500 12.90400 21.79600
H  42.83300 14.82100 27.37100
H  42.31700 14.55200 29.11300
H  43.07100 13.22300 28.14500
H  45.65500 15.17400 33.02900
H  42.56300 17.61200 34.64600
H  43.86700 18.73800 34.52600
H  43.82600 17.53800 35.90800

