158

Mg 47.91200 25.18600 28.56200
C  48.87400 27.69700 30.92600
C  47.01000 23.21200 31.17900
C  47.20100 22.93600 26.39900
C  49.30900 27.23100 25.96700
N  48.08300 25.42200 30.78600
C  48.32300 26.54800 31.52900
C  48.11900 26.25500 33.04200
C  47.78500 24.73200 33.03400
C  47.52600 24.45800 31.60000
C  48.89100 23.84000 33.57500
C  46.87800 27.03600 33.53100
C  47.31300 27.92000 34.79600
H  46.30100 28.06000 35.98400
N  47.20000 23.29900 28.71700
C  46.92000 22.62500 29.86900
C  46.60400 21.23200 29.57400
C  46.45100 21.21200 28.14300
C  46.98200 22.51200 27.71000
C  46.29800 20.22100 30.61400
C  45.88500 20.08800 27.25900
O  45.70100 20.20900 26.02600
C  45.51700 18.75600 27.87900
N  48.23300 25.12900 26.48800
C  47.68700 24.11400 25.80500
C  48.03400 24.27500 24.32400
C  48.46500 25.76500 24.08900
C  48.71700 26.01700 25.59600
C  48.82800 23.15000 23.63600
C  47.40600 26.66800 23.52000
C  47.86600 28.02500 22.98600
N  48.69400 27.14100 28.35300
C  49.23500 27.83500 27.25400
C  49.68300 29.17500 27.66800
C  49.55600 29.17000 29.13300
C  48.94900 27.83400 29.51300
C  50.40000 30.24600 27.00200
C  49.66900 29.93500 30.32600
O  50.15800 31.02700 30.49100
C  49.14400 29.08300 31.48900
C  50.10800 28.91000 32.68300
O  51.12300 28.22500 32.68100
O  49.84600 29.74200 33.69100
C  50.70200 29.75900 34.89400
H  46.72100 22.58500 32.02500
H  46.89000 22.19500 25.66000
H  49.79800 27.87500 25.23400
H  48.96700 26.58900 33.63900
H  46.78900 24.53000 33.42800
H  48.45100 22.88800 33.87200
H  49.42600 24.24900 34.43200
H  49.56900 23.70500 32.73200
H  46.00600 26.42900 33.77200
H  46.57600 27.76900 32.78300
H  47.34700 28.95800 34.46600
H  48.26300 27.65400 35.25900
H  45.22900 20.15700 30.81500
H  46.81500 20.50100 31.53200
H  46.67500 19.24900 30.29400
H  46.33400 18.17900 28.31300
H  44.95300 18.10400 27.21300
H  44.86700 18.82700 28.75100
H  47.10200 24.19100 23.76600
H  49.34800 25.86600 23.45800
H  49.63800 23.61100 23.07100
H  48.30100 22.46200 22.97500
H  49.27500 22.50800 24.39500
H  46.77500 26.81900 24.39600
H  46.87700 26.13000 22.73300
H  48.93800 28.22000 23.02700
H  47.34100 28.81100 23.52900
H  47.76400 27.96000 21.90300
H  49.98400 30.47300 26.02000
H  51.47000 30.11200 26.84900
H  50.27000 31.17300 27.56000
H  48.22700 29.58700 31.79500
H  51.71200 29.61900 34.50700
H  50.43100 29.02200 35.65000
H  50.68800 30.76300 35.31900
Mg 9.04200 48.14300 26.00400
C  7.38200 48.33800 29.08300
C  11.84700 49.61100 27.43700
C  10.67000 47.95800 22.98500
C  6.04700 47.63000 24.41300
N  9.56400 48.87800 27.99500
C  8.76400 48.69900 29.15300
C  9.53200 49.02500 30.39400
C  10.85300 49.66700 29.83300
C  10.75700 49.43800 28.27800
C  10.92400 51.18200 30.30400
C  9.80700 47.82500 31.34200
C  9.19300 47.95000 32.79200
H  9.45700 46.79300 33.77500
N  11.01700 48.66200 25.35800
C  12.01900 49.22800 26.11300
C  13.28700 49.21200 25.36400
C  12.92500 48.66500 24.09000
C  11.50100 48.43500 24.01800
C  14.70900 49.49300 26.04400
C  13.87700 48.38700 22.92700
O  13.54100 47.91800 21.83300
C  15.25300 48.71100 23.11900
N  8.38000 48.04300 24.02400
C  9.28900 47.80600 22.96800
C  8.54700 47.52500 21.59800
C  7.05600 47.53400 22.06500
C  7.15200 47.70500 23.58800
C  8.92800 48.51200 20.46300
C  6.31600 46.25900 21.56600
C  6.29300 45.05000 22.48500
N  7.03700 48.02200 26.58100
C  5.91300 47.74500 25.85100
C  4.79100 47.67300 26.76300
C  5.30100 47.92800 28.02900
C  6.69100 48.10800 27.84000
C  3.48000 47.28700 26.23400
C  4.97600 48.20000 29.44600
O  3.88500 48.27200 29.94600
C  6.35400 48.21800 30.21100
C  6.45600 46.87100 30.87400
O  7.11600 45.90400 30.51200
O  5.78000 46.90600 32.12000
C  5.69100 45.60400 32.78100
H  12.69900 50.12500 27.88600
H  11.12400 47.71600 22.02100
H  5.07000 47.49600 23.94500
H  8.96800 49.76400 30.96300
H  11.74000 49.12900 30.16800
H  11.42400 51.27300 31.26800
H  9.93300 51.54500 30.57600
H  11.35100 51.77900 29.49700
H  10.86600 47.65800 31.54100
H  9.42600 46.89500 30.91800
H  8.12900 48.17000 32.88500
H  9.76300 48.83300 33.07900
H  14.49300 49.79100 27.07000
H  15.34400 50.21600 25.53200
H  15.23700 48.55500 26.21300
H  15.67600 48.16800 23.96400
H  15.28100 49.80100 23.13100
H  15.78200 48.25700 22.28100
H  8.83000 46.57400 21.14900
H  6.47700 48.30500 21.55700
H  9.52000 49.36500 20.79600
H  8.04100 48.83900 19.92100
H  9.60900 48.06200 19.74000
H  6.65700 45.93100 20.58400
H  5.27100 46.48500 21.35600
H  6.64600 44.17000 21.94800
H  5.35700 44.81000 22.99000
H  6.95900 45.28800 23.31500
H  3.24500 48.09700 25.54400
H  2.70000 47.23700 26.99300
H  3.44500 46.35800 25.66400
H  6.47900 49.04400 30.91200
H  4.99900 44.91900 32.29100
H  5.50800 45.82200 33.83300
H  6.71500 45.23000 32.77800

