158

Mg 26.05800 50.40000 27.29600
C  24.03300 51.43300 29.91200
C  28.66600 49.79300 29.61700
C  28.09200 49.75600 24.83700
C  23.68900 51.72400 25.07900
N  26.23200 50.41900 29.46500
C  25.22500 50.89400 30.35600
C  25.63600 50.53000 31.81100
C  27.19100 50.23500 31.67900
C  27.39300 50.12700 30.17200
C  28.17700 51.25900 32.20200
C  24.83600 49.34400 32.35800
C  24.55100 49.14000 33.84600
H  25.17000 50.09500 34.91600
N  28.09000 49.70300 27.21800
C  28.97300 49.53300 28.26800
C  30.24500 49.13800 27.68900
C  30.09600 49.08200 26.30100
C  28.69600 49.47000 26.06400
C  31.46500 48.93900 28.58000
C  31.12500 48.86300 25.20200
O  30.79900 48.76800 24.02300
C  32.60900 48.74500 25.49700
N  25.97800 50.81000 25.19900
C  26.90000 50.36000 24.35000
C  26.34000 50.22600 22.92800
C  24.84700 50.64500 23.08300
C  24.82700 51.07000 24.56900
C  27.12200 51.05900 21.80600
C  23.74000 49.58100 22.79900
C  22.44400 50.14000 22.09700
N  24.34000 51.53000 27.38500
C  23.49000 52.04900 26.43700
C  22.32000 52.65400 27.08200
C  22.49700 52.37500 28.44000
C  23.72900 51.76300 28.56200
C  21.17000 53.26800 26.39500
C  21.86700 52.48400 29.71600
O  20.76900 52.90200 30.11800
C  22.89400 51.89300 30.73800
C  23.30200 52.91700 31.75300
O  24.23000 53.67500 31.62500
O  22.62900 52.74200 32.95100
C  23.04900 53.55400 34.10900
H  29.47000 49.80400 30.35600
H  28.67500 49.46000 23.96300
H  22.83500 51.71800 24.39800
H  25.41200 51.45700 32.33700
H  27.52000 49.32300 32.17700
H  28.88100 50.76800 32.87400
H  27.62600 52.04100 32.72500
H  28.68700 51.67200 31.33200
H  25.38100 48.46700 32.00800
H  23.93200 49.21700 31.76200
H  25.15500 48.25100 34.03000
H  23.52800 48.84300 34.07700
H  31.50600 49.82600 29.21200
H  32.42800 48.94300 28.07000
H  31.37400 47.95900 29.04800
H  33.15000 48.60100 24.56100
H  32.76400 47.98600 26.26400
H  32.96700 49.72300 25.81700
H  26.31400 49.16700 22.67100
H  24.65100 51.56800 22.53600
H  27.77100 51.65500 22.44900
H  26.51400 51.79600 21.28100
H  27.70700 50.41900 21.14600
H  23.45000 49.09300 23.73000
H  24.18700 48.89900 22.07600
H  22.40000 49.75100 21.08000
H  22.57400 51.21800 22.00000
H  21.54000 49.91000 22.66000
H  21.21200 52.92400 25.36100
H  21.33400 54.33900 26.51000
H  20.21100 53.08100 26.87800
H  22.47100 51.01200 31.22200
H  23.28700 54.59700 33.90100
H  23.95700 53.05100 34.44200
H  22.26300 53.46400 34.85900
Mg 16.47900 52.63100 26.76000
C  18.05400 50.73000 29.35000
C  14.08000 53.60100 29.10800
C  14.82100 54.08200 24.27500
C  18.84800 51.28100 24.52000
N  16.12100 52.16300 29.01300
C  16.94500 51.48500 29.83500
C  16.57300 51.67700 31.33200
C  15.18700 52.36400 31.17300
C  15.11800 52.77300 29.62500
C  13.88700 51.49300 31.51700
C  17.68000 52.62600 32.03700
C  18.08500 52.12300 33.50700
H  17.21600 52.57600 34.73500
N  14.64900 53.69000 26.75000
C  13.82700 53.97500 27.74900
C  12.84100 55.02000 27.23800
C  13.06200 55.13700 25.81800
C  14.24000 54.28500 25.51600
C  11.81600 55.63300 28.21000
C  12.27700 56.01600 24.85300
O  12.53900 56.00000 23.65100
C  11.09800 56.84600 25.36500
N  16.81100 52.80800 24.66900
C  15.96400 53.37500 23.84400
C  16.47200 53.31900 22.37400
C  17.87500 52.64000 22.55400
C  17.83300 52.09500 24.01200
C  15.47600 52.57800 21.36500
C  19.13700 53.56900 22.33900
C  20.01300 53.37300 21.06400
N  18.13600 51.26100 26.82000
C  18.94900 50.81600 25.84700
C  19.88700 49.86700 26.38800
C  19.60900 49.84600 27.77800
C  18.50000 50.68500 27.96200
C  21.01100 49.11900 25.66000
C  20.01000 49.38400 29.10700
O  20.91200 48.61300 29.36300
C  19.07700 49.86900 30.17400
C  18.43100 48.82400 30.98600
O  17.50400 48.14900 30.57300
O  19.14700 48.54400 32.13500
C  18.64000 47.60400 33.05200
H  13.33900 53.82500 29.87900
H  14.20800 54.49600 23.47200
H  19.62700 50.94000 23.83400
H  16.35800 50.70800 31.78200
H  15.22500 53.30400 31.72400
H  13.14400 52.07900 32.05800
H  14.24400 50.66600 32.13100
H  13.55300 51.11600 30.55100
H  17.34600 53.66100 32.11000
H  18.64900 52.71000 31.54500
H  19.00900 52.63100 33.78300
H  18.10200 51.03500 33.43900
H  10.82300 55.20200 28.07900
H  11.71600 56.70500 28.03900
H  12.10300 55.43900 29.24400
H  10.46700 56.15800 25.92800
H  10.53300 57.22300 24.51300
H  11.55300 57.51800 26.09300
H  16.53100 54.36400 22.07000
H  17.80800 51.74600 21.93300
H  14.45800 52.50800 21.75000
H  15.96700 51.64000 21.11000
H  15.26800 53.13800 20.45300
H  19.66700 53.50200 23.28900
H  18.70200 54.56300 22.23600
H  19.61900 52.48800 20.56400
H  20.96100 53.05000 21.49600
H  19.92800 54.25300 20.42600
H  21.29500 48.21900 26.20500
H  21.81600 49.82200 25.44600
H  20.74000 48.78300 24.65900
H  19.45000 50.56100 30.93000
H  19.26200 46.70900 33.03600
H  17.65600 47.20600 32.80500
H  18.48800 48.15900 33.97800

