158

Mg -11.25300 18.28400 42.23300
C  -7.86000 17.39000 41.79500
C  -10.42500 21.53300 41.22200
C  -14.53600 19.14700 42.27800
C  -12.03400 14.89900 42.35300
N  -9.41200 19.28800 41.58600
C  -8.09000 18.75000 41.56100
C  -7.04100 19.72300 40.90000
C  -7.86300 21.08600 40.97500
C  -9.31600 20.60300 41.32400
C  -7.34800 22.12500 42.02500
C  -6.73000 19.23500 39.38500
C  -5.22100 19.13000 39.01300
H  -4.89100 19.27000 37.49400
N  -12.38000 20.15600 41.86700
C  -11.85400 21.37100 41.44500
C  -12.88500 22.39800 41.47300
C  -14.04500 21.73400 41.92600
C  -13.68300 20.22700 41.97600
C  -12.63200 23.79800 41.13800
C  -15.42800 22.36300 42.20700
O  -15.57500 23.53400 42.16900
C  -16.62700 21.58600 42.58500
N  -13.03800 17.17300 42.44100
C  -14.29400 17.76600 42.40400
C  -15.35600 16.62600 42.55000
C  -14.58500 15.31600 42.73000
C  -13.11900 15.79200 42.37800
C  -16.33300 16.80000 43.65400
C  -15.13300 14.23300 41.76900
C  -14.72400 14.34800 40.29800
N  -10.19700 16.51200 42.13800
C  -10.67100 15.24900 42.21300
C  -9.52200 14.30900 42.23000
C  -8.39100 15.13800 42.13000
C  -8.84900 16.41700 41.93800
C  -9.54300 12.88600 42.48800
C  -6.93200 15.12900 42.02200
O  -6.19300 14.17300 42.22800
C  -6.57800 16.61100 41.74300
C  -5.50400 17.10300 42.69000
O  -4.46000 17.58100 42.37200
O  -5.83200 16.87100 44.05800
C  -4.74500 17.12900 45.00100
H  -9.97600 22.45500 40.84700
H  -15.61200 19.28300 42.40500
H  -12.30000 13.84300 42.43700
H  -6.11700 19.88600 41.45500
H  -7.88500 21.53900 39.98400
H  -8.19500 22.34700 42.67500
H  -6.98900 23.03400 41.54300
H  -6.64600 21.68300 42.73200
H  -7.13700 19.96800 38.68900
H  -7.24600 18.30500 39.15000
H  -5.05200 18.06800 39.18700
H  -4.57600 19.78300 39.60200
H  -12.98400 24.37700 41.99200
H  -13.23100 23.91600 40.23500
H  -11.61200 24.09900 40.90100
H  -17.08500 20.93000 41.84400
H  -17.38200 22.22900 43.03700
H  -16.29100 21.02500 43.45700
H  -15.84300 16.62200 41.57500
H  -14.58600 14.84400 43.71300
H  -17.35400 16.71200 43.28200
H  -16.25400 17.79200 44.09700
H  -16.33900 16.10100 44.49000
H  -16.21600 14.20700 41.88900
H  -14.84800 13.22300 42.06300
H  -15.49700 14.12800 39.56300
H  -13.89800 13.64600 40.18200
H  -14.28400 15.30800 40.02600
H  -10.46800 12.51700 42.04300
H  -9.44100 12.66900 43.55100
H  -8.71800 12.38600 41.98100
H  -6.00900 16.61100 40.81300
H  -4.47900 16.15100 45.40300
H  -5.14400 17.77400 45.78500
H  -3.83700 17.63900 44.67700
Mg -5.21300 24.72200 26.32100
C  -3.72300 26.59500 29.03300
C  -6.67300 22.68600 28.69800
C  -6.72900 23.41500 23.86400
C  -3.44700 26.95000 24.15800
N  -5.28900 24.77800 28.65000
C  -4.65200 25.55200 29.51100
C  -5.08100 25.30000 30.96100
C  -5.81700 23.94600 30.89600
C  -5.91100 23.74500 29.33800
C  -5.15400 22.69900 31.55000
C  -6.03600 26.51100 31.39700
C  -6.45400 26.60300 32.93200
H  -5.83300 25.62900 33.92500
N  -6.49200 23.22700 26.24200
C  -7.00700 22.47700 27.32900
C  -7.86500 21.45400 26.75400
C  -7.97500 21.61200 25.36100
C  -7.13300 22.85300 25.12200
C  -8.47300 20.45700 27.67900
C  -8.69000 20.75000 24.33300
O  -8.80600 21.08000 23.14900
C  -9.20300 19.38900 24.75100
N  -5.05800 25.19000 24.25700
C  -5.83900 24.45500 23.38700
C  -5.53200 24.73400 21.89600
C  -4.70600 26.10900 22.04800
C  -4.35500 26.09800 23.56200
C  -4.81700 23.54700 21.18900
C  -5.44900 27.37700 21.61900
C  -4.59400 28.42800 20.84000
N  -3.74300 26.32600 26.55200
C  -3.15200 27.05100 25.54400
C  -2.11000 27.87400 26.13900
C  -2.33000 27.73600 27.56300
C  -3.35400 26.85500 27.71400
C  -1.03200 28.76300 25.37400
C  -2.09500 28.32600 28.91400
O  -1.39300 29.23500 29.33000
C  -2.87300 27.45100 29.89500
C  -1.86900 26.53300 30.62200
O  -1.51200 25.40600 30.30200
O  -1.58800 27.11200 31.81600
C  -0.89800 26.28400 32.82300
H  -7.21900 22.08900 29.43100
H  -7.31800 22.87800 23.11800
H  -2.82800 27.53100 23.47000
H  -4.22600 25.37700 31.63200
H  -6.84100 24.02500 31.26100
H  -5.80900 22.32100 32.33400
H  -4.27600 23.02900 32.10500
H  -4.82400 21.93000 30.85100
H  -6.93300 26.31800 30.80900
H  -5.57000 27.45400 31.11000
H  -7.54000 26.64400 33.02000
H  -6.08000 27.60900 33.12400
H  -9.52600 20.71400 27.78900
H  -7.97800 20.47000 28.65000
H  -8.33700 19.42300 27.36300
H  -8.34600 18.85800 25.16500
H  -9.50900 18.86000 23.84800
H  -9.96300 19.56800 25.51100
H  -6.52900 24.79700 21.46000
H  -3.81900 25.99200 21.42500
H  -3.79300 23.60200 21.56000
H  -4.92700 23.48600 20.10700
H  -5.33800 22.68600 21.60800
H  -5.79900 27.89700 22.51100
H  -6.31400 27.06000 21.03700
H  -3.79700 27.97800 20.24900
H  -4.06600 29.12900 21.48700
H  -5.14900 29.03600 20.12600
H  -1.55100 29.57500 24.86300
H  -0.45400 28.09500 24.73600
H  -0.42900 29.27500 26.12400
H  -3.41600 28.06100 30.61600
H  0.03400 26.70600 33.20000
H  -0.63100 25.27300 32.51800
H  -1.57600 26.04200 33.64100

