158

Mg 30.61100 58.59900 40.22000
C  27.90700 56.70300 38.78600
C  32.80500 56.01500 39.22400
C  33.25700 60.66300 41.00100
C  28.36700 61.32200 40.45300
N  30.25300 56.62900 39.17300
C  29.12700 56.05100 38.69900
C  29.37900 54.63800 38.15500
C  30.77900 54.36900 38.79800
C  31.38200 55.74300 39.08200
C  30.68000 53.52500 40.15800
C  29.38700 54.61500 36.61300
C  28.49700 53.59700 35.89000
H  27.60200 54.10700 34.71600
N  32.70100 58.37400 40.18200
C  33.37500 57.27000 39.65600
C  34.81400 57.49600 39.67900
C  34.97400 58.79500 40.21600
C  33.65100 59.36900 40.48800
C  35.89000 56.49900 39.17600
C  36.31500 59.53000 40.33900
O  37.32000 59.06000 39.79600
C  36.52700 60.76700 41.03700
N  30.78800 60.67100 40.76000
C  31.96700 61.25100 41.12800
C  31.72800 62.80700 41.41700
C  30.18300 62.98400 41.15600
C  29.73600 61.55000 40.71400
C  32.11200 63.26300 42.79700
C  29.78000 64.10800 40.09400
C  28.71400 65.07400 40.55700
N  28.44600 58.88700 39.88700
C  27.72900 60.06800 40.00000
C  26.37200 59.84500 39.55200
C  26.41100 58.52000 39.10900
C  27.69000 57.98300 39.37000
C  25.20800 60.76200 39.50000
C  25.56900 57.41500 38.58000
O  24.39200 57.34400 38.30300
C  26.55500 56.26800 38.39300
C  26.07600 55.04000 39.09700
O  26.42800 54.58200 40.14000
O  25.31500 54.37300 38.23500
C  24.89500 53.00000 38.59500
H  33.43000 55.15700 38.97100
H  33.94800 61.45100 41.31000
H  27.71700 62.17300 40.67000
H  28.63400 53.88200 38.39800
H  31.41400 53.88200 38.05900
H  29.63100 53.43200 40.44100
H  31.38000 53.85700 40.92500
H  30.94900 52.48500 39.97200
H  30.37100 54.53800 36.15000
H  29.15800 55.64200 36.32800
H  27.77200 53.24700 36.62400
H  29.19600 52.78200 35.70500
H  36.69100 57.00400 38.63700
H  35.39000 55.71800 38.60400
H  36.30900 55.93000 40.00600
H  36.03500 61.54700 40.45700
H  37.61000 60.87000 40.97200
H  36.17100 60.73800 42.06700
H  32.37500 63.28100 40.67900
H  29.59300 63.18800 42.05000
H  31.58000 62.58100 43.46100
H  31.75500 64.28700 42.90300
H  33.19000 63.16600 42.92400
H  29.45600 63.55300 39.21400
H  30.67700 64.62600 39.75500
H  28.07800 65.33200 39.71000
H  29.29900 65.89100 40.97700
H  27.96600 64.69500 41.25400
H  25.10000 61.21300 40.48600
H  24.29900 60.19700 39.29900
H  25.32000 61.57900 38.78700
H  26.48700 55.96700 37.34700
H  23.83800 53.08800 38.84500
H  25.28000 52.44800 39.45300
H  24.97500 52.44300 37.66200
Mg 27.11200 50.75100 25.63600
C  25.02900 51.90900 28.26700
C  29.49700 49.93600 28.15900
C  29.23300 50.23300 23.06900
C  24.97100 52.37700 23.34700
N  27.27900 50.89300 27.95100
C  26.23100 51.34500 28.77200
C  26.61900 51.02400 30.25600
C  28.18000 50.79400 30.20000
C  28.37700 50.52700 28.68900
C  29.15000 51.92100 30.62500
C  25.91400 49.81000 30.99900
C  25.23800 49.98700 32.35800
H  25.97100 50.63600 33.52500
N  29.08800 49.99300 25.63500
C  29.88400 49.65800 26.75700
C  31.03100 49.00100 26.18700
C  30.91500 49.10000 24.74700
C  29.71200 49.81600 24.40700
C  32.15500 48.38000 27.01200
C  31.86400 48.53800 23.64900
O  31.68100 48.74600 22.44200
C  33.09400 47.72000 23.98200
N  27.09900 51.14000 23.56100
C  28.09300 50.88100 22.76400
C  27.84700 51.22600 21.26000
C  26.39300 51.77000 21.39100
C  26.09700 51.76700 22.89400
C  28.90000 52.26000 20.65700
C  25.28400 51.12800 20.52600
C  24.85900 49.72300 20.90300
N  25.36400 51.96900 25.72000
C  24.61000 52.49300 24.70300
C  23.44100 53.14800 25.25900
C  23.53000 52.87000 26.66500
C  24.69800 52.11200 26.90200
C  22.40800 53.82400 24.41700
C  22.90400 53.02800 27.95900
O  21.81400 53.56700 28.21100
C  23.78400 52.20700 29.01200
C  24.00200 53.07100 30.11200
O  24.78800 53.92800 30.19300
O  23.27800 52.58700 31.18600
C  23.57700 53.15400 32.50300
H  30.36200 49.68400 28.77700
H  29.97000 50.09400 22.27500
H  24.34700 52.97100 22.67600
H  26.36900 51.90900 30.84000
H  28.46000 49.90500 30.76600
H  28.61500 52.86200 30.75700
H  29.94400 52.20000 29.93300
H  29.62800 51.78500 31.59600
H  26.52500 48.91100 31.08600
H  25.19500 49.48900 30.24500
H  25.03400 48.95700 32.65100
H  24.29000 50.50400 32.20600
H  32.07900 47.31900 26.77500
H  31.99400 48.46800 28.08700
H  33.13900 48.72300 26.69600
H  33.97400 48.30200 24.25200
H  33.29000 47.07700 23.12400
H  32.76600 47.04200 24.77000
H  27.96200 50.29800 20.69900
H  26.35200 52.83700 21.17300
H  28.37100 53.15200 20.32200
H  29.48100 51.96200 19.78500
H  29.66600 52.43900 21.41100
H  25.72600 51.04800 19.53300
H  24.48300 51.82400 20.27700
H  24.86000 49.07400 20.02700
H  23.90000 49.72200 21.42200
H  25.55500 49.23100 21.58200
H  22.73300 54.86200 24.48600
H  21.48200 53.69900 24.97900
H  22.37900 53.45900 23.39100
H  23.34300 51.27900 29.37500
H  24.54100 53.66300 32.52600
H  23.76000 52.37100 33.24000
H  22.75700 53.79900 32.81900

