158

Mg 6.93200 55.55800 39.80500
C  5.00600 52.58000 39.80700
C  9.78200 53.58300 38.97000
C  8.67200 58.48200 39.40300
C  3.86900 57.36800 39.59800
N  7.25600 53.42900 39.19300
C  6.34900 52.38800 39.33400
C  6.97900 51.03800 39.02100
C  8.56400 51.30800 39.02400
C  8.51900 52.87500 39.05400
C  9.32800 50.62100 40.17200
C  6.55700 50.37300 37.72200
C  5.93300 51.24300 36.55900
H  6.47300 51.16100 35.14400
N  8.99000 56.01700 39.30600
C  9.96900 55.05000 39.01900
C  11.26300 55.81700 38.95300
C  10.94700 57.16200 39.02900
C  9.47900 57.28700 39.29300
C  12.60600 55.19500 38.74600
C  11.94900 58.28000 38.97800
O  13.15500 58.02100 38.90900
C  11.50400 59.58800 39.18400
N  6.31200 57.57800 39.50800
C  7.25300 58.60300 39.41900
C  6.50600 59.92000 39.79200
C  4.99500 59.58200 39.37200
C  5.04400 58.07500 39.51900
C  6.65500 60.53600 41.19200
C  4.43500 60.24600 38.12900
C  3.03700 60.86100 38.09200
N  4.87900 55.17600 39.95100
C  3.77000 56.00100 39.77800
C  2.58800 55.16100 39.91600
C  3.07200 53.83500 40.13300
C  4.46500 53.89000 40.05200
C  1.15400 55.65700 39.73600
C  2.55500 52.50200 40.33000
O  1.42900 52.16100 40.55300
C  3.85600 51.67100 40.21900
C  3.73300 50.42500 39.39300
O  3.26400 50.39800 38.24700
O  4.13800 49.32400 40.15800
C  4.02900 47.98400 39.57400
H  10.70000 53.01600 38.80000
H  9.05200 59.50200 39.48100
H  3.00600 58.03200 39.51300
H  6.70100 50.29000 39.76300
H  9.05700 50.97900 38.11000
H  9.48000 51.32800 40.98800
H  10.30000 50.30300 39.79300
H  8.90900 49.70100 40.57700
H  5.87800 49.58500 38.04600
H  7.43900 49.85800 37.34200
H  5.90300 52.31600 36.75000
H  4.94100 50.79300 36.60700
H  13.08600 55.58800 37.85000
H  12.41900 54.12600 38.64800
H  13.16600 55.38800 39.66100
H  12.34300 60.27600 39.07500
H  11.22400 59.72400 40.22800
H  10.79000 59.81100 38.39100
H  6.98300 60.55900 39.05000
H  4.38800 59.91600 40.21300
H  7.39200 60.00400 41.79300
H  5.82400 60.62200 41.89200
H  7.07200 61.53700 41.08300
H  4.42400 59.47100 37.36300
H  5.24900 60.91000 37.84100
H  2.51600 60.39400 37.25600
H  3.24700 61.91800 37.92400
H  2.49100 60.74100 39.02700
H  0.62500 55.60700 40.68800
H  0.74400 55.14500 38.86500
H  1.26700 56.69900 39.43700
H  3.97100 51.27800 41.22900
H  3.86100 47.98800 38.49700
H  3.20600 47.45000 40.04900
H  4.93400 47.40900 39.77200
Mg -10.58100 39.37500 40.50600
C  -9.56200 36.31900 39.46000
C  -7.76600 40.76700 38.89600
C  -11.84200 42.56400 40.94300
C  -13.71600 38.14300 41.31300
N  -8.83700 38.58500 39.34900
C  -8.67300 37.29600 39.05500
C  -7.45400 37.03100 38.12400
C  -6.78200 38.41700 38.20500
C  -7.88300 39.37700 38.79100
C  -5.43100 38.48500 39.02800
C  -7.81500 36.60600 36.63600
C  -6.72200 36.54300 35.58800
H  -6.70100 37.63700 34.58500
N  -9.85700 41.38000 40.14000
C  -8.65800 41.68800 39.51600
C  -8.44100 43.11500 39.43200
C  -9.49100 43.62400 40.20300
C  -10.51600 42.55000 40.44400
C  -7.18800 43.89500 38.88700
C  -9.71300 45.04700 40.68400
O  -8.84200 45.91600 40.47100
C  -10.87400 45.46800 41.45100
N  -12.59000 40.24100 40.98800
C  -12.76400 41.52200 41.27000
C  -14.20400 41.86500 41.72100
C  -14.80000 40.38500 41.83700
C  -13.70000 39.56300 41.27800
C  -14.27700 42.76400 42.96700
C  -16.16900 40.13700 41.10100
C  -17.37100 40.42900 41.98800
N  -11.47600 37.60200 40.58100
C  -12.71500 37.20900 40.99600
C  -12.84000 35.76600 40.94500
C  -11.65800 35.45500 40.21600
C  -10.80700 36.58600 40.11200
C  -14.02100 34.87400 41.33100
C  -10.94300 34.36200 39.62500
O  -11.36400 33.20900 39.50900
C  -9.58000 34.85200 39.11900
C  -8.49600 34.15400 39.81100
O  -8.31100 34.14700 41.04200
O  -7.59300 33.70900 38.84000
C  -6.33100 33.23400 39.44800
H  -6.84300 41.09800 38.41700
H  -12.33100 43.51800 41.14900
H  -14.65900 37.65200 41.56300
H  -6.86300 36.29600 38.67000
H  -6.59200 38.81300 37.20800
H  -5.67600 39.21300 39.80000
H  -4.68100 38.78500 38.29600
H  -5.26000 37.52200 39.50900
H  -8.63000 37.20400 36.22900
H  -8.19800 35.59400 36.76800
H  -6.96200 35.57400 35.15300
H  -5.80400 36.57100 36.17500
H  -7.60300 44.65500 38.22400
H  -6.58000 43.21600 38.29000
H  -6.62700 44.40800 39.66900
H  -11.18500 44.73000 42.19100
H  -11.71000 45.64900 40.77700
H  -10.61500 46.36100 42.01900
H  -14.61800 42.41800 40.87800
H  -14.77300 40.15800 42.90300
H  -15.02900 43.54600 42.86100
H  -13.34400 43.30900 43.10500
H  -14.42000 42.18600 43.88000
H  -16.17900 39.15200 40.63500
H  -16.37400 40.86700 40.31800
H  -17.95000 39.51200 42.09400
H  -18.01300 41.19300 41.55000
H  -17.14100 40.81300 42.98200
H  -13.82300 33.85900 40.98700
H  -14.96500 35.19200 40.88800
H  -14.12500 34.83200 42.41600
H  -9.57900 34.73600 38.03600
H  -5.76300 32.68700 38.69500
H  -6.48800 32.57500 40.30100
H  -5.67900 34.02300 39.82500

