158

Mg 1.52500 8.47600 25.79300
C  2.33200 10.37800 28.59600
C  1.95100 5.65100 27.64400
C  1.38700 6.56200 23.06400
C  1.54300 11.34300 23.86800
N  2.00200 8.05900 27.81900
C  2.21700 8.99800 28.81800
C  2.28500 8.37700 30.20800
C  2.35600 6.88600 29.81600
C  2.12600 6.85600 28.30600
C  3.75100 6.11800 30.12300
C  1.07200 8.87600 30.92100
C  1.12600 8.79500 32.49500
H  2.42500 8.15500 33.11000
N  1.39300 6.40400 25.41700
C  1.61600 5.37500 26.27200
C  1.37500 4.10300 25.68500
C  1.16500 4.39400 24.32500
C  1.30500 5.88400 24.19600
C  1.33100 2.83700 26.53600
C  0.83800 3.43900 23.21900
O  0.59000 3.75200 22.07300
C  0.93600 1.93600 23.60100
N  1.44800 8.93100 23.76300
C  1.43800 7.94400 22.81700
C  1.24900 8.56400 21.40700
C  0.96200 10.02000 21.73300
C  1.36700 10.12600 23.22500
C  2.52400 8.26100 20.60300
C  -0.56100 10.45100 21.53800
C  -0.97200 10.95000 20.17200
N  1.89800 10.44400 26.11600
C  1.94000 11.52900 25.21500
C  2.35400 12.74200 25.93100
C  2.41700 12.33600 27.30800
C  2.16900 10.93000 27.36400
C  2.30300 14.08000 25.35600
C  2.75600 12.86200 28.64600
O  3.16400 13.97100 28.96300
C  2.56000 11.64300 29.57000
C  3.79700 11.54400 30.44500
O  4.89400 11.25800 30.06000
O  3.39400 11.90000 31.67600
C  4.48500 12.23900 32.55800
H  2.17400 4.76100 28.23700
H  1.47300 5.78800 22.29800
H  1.33200 12.25100 23.29900
H  3.17100 8.72600 30.73700
H  1.51100 6.28700 30.15500
H  3.50100 5.33000 30.83300
H  4.53100 6.71900 30.59100
H  4.18300 5.69000 29.21800
H  0.28000 8.19300 30.61400
H  0.70000 9.86800 30.66800
H  0.34200 8.12400 32.84700
H  1.05000 9.82000 32.85700
H  1.43400 2.98900 27.61000
H  2.25100 2.34600 26.21700
H  0.53400 2.10400 26.41600
H  1.81800 1.79300 24.22400
H  1.21100 1.54500 22.62200
H  0.01300 1.47500 23.95400
H  0.49000 8.00700 20.85600
H  1.52800 10.56300 20.97700
H  3.21200 8.03800 21.41800
H  2.89300 9.10700 20.02300
H  2.38200 7.32900 20.05600
H  -0.79500 11.13500 22.35400
H  -1.20100 9.64600 21.90100
H  -0.17700 10.67900 19.47700
H  -1.12100 12.01200 19.97700
H  -1.86900 10.38600 19.91700
H  1.22500 14.22400 25.41700
H  2.53700 14.10300 24.29100
H  2.96500 14.84100 25.76800
H  1.63900 11.89200 30.09600
H  5.04000 13.04700 32.08200
H  5.27100 11.53300 32.82700
H  4.08900 12.68600 33.47000
Mg -4.89600 25.35400 26.26300
C  -3.40400 27.14000 28.90800
C  -6.45100 23.41300 28.60300
C  -6.40300 23.85200 23.68300
C  -3.05700 27.39500 24.11700
N  -4.95400 25.36900 28.46300
C  -4.25500 26.14600 29.33400
C  -4.67500 25.93000 30.77400
C  -5.43700 24.52400 30.64100
C  -5.67500 24.42000 29.12500
C  -4.83700 23.25200 31.29700
C  -5.60200 27.10000 31.29500
C  -5.39400 27.33900 32.78500
H  -4.98600 26.18500 33.64800
N  -6.25200 23.79100 26.14300
C  -6.78300 23.15200 27.22000
C  -7.57600 22.07500 26.65400
C  -7.60700 22.14800 25.25500
C  -6.80400 23.36700 24.94600
C  -8.15800 20.94500 27.48000
C  -8.24500 21.21800 24.17700
O  -8.18400 21.37800 23.00200
C  -9.07800 20.06000 24.61700
N  -4.73900 25.56700 24.36500
C  -5.52300 24.92700 23.44100
C  -5.12100 25.15200 21.87100
C  -4.02000 26.25300 22.15500
C  -4.00600 26.48500 23.68400
C  -4.48600 23.92200 21.13800
C  -4.40900 27.52500 21.27900
C  -3.20300 28.36100 20.76600
N  -3.40300 26.90700 26.38900
C  -2.77800 27.60200 25.46200
C  -1.86100 28.55000 26.08400
C  -2.12600 28.39900 27.45700
C  -3.02300 27.38200 27.59500
C  -0.88800 29.49300 25.38800
C  -1.71100 28.81100 28.78000
O  -0.89300 29.69000 29.11800
C  -2.64900 28.04600 29.81300
C  -1.66100 27.33700 30.74200
O  -1.28500 26.22600 30.57200
O  -1.46600 28.07800 31.91600
C  -1.02700 27.45900 33.10900
H  -7.00500 22.78700 29.30600
H  -6.87700 23.33000 22.85000
H  -2.59600 28.05600 23.38000
H  -3.79100 25.70000 31.36900
H  -6.46200 24.60100 31.00500
H  -4.05900 22.82900 30.66100
H  -5.62200 22.51600 31.47000
H  -4.36100 23.45500 32.25600
H  -6.65200 26.82400 31.19700
H  -5.51200 28.02400 30.72500
H  -6.33200 27.71500 33.19400
H  -4.59200 28.07300 32.86900
H  -7.86200 21.04500 28.52400
H  -7.80400 20.00200 27.06300
H  -9.24300 20.93700 27.58000
H  -9.69400 20.33000 25.47400
H  -8.41600 19.27900 24.99200
H  -9.61900 19.61400 23.78200
H  -5.91900 25.47900 21.20600
H  -3.01700 25.96800 21.83700
H  -5.08500 23.73800 20.24600
H  -4.43300 23.01000 21.73300
H  -3.47100 24.08000 20.77400
H  -5.09400 28.21800 21.76800
H  -4.97800 27.27900 20.38200
H  -3.41700 28.52600 19.71000
H  -2.33000 27.73200 20.94000
H  -3.18100 29.33800 21.25100
H  -0.52200 30.19500 26.13800
H  -1.40600 30.08000 24.63000
H  -0.06900 28.95800 24.90800
H  -3.20900 28.78600 30.38500
H  -0.03200 27.86200 33.29900
H  -1.11100 26.37300 33.15000
H  -1.59800 27.86900 33.94300

