158

Mg 0.66100 43.08700 25.80800
C  2.61700 43.22400 28.64100
C  -1.99600 42.00700 27.88700
C  -1.29600 42.45800 23.19700
C  3.47300 43.34600 23.79400
N  0.31300 42.73900 28.05500
C  1.26600 42.89900 28.99500
C  0.69300 42.86000 30.42700
C  -0.80700 42.35600 30.14800
C  -0.90400 42.43500 28.59100
C  -1.08500 40.90200 30.70300
C  0.79300 44.29200 31.05300
C  0.92700 44.42600 32.62200
H  0.45700 43.22300 33.38500
N  -1.43300 42.47700 25.64800
C  -2.30800 42.11900 26.57000
C  -3.62600 41.64000 25.95700
C  -3.41600 41.83900 24.59200
C  -2.01000 42.31500 24.41300
C  -4.89000 41.28100 26.79000
C  -4.30400 41.66600 23.39200
O  -4.04700 41.93000 22.24600
C  -5.67600 41.19400 23.69000
N  1.11000 42.72000 23.77900
C  0.03300 42.77200 22.86200
C  0.60300 42.63900 21.45800
C  2.06600 43.04500 21.64000
C  2.24100 43.17300 23.13000
C  0.36400 41.25400 20.77500
C  2.40200 44.41500 20.97300
C  1.95500 45.70000 21.71000
N  2.62800 43.33300 26.10600
C  3.68100 43.35700 25.19800
C  4.90600 43.54900 25.96200
C  4.54000 43.51100 27.31300
C  3.16300 43.34200 27.35000
C  6.34500 43.61300 25.39800
C  5.07900 43.48100 28.63000
O  6.25000 43.47400 29.02600
C  3.80300 43.49800 29.58300
C  3.98200 42.50000 30.64800
O  3.87800 41.31500 30.53600
O  4.13800 43.06700 31.83600
C  4.30400 42.19400 32.99600
H  -2.76400 41.64500 28.57300
H  -1.85800 42.34500 22.26700
H  4.33000 43.47200 23.12900
H  1.29600 42.22500 31.07600
H  -1.56500 43.02800 30.54900
H  -0.52200 40.63200 31.59600
H  -0.82600 40.21400 29.89900
H  -2.13100 40.87900 31.00700
H  -0.09200 44.88400 30.81900
H  1.67000 44.82400 30.68400
H  0.43500 45.34200 32.95000
H  1.98200 44.61400 32.82300
H  -5.37200 40.47200 26.24100
H  -5.54700 42.12200 27.00900
H  -4.68600 40.95400 27.81000
H  -5.95100 41.70200 24.61400
H  -5.65500 40.11700 23.85800
H  -6.30600 41.54400 22.87200
H  0.10700 43.43200 20.89900
H  2.74100 42.31100 21.20000
H  -0.19900 40.54500 21.38200
H  1.36900 40.84400 20.67000
H  -0.04000 41.35500 19.76700
H  2.13300 44.40700 19.91700
H  3.48500 44.43500 20.84700
H  0.98700 45.59800 22.20000
H  1.97600 46.55000 21.02800
H  2.79000 46.08500 22.29500
H  6.32200 43.57900 24.30800
H  7.04300 42.84300 25.72500
H  6.74700 44.58800 25.67500
H  3.73700 44.43300 30.13900
H  3.77700 42.71800 33.79400
H  5.35600 42.15300 33.27500
H  3.81900 41.21800 32.99200
Mg -6.73500 25.51200 25.83900
C  -5.24300 27.12600 28.52000
C  -8.41400 23.45400 27.82500
C  -8.35400 24.36600 23.13900
C  -5.18300 27.94500 23.63700
N  -6.75000 25.42500 27.90700
C  -6.13000 26.10100 28.88900
C  -6.56200 25.76400 30.33300
C  -7.47400 24.50800 29.96400
C  -7.49900 24.41300 28.46100
C  -7.08700 23.22700 30.67000
C  -7.11200 26.92200 31.23100
C  -8.12400 26.57800 32.31800
H  -7.72300 25.67200 33.51700
N  -8.18100 24.04000 25.54900
C  -8.76500 23.28700 26.50300
C  -9.64100 22.38100 25.85700
C  -9.71100 22.75500 24.45000
C  -8.69400 23.74700 24.34000
C  -10.44000 21.32700 26.56300
C  -10.61700 22.21500 23.37800
O  -10.50400 22.57300 22.20100
C  -11.52200 21.10200 23.62300
N  -6.74100 26.05700 23.71700
C  -7.56500 25.42900 22.80200
C  -7.63500 26.09200 21.38400
C  -6.57100 27.19800 21.56100
C  -6.07200 27.02100 23.05300
C  -7.36700 25.15700 20.17600
C  -7.03100 28.72400 21.28200
C  -7.52900 29.06500 19.85600
N  -5.28700 27.06900 25.94900
C  -4.73600 27.93300 25.03800
C  -3.88900 28.89300 25.74100
C  -4.03600 28.56200 27.07700
C  -4.90000 27.48000 27.14600
C  -3.18400 30.01800 25.12700
C  -3.70400 28.92900 28.40700
O  -3.06600 29.86900 28.88300
C  -4.54300 28.08200 29.38700
C  -3.61500 27.26800 30.21300
O  -2.77800 26.48300 29.83700
O  -3.81500 27.65200 31.56100
C  -2.94700 27.18700 32.57300
H  -9.09500 22.82300 28.40000
H  -8.87300 24.01600 22.24400
H  -4.78900 28.73500 22.99400
H  -5.63700 25.34100 30.72500
H  -8.53800 24.65800 30.14300
H  -7.96900 22.79800 31.14600
H  -6.30200 23.34900 31.41600
H  -6.78800 22.41800 30.00400
H  -7.43300 27.72000 30.56200
H  -6.28700 27.25800 31.86000
H  -9.07200 26.24500 31.89600
H  -8.28900 27.51600 32.84800
H  -11.46800 21.29700 26.20200
H  -10.38100 21.53700 27.63100
H  -9.93700 20.36200 26.49600
H  -11.00300 20.33100 24.19300
H  -12.02100 20.87400 22.68100
H  -12.25500 21.41400 24.36800
H  -8.62900 26.51600 21.23700
H  -5.68300 27.05400 20.94600
H  -8.34800 25.05300 19.71100
H  -7.05500 24.20700 20.61100
H  -6.61600 25.46900 19.45200
H  -6.20000 29.36600 21.57700
H  -7.72700 29.13400 22.01400
H  -7.82700 28.16700 19.31400
H  -6.79200 29.69800 19.36300
H  -8.50000 29.56000 19.88500
H  -3.42700 30.27500 24.09600
H  -2.10700 29.98500 25.29100
H  -3.51200 30.84200 25.76000
H  -5.07600 28.71800 30.09300
H  -2.63400 26.15400 32.41700
H  -3.42100 27.18700 33.55500
H  -2.05600 27.81000 32.49200

