158

Mg 52.69900 23.93000 44.79900
C  49.81800 25.69600 44.07800
C  51.35300 21.18800 43.36700
C  55.80000 22.69700 44.70400
C  54.16800 27.02700 46.04600
N  50.74400 23.48900 43.94400
C  49.73500 24.37900 43.67800
C  48.67600 23.65800 42.74700
C  49.08600 22.14500 42.99600
C  50.45100 22.25700 43.51800
C  48.19900 21.36000 43.99800
C  48.97500 24.02100 41.30300
C  47.90300 24.57200 40.39700
H  47.98800 24.04100 38.96900
N  53.42900 22.18600 44.19700
C  52.76500 21.15200 43.68100
C  53.61900 20.02900 43.48200
C  54.86300 20.35700 44.03400
C  54.76900 21.83200 44.37400
C  53.18700 18.71500 42.98100
C  56.03600 19.46700 44.02900
O  56.12500 18.33000 43.41700
C  57.22100 19.83100 44.92600
N  54.75200 24.89800 45.12800
C  55.79900 24.05400 45.11000
C  57.08400 24.76600 45.68800
C  56.50800 26.20900 46.07900
C  55.07800 26.10800 45.65100
C  57.81800 23.93500 46.80900
C  57.29200 27.38500 45.44900
C  57.67900 28.59000 46.34300
N  52.10300 25.98500 45.09800
C  52.81700 27.11000 45.63500
C  51.85700 28.23000 45.73800
C  50.64900 27.67500 45.17100
C  50.88400 26.39100 44.74200
C  52.03600 29.54200 46.40100
C  49.24200 28.03100 44.87600
O  48.50500 29.00500 45.19900
C  48.65600 26.77800 44.16800
C  48.27400 27.37500 42.85600
O  48.99400 27.42200 41.86100
O  46.96700 27.53600 42.75000
C  46.43300 28.13100 41.54800
H  51.02600 20.31900 42.79300
H  56.82700 22.33400 44.63300
H  54.42900 27.91000 46.63300
H  47.65400 23.87400 43.05800
H  49.31000 21.51800 42.13300
H  47.24400 21.85400 44.17200
H  48.68900 21.27700 44.96900
H  48.08800 20.34900 43.60600
H  49.36400 23.13800 40.79600
H  49.78500 24.74200 41.19900
H  48.08600 25.64100 40.29300
H  46.93000 24.32400 40.82200
H  53.67600 18.68200 42.00700
H  52.13300 18.47200 42.85000
H  53.59000 17.93300 43.62400
H  57.96200 20.48700 44.46800
H  57.56800 18.84800 45.24300
H  56.89900 20.36300 45.82100
H  57.85800 24.88200 44.92900
H  56.41000 26.25900 47.16400
H  58.18100 24.60400 47.59000
H  58.71900 23.51000 46.36800
H  57.17100 23.25600 47.36400
H  56.54700 27.84300 44.79800
H  58.07700 27.00600 44.79500
H  58.74400 28.72300 46.53200
H  57.24500 28.56500 47.34300
H  57.24800 29.43500 45.80700
H  52.56600 29.40400 47.34300
H  51.04200 29.97400 46.52300
H  52.56800 30.29200 45.81500
H  47.82300 26.35500 44.73100
H  45.46500 28.55600 41.81300
H  46.34900 27.38200 40.76100
H  47.07100 28.95300 41.22400
Mg 42.14000 41.87200 26.66500
C  41.36300 44.27500 29.07000
C  43.18600 39.79500 29.18100
C  42.59300 39.44800 24.37400
C  40.93500 44.05300 24.22700
N  42.39400 42.10100 28.87600
C  41.87200 43.11000 29.65100
C  41.64900 42.70700 31.04500
C  42.39700 41.35600 31.19200
C  42.72800 41.04700 29.70100
C  43.64000 41.47500 32.16200
C  40.14500 42.50500 31.41300
C  39.53800 43.48400 32.46400
H  39.17000 43.00100 33.88800
N  42.84900 39.87200 26.81200
C  43.18900 39.21800 27.90700
C  43.68900 37.88600 27.59800
C  43.42400 37.68900 26.21200
C  42.93700 39.04700 25.69600
C  44.28800 36.96700 28.64100
C  43.57900 36.49800 25.46800
O  43.34400 36.50000 24.28200
C  43.93600 35.13200 26.05400
N  41.89300 41.85800 24.64500
C  42.11300 40.74800 23.86700
C  41.83800 40.98800 22.39500
C  41.17800 42.37900 22.37100
C  41.31400 42.81700 23.89200
C  43.13700 40.90100 21.51900
C  39.65500 42.28500 22.02200
C  38.71900 41.73200 23.00600
N  41.57100 43.89100 26.55000
C  41.00400 44.56800 25.51200
C  40.59900 45.86400 25.96600
C  40.67000 45.81400 27.38500
C  41.26300 44.57000 27.68900
C  40.22500 46.97300 25.13300
C  40.48000 46.52500 28.60500
O  40.19700 47.70600 28.79100
C  40.81600 45.55900 29.77300
C  41.73700 46.22500 30.69200
O  42.93400 46.24500 30.55100
O  41.02000 46.81300 31.75200
C  41.71400 47.22800 32.87900
H  43.38700 39.16400 30.04900
H  42.85700 38.70600 23.61800
H  40.48000 44.68700 23.46400
H  42.03900 43.31000 31.86500
H  41.78300 40.56500 31.62300
H  43.60200 42.32900 32.83700
H  44.54500 41.53500 31.55800
H  43.79800 40.53000 32.68200
H  39.84600 41.55000 31.84400
H  39.62300 42.45200 30.45700
H  38.62300 43.84200 31.99100
H  40.16700 44.33800 32.71400
H  45.28400 36.60000 28.39600
H  43.64000 36.12400 28.88200
H  44.41900 37.50300 29.58100
H  43.99700 34.46200 25.19700
H  43.28100 34.68100 26.79900
H  44.91800 35.29100 26.49800
H  41.19800 40.13100 22.18600
H  41.73900 43.03000 21.70000
H  43.75600 41.52000 22.16900
H  42.95100 41.33300 20.53600
H  43.35700 39.83300 21.50500
H  39.52000 41.70200 21.11100
H  39.31000 43.27800 21.73000
H  38.22500 42.42300 23.68900
H  39.19300 40.99500 23.65500
H  37.90100 41.15300 22.57700
H  39.23500 47.42300 25.21200
H  40.37200 46.82100 24.06400
H  41.03500 47.69600 25.22900
H  39.86500 45.26500 30.21700
H  42.79900 47.21100 32.78700
H  41.49400 46.59900 33.74200
H  41.33000 48.23600 33.03900

