158

Mg 35.20800 1.44400 29.70000
C  32.67900 2.30600 32.00600
C  37.59600 1.65900 32.14700
C  37.40600 0.81700 27.25100
C  32.56300 1.39100 27.12800
N  35.10900 2.05700 31.77300
C  34.03100 2.31600 32.55900
C  34.41600 2.50700 34.03500
C  36.00800 2.52800 34.03700
C  36.31500 2.02900 32.60900
C  36.74000 3.85300 34.28800
C  33.88500 1.26600 34.91200
C  33.36700 1.60500 36.36800
H  34.09100 2.67500 37.23300
N  37.26200 1.20000 29.75300
C  38.06300 1.25500 30.86700
C  39.40400 1.13100 30.42300
C  39.40800 1.05300 28.92500
C  38.00500 1.08800 28.59000
C  40.57200 1.05900 31.30400
C  40.58500 1.03700 27.95000
O  40.53700 1.13700 26.75000
C  41.99500 0.90200 28.41200
N  34.97400 1.34200 27.48200
C  36.09900 1.00800 26.78600
C  35.70100 0.83400 25.27000
C  34.15900 0.58300 25.35100
C  33.82300 1.15100 26.75300
C  36.10400 2.12200 24.52500
C  33.74100 -0.88300 25.16600
C  32.88500 -1.15200 23.88400
N  33.03900 1.70700 29.52800
C  32.17700 1.72300 28.47300
C  30.87000 2.18200 28.94600
C  31.09200 2.42400 30.31600
C  32.34100 2.09900 30.63500
C  29.65500 2.37200 28.11000
C  30.40000 2.85000 31.51300
O  29.19100 3.07900 31.75800
C  31.42700 2.72500 32.71300
C  31.48000 4.07300 33.45100
O  31.95800 5.12100 32.98700
O  31.02400 3.84800 34.73700
C  30.77600 4.98900 35.63000
H  38.46900 1.83300 32.78100
H  38.19700 0.61700 26.52500
H  31.81600 1.22100 26.35000
H  33.95800 3.43500 34.37600
H  36.38300 1.73200 34.68100
H  37.16100 4.24200 33.36100
H  37.59800 3.65900 34.93200
H  36.13600 4.65800 34.70700
H  34.71200 0.57700 35.08300
H  33.15200 0.61500 34.43500
H  33.43100 0.71800 36.99800
H  32.35300 2.00600 36.37700
H  41.46900 0.54600 30.95600
H  40.27900 0.67000 32.27900
H  40.89700 2.08800 31.45700
H  42.18200 -0.09800 28.80200
H  42.13200 1.74200 29.09300
H  42.63100 0.90900 27.52700
H  36.20300 -0.05000 24.87600
H  33.67100 1.21200 24.60700
H  36.70600 2.81600 25.11200
H  35.27700 2.73900 24.17300
H  36.70700 1.72700 23.70700
H  33.19300 -1.19400 26.05500
H  34.66400 -1.46300 25.15400
H  33.04600 -0.43500 23.08000
H  31.82800 -1.24800 24.13500
H  33.20300 -2.14700 23.57300
H  29.75400 1.99900 27.09100
H  29.18800 3.35500 28.05500
H  28.91200 1.67000 28.48900
H  31.02500 1.92200 33.33000
H  30.56100 4.73200 36.66700
H  30.03200 5.64400 35.17600
H  31.70800 5.54300 35.74300
Mg 17.16400 51.52900 25.74100
C  18.90800 50.60300 28.49000
C  14.57100 52.66800 27.80600
C  15.29700 51.93600 23.03500
C  19.74900 50.56600 23.71000
N  16.82400 51.68000 27.95900
C  17.70000 51.25300 28.91400
C  17.21700 51.50500 30.28900
C  15.80200 52.14200 30.06600
C  15.67900 52.18200 28.50900
C  14.60900 51.39600 30.74600
C  18.14700 52.30700 31.21800
C  18.23200 51.73000 32.61100
H  17.08000 50.90000 33.20200
N  15.27100 52.28600 25.39100
C  14.35500 52.73600 26.37900
C  13.08200 53.08600 25.74800
C  13.30900 52.96600 24.32200
C  14.62200 52.35600 24.14500
C  11.86300 53.60300 26.53000
C  12.43700 53.39700 23.19400
O  12.77900 53.34000 22.01400
C  11.04500 53.87300 23.47200
N  17.52400 51.46300 23.64800
C  16.56800 51.46300 22.79600
C  16.97800 51.09600 21.36600
C  18.50700 50.88800 21.53200
C  18.64200 51.03900 23.05900
C  16.03400 50.05400 20.72900
C  19.56100 51.92800 20.89500
C  20.80500 51.15800 20.26000
N  18.90000 50.70800 26.00800
C  19.89100 50.40100 25.10200
C  20.98000 49.76700 25.80200
C  20.65300 49.84200 27.10900
C  19.42700 50.48800 27.24400
C  22.05900 48.97000 25.17100
C  20.94800 49.33800 28.39100
O  21.98000 48.75400 28.76700
C  19.79900 49.79400 29.42200
C  19.14100 48.62800 30.04400
O  18.18000 48.00600 29.55900
O  19.79600 48.24500 31.21700
C  19.15300 47.22100 32.11300
H  13.79400 53.04200 28.47600
H  14.70200 52.03900 22.12500
H  20.61500 50.19700 23.15600
H  17.13100 50.50700 30.71700
H  15.70900 53.13100 30.51600
H  13.95000 51.12800 29.91900
H  14.06800 52.08000 31.40000
H  15.03600 50.58600 31.33700
H  17.78500 53.33500 31.20700
H  19.14200 52.28300 30.77300
H  18.34800 52.60000 33.25700
H  19.15600 51.15900 32.70000
H  11.54300 54.61700 26.28900
H  12.08600 53.63700 27.59600
H  11.11600 52.82900 26.35100
H  10.59600 53.96900 22.48400
H  10.96700 54.74600 24.12000
H  10.53900 53.09000 24.03600
H  16.82900 52.02600 20.81700
H  18.70300 49.85900 21.23100
H  15.41600 49.62800 21.52000
H  16.59800 49.24000 20.27400
H  15.38800 50.44600 19.94300
H  19.93500 52.62300 21.64700
H  19.09400 52.57100 20.15000
H  21.69800 51.14400 20.88400
H  21.06900 51.58400 19.29200
H  20.61600 50.14400 19.90800
H  22.35000 49.47900 24.25200
H  21.79200 47.91600 25.10800
H  22.86900 49.03300 25.89700
H  20.12400 50.27800 30.34300
H  18.65600 47.75700 32.92100
H  19.93300 46.61600 32.57700
H  18.51600 46.48200 31.62800

