158

Mg 17.92600 -0.22300 28.13900
C  16.51800 2.00800 30.50700
C  19.49100 -1.82500 30.88900
C  19.58200 -1.95400 25.88500
C  16.49000 1.70400 25.64500
N  17.96300 0.10300 30.48700
C  17.23600 1.04700 31.18100
C  17.42900 0.79300 32.68200
C  18.66600 -0.18500 32.74100
C  18.74800 -0.69400 31.27900
C  20.02700 0.52000 33.24500
C  16.04100 0.24200 33.33300
C  15.85700 0.65200 34.81500
H  17.11300 0.98800 35.55400
N  19.33100 -1.77800 28.36100
C  19.72300 -2.33600 29.55900
C  20.59800 -3.50200 29.17200
C  20.72300 -3.56400 27.72800
C  19.86300 -2.38300 27.24100
C  21.32400 -4.32900 30.22100
C  21.51700 -4.49800 26.77900
O  21.41800 -4.49400 25.57600
C  22.31200 -5.59200 27.42600
N  17.85900 -0.26100 26.02900
C  18.74900 -0.99400 25.30000
C  18.83100 -0.45100 23.85000
C  17.80100 0.67600 23.80600
C  17.27300 0.68200 25.23400
C  20.23800 -0.03500 23.25800
C  16.72700 0.34900 22.67700
C  17.06400 0.37500 21.25100
N  16.68200 1.44200 28.07800
C  16.18800 2.07600 26.97600
C  15.27700 3.16700 27.42900
C  15.43000 3.18600 28.81500
C  16.31300 2.14900 29.14900
C  14.50700 4.16600 26.57900
C  15.05800 3.92900 29.99500
O  14.41000 4.99400 30.06100
C  15.73500 3.13900 31.23300
C  16.69900 4.15700 31.74500
O  17.79500 4.31400 31.24700
O  16.30600 4.54300 33.04000
C  17.41900 5.28700 33.70400
H  19.77700 -2.49300 31.70400
H  20.16500 -2.55000 25.18000
H  16.01200 2.29300 24.85900
H  17.79000 1.74700 33.06700
H  18.42500 -1.01700 33.40300
H  19.83700 1.42200 33.82700
H  20.65800 0.67600 32.37000
H  20.65100 -0.21700 33.75100
H  16.20500 -0.82900 33.44800
H  15.18700 0.36100 32.66500
H  15.37900 -0.19500 35.30600
H  15.18900 1.50800 34.90800
H  22.29200 -4.61700 29.81100
H  20.75900 -5.24900 30.37300
H  21.61600 -3.76000 31.10400
H  22.92500 -6.18200 26.74500
H  21.72200 -6.24600 28.06800
H  23.09300 -5.22600 28.09300
H  18.51500 -1.32600 23.28300
H  18.30900 1.61900 23.60500
H  20.20900 0.92800 22.74800
H  20.39700 -0.82500 22.52400
H  21.00300 -0.00600 24.03400
H  15.86600 1.00800 22.79500
H  16.43500 -0.66900 22.93500
H  16.65700 1.27200 20.78600
H  16.61500 -0.47000 20.72800
H  18.14500 0.48100 21.16300
H  14.93700 3.97900 25.59500
H  14.85400 5.15500 26.87700
H  13.41700 4.14700 26.55800
H  15.08300 2.93600 32.08300
H  17.48600 5.03600 34.76300
H  17.24000 6.34100 33.48900
H  18.43300 5.07300 33.36600
Mg 41.61900 40.64100 26.23000
C  40.77100 43.20400 28.71200
C  42.83800 38.82900 28.76600
C  42.57900 38.54500 23.97700
C  40.59100 43.03700 23.93200
N  41.83200 40.99800 28.42800
C  41.29900 41.97400 29.21800
C  41.45900 41.60800 30.72300
C  42.35300 40.32600 30.71500
C  42.27300 40.00800 29.21300
C  43.82700 40.66200 31.28100
C  40.04800 41.52500 31.41400
C  39.80400 42.28600 32.63000
H  39.85700 41.43000 33.89400
N  42.64900 38.91700 26.39300
C  43.05100 38.32500 27.51500
C  43.76100 37.06300 27.18500
C  43.68800 36.89200 25.73400
C  42.98700 38.16800 25.28000
C  44.38600 36.18300 28.27900
C  44.13300 35.79000 24.82400
O  44.03100 35.92200 23.60800
C  44.68300 34.50600 25.45700
N  41.83800 40.89100 24.24800
C  42.10700 39.77500 23.51200
C  41.68000 39.95500 22.02000
C  41.10000 41.47000 22.03900
C  41.14800 41.85300 23.53000
C  42.77700 39.66100 20.92000
C  39.60800 41.63600 21.45700
C  39.35300 42.36700 20.12100
N  40.96000 42.74500 26.26400
C  40.57200 43.53300 25.24200
C  39.96000 44.77300 25.69900
C  40.01800 44.68800 27.09900
C  40.68500 43.47500 27.33300
C  39.25200 45.89400 24.86800
C  39.72400 45.39600 28.35000
O  39.13100 46.49500 28.51200
C  40.18400 44.38200 29.50400
C  41.14100 45.07200 30.52800
O  42.28500 44.83400 30.52400
O  40.45300 46.00300 31.32600
C  41.42000 46.65600 32.28100
H  43.02700 38.11000 29.56500
H  42.69600 37.86100 23.13400
H  40.02900 43.64800 23.22300
H  42.11600 42.34800 31.18100
H  41.77700 39.61400 31.30700
H  44.56800 40.20200 30.62800
H  43.87200 40.13000 32.23100
H  44.02800 41.72900 31.37400
H  40.02500 40.45200 31.60600
H  39.19700 41.64600 30.74400
H  38.76900 42.60800 32.51700
H  40.53600 43.09200 32.68400
H  45.42700 35.87800 28.17300
H  43.87800 35.22500 28.39100
H  44.27200 36.63900 29.26200
H  45.06800 33.86200 24.66600
H  43.84200 34.07400 25.99900
H  45.53600 34.72800 26.09800
H  40.92700 39.22400 21.72400
H  41.78600 42.09800 21.47100
H  43.66000 39.32600 21.46400
H  42.95600 40.46100 20.20100
H  42.48000 38.83500 20.27400
H  39.02000 42.14600 22.22000
H  39.16900 40.65100 21.30000
H  38.99000 41.61700 19.41800
H  40.28200 42.77600 19.72300
H  38.61000 43.16200 20.05900
H  38.87000 46.70100 25.49300
H  38.50600 45.35300 24.28500
H  39.97100 46.33200 24.17600
H  39.29000 44.07000 30.04300
H  40.86500 47.36900 32.89000
H  42.14600 47.33700 31.83800
H  41.95100 46.01900 32.98800

