158

Mg 40.50600 9.09800 29.33500
C  42.36400 10.25900 32.15900
C  38.19300 7.75400 31.62100
C  38.87200 7.74600 26.71900
C  43.29000 9.98800 27.30300
N  40.34500 9.01500 31.65500
C  41.19100 9.59900 32.58900
C  40.74800 9.29100 34.06600
C  39.41700 8.49800 33.87400
C  39.26400 8.39600 32.28900
C  39.32900 7.08300 34.53600
C  40.50800 10.61100 34.91400
C  41.37000 10.78500 36.17600
H  40.84000 11.83600 37.16800
N  38.79100 7.89500 29.19500
C  37.97500 7.44300 30.23300
C  36.85500 6.64800 29.72900
C  36.97800 6.65200 28.24700
C  38.18500 7.49800 27.95800
C  35.66700 6.20000 30.55700
C  36.07200 5.93800 27.24900
O  36.35300 5.93700 26.04300
C  34.86100 5.17200 27.79600
N  41.12800 8.70100 27.32400
C  40.17500 8.21700 26.40900
C  40.45400 8.65700 24.96200
C  41.80200 9.47200 25.15700
C  42.18900 9.33000 26.65900
C  40.56700 7.54200 23.87300
C  41.54500 11.04700 24.77300
C  42.71500 11.74600 24.03200
N  42.41400 10.08100 29.60900
C  43.44100 10.25600 28.69800
C  44.46700 11.02400 29.34300
C  44.11400 11.00800 30.68500
C  42.83100 10.40600 30.80800
C  45.62200 11.67100 28.69600
C  44.56500 11.44500 32.03300
O  45.65100 11.98600 32.29400
C  43.45900 10.92800 33.02200
C  44.04900 9.99400 33.98500
O  44.22600 8.77000 33.77300
O  44.50100 10.67300 35.03300
C  45.07500 9.85700 36.10400
H  37.43800 7.34200 32.29400
H  38.32800 7.54700 25.79300
H  44.11900 10.41200 26.73300
H  41.48000 8.62200 34.51800
H  38.49700 8.96600 34.22200
H  38.70300 6.41600 33.94300
H  38.88800 7.23300 35.52200
H  40.31800 6.62500 34.57700
H  39.46900 10.79400 35.18800
H  40.62500 11.45700 34.23600
H  42.35700 11.13700 35.87700
H  41.35200 9.83700 36.71400
H  34.76600 6.77500 30.34200
H  35.84200 6.42800 31.60900
H  35.44700 5.14900 30.36900
H  35.20600 4.40400 28.48800
H  34.26100 4.86200 26.94000
H  34.12400 5.81700 28.27500
H  39.66700 9.38000 24.75100
H  42.69300 9.02000 24.72100
H  41.44800 7.57200 23.23100
H  39.75800 7.61900 23.14700
H  40.47900 6.58400 24.38500
H  41.28800 11.50000 25.73100
H  40.68600 11.17600 24.11400
H  42.25500 12.31400 23.22300
H  43.35200 10.92400 23.70400
H  43.31200 12.33200 24.73000
H  46.24200 10.93100 28.19100
H  46.12500 12.44000 29.28200
H  45.05000 12.28200 27.99600
H  43.00000 11.80300 33.48300
H  44.20300 9.40300 36.57400
H  45.65500 10.41900 36.83600
H  45.57000 9.01600 35.61800
Mg 29.39200 57.48100 41.29500
C  26.74500 55.49700 40.29700
C  31.38100 55.51400 39.32500
C  31.74900 59.77100 41.42200
C  26.99700 59.80800 42.29200
N  29.12200 55.57600 40.11800
C  27.95700 54.94800 39.88800
C  28.16900 53.60800 39.05600
C  29.73200 53.52800 39.08600
C  30.10300 54.97600 39.47900
C  30.38200 52.37900 40.04200
C  27.49600 53.72300 37.64500
C  27.33200 55.06400 36.94400
H  27.59800 55.10100 35.46000
N  31.39600 57.47700 40.74300
C  32.03400 56.58400 39.99400
C  33.40000 56.96400 39.81800
C  33.51400 58.20100 40.39600
C  32.21900 58.57600 40.92800
C  34.43000 56.12300 39.12600
C  34.83200 58.94500 40.50100
O  35.87800 58.56700 39.94000
C  34.91200 60.26700 41.21900
N  29.37300 59.57000 41.70000
C  30.49100 60.32100 41.70300
C  30.28500 61.79100 42.07300
C  28.70500 61.69900 42.45700
C  28.29800 60.22400 42.16600
C  31.33600 62.46000 43.12100
C  27.86000 62.73400 41.62800
C  26.66600 63.44100 42.39600
N  27.25700 57.59700 41.51500
C  26.39800 58.62200 41.82100
C  25.04400 58.28200 41.70700
C  25.10000 57.00200 41.07900
C  26.50000 56.69600 40.95200
C  23.79400 59.04100 41.94800
C  24.33500 55.91900 40.58200
O  23.12300 55.68200 40.53200
C  25.35800 54.80200 40.14700
C  25.24400 53.37200 40.70500
O  25.48500 52.97800 41.80600
O  24.73900 52.57300 39.67700
C  24.47900 51.14300 40.05600
H  32.12700 54.94700 38.76400
H  32.51700 60.53800 41.54700
H  26.32700 60.63000 42.55200
H  27.81800 52.69900 39.54400
H  30.04800 53.33300 38.06100
H  29.63800 51.65900 40.38400
H  30.85600 52.74400 40.95300
H  31.15900 51.97900 39.39200
H  26.52000 53.23700 37.65700
H  28.02500 53.05900 36.96200
H  28.01000 55.77500 37.41700
H  26.26300 55.20400 37.10200
H  35.46300 56.21500 39.46100
H  34.38300 56.28900 38.05000
H  34.15100 55.08300 39.29800
H  34.24200 60.83300 40.57100
H  35.93800 60.61200 41.34300
H  34.35500 60.23800 42.15500
H  30.33400 62.36800 41.15100
H  28.66400 61.85600 43.53500
H  32.28600 61.94200 43.25200
H  30.87300 62.84200 44.03000
H  31.78300 63.30700 42.60100
H  27.35300 62.22400 40.80900
H  28.56800 63.45500 41.22000
H  25.80900 63.75100 41.79800
H  26.97000 64.34300 42.92800
H  26.21100 62.77200 43.12600
H  24.03300 60.02000 42.36300
H  23.28400 58.58000 42.79400
H  23.19100 59.24300 41.06300
H  25.13900 54.62700 39.09400
H  25.39300 50.59300 40.28300
H  24.11300 50.60300 39.18300
H  23.80800 51.08400 40.91300

