158

Mg 24.96600 -7.23600 47.89600
C  27.24300 -5.03400 46.76100
C  22.77900 -6.13000 45.39300
C  22.85700 -9.80300 48.55500
C  27.24500 -8.69700 50.11500
N  25.06900 -5.87800 46.09100
C  26.11700 -4.97600 45.95200
C  25.73300 -3.84500 45.00000
C  24.24200 -4.15800 44.62600
C  24.06300 -5.49400 45.34200
C  23.16100 -3.08000 45.07200
C  26.70100 -3.77100 43.74700
C  27.20100 -2.33400 43.30500
H  27.15500 -1.95500 41.90400
N  23.15500 -7.88400 47.10700
C  22.35800 -7.26600 46.05500
C  21.10500 -7.97500 45.83900
C  21.16300 -9.00800 46.74800
C  22.42800 -8.92700 47.47700
C  19.98500 -7.53800 44.82900
C  20.06700 -10.11500 46.81700
O  19.13400 -10.19600 46.04500
C  20.09600 -11.17800 47.84300
N  24.92700 -8.87200 49.33600
C  23.93500 -9.75700 49.39600
C  24.21300 -10.90900 50.28900
C  25.62000 -10.54300 50.85000
C  26.00100 -9.34200 49.99800
C  23.10900 -11.26700 51.38300
C  26.70900 -11.64500 50.89200
C  26.31600 -13.01800 51.50700
N  26.84900 -6.93900 48.40900
C  27.65800 -7.64100 49.27700
C  28.96600 -7.01800 49.23600
C  28.83600 -5.95700 48.31200
C  27.54000 -5.99200 47.81900
C  30.10000 -7.61300 49.97300
C  29.48400 -4.76900 47.67300
O  30.62900 -4.30800 47.84100
C  28.48400 -4.17400 46.70800
C  28.22000 -2.76900 47.19200
O  27.89000 -2.45300 48.32800
O  28.39800 -1.86700 46.20000
C  28.18300 -0.44700 46.44900
H  22.02500 -5.69300 44.73400
H  22.30000 -10.73500 48.66900
H  27.97000 -9.03000 50.86100
H  25.80800 -2.86200 45.46500
H  24.23200 -4.24300 43.53900
H  23.76100 -2.30300 45.54600
H  22.53500 -3.60500 45.79400
H  22.59100 -2.83700 44.17500
H  26.28000 -4.21300 42.84500
H  27.58100 -4.35900 44.00900
H  28.27600 -2.21000 43.43000
H  26.88300 -1.53400 43.97400
H  20.18400 -8.00800 43.86600
H  19.94300 -6.45000 44.79200
H  19.07900 -7.96600 45.25800
H  20.61100 -11.97600 47.30800
H  19.02500 -11.37700 47.83700
H  20.42500 -11.02800 48.87200
H  24.31700 -11.82400 49.70700
H  25.45300 -10.14000 51.84900
H  23.53100 -11.43000 52.37400
H  22.64600 -12.20400 51.07100
H  22.28200 -10.55700 51.36200
H  27.50100 -11.30000 51.55600
H  27.14400 -11.83100 49.91000
H  26.41900 -13.82400 50.78100
H  25.27900 -13.04900 51.84300
H  26.89000 -13.27800 52.39600
H  30.91800 -6.90800 49.82500
H  30.40900 -8.56300 49.53800
H  29.97300 -7.83400 51.03200
H  28.94600 -4.18100 45.72000
H  27.09900 -0.36100 46.52300
H  28.61600 0.26100 45.74300
H  28.56500 -0.24000 47.44900
Mg 35.21200 1.43500 29.26500
C  33.13200 2.85800 31.67600
C  37.75300 1.49400 31.60900
C  37.36700 0.48000 26.80200
C  32.71100 1.91800 26.93500
N  35.44900 2.21900 31.31000
C  34.37900 2.53900 32.14800
C  34.87000 2.63200 33.59900
C  36.39100 2.52800 33.47400
C  36.58600 2.11100 32.04400
C  37.15200 3.84500 33.83700
C  34.14400 1.45200 34.41600
C  33.56400 2.00900 35.78000
H  34.21300 3.17300 36.38400
N  37.21500 0.89800 29.28400
C  38.05000 0.91100 30.34800
C  39.27400 0.31000 29.92200
C  39.13800 -0.06500 28.56400
C  37.87000 0.47900 28.14100
C  40.40000 0.19100 30.89600
C  40.18500 -0.76700 27.62500
O  39.98500 -1.07700 26.44100
C  41.47600 -1.31600 28.14700
N  35.16900 1.47200 27.17700
C  36.10500 0.92800 26.40200
C  35.69100 0.80500 24.98800
C  34.13200 0.91200 25.03600
C  33.97000 1.43000 26.48000
C  36.39100 1.82600 24.01700
C  33.24400 -0.43300 24.84700
C  32.18700 -0.29200 23.70400
N  33.30700 2.38900 29.19400
C  32.41600 2.46100 28.17600
C  31.16400 2.95600 28.74100
C  31.38300 3.15400 30.07100
C  32.75000 2.75100 30.30500
C  29.95300 3.13700 27.96000
C  30.81200 3.58700 31.32800
O  29.66300 3.96500 31.49000
C  31.87900 3.33200 32.37200
C  32.05100 4.62100 33.09100
O  32.61200 5.59100 32.60700
O  31.49900 4.54900 34.38100
C  31.39800 5.87200 35.02200
H  38.49100 1.34100 32.40000
H  38.00300 0.04300 26.02900
H  31.94900 1.97300 26.15500
H  34.58300 3.59500 34.02100
H  36.70600 1.63600 34.01500
H  37.83500 4.15700 33.04600
H  37.71100 3.62000 34.74500
H  36.42200 4.60700 34.10900
H  34.86100 0.64800 34.57600
H  33.38500 1.01500 33.76600
H  33.76000 1.24400 36.53100
H  32.50600 2.24500 35.66400
H  41.13400 -0.55900 30.60200
H  39.93600 0.01600 31.86700
H  40.89700 1.16000 30.95600
H  41.22500 -1.99100 28.96500
H  42.01500 -0.41300 28.43500
H  42.00400 -1.89900 27.39300
H  35.90800 -0.21700 24.67700
H  33.86400 1.74100 24.38100
H  37.16800 1.36900 23.40400
H  36.91800 2.53500 24.65600
H  35.68700 2.28900 23.32600
H  32.80200 -0.63400 25.82300
H  33.87600 -1.31300 24.72500
H  32.46200 -0.93800 22.87100
H  31.90300 0.69400 23.33800
H  31.23500 -0.62200 24.11900
H  29.76900 2.29400 27.29400
H  29.95400 4.11100 27.47000
H  29.07100 3.08200 28.59900
H  31.45600 2.53900 32.98900
H  31.01000 6.61700 34.32700
H  32.24700 6.19700 35.62400
H  30.71900 5.88900 35.87500

