158

Mg 42.25400 41.11100 26.41600
C  41.63800 43.50500 28.95100
C  42.96000 38.73900 28.58800
C  43.49400 39.29400 23.76300
C  41.76400 43.82600 24.02600
N  42.52100 41.23400 28.58600
C  41.99300 42.19600 29.46100
C  41.89300 41.68000 30.94700
C  42.30400 40.18100 30.67500
C  42.54500 40.00800 29.18600
C  43.42100 39.69100 31.66400
C  40.47300 41.89100 31.58000
C  40.21900 41.18800 32.93800
H  39.48400 42.02300 34.02400
N  43.03800 39.25100 26.23400
C  43.34800 38.38100 27.27600
C  43.84200 37.15100 26.77500
C  44.04500 37.30200 25.36200
C  43.53200 38.69600 25.05400
C  44.02200 35.90100 27.62700
C  44.57200 36.33700 24.28900
O  44.77800 36.56700 23.11800
C  44.72500 34.83500 24.64200
N  42.47800 41.48600 24.24100
C  43.03100 40.55000 23.34600
C  43.00600 40.95300 21.86100
C  42.15700 42.24900 21.94300
C  42.18800 42.62300 23.49700
C  44.41900 41.13800 21.16000
C  40.70700 42.11500 21.47700
C  39.70200 40.97800 21.96300
N  41.90300 43.29600 26.39200
C  41.61500 44.19800 25.41300
C  41.15600 45.43600 25.97800
C  41.18100 45.24700 27.33900
C  41.64700 43.91100 27.56100
C  40.77300 46.72000 25.36600
C  40.95500 45.84200 28.66800
O  40.55500 46.93800 28.93500
C  41.10600 44.73700 29.70400
C  42.04000 45.18400 30.79900
O  43.28300 45.26900 30.74200
O  41.29200 45.41700 31.85100
C  41.96100 45.52700 33.13300
H  43.21200 37.90700 29.24800
H  43.68700 38.64300 22.90800
H  41.53900 44.59600 23.28500
H  42.69000 42.19800 31.48200
H  41.42400 39.57100 30.88300
H  44.35200 39.70100 31.09600
H  43.08800 38.75400 32.11100
H  43.53900 40.41100 32.47400
H  39.81000 41.48500 30.81600
H  40.18200 42.91300 31.82200
H  41.20300 40.85100 33.26500
H  39.53500 40.34900 32.80900
H  43.40600 35.13700 27.15300
H  43.84300 36.01400 28.69600
H  45.01300 35.45300 27.55500
H  45.07500 34.32300 23.74600
H  43.82400 34.50200 25.15700
H  45.44700 34.81100 25.45800
H  42.43900 40.19200 21.32400
H  42.54800 43.07700 21.35300
H  44.51300 40.39300 20.37000
H  45.03600 40.75500 21.97400
H  44.80600 42.10200 20.83000
H  40.84200 41.98900 20.40300
H  40.37700 43.11100 21.77200
H  39.96100 40.42900 22.86900
H  39.42800 40.46700 21.04100
H  38.78600 41.47800 22.27800
H  39.84700 47.07600 25.81800
H  40.50900 46.48100 24.33500
H  41.56700 47.46100 25.45600
H  40.13300 44.63400 30.18300
H  42.35100 44.52500 33.31400
H  41.43100 45.87800 34.01800
H  42.76800 46.25800 33.18500
Mg -11.24800 38.45900 42.34400
C  -9.24300 35.73800 41.25700
C  -9.16200 40.57500 40.58900
C  -13.40600 40.97400 42.88200
C  -13.75200 36.09500 43.39300
N  -9.41500 38.18500 41.07700
C  -8.75300 36.98900 40.82000
C  -7.51300 37.21900 39.93600
C  -7.40100 38.79100 39.94300
C  -8.73800 39.26500 40.62300
C  -6.17800 39.27100 40.72000
C  -7.63300 36.57400 38.49700
C  -6.52800 35.68400 38.10900
H  -5.60000 36.23400 37.02100
N  -11.21700 40.55800 41.87800
C  -10.29700 41.20500 41.09800
C  -10.73500 42.59500 40.89800
C  -12.06700 42.64900 41.41800
C  -12.31100 41.36300 42.08500
C  -9.90100 43.59400 40.11400
C  -13.01400 43.78700 41.09800
O  -12.70900 44.72400 40.38000
C  -14.34300 43.85200 41.70700
N  -13.29700 38.48300 42.91700
C  -13.79500 39.70800 43.29500
C  -15.12700 39.47900 44.02700
C  -15.24000 37.98400 44.19800
C  -14.04600 37.44700 43.40900
C  -15.55700 40.27300 45.22700
C  -16.55200 37.22800 43.76200
C  -17.11600 36.31800 44.85200
N  -11.55700 36.36700 42.32900
C  -12.56800 35.54500 42.83400
C  -12.04300 34.18900 42.88900
C  -10.73500 34.17800 42.24500
C  -10.51200 35.54300 41.92200
C  -12.71000 33.04700 43.55400
C  -9.62300 33.41900 41.86400
O  -9.41500 32.19600 42.01700
C  -8.65000 34.36100 41.16200
C  -7.26600 34.26000 41.65500
O  -6.85600 34.87100 42.64200
O  -6.47700 33.42700 40.89600
C  -5.02500 33.52500 41.13900
H  -8.45100 41.24200 40.09700
H  -13.93200 41.81200 43.34600
H  -14.53200 35.44100 43.78700
H  -6.63600 36.73300 40.36500
H  -7.36400 39.15300 38.91600
H  -6.49100 40.03000 41.43700
H  -5.55600 39.80800 40.00400
H  -5.61600 38.48800 41.22900
H  -7.67700 37.29500 37.68000
H  -8.58600 36.04500 38.48700
H  -6.88300 34.70100 37.80100
H  -5.88200 35.29000 38.89500
H  -8.87900 43.26300 39.92800
H  -9.83500 44.53700 40.65600
H  -10.27200 43.81800 39.11300
H  -14.82300 42.87400 41.74000
H  -14.92800 44.52900 41.08500
H  -14.20700 44.12900 42.75200
H  -15.89600 39.71200 43.29100
H  -15.10100 37.73800 45.25100
H  -14.70000 40.78500 45.66400
H  -15.97800 39.59300 45.96800
H  -16.34800 40.98500 44.99300
H  -16.47600 36.60300 42.87200
H  -17.39300 37.87800 43.51900
H  -17.56900 35.44500 44.38400
H  -17.96300 36.74900 45.38600
H  -16.29000 35.90200 45.42900
H  -13.78100 33.24800 43.56700
H  -12.25200 32.92300 44.53600
H  -12.57200 32.15200 42.94700
H  -8.53900 34.07300 40.11600
H  -4.55900 33.70100 40.16900
H  -4.70600 32.60900 41.63700
H  -4.72400 34.34200 41.79600

