158

Mg 25.75800 0.34100 29.24500
C  27.36100 0.27500 32.43800
C  22.81000 0.56300 30.90600
C  24.27400 -0.32500 26.40200
C  28.87500 -0.71100 27.96700
N  25.14400 0.47900 31.55100
C  26.02500 0.52100 32.61600
C  25.29300 0.79600 33.87800
C  23.78300 0.76000 33.34000
C  23.85600 0.62000 31.88300
C  22.88200 -0.30800 34.06400
C  25.68800 2.16300 34.52700
C  26.02000 2.04300 36.02600
H  25.60100 3.10500 37.10900
N  23.87800 0.22000 28.69300
C  22.77700 0.34400 29.54400
C  21.57500 0.13500 28.79800
C  21.92600 -0.00300 27.46200
C  23.39600 0.04400 27.46400
C  20.17900 0.14700 29.44700
C  21.06800 -0.29000 26.23800
O  21.55700 -0.42500 25.11700
C  19.60700 -0.47400 26.35400
N  26.48900 -0.46700 27.42000
C  25.69200 -0.48000 26.34200
C  26.54900 -0.58400 25.04600
C  28.01400 -0.37500 25.57300
C  27.82200 -0.52800 27.08300
C  26.37700 -2.02300 24.45800
C  28.75200 0.94400 25.16600
C  28.05300 2.24400 25.13600
N  27.79300 -0.13000 30.02000
C  28.88100 -0.45700 29.35800
C  30.03300 -0.44100 30.28800
C  29.44600 -0.25700 31.50400
C  28.05300 -0.06100 31.26000
C  31.34500 -0.90400 29.92200
C  29.70600 -0.09000 32.90500
O  30.77300 -0.00100 33.48300
C  28.38400 0.28000 33.59200
C  28.17400 -0.81400 34.58800
O  27.55900 -1.83800 34.40700
O  28.82700 -0.45100 35.77500
C  28.86600 -1.51900 36.82800
H  21.86600 0.70600 31.43600
H  23.84000 -0.72000 25.48200
H  29.88200 -0.70100 27.54500
H  25.43200 -0.00800 34.60000
H  23.23200 1.68000 33.53500
H  22.03800 -0.59200 33.43600
H  22.46900 0.16000 34.95700
H  23.49800 -1.14000 34.40600
H  24.92200 2.92500 34.37700
H  26.53500 2.52500 33.94500
H  27.10600 2.12600 36.05300
H  25.75300 1.10000 36.50400
H  19.74900 1.14500 29.36500
H  20.23500 -0.09700 30.50800
H  19.58700 -0.68700 29.07300
H  19.42600 -1.47500 26.74600
H  19.32000 -0.22100 25.33400
H  19.33000 0.30300 27.06600
H  26.38300 0.15100 24.25900
H  28.61100 -1.19000 25.16300
H  26.47500 -1.97500 23.37300
H  25.46700 -2.51600 24.79700
H  27.20800 -2.67600 24.72400
H  29.25700 0.87800 24.20200
H  29.55200 1.01600 25.90300
H  28.12800 2.71100 24.15400
H  28.16300 3.01500 25.89800
H  26.98700 2.05300 25.26100
H  31.92400 -0.23500 29.28600
H  31.51900 -1.95100 29.67500
H  31.83900 -0.86400 30.89200
H  28.33900 1.32000 33.91600
H  29.40200 -2.40100 36.47700
H  27.93300 -1.68200 37.36700
H  29.47400 -1.20100 37.67500
Mg -6.10100 24.99800 25.56400
C  -4.16700 26.43700 28.24700
C  -7.80100 23.17300 27.85700
C  -7.74700 23.74300 23.04300
C  -4.10100 26.89000 23.43600
N  -5.93600 24.77400 27.77200
C  -5.17200 25.53200 28.67700
C  -5.62200 25.14500 30.08300
C  -6.47100 23.85700 29.95500
C  -6.77000 23.95000 28.45600
C  -5.84500 22.45700 30.33200
C  -6.21700 26.34300 30.79700
C  -6.05200 26.46600 32.38000
H  -5.58700 25.17000 33.07600
N  -7.56900 23.61800 25.50800
C  -8.16700 23.00000 26.50500
C  -9.20200 22.15000 26.04400
C  -9.20300 22.29300 24.60000
C  -8.18100 23.27300 24.31600
C  -10.06200 21.31700 27.01500
C  -10.20700 21.63200 23.55300
O  -10.36200 21.99400 22.35600
C  -11.34200 20.66300 24.02500
N  -5.84100 25.18200 23.44900
C  -6.64900 24.50700 22.63700
C  -6.18800 24.73800 21.16500
C  -5.26200 26.03900 21.29200
C  -5.05300 26.12700 22.81700
C  -5.56500 23.52300 20.45900
C  -5.94500 27.21300 20.56400
C  -5.12000 28.04900 19.62700
N  -4.41000 26.35000 25.72100
C  -3.74300 27.03800 24.79100
C  -2.72600 27.85400 25.38500
C  -2.83600 27.62600 26.76800
C  -3.89700 26.73200 26.87800
C  -1.80700 28.77700 24.68700
C  -2.36700 27.95600 28.05900
O  -1.44200 28.70400 28.34200
C  -3.21300 27.25000 29.09800
C  -2.28300 26.47900 29.98800
O  -1.46200 25.66400 29.69200
O  -2.55400 26.89900 31.27800
C  -1.81400 26.37900 32.38600
H  -8.34500 22.70100 28.67800
H  -8.10200 23.15500 22.19400
H  -3.45700 27.58400 22.89200
H  -4.66000 24.80900 30.47000
H  -7.29400 24.05000 30.64300
H  -5.75700 21.85800 29.42600
H  -6.57400 22.05400 31.03400
H  -4.85700 22.45400 30.79400
H  -7.27000 26.40600 30.52500
H  -5.74200 27.25700 30.43900
H  -7.08500 26.70800 32.63000
H  -5.47400 27.35700 32.62600
H  -11.09300 21.45500 26.69000
H  -9.93800 21.66500 28.04100
H  -9.64300 20.31300 27.08000
H  -11.95600 20.36100 23.17700
H  -11.88000 20.97800 24.91900
H  -10.68700 19.86900 24.38300
H  -7.11000 24.99300 20.64100
H  -4.28500 25.77700 20.88500
H  -6.20800 23.23800 19.62600
H  -5.27100 22.72400 21.13900
H  -4.58800 23.77300 20.04500
H  -6.19000 27.93300 21.34500
H  -6.82800 26.82500 20.05700
H  -5.70900 28.24800 18.73100
H  -4.26300 27.50600 19.22800
H  -4.90500 29.04700 20.00800
H  -1.02900 28.29600 24.09400
H  -1.21100 29.28400 25.44600
H  -2.29200 29.51500 24.04800
H  -3.70800 28.01800 29.69300
H  -0.79900 26.71200 32.16600
H  -1.76900 25.29000 32.38900
H  -2.17800 26.79300 33.32600

