158

Mg 26.45400 50.09700 26.44800
C  24.66200 51.56500 29.03300
C  28.90100 49.15000 28.62700
C  28.25000 49.12200 23.79400
C  24.28600 51.84900 24.25200
N  26.77900 50.33600 28.55200
C  25.80700 50.86400 29.44200
C  26.28100 50.58500 30.88100
C  27.71800 49.94100 30.71000
C  27.84500 49.79400 29.21300
C  28.93500 50.76900 31.21700
C  25.31800 49.62600 31.64400
C  25.10100 49.94500 33.08100
H  25.97300 50.82400 33.87500
N  28.27000 49.14200 26.23400
C  29.12500 48.83600 27.24900
C  30.26400 48.11700 26.73000
C  30.02900 47.94400 25.31800
C  28.85500 48.81500 25.04600
C  31.37500 47.58300 27.63300
C  30.77000 47.17600 24.29900
O  30.65000 47.36200 23.12500
C  31.67500 46.21800 24.81400
N  26.30600 50.57200 24.30600
C  27.06500 49.76700 23.49800
C  26.63800 49.86900 22.07500
C  25.41200 50.84200 22.14400
C  25.27200 51.16000 23.63600
C  27.74300 50.26700 21.01200
C  24.16500 50.05900 21.68800
C  23.09900 50.87500 20.80100
N  24.77200 51.26300 26.59200
C  24.03800 51.96800 25.64600
C  22.95900 52.74500 26.32100
C  23.12700 52.55200 27.63500
C  24.27300 51.78400 27.74900
C  21.86600 53.52300 25.61200
C  22.60800 52.82600 28.95500
O  21.66000 53.57700 29.23800
C  23.59900 52.11200 30.03400
C  23.99600 53.25900 30.94700
O  24.87400 54.06900 30.73800
O  23.21200 53.26100 32.11500
C  23.74200 54.22100 33.13300
H  29.61500 48.86900 29.40400
H  28.77600 48.75500 22.91000
H  23.60200 52.31700 23.54200
H  26.30300 51.56400 31.35900
H  27.80000 49.05300 31.33700
H  29.53100 51.12900 30.37800
H  29.46500 50.09500 31.88900
H  28.64400 51.68100 31.73900
H  25.64000 48.58500 31.66000
H  24.28300 49.58100 31.30800
H  24.81800 49.05400 33.64100
H  24.15100 50.47700 33.10600
H  31.41000 48.03200 28.62600
H  32.33000 48.04400 27.38100
H  31.31800 46.49500 27.67300
H  31.16800 45.52200 25.48300
H  32.56800 46.67200 25.24300
H  32.02700 45.58800 23.99800
H  26.34000 48.85900 21.79400
H  25.54700 51.75500 21.56400
H  28.47300 50.96700 21.41800
H  27.26100 50.65900 20.11600
H  28.38300 49.41400 20.79000
H  23.86000 49.49500 22.57000
H  24.42200 49.28100 20.96800
H  23.65600 51.72700 20.41100
H  22.22600 51.07900 21.42100
H  22.78300 50.33900 19.90600
H  21.85200 53.44500 24.52500
H  22.04400 54.57700 25.82700
H  20.91100 53.11400 25.94000
H  23.09100 51.26000 30.48700
H  24.70900 53.95000 33.55800
H  23.10200 54.24000 34.01500
H  23.80600 55.21500 32.69200
Mg -10.65200 40.24600 39.53900
C  -9.21300 36.98900 38.86800
C  -7.82400 41.60600 38.28200
C  -12.25200 43.10500 39.36300
C  -13.56300 38.56500 40.55700
N  -8.82000 39.39700 38.68200
C  -8.41000 38.06900 38.44800
C  -6.95800 37.99400 37.92100
C  -6.53100 39.40700 38.52100
C  -7.76600 40.23400 38.39000
C  -5.97000 39.34700 40.00200
C  -6.88500 37.88200 36.35900
C  -6.16600 36.66000 35.82700
H  -6.85800 35.91300 34.72500
N  -10.08300 42.12600 38.93800
C  -8.83600 42.54600 38.49700
C  -8.83200 43.94800 38.37900
C  -10.08300 44.42000 38.69300
C  -10.86600 43.22300 39.03700
C  -7.53600 44.73000 37.93000
C  -10.57400 45.81700 38.52400
O  -9.78300 46.61100 38.13200
C  -11.95700 46.35700 38.81500
N  -12.63000 40.76100 39.83900
C  -13.08500 42.04500 39.69300
C  -14.49700 42.21100 40.17700
C  -14.90200 40.73500 40.46400
C  -13.64600 39.97700 40.30800
C  -14.56500 43.00000 41.41600
C  -15.95500 40.22500 39.47300
C  -17.37400 40.15600 40.00900
N  -11.25200 38.16900 39.88500
C  -12.45600 37.69200 40.30000
C  -12.32100 36.23500 40.60300
C  -11.13500 35.93800 39.95300
C  -10.51600 37.15000 39.52400
C  -13.26800 35.30000 41.26900
C  -10.21800 34.83400 39.53800
O  -10.36700 33.64800 39.70900
C  -8.99400 35.48200 38.79800
C  -7.77500 35.00800 39.45700
O  -7.35700 35.51300 40.53900
O  -7.12300 34.00700 38.69800
C  -5.77800 33.68900 39.21100
H  -6.88900 41.93200 37.82100
H  -12.78400 44.05500 39.44100
H  -14.51200 38.09900 40.82900
H  -6.41800 37.16200 38.37300
H  -5.86100 39.97800 37.87900
H  -6.76500 39.67500 40.67100
H  -5.14900 40.05400 40.12300
H  -5.75400 38.31300 40.27100
H  -6.29600 38.73100 36.01200
H  -7.87900 37.82700 35.91500
H  -6.01200 35.87800 36.57100
H  -5.21100 36.90800 35.36400
H  -7.52000 44.91200 36.85600
H  -6.67400 44.12000 38.20100
H  -7.39400 45.66200 38.47800
H  -12.60600 46.08500 37.98300
H  -11.76200 47.42500 38.72000
H  -12.26700 45.96900 39.78600
H  -15.09900 42.71000 39.41800
H  -15.26600 40.62800 41.48600
H  -13.84300 42.53700 42.08800
H  -15.57600 43.08700 41.81400
H  -14.47900 44.08500 41.35200
H  -15.79700 39.22100 39.08000
H  -15.94000 40.96900 38.67700
H  -17.85600 39.28800 39.55900
H  -17.99000 41.03800 39.83400
H  -17.41300 40.02600 41.09000
H  -13.29200 35.52500 42.33500
H  -12.93700 34.30500 40.97100
H  -14.22700 35.35800 40.75500
H  -8.90300 35.18800 37.75200
H  -5.73000 33.71600 40.29900
H  -4.97400 34.38900 38.98000
H  -5.51400 32.66100 38.96300

