158

Mg 35.31800 48.59900 25.50300
C  36.13200 46.78800 28.28800
C  34.13000 51.10100 27.69400
C  34.38700 50.37800 22.81600
C  36.03500 45.81800 23.40300
N  34.96700 48.77100 27.77800
C  35.57400 47.97300 28.68100
C  35.33100 48.47000 30.10800
C  34.50300 49.79800 29.86300
C  34.43600 49.91700 28.33500
C  33.16300 49.97000 30.50800
C  36.63600 48.65500 30.80400
C  36.71000 48.15300 32.24800
H  35.49300 48.21800 33.20600
N  34.46000 50.47900 25.27700
C  34.09700 51.37200 26.28000
C  33.79300 52.69700 25.70800
C  33.85500 52.51100 24.28400
C  34.23600 51.05400 24.06600
C  33.51000 53.96900 26.56100
C  33.59200 53.48700 23.18200
O  33.59600 53.17500 22.02600
C  33.42800 54.94600 23.52100
N  35.25600 48.12600 23.41900
C  34.84400 49.06300 22.51000
C  34.79700 48.52700 21.10700
C  35.47900 47.13000 21.24100
C  35.64400 47.01200 22.80300
C  33.33300 48.42700 20.53700
C  36.71000 46.97000 20.33600
C  37.96600 46.78200 21.14000
N  35.90200 46.71300 25.72300
C  36.20500 45.67600 24.77900
C  36.66700 44.55900 25.49700
C  36.71100 44.93500 26.90200
C  36.16600 46.24800 26.96000
C  37.07700 43.20000 25.10800
C  37.08300 44.55300 28.19200
O  37.52500 43.47300 28.65600
C  36.71900 45.66400 29.10800
C  35.77500 45.09800 30.18000
O  34.59600 44.93400 30.08900
O  36.48900 44.72000 31.24900
C  35.73000 44.52000 32.50000
H  33.94600 51.91500 28.39800
H  34.10100 51.00200 21.96600
H  36.33300 45.01900 22.72100
H  34.76400 47.67400 30.59000
H  35.03600 50.68900 30.19700
H  32.88700 49.00200 30.92600
H  32.47400 50.05100 29.66800
H  33.04200 50.88400 31.09000
H  36.94100 49.70100 30.77700
H  37.40800 48.16800 30.20800
H  37.45600 48.84100 32.64800
H  37.10000 47.14000 32.34300
H  32.71500 54.57900 26.13100
H  34.36700 54.63600 26.46600
H  33.27200 53.84300 27.61700
H  33.36800 55.51500 22.59300
H  34.36300 55.20300 24.01900
H  32.58200 55.25100 24.13600
H  35.35500 49.21400 20.47100
H  34.70900 46.42100 20.93700
H  33.01800 49.28500 19.94200
H  32.68000 48.12000 21.35300
H  33.35900 47.61100 19.81500
H  36.88900 47.80000 19.65300
H  36.63500 45.99600 19.85300
H  38.12700 47.37500 22.04100
H  38.75000 46.90500 20.39300
H  37.95100 45.77100 21.54700
H  36.90300 42.98000 24.05500
H  36.52000 42.47500 25.70200
H  38.12800 43.05800 25.36000
H  37.64700 46.02500 29.55100
H  34.80200 45.09100 32.46900
H  36.16800 44.83400 33.44800
H  35.41700 43.47700 32.53500
Mg -1.63100 34.88000 27.94500
C  -3.67900 32.93100 29.86700
C  -0.76800 36.65900 30.66600
C  0.08100 36.87800 25.86600
C  -2.79700 33.04500 25.04000
N  -2.39600 35.01200 29.93700
C  -3.05100 33.99300 30.56300
C  -2.99600 34.18000 32.09000
C  -2.28300 35.54400 32.30900
C  -1.81200 35.82100 30.91000
C  -3.13100 36.72200 32.89200
C  -2.20900 32.99500 32.77500
C  -2.90500 32.45400 34.05000
H  -2.19700 32.44500 35.42400
N  -0.48700 36.54400 28.21900
C  -0.23100 37.10000 29.42900
C  0.70600 38.11200 29.25600
C  0.92500 38.22300 27.88800
C  0.15500 37.20200 27.23500
C  1.19900 38.81200 30.52900
C  1.83400 39.23400 27.22900
O  2.04300 39.39700 26.04100
C  2.58400 40.12000 28.17700
N  -1.33300 34.83700 25.77900
C  -0.53500 35.84200 25.20000
C  -0.36600 35.52600 23.69300
C  -1.35900 34.35700 23.35900
C  -1.82300 34.02500 24.79900
C  -0.63900 36.77500 22.76100
C  -0.70700 33.07800 22.74800
C  -1.61000 32.29300 21.76500
N  -2.91100 33.35300 27.48300
C  -3.31100 32.72700 26.31000
C  -4.35800 31.75200 26.61500
C  -4.38200 31.75600 28.01400
C  -3.58000 32.74500 28.49700
C  -5.13900 31.08600 25.61500
C  -5.04300 31.04800 29.11000
O  -5.85000 30.14000 29.05300
C  -4.60300 31.87200 30.34100
C  -5.78000 32.51400 30.96200
O  -6.62300 33.18400 30.43900
O  -5.90400 32.00500 32.25000
C  -6.94900 32.57300 33.15200
H  -0.45700 37.15900 31.58600
H  0.79600 37.46700 25.28800
H  -3.12400 32.52600 24.13600
H  -4.01100 34.32600 32.45900
H  -1.47600 35.43300 33.03400
H  -3.66300 36.18700 33.67900
H  -3.66300 37.16500 32.05000
H  -2.49500 37.43200 33.42100
H  -1.17200 33.25100 32.99600
H  -2.00600 32.17900 32.08100
H  -3.08100 31.41200 33.78100
H  -3.85600 32.96000 34.21700
H  1.86500 38.10600 31.02500
H  0.40100 38.92500 31.26200
H  1.69900 39.78000 30.49300
H  3.13600 39.54700 28.92100
H  1.86000 40.85000 28.53900
H  3.20000 40.82800 27.62200
H  0.66600 35.24000 23.49000
H  -2.22800 34.68500 22.78800
H  -1.48200 36.60600 22.09100
H  0.23400 37.06500 22.17800
H  -0.96000 37.61800 23.37200
H  -0.47600 32.46300 23.61800
H  0.22500 33.35300 22.25500
H  -1.79700 31.35000 22.27900
H  -1.13400 31.94400 20.84900
H  -2.59200 32.71200 21.54800
H  -4.47800 30.51700 24.96100
H  -5.76000 31.83000 25.11700
H  -5.82300 30.37000 26.07100
H  -4.15400 31.31500 31.16400
H  -6.71200 33.42800 33.78600
H  -7.35000 31.75200 33.74600
H  -7.83000 32.90500 32.60100

