158

Mg 39.80400 9.83400 29.20300
C  41.76100 11.30200 31.65100
C  37.85000 8.31100 31.75200
C  38.03200 8.44200 26.89400
C  42.25200 10.58900 26.92000
N  39.91900 9.74000 31.49000
C  40.70500 10.57400 32.25400
C  40.35700 10.51600 33.69900
C  39.20400 9.42700 33.72500
C  38.95400 9.09800 32.18500
C  39.42800 8.12400 34.62400
C  39.99400 11.88700 34.37600
C  40.72500 12.23400 35.73500
H  39.78000 12.65700 36.92500
N  38.14100 8.54100 29.30200
C  37.51400 8.03800 30.41600
C  36.28800 7.33600 29.87700
C  36.26600 7.32400 28.43800
C  37.55500 8.12000 28.18400
C  35.24800 6.75900 30.82600
C  35.23400 6.80000 27.44700
O  35.19900 7.15100 26.29000
C  34.22000 5.80000 27.88700
N  40.03000 9.67400 27.15600
C  39.13500 9.05700 26.40300
C  39.30000 9.42500 24.94200
C  40.69100 10.12800 24.93600
C  41.05400 10.05700 26.44400
C  39.11800 8.13900 24.05100
C  40.67900 11.59700 24.47000
C  39.75800 12.60600 25.19100
N  41.60100 10.72200 29.19500
C  42.46600 10.98100 28.19500
C  43.58700 11.66700 28.73300
C  43.32300 11.82000 30.06800
C  42.15200 11.21900 30.35300
C  44.81000 12.16100 28.12500
C  43.82600 12.45900 31.26200
O  44.86700 13.02800 31.41500
C  42.80100 12.11700 32.37100
C  43.40600 11.22400 33.38400
O  43.76700 10.05200 33.15400
O  43.66000 11.84800 34.58600
C  44.41400 11.09000 35.67900
H  37.17300 7.77200 32.41800
H  37.41600 7.87200 26.19500
H  43.01700 10.62900 26.14100
H  41.06600 10.06100 34.39100
H  38.27700 9.88700 34.07000
H  39.36200 7.21400 34.02700
H  38.66800 8.03800 35.40100
H  40.33600 7.98200 35.21100
H  38.93100 11.92600 34.61600
H  40.28500 12.59300 33.59800
H  41.31800 13.11200 35.48100
H  41.42500 11.49000 36.11600
H  35.42700 5.71400 31.08000
H  34.23600 6.91000 30.45000
H  35.27500 7.39900 31.70700
H  34.59600 5.10300 28.63500
H  33.87600 5.19900 27.04500
H  33.38700 6.39700 28.25900
H  38.50000 10.13300 24.72300
H  41.33200 9.49300 24.32400
H  38.09700 8.08600 23.67200
H  39.44900 7.25700 24.59900
H  39.78400 8.37200 23.22100
H  40.30500 11.65100 23.44700
H  41.71200 11.94400 24.50500
H  39.32500 12.26800 26.13300
H  38.93900 12.94800 24.55900
H  40.30500 13.51500 25.44100
H  44.61600 12.50000 27.10800
H  45.57600 11.39400 28.01200
H  45.20000 12.86400 28.86000
H  42.30300 13.03100 32.69500
H  44.68000 11.79600 36.46600
H  45.32800 10.87400 35.12600
H  43.86100 10.28500 36.16200
Mg 37.30400 50.56000 25.18900
C  37.01900 48.39600 27.85300
C  35.95400 53.07700 26.89000
C  37.09100 52.34300 22.28400
C  38.26600 47.70700 23.26800
N  36.40600 50.63600 27.14600
C  36.62400 49.76000 28.11500
C  36.37700 50.31600 29.49600
C  35.72400 51.69500 29.14300
C  36.07600 51.91300 27.63500
C  34.23200 51.80400 29.35600
C  37.45000 50.30400 30.56300
C  37.05300 49.66200 31.90400
H  35.66700 49.87000 32.50500
N  36.77100 52.55100 24.66000
C  36.28300 53.44400 25.53900
C  36.04100 54.70700 24.88400
C  36.31900 54.52800 23.47800
C  36.74000 53.11400 23.42800
C  35.61600 55.90700 25.63300
C  36.20500 55.41800 22.31700
O  36.47800 55.03700 21.20200
C  35.84900 56.86100 22.55800
N  37.54100 50.08000 23.10800
C  37.42200 50.99900 22.06600
C  37.82600 50.35600 20.71000
C  38.40200 49.00100 21.07100
C  38.05900 48.91000 22.62700
C  36.51800 50.30100 19.80300
C  39.85700 48.65500 20.68100
C  40.84900 49.67100 21.20600
N  37.54200 48.45000 25.39700
C  37.94400 47.41500 24.56900
C  38.01200 46.18600 25.29300
C  37.68600 46.53600 26.59700
C  37.33400 47.88500 26.58700
C  38.52300 44.93800 24.72700
C  37.63300 46.09500 27.94500
O  37.82500 44.98400 28.34300
C  37.32400 47.33400 28.84900
C  36.21200 46.93500 29.71900
O  35.04500 47.00600 29.39800
O  36.71300 46.42800 30.92900
C  35.71600 46.17100 31.94900
H  35.76300 53.88100 27.60400
H  37.05200 52.88500 21.33700
H  38.87300 46.96300 22.74800
H  35.56900 49.70400 29.89800
H  36.21400 52.53200 29.64100
H  33.99300 51.00700 30.06100
H  33.75700 51.69600 28.38100
H  34.07800 52.77900 29.81800
H  37.83400 51.30100 30.77700
H  38.25500 49.69400 30.15200
H  37.75000 50.05200 32.64700
H  37.39300 48.62700 31.87600
H  35.76200 55.85900 26.71200
H  34.56300 56.11400 25.44100
H  36.08300 56.82800 25.28500
H  35.02200 56.96900 23.25900
H  35.67600 57.32000 21.58400
H  36.80700 57.24200 22.91300
H  38.62100 50.82500 20.13100
H  37.76200 48.26000 20.59200
H  36.81800 50.69100 18.83000
H  35.80200 51.00400 20.22800
H  35.95300 49.38500 19.63100
H  39.96800 48.54700 19.60200
H  40.12300 47.66000 21.03900
H  40.42200 50.67100 21.27400
H  41.67600 49.70300 20.49600
H  41.38600 49.37600 22.10800
H  39.52400 45.13300 24.34300
H  37.85700 44.64300 23.91600
H  38.60400 44.12500 25.44900
H  38.26700 47.46200 29.38100
H  35.76700 45.08200 31.95700
H  34.70100 46.48500 31.70200
H  36.09000 46.49600 32.91900

