158

Mg 26.41700 50.17700 27.00100
C  24.29900 51.16800 29.53000
C  28.51300 48.81000 29.44800
C  28.66700 49.19400 24.56100
C  24.21500 51.49600 24.58400
N  26.43000 50.03200 29.25300
C  25.46900 50.49600 30.08000
C  25.72700 50.04500 31.62500
C  27.11400 49.44100 31.51800
C  27.38900 49.43700 29.98500
C  28.18400 50.09900 32.36900
C  24.57400 49.09700 32.11400
C  24.01100 49.40900 33.49100
H  24.82900 49.86900 34.69300
N  28.31500 49.18900 27.01000
C  29.00200 48.73400 28.12900
C  30.34700 48.43400 27.75100
C  30.43300 48.55000 26.32200
C  29.12000 48.99100 25.86200
C  31.44000 48.10500 28.79100
C  31.54900 48.29100 25.43400
O  31.50800 48.52300 24.23100
C  32.86200 47.76000 25.86100
N  26.50900 50.38300 24.85900
C  27.44300 49.73000 24.05700
C  26.87600 49.69100 22.57400
C  25.68100 50.71300 22.63800
C  25.44000 50.89000 24.14800
C  27.91200 49.96100 21.43400
C  24.52200 50.10600 21.79500
C  23.98500 50.91100 20.54500
N  24.71200 51.27400 27.01000
C  23.87800 51.71300 25.94900
C  22.75400 52.45500 26.55700
C  22.84100 52.22500 27.94200
C  24.01000 51.39500 28.15700
C  21.75800 53.42600 25.85900
C  22.24000 52.53300 29.21000
O  21.27300 53.14800 29.50900
C  23.14100 51.81800 30.30600
C  23.59100 52.72800 31.45200
O  24.69700 53.34300 31.46100
O  22.55300 52.90600 32.30100
C  22.88100 53.81000 33.40600
H  29.21900 48.43100 30.19000
H  29.35200 48.74400 23.83900
H  23.50900 51.87300 23.84200
H  25.72300 50.89500 32.30900
H  27.07100 48.39300 31.81500
H  28.88000 50.64100 31.72900
H  28.79400 49.37200 32.90600
H  27.75900 50.82000 33.06800
H  24.89700 48.05800 32.17700
H  23.72300 49.01100 31.43900
H  23.44400 48.50900 33.73000
H  23.26400 50.19300 33.37100
H  31.21200 48.45100 29.79900
H  32.39100 48.54800 28.49400
H  31.59400 47.02800 28.72400
H  32.73800 47.00400 26.63600
H  33.28400 48.68700 26.24900
H  33.49500 47.41900 25.04100
H  26.55600 48.64900 22.59400
H  26.05700 51.59000 22.11200
H  28.18200 49.00700 20.98200
H  28.79400 50.29500 21.98100
H  27.62800 50.68000 20.66600
H  23.68000 49.82900 22.42900
H  24.80500 49.11600 21.43900
H  22.93200 51.14000 20.71000
H  24.03300 50.60700 19.49900
H  24.51500 51.86200 20.50200
H  22.36800 54.03700 25.19300
H  21.43800 53.98600 26.73700
H  20.96500 52.93700 25.29300
H  22.46700 51.07000 30.72300
H  23.47900 54.67500 33.11600
H  23.46300 53.15500 34.05400
H  21.95800 54.01600 33.94800
Mg -6.13300 25.35300 25.05000
C  -4.59500 26.62800 28.05600
C  -7.91200 23.16100 27.08500
C  -7.52400 24.07400 22.24100
C  -4.13500 27.59700 23.23300
N  -6.24700 24.92000 27.32600
C  -5.62600 25.67100 28.29400
C  -6.08500 25.26200 29.64500
C  -6.95400 23.94400 29.27900
C  -6.94400 23.89000 27.79800
C  -6.40600 22.68400 29.92600
C  -6.88500 26.34600 30.44800
C  -6.72100 26.44300 31.94700
H  -6.02300 25.37300 32.76600
N  -7.54400 23.82900 24.73700
C  -8.12300 23.03400 25.71800
C  -8.95300 22.03400 25.05300
C  -8.90000 22.25200 23.65500
C  -7.95400 23.42600 23.46700
C  -9.75100 21.02000 25.92600
C  -9.69600 21.66700 22.54600
O  -9.57600 22.08300 21.36000
C  -10.52600 20.53200 22.76100
N  -5.77500 25.69600 23.03800
C  -6.56200 25.07000 22.07400
C  -6.17500 25.68000 20.66100
C  -5.17800 26.83800 20.97300
C  -4.94700 26.69800 22.50400
C  -5.42200 24.65600 19.75000
C  -5.75700 28.33500 20.71700
C  -4.94200 29.14100 19.69700
N  -4.70500 26.81100 25.47600
C  -3.92300 27.59000 24.62500
C  -3.07900 28.37500 25.36500
C  -3.38100 28.09900 26.69800
C  -4.30000 27.10000 26.74700
C  -2.01500 29.22600 24.74300
C  -3.01700 28.45400 28.09900
O  -2.23600 29.29900 28.51000
C  -3.82600 27.48000 29.00700
C  -2.78800 26.81100 29.80500
O  -1.91000 26.04100 29.43300
O  -2.93900 27.15600 31.10800
C  -1.96500 26.67700 32.07400
H  -8.36900 22.51200 27.83500
H  -7.93400 23.73100 21.28900
H  -3.59400 28.31700 22.61500
H  -5.22900 25.08200 30.29500
H  -7.98000 24.05400 29.63100
H  -5.41300 22.82700 30.35200
H  -6.35000 21.85600 29.21900
H  -7.16300 22.34300 30.63200
H  -7.95900 26.24600 30.28900
H  -6.59600 27.31800 30.04900
H  -7.69300 26.47200 32.44000
H  -6.20400 27.37500 32.17500
H  -9.56700 19.98900 25.62600
H  -10.82200 21.05700 25.72700
H  -9.72700 21.17100 27.00500
H  -11.22700 20.72000 23.57500
H  -9.90900 19.68900 23.07200
H  -11.19800 20.21600 21.96300
H  -7.00200 25.95100 20.00500
H  -4.19200 26.69800 20.53000
H  -6.09100 23.89300 19.35200
H  -4.77500 24.12000 20.44400
H  -4.80000 25.24500 19.07600
H  -5.99600 28.92900 21.59900
H  -6.70500 28.15500 20.21100
H  -5.57900 29.31200 18.82900
H  -4.07600 28.57600 19.35000
H  -4.66400 30.11700 20.09400
H  -1.39000 29.57600 25.56400
H  -2.46200 30.15000 24.37400
H  -1.34100 28.73500 24.04100
H  -4.45400 28.09700 29.65000
H  -1.50100 25.73200 31.79100
H  -2.53000 26.44500 32.97700
H  -1.14100 27.38000 32.19600

