158

Mg 47.54400 15.55800 28.72500
C  45.66300 15.54200 31.75300
C  49.85100 17.32300 30.40300
C  48.81800 16.48900 25.82400
C  44.69000 14.40600 27.11400
N  47.68200 16.36900 30.86300
C  46.87900 16.18400 31.95400
C  47.42700 16.94100 33.19200
C  48.73000 17.66000 32.71300
C  48.82400 16.98500 31.27800
C  48.62800 19.27600 32.47300
C  47.72900 15.90500 34.27800
C  47.76200 16.50800 35.76000
H  47.45500 17.99200 35.95300
N  49.25800 16.41800 28.23600
C  50.13900 17.04700 29.06700
C  51.38300 17.35700 28.30000
C  51.06500 17.12800 26.93400
C  49.61900 16.65300 26.94000
C  52.66400 17.91500 28.86100
C  51.89300 17.32100 25.71200
O  51.48400 17.07800 24.59100
C  53.23800 17.88800 25.83000
N  46.84400 15.56900 26.75800
C  47.54400 15.96200 25.72200
C  46.79600 15.70300 24.36600
C  45.52400 14.89500 24.81900
C  45.71500 14.88900 26.31600
C  46.44700 17.05000 23.67200
C  45.34900 13.55900 24.12100
C  46.47300 12.51500 24.51200
N  45.72600 14.86000 29.26100
C  44.65500 14.40200 28.52900
C  43.59700 13.92100 29.30400
C  43.93100 14.37200 30.56300
C  45.21800 14.99800 30.51200
C  42.26500 13.29600 28.89000
C  43.44100 14.52000 31.89800
O  42.36900 14.12200 32.35300
C  44.59300 15.15900 32.78100
C  43.89300 16.39400 33.23100
O  43.16200 17.11300 32.53200
O  44.14900 16.51700 34.55500
C  43.32700 17.61700 35.19400
H  50.60700 18.01500 30.77800
H  49.29000 16.65000 24.85300
H  43.93500 13.88200 26.52400
H  46.74200 17.67700 33.61100
H  49.64300 17.40700 33.25300
H  49.57500 19.68400 32.82700
H  47.75400 19.71200 32.95600
H  48.55300 19.43800 31.39800
H  48.67800 15.47300 33.96100
H  47.05100 15.07400 34.08400
H  48.72900 16.36400 36.24100
H  47.10100 15.93800 36.41200
H  52.71600 18.99600 28.72700
H  53.48900 17.37000 28.40200
H  52.80300 17.86000 29.94000
H  53.67500 18.01700 24.84000
H  53.77200 17.14800 26.42700
H  53.11600 18.86700 26.29500
H  47.44600 15.06200 23.77100
H  44.66200 15.52500 24.59900
H  47.29200 17.34000 23.04800
H  46.27400 17.78100 24.46100
H  45.59100 16.91000 23.01200
H  45.35000 13.58300 23.03100
H  44.34800 13.19500 24.35300
H  46.13600 12.00500 25.41400
H  47.52100 12.80600 24.57900
H  46.46500 11.81000 23.68100
H  42.50800 12.23900 29.00000
H  41.97400 13.51600 27.86300
H  41.51300 13.47900 29.65700
H  44.99900 14.44800 33.50100
H  43.67900 17.73800 36.21800
H  42.25200 17.44100 35.24200
H  43.46200 18.57400 34.68900
Mg 35.85500 49.11200 25.40200
C  36.06600 46.87000 28.26100
C  35.05800 51.56800 27.47700
C  35.83000 50.92400 22.61700
C  36.93300 46.24300 23.43800
N  35.44100 49.12700 27.57200
C  35.68900 48.22400 28.55600
C  35.52700 48.85000 30.00400
C  34.87300 50.23400 29.61500
C  35.15400 50.35300 28.15300
C  33.42300 50.42000 29.92700
C  36.97900 49.00000 30.66000
C  37.14000 48.59000 32.09600
H  35.84200 48.42300 32.82700
N  35.53100 50.97900 25.06000
C  35.22500 51.87600 26.05400
C  35.13600 53.21600 25.47400
C  35.21000 52.98400 24.01800
C  35.58000 51.59900 23.88400
C  34.73700 54.44600 26.22400
C  34.93700 53.89500 22.87600
O  35.03600 53.64100 21.73700
C  34.37200 55.21700 23.18200
N  36.13600 48.63900 23.34300
C  36.08800 49.55700 22.39800
C  36.33000 48.98900 21.00500
C  36.99300 47.62200 21.34600
C  36.63600 47.42600 22.79600
C  35.08000 48.93000 20.18100
C  38.54300 47.58700 21.04500
C  39.19100 46.16600 20.96500
N  36.32700 46.98200 25.70400
C  36.79200 46.03200 24.81900
C  37.19700 44.85700 25.57800
C  36.93300 45.14500 26.93700
C  36.37900 46.44900 26.92900
C  37.83300 43.51100 25.11500
C  36.96400 44.57800 28.24600
O  37.19500 43.43800 28.65900
C  36.48300 45.76400 29.15600
C  35.35100 45.34600 30.06500
O  34.19000 45.13400 29.74900
O  35.82100 45.04600 31.35300
C  34.89800 44.44200 32.30600
H  34.82700 52.40600 28.13700
H  35.77300 51.50000 21.69100
H  37.25100 45.42900 22.78300
H  34.77700 48.27400 30.54600
H  35.35900 51.15400 29.94100
H  33.07800 49.60800 30.56700
H  32.74700 50.39600 29.07200
H  33.13000 51.37500 30.36200
H  37.12400 50.07500 30.56100
H  37.71500 48.37000 30.16100
H  37.63700 49.37900 32.66000
H  37.63900 47.62100 32.12100
H  33.65500 54.56000 26.28200
H  35.21800 55.35400 25.86000
H  34.96100 54.20600 27.26400
H  34.27600 55.85200 22.30100
H  35.02900 55.83200 23.79800
H  33.39400 55.02400 23.62300
H  37.07200 49.71400 20.67000
H  36.46300 46.82100 20.83000
H  34.22300 49.18500 20.80400
H  34.80600 47.89800 19.96200
H  35.04400 49.53800 19.27700
H  38.94400 48.16700 21.87600
H  38.92000 48.25500 20.27000
H  39.67700 45.83700 21.88400
H  39.87900 46.07200 20.12500
H  38.48200 45.34700 20.84000
H  38.02200 43.05300 26.08600
H  38.73200 43.65300 24.51500
H  37.16800 42.82000 24.59700
H  37.35500 46.06100 29.73800
H  34.32900 43.59000 31.93400
H  34.16500 45.13500 32.71800
H  35.42100 44.07700 33.18900

