158

Mg 24.06600 -4.00900 46.30900
C  26.37800 -1.68600 44.93000
C  21.62800 -2.66800 44.41300
C  22.31300 -6.80100 46.76100
C  26.84900 -5.50900 47.92800
N  24.10800 -2.46400 44.76300
C  25.04700 -1.54600 44.41900
C  24.39400 -0.54000 43.51700
C  22.88500 -0.53700 43.77100
C  22.85600 -1.97000 44.33500
C  22.27800 0.52000 44.70400
C  24.73900 -0.89400 42.07000
C  24.99000 0.31400 41.14300
H  24.61500 0.07500 39.68300
N  22.15200 -4.65700 45.69700
C  21.34800 -3.97100 44.86400
C  20.17100 -4.77200 44.61400
C  20.31400 -5.94000 45.37600
C  21.63600 -5.84900 46.01700
C  19.06600 -4.38900 43.64600
C  19.30800 -7.01100 45.43300
O  18.25100 -6.81800 44.86300
C  19.35900 -8.23700 46.19300
N  24.48900 -5.91600 47.28600
C  23.58600 -6.89800 47.34900
C  24.19000 -8.14900 48.00100
C  25.63100 -7.65100 48.44800
C  25.66600 -6.25800 47.84100
C  23.41900 -8.80300 49.14500
C  26.83200 -8.61400 47.95200
C  27.53400 -8.18000 46.62200
N  26.08500 -3.56300 46.67000
C  27.09700 -4.25300 47.33200
C  28.42400 -3.61600 47.17200
C  28.13500 -2.59300 46.25100
C  26.74100 -2.60900 45.91000
C  29.72100 -3.94100 47.92700
C  28.75200 -1.50900 45.49800
O  29.91800 -1.14100 45.56400
C  27.55700 -0.81800 44.62100
C  27.47200 0.67500 44.88200
O  26.62600 1.25300 45.54900
O  28.48100 1.26700 44.14300
C  28.69100 2.73800 44.21300
H  20.76400 -2.12000 44.03100
H  21.78900 -7.75100 46.89000
H  27.68500 -5.89200 48.51900
H  24.79500 0.46400 43.65800
H  22.32600 -0.49100 42.83700
H  22.95600 1.37300 44.68300
H  22.21300 0.20900 45.74700
H  21.34300 0.87600 44.27100
H  23.91000 -1.51700 41.73400
H  25.58000 -1.58100 41.97600
H  26.04100 0.55100 41.31000
H  24.41400 1.11300 41.61000
H  19.01600 -5.17100 42.88900
H  19.12400 -3.37200 43.25900
H  18.19000 -4.43400 44.29300
H  18.46700 -8.81100 45.94200
H  19.35800 -7.98000 47.25200
H  20.22100 -8.85000 45.92900
H  24.40700 -8.95100 47.29500
H  25.69300 -7.51600 49.52800
H  22.44800 -8.34000 49.32200
H  23.96300 -8.86700 50.08700
H  23.19900 -9.78900 48.73600
H  26.52200 -9.62700 47.69800
H  27.52100 -8.76800 48.78200
H  26.81800 -7.78600 45.90000
H  27.99400 -9.06600 46.18300
H  28.32000 -7.44700 46.80000
H  29.66000 -4.92100 48.40000
H  30.02500 -3.19300 48.65900
H  30.45200 -4.00700 47.12200
H  27.87200 -0.89300 43.58100
H  27.72100 3.19500 44.01800
H  29.40200 3.03700 43.44300
H  29.06300 3.03800 45.19200
Mg 49.24300 35.31900 28.48700
C  47.00500 33.80900 30.67900
C  49.30700 38.05900 30.52900
C  51.19700 36.76200 26.17100
C  48.47400 32.86500 26.03300
N  48.35100 35.85500 30.46800
C  47.54800 34.97900 31.18100
C  47.31300 35.58500 32.62000
C  47.86900 37.07400 32.45400
C  48.55300 36.96700 31.06400
C  46.82300 38.20400 32.47900
C  48.06400 34.60800 33.66500
C  49.55900 34.93600 34.05700
H  49.95900 35.64300 35.38600
N  50.18900 37.12900 28.46100
C  50.03800 38.18100 29.33000
C  50.95900 39.25400 28.93300
C  51.64800 38.82700 27.76900
C  50.99300 37.50700 27.40500
C  51.19600 40.49900 29.81600
C  52.75600 39.47500 26.94900
O  53.21400 38.91400 25.96800
C  53.43000 40.78500 27.45200
N  49.76800 34.89000 26.42000
C  50.67100 35.58100 25.65400
C  51.08500 34.84500 24.40100
C  49.96700 33.80900 24.30000
C  49.30400 33.82100 25.67700
C  51.12200 35.86900 23.18900
C  50.57200 32.44700 23.77500
C  49.84800 31.81400 22.62300
N  48.03900 33.58000 28.39100
C  47.85300 32.69700 27.30200
C  46.99800 31.67100 27.79100
C  46.53900 32.10200 29.03400
C  47.23900 33.25300 29.41100
C  46.54800 30.38300 27.12100
C  45.59300 31.79000 30.12300
O  44.83700 30.83100 30.25000
C  45.90400 32.90600 31.26500
C  46.31000 32.16800 32.48800
O  46.87900 31.05000 32.55800
O  45.54600 32.66300 33.53000
C  45.79100 32.10200 34.87300
H  49.36900 38.90700 31.21400
H  51.83200 37.27200 25.44300
H  48.36400 32.04300 25.32200
H  46.23500 35.61500 32.77800
H  48.60300 37.29600 33.22900
H  47.25900 39.09300 32.93400
H  46.03800 37.83400 33.13900
H  46.44000 38.40200 31.47800
H  48.14000 33.55600 33.39100
H  47.47800 34.61600 34.58400
H  50.06600 35.67500 33.43700
H  50.23700 34.09100 33.93100
H  52.27300 40.66400 29.84500
H  50.98600 40.21400 30.84700
H  50.53700 41.32200 29.54100
H  52.74000 41.53500 27.83700
H  53.91100 41.22900 26.58000
H  54.28600 40.59700 28.10000
H  52.07300 34.47200 24.67100
H  49.17500 34.11500 23.61600
H  50.56700 36.80000 23.30300
H  50.65200 35.50900 22.27400
H  52.15100 36.16500 22.98700
H  50.64000 31.72400 24.58800
H  51.54900 32.73800 23.39100
H  48.81100 32.12400 22.50000
H  49.80400 30.74000 22.80300
H  50.42700 31.96000 21.71100
H  46.40900 30.59000 26.06000
H  45.63200 29.98900 27.56100
H  47.31800 29.61200 27.13500
H  45.02300 33.48200 31.54600
H  45.85100 32.93300 35.57500
H  46.73300 31.55300 34.84800
H  44.96600 31.45100 35.16100

