158

Mg 48.92400 36.32100 28.16300
C  46.83900 34.52300 30.32700
C  48.87200 39.06700 30.25700
C  50.83100 38.04100 25.98000
C  48.54200 33.75000 25.89300
N  48.00400 36.69600 30.05800
C  47.32700 35.75100 30.83400
C  47.21900 36.29100 32.26100
C  47.56500 37.82500 32.17200
C  48.23300 37.89800 30.75000
C  46.28200 38.74900 32.21600
C  48.33100 35.60100 33.14200
C  47.84100 35.34300 34.61100
H  46.75600 36.24500 35.17000
N  49.63900 38.33300 28.04200
C  49.54900 39.29500 29.04400
C  50.12600 40.51100 28.57900
C  50.79100 40.24100 27.38400
C  50.44800 38.78800 27.09600
C  50.13500 41.78400 29.38500
C  51.80000 41.08800 26.62700
O  52.52300 40.58600 25.77600
C  51.95800 42.55500 26.92800
N  49.66300 35.88900 26.28000
C  50.41500 36.75600 25.57600
C  50.96000 36.11900 24.32900
C  50.32100 34.65600 24.36300
C  49.39000 34.81400 25.54700
C  50.64700 36.89900 22.96200
C  51.31200 33.42200 24.46600
C  51.17500 32.23100 23.41500
N  47.92000 34.47300 28.08200
C  47.85600 33.52500 27.11400
C  47.10500 32.36700 27.66000
C  46.67800 32.73100 28.92800
C  47.16800 34.03400 29.07700
C  46.87900 31.06500 27.00600
C  45.85200 32.32600 30.05300
O  45.28300 31.28300 30.28600
C  45.88100 33.60100 30.96100
C  46.07800 33.24500 32.41500
O  46.98000 32.51300 32.74900
O  44.90500 33.58500 33.16500
C  44.76300 32.78100 34.42300
H  49.00200 39.92200 30.92400
H  51.53700 38.45500 25.25800
H  48.47900 32.93100 25.17400
H  46.22500 35.94500 32.54300
H  48.20200 38.16200 32.99000
H  46.17900 39.43500 33.05700
H  45.34800 38.18800 32.22500
H  46.21800 39.28800 31.27000
H  49.19000 36.27100 33.19900
H  48.76200 34.72000 32.66700
H  48.68200 35.36900 35.30300
H  47.61400 34.27800 34.63100
H  50.09000 42.77800 28.94000
H  51.08900 41.79700 29.91300
H  49.40000 41.77800 30.18900
H  52.33100 42.75600 27.93200
H  51.00800 43.08500 26.85300
H  52.63900 42.82200 26.12000
H  52.01700 35.92800 24.51000
H  49.71900 34.47600 23.47300
H  50.03400 37.77500 23.17500
H  50.12500 36.26600 22.24500
H  51.47500 37.37200 22.43400
H  51.26600 33.05100 25.49000
H  52.34000 33.77600 24.37700
H  50.41400 32.40100 22.65200
H  50.92800 31.29300 23.91400
H  52.14900 32.09900 22.94400
H  47.15100 30.23400 27.65700
H  47.41000 30.81600 26.08700
H  45.81200 30.88700 26.86500
H  44.92300 34.10100 30.82200
H  45.56800 32.11400 34.73000
H  43.79100 32.28900 34.45000
H  44.75100 33.46300 35.27300
Mg 26.82000 51.38000 25.20500
C  24.86900 52.59900 27.85300
C  28.94400 49.97500 27.64500
C  28.75600 50.44700 22.86800
C  24.59200 52.89400 23.06000
N  26.82600 51.22900 27.36300
C  25.91300 51.83500 28.22900
C  26.24700 51.58800 29.65500
C  27.68200 50.95800 29.62400
C  27.84400 50.63500 28.14100
C  28.88300 51.90100 29.99800
C  25.21200 50.60200 30.27100
C  24.66700 51.07500 31.54000
H  25.57200 51.67600 32.64500
N  28.73200 50.31300 25.21000
C  29.46100 49.89500 26.32600
C  30.68400 49.27700 25.84800
C  30.62800 49.45000 24.41300
C  29.30700 50.03800 24.09900
C  31.71100 48.67100 26.76700
C  31.73900 49.07800 23.32400
O  31.64300 49.17200 22.10500
C  33.04500 48.60400 23.86300
N  26.71900 51.73500 23.19000
C  27.67600 51.23400 22.45500
C  27.33900 51.35500 20.93500
C  25.96700 52.11100 21.00600
C  25.70100 52.30800 22.49700
C  28.40300 52.02100 20.07100
C  24.74300 51.31000 20.38400
C  23.91600 52.09200 19.36600
N  25.11600 52.58300 25.37500
C  24.28400 53.08100 24.41800
C  23.16600 53.80700 25.01900
C  23.38400 53.61000 26.39600
C  24.54200 52.87600 26.53300
C  22.14700 54.73200 24.44000
C  22.89200 54.03900 27.70000
O  21.93800 54.76000 27.98900
C  23.81200 53.31300 28.76300
C  24.38800 54.39600 29.63700
O  25.32300 55.07700 29.39700
O  23.59900 54.59100 30.82200
C  23.86400 55.78900 31.68400
H  29.57800 49.52700 28.41300
H  29.05000 49.92700 21.95400
H  23.92500 53.31800 22.30500
H  26.35100 52.53200 30.18900
H  27.78500 50.08800 30.27300
H  28.52000 52.77500 30.54000
H  29.38300 52.23800 29.09000
H  29.58200 51.32700 30.60700
H  25.59300 49.58400 30.34500
H  24.32900 50.41900 29.65900
H  24.16600 50.29400 32.11200
H  23.76000 51.66000 31.38600
H  31.73700 47.59100 26.62100
H  31.45000 48.92400 27.79500
H  32.66000 49.16300 26.55400
H  33.41100 49.50400 24.35700
H  33.75500 48.30800 23.09000
H  33.02800 47.76500 24.55800
H  27.30800 50.34600 20.52500
H  26.17300 53.10400 20.60500
H  27.99400 52.84000 19.47800
H  28.87800 51.31800 19.38800
H  29.15100 52.31300 20.80800
H  24.01900 50.99700 21.13600
H  25.05700 50.43600 19.81300
H  23.98600 51.64500 18.37500
H  24.24800 53.13000 19.35300
H  22.90100 52.24000 19.73600
H  22.24000 54.52600 23.37400
H  22.41500 55.76200 24.67700
H  21.12700 54.50600 24.74900
H  23.23400 52.57800 29.32300
H  24.86600 55.56800 32.05000
H  23.17000 55.86800 32.52100
H  23.92000 56.72600 31.13000

