158

Mg 36.67700 49.82300 25.89100
C  35.92700 47.96700 28.82500
C  35.63700 52.67000 27.50600
C  36.41600 51.48400 22.92200
C  37.41200 47.00100 24.16100
N  36.02800 50.17500 28.00300
C  35.85900 49.34500 29.03200
C  35.59600 50.05900 30.36800
C  35.47900 51.49900 29.91000
C  35.74200 51.51600 28.34100
C  34.22000 52.25500 30.31100
C  36.83300 49.71900 31.32000
C  36.47100 49.29300 32.77700
H  35.07500 49.43600 33.23800
N  36.21700 51.83400 25.32200
C  35.85900 52.84400 26.19600
C  35.70800 54.06500 25.44600
C  35.87400 53.78900 24.05200
C  36.08400 52.33000 24.04700
C  35.48700 55.34200 26.13700
C  35.71100 54.60200 22.77900
O  35.81100 54.17200 21.62800
C  35.14400 56.02100 22.78400
N  36.98800 49.30100 23.82400
C  36.84200 50.15400 22.82100
C  37.16300 49.51700 21.47500
C  37.57500 48.12900 21.94500
C  37.34400 48.10600 23.39600
C  36.09000 49.54600 20.33100
C  39.05300 47.80100 21.59300
C  40.18600 48.22400 22.49000
N  36.73300 47.83700 26.31600
C  37.08300 46.80300 25.51300
C  36.91200 45.55500 26.28400
C  36.55500 45.95200 27.58800
C  36.36500 47.37100 27.58800
C  37.30800 44.22100 25.74600
C  36.23900 45.52400 28.89100
O  36.19800 44.38500 29.33900
C  35.75900 46.76300 29.69900
C  34.59200 46.43200 30.46000
O  33.43600 46.85200 30.27400
O  34.98300 45.60400 31.51900
C  33.89500 45.18700 32.35200
H  35.30800 53.58300 28.00700
H  36.32500 52.01800 21.97500
H  37.60600 46.06400 23.63400
H  34.70400 49.66600 30.85600
H  36.34000 52.02300 30.32300
H  34.39600 53.19000 30.84200
H  33.66600 51.61400 30.99700
H  33.54900 52.37900 29.46200
H  37.50500 50.57100 31.42500
H  37.36200 48.93200 30.78200
H  37.15200 49.85700 33.41600
H  36.68100 48.22800 32.87100
H  35.27700 56.11400 25.39700
H  36.37500 55.51000 26.74600
H  34.72100 55.28200 26.91000
H  35.15800 56.31900 21.73600
H  35.87300 56.59100 23.36100
H  34.15600 56.14600 23.22800
H  38.05200 49.96200 21.02800
H  37.10100 47.34400 21.35700
H  35.27500 50.19500 20.65200
H  35.63600 48.59900 20.03800
H  36.64200 49.93000 19.47300
H  39.19100 48.11600 20.55900
H  39.14600 46.71500 21.60300
H  40.94000 48.78600 21.94000
H  40.53600 47.37200 23.07300
H  39.83200 49.03800 23.12200
H  36.97200 44.10600 24.71500
H  36.80500 43.46500 26.34900
H  38.35700 44.18100 26.04100
H  36.55700 46.83700 30.43800
H  33.15400 44.57900 31.83400
H  33.37300 46.01500 32.82900
H  34.32100 44.54400 33.12200
Mg -8.73100 40.10800 43.19400
C  -8.07200 36.79900 42.29200
C  -5.91200 40.99700 41.32800
C  -9.64400 43.40400 43.30100
C  -11.79600 39.26500 44.33900
N  -7.16200 38.99800 42.07200
C  -7.07500 37.66500 41.90000
C  -5.90600 37.31300 40.99800
C  -5.05900 38.61400 40.94900
C  -6.09700 39.63800 41.41900
C  -3.81800 38.74000 41.82400
C  -6.49400 36.75100 39.68400
C  -5.59100 35.58500 38.99100
H  -4.74600 36.08900 37.77800
N  -7.87000 41.95800 42.43000
C  -6.72500 42.09000 41.73600
C  -6.46500 43.53300 41.41200
C  -7.56100 44.26700 41.99900
C  -8.43700 43.24300 42.61700
C  -5.34900 44.09400 40.55100
C  -7.64800 45.79700 42.05800
O  -6.88000 46.52800 41.44300
C  -8.79700 46.50700 42.85000
N  -10.49800 41.26200 43.62100
C  -10.63100 42.56400 43.77200
C  -11.97000 43.06600 44.30100
C  -12.61400 41.70700 44.71700
C  -11.55600 40.65300 44.15400
C  -11.87600 44.25300 45.33900
C  -14.14800 41.46000 44.44400
C  -14.48400 41.35800 42.92300
N  -9.69700 38.32200 43.52300
C  -11.00800 38.14200 43.94200
C  -11.28800 36.66200 43.88800
C  -10.12500 36.14900 43.29300
C  -9.21200 37.16800 43.06000
C  -12.52600 35.89800 44.42500
C  -9.50300 34.93500 42.95400
O  -9.98500 33.77700 43.02100
C  -8.19500 35.29600 42.14700
C  -7.08300 34.57800 42.69700
O  -6.44500 34.86400 43.69800
O  -6.57800 33.71200 41.73200
C  -5.29600 33.03500 42.00000
H  -5.00900 41.24900 40.76800
H  -9.88800 44.43500 43.56600
H  -12.72600 38.98800 44.83800
H  -5.35100 36.54200 41.53200
H  -4.96600 38.81300 39.88100
H  -3.88600 39.44600 42.65100
H  -2.92800 39.14000 41.33700
H  -3.62000 37.73200 42.19100
H  -6.48900 37.55200 38.94500
H  -7.52900 36.41100 39.69900
H  -6.27000 34.77600 38.72500
H  -4.87200 35.05300 39.61400
H  -5.63300 44.94100 39.92600
H  -4.95600 43.34200 39.86600
H  -4.60900 44.35900 41.30600
H  -8.74600 47.56900 42.61300
H  -8.70500 46.33000 43.92200
H  -9.75400 46.16500 42.45600
H  -12.53300 43.34400 43.41000
H  -12.44500 41.57600 45.78600
H  -10.82800 44.44000 45.57300
H  -12.37000 44.07600 46.29500
H  -12.27800 45.16800 44.90500
H  -14.69000 42.34800 44.76800
H  -14.42800 40.58300 45.02800
H  -14.82100 40.35100 42.67700
H  -13.59100 41.59000 42.34200
H  -15.17900 42.10500 42.53900
H  -12.68500 36.22200 45.45400
H  -12.28700 34.83500 44.43100
H  -13.43300 36.06500 43.84400
H  -8.37700 35.07700 41.09500
H  -4.51500 33.73300 42.30300
H  -4.89700 32.55200 41.10800
H  -5.34900 32.31200 42.81400

