158

Mg 25.70600 1.22100 29.11500
C  27.69500 0.74900 31.94100
C  22.94000 1.56900 31.31000
C  23.76100 1.40600 26.43300
C  28.57300 0.32000 27.08900
N  25.37200 1.17000 31.30800
C  26.40900 1.13300 32.24400
C  25.93400 1.33500 33.68100
C  24.35300 1.24200 33.49000
C  24.18200 1.39100 31.93400
C  23.73300 -0.08900 34.02900
C  26.50600 2.69600 34.34000
C  27.16100 2.66100 35.69700
H  26.53600 3.53600 36.83500
N  23.59400 1.44200 28.92600
C  22.67000 1.54600 29.92900
C  21.35500 1.70600 29.34000
C  21.62900 1.61900 27.91500
C  23.02500 1.51800 27.69000
C  20.10200 1.86000 30.14400
C  20.67300 1.80800 26.71200
O  21.09000 1.78000 25.59000
C  19.20900 2.12800 26.94800
N  26.05800 0.99100 27.08700
C  25.10600 1.08900 26.15100
C  25.65900 0.73100 24.70200
C  27.14500 0.33300 24.98000
C  27.25800 0.56800 26.46700
C  24.83300 -0.38000 24.03700
C  28.19700 0.98900 23.99700
C  28.63400 0.12100 22.81300
N  27.76600 0.71600 29.36400
C  28.75600 0.38600 28.49600
C  29.97800 0.09800 29.26900
C  29.58400 0.18500 30.57200
C  28.29100 0.59900 30.63000
C  31.40400 -0.05700 28.79500
C  30.10400 0.11900 31.88400
O  31.30500 -0.00200 32.33800
C  28.84600 0.42300 32.87300
C  28.61900 -0.62700 33.85700
O  27.95500 -1.68700 33.66600
O  29.24300 -0.33200 35.06000
C  28.96400 -1.29400 36.10400
H  22.18600 1.67000 32.09300
H  23.32000 1.57200 25.44800
H  29.31500 -0.15000 26.44000
H  26.23500 0.51000 34.32700
H  23.82800 2.04000 34.01400
H  23.32400 -0.09600 35.04000
H  24.51400 -0.84800 33.97100
H  22.98000 -0.52300 33.37200
H  25.77600 3.49200 34.48200
H  27.28100 3.11100 33.69500
H  28.21000 2.95700 35.67200
H  27.17600 1.64300 36.08600
H  19.64700 0.87900 30.00500
H  19.48500 2.62700 29.67600
H  20.27400 2.00400 31.21100
H  18.57400 1.97900 26.07500
H  19.06900 3.18500 27.17400
H  18.69700 1.43800 27.61800
H  25.58200 1.63500 24.09800
H  27.19200 -0.75000 24.86600
H  24.19200 -0.83800 24.79000
H  25.49700 -1.08600 23.53800
H  24.24300 0.04600 23.22600
H  29.02500 1.35700 24.60200
H  27.62700 1.85900 23.67100
H  28.52400 0.50000 21.79800
H  28.02100 -0.77500 22.90800
H  29.66100 -0.20100 22.98700
H  31.56900 0.11100 27.73100
H  31.48000 -1.12900 28.97600
H  32.06800 0.59400 29.36400
H  29.13600 1.32300 33.41500
H  29.27100 -2.28400 35.76800
H  27.91400 -1.33700 36.39400
H  29.47100 -1.06300 37.04100
Mg 41.51200 42.17700 26.62900
C  40.72300 44.55200 29.17600
C  42.51400 40.01600 29.00600
C  42.26200 40.07300 24.25000
C  40.58100 44.55800 24.27900
N  41.76200 42.38000 28.85300
C  41.28900 43.41500 29.69600
C  41.47900 43.05400 31.18400
C  42.09100 41.59400 31.07500
C  42.15000 41.27400 29.60200
C  43.45400 41.31400 31.91100
C  40.15700 43.14700 32.00200
C  40.05000 42.37100 33.37300
H  39.58100 43.08400 34.75700
N  42.27000 40.26100 26.63300
C  42.58200 39.50000 27.72100
C  43.05900 38.29100 27.28100
C  43.05500 38.30900 25.90500
C  42.54900 39.58100 25.52400
C  43.54900 37.18800 28.20800
C  43.41000 37.22700 24.91400
O  43.19000 37.33600 23.74400
C  43.99500 36.02800 25.38400
N  41.46400 42.32100 24.60400
C  41.69800 41.26700 23.83400
C  41.43300 41.56500 22.29800
C  40.90100 42.99200 22.39900
C  40.93500 43.33800 23.85400
C  42.70400 41.43400 21.34500
C  39.50900 43.00800 21.77200
C  38.41800 42.21600 22.45700
N  40.86300 44.17800 26.64000
C  40.57800 45.02900 25.59000
C  40.14600 46.29700 26.06000
C  40.06400 46.15100 27.50000
C  40.59000 44.85000 27.79000
C  39.53700 47.38200 25.17300
C  39.69800 46.78200 28.76400
O  39.19300 47.87400 28.98100
C  40.12500 45.78200 29.85800
C  41.14500 46.49800 30.73900
O  42.28100 46.70700 30.31000
O  40.78000 46.53600 32.02300
C  41.84900 46.72900 33.01800
H  42.54600 39.25100 29.78500
H  42.48100 39.42600 23.39700
H  40.22600 45.30800 23.56800
H  42.19400 43.76500 31.59800
H  41.35200 40.92900 31.52200
H  43.77100 42.22300 32.42200
H  44.33500 40.96400 31.37300
H  43.23200 40.51500 32.61900
H  39.36600 42.89700 31.29600
H  40.07200 44.21200 32.21900
H  40.93900 41.78400 33.60300
H  39.24000 41.66800 33.17900
H  42.74000 36.45900 28.25100
H  43.71500 37.51300 29.23500
H  44.40900 36.66300 27.79100
H  44.98800 36.26600 25.76500
H  44.16900 35.33400 24.56200
H  43.31400 35.59800 26.11900
H  40.73800 40.72700 22.24000
H  41.53600 43.76800 21.97200
H  43.61800 41.37300 21.93600
H  42.69700 42.24800 20.62000
H  42.65300 40.47800 20.82300
H  39.70900 42.69900 20.74600
H  39.20900 44.05400 21.70600
H  38.67700 41.49300 23.23100
H  38.07300 41.56300 21.65600
H  37.61800 42.86100 22.82000
H  38.74000 47.85200 25.74900
H  39.05700 47.12200 24.22900
H  40.30100 48.11600 24.92100
H  39.26500 45.56000 30.49100
H  41.60400 47.71300 33.41800
H  42.86900 46.65700 32.64100
H  41.67300 45.98700 33.79700

