158

Mg 48.58700 34.85900 27.04000
C  46.73600 33.18900 29.41000
C  49.17100 37.37200 29.41700
C  49.90700 36.62000 24.63200
C  47.58600 32.41300 24.68200
N  47.99900 35.25200 29.16400
C  47.36300 34.31100 29.96600
C  47.18600 34.80800 31.37700
C  47.54100 36.31900 31.21200
C  48.38700 36.33200 29.86700
C  46.42200 37.26100 31.05500
C  48.28500 34.00200 32.20300
C  48.23500 34.06700 33.72000
H  47.22900 34.91600 34.46000
N  49.64500 36.64700 27.01200
C  49.72200 37.54600 28.09000
C  50.46100 38.72700 27.62500
C  50.77500 38.48700 26.24000
C  50.08400 37.19400 25.86100
C  50.71400 39.93300 28.41000
C  51.55300 39.45100 25.27000
O  51.80100 39.02200 24.14000
C  52.01000 40.76600 25.48800
N  48.69100 34.56900 24.93200
C  49.36700 35.45400 24.23300
C  49.40400 34.97500 22.65900
C  48.90900 33.49900 22.78900
C  48.43100 33.42300 24.20500
C  48.59700 35.91900 21.64100
C  49.80100 32.36600 22.37200
C  49.61600 31.85700 20.91900
N  47.46500 33.06600 27.02400
C  47.15500 32.20500 25.95400
C  46.34600 31.15500 26.49200
C  46.04200 31.54100 27.86600
C  46.78400 32.70000 28.09700
C  45.90900 29.94600 25.76400
C  45.30300 31.17900 29.03400
O  44.52800 30.26500 29.32300
C  45.64300 32.30400 30.06600
C  46.14900 31.61600 31.24700
O  47.17100 30.97200 31.24400
O  45.27200 31.70100 32.26400
C  45.44200 30.67200 33.32100
H  49.33000 38.22700 30.07900
H  50.24600 37.30100 23.84900
H  47.38600 31.74200 23.84400
H  46.18900 34.69500 31.80300
H  48.19900 36.74500 31.96900
H  46.50200 38.11100 31.73200
H  45.53600 36.64500 31.21000
H  46.37700 37.68400 30.05100
H  49.29000 34.38200 32.01700
H  48.33600 32.95400 31.90600
H  49.24400 34.33200 34.03500
H  48.09000 33.02500 34.00600
H  51.80400 39.95500 28.40300
H  50.40900 39.71600 29.43400
H  50.32100 40.81800 27.90900
H  52.77200 40.75900 26.26700
H  51.19200 41.43900 25.74600
H  52.52500 41.08100 24.58100
H  50.40500 34.92900 22.23000
H  47.96400 33.38200 22.25800
H  47.82700 35.29100 21.19300
H  49.27300 36.26100 20.85800
H  48.06600 36.73900 22.12300
H  49.62600 31.52600 23.04400
H  50.87400 32.47600 22.53000
H  50.45900 32.19000 20.31300
H  48.73400 32.31400 20.47200
H  49.43100 30.78400 20.98000
H  45.10000 30.02200 25.03700
H  45.80300 29.08800 26.42700
H  46.73800 29.75100 25.08300
H  44.76400 32.81800 30.45600
H  44.82300 30.94200 34.17600
H  46.49600 30.72900 33.59400
H  45.14800 29.68500 32.96300
Mg 5.50900 53.48300 41.70500
C  4.56700 50.17700 41.34400
C  8.74600 52.72700 40.91600
C  6.12200 56.77900 41.57600
C  2.17500 54.17200 42.46900
N  6.51000 51.66000 41.14100
C  5.94900 50.44200 40.88200
C  7.02600 49.36800 40.46600
C  8.36000 50.25600 40.73800
C  7.85100 51.68900 41.01700
C  9.27800 49.70200 41.92100
C  6.88200 48.99300 38.89000
C  6.93100 50.17700 37.95300
H  6.76700 49.68100 36.47100
N  7.25900 54.60500 41.25200
C  8.48000 54.09900 40.94000
C  9.39400 55.17700 40.70900
C  8.63500 56.39600 40.85500
C  7.26000 55.96000 41.24200
C  10.76800 54.94900 40.10200
C  9.18500 57.75500 40.57100
O  10.37500 57.87800 40.20200
C  8.40000 59.02900 40.73700
N  4.33100 55.29400 41.93100
C  4.84200 56.52700 42.00600
C  3.71500 57.59600 42.12600
C  2.47900 56.76200 42.62600
C  3.02300 55.30100 42.20400
C  4.03800 58.90000 42.97300
C  1.14700 56.95500 41.87800
C  -0.08000 57.41800 42.74500
N  3.70600 52.38000 41.88800
C  2.49000 52.82000 42.33400
C  1.67900 51.62900 42.63500
C  2.39900 50.54500 42.19900
C  3.62800 51.06700 41.80500
C  0.26300 51.82700 43.07600
C  2.39500 49.14800 41.99300
O  1.47600 48.36000 42.10200
C  3.91900 48.74000 41.57800
C  4.00700 47.90700 40.35600
O  3.71300 48.22200 39.25600
O  4.53100 46.70100 40.67700
C  4.63700 45.74600 39.57700
H  9.72000 52.32500 40.62900
H  6.37300 57.84200 41.54900
H  1.18300 54.39900 42.86600
H  7.01700 48.47500 41.09100
H  9.00000 50.25800 39.85600
H  8.88900 48.73700 42.24400
H  9.29500 50.28700 42.84100
H  10.28100 49.41400 41.60700
H  6.01500 48.37700 38.64700
H  7.73900 48.36400 38.64900
H  7.90800 50.65100 38.04600
H  6.05800 50.80000 38.15100
H  10.71300 55.11100 39.02600
H  11.15000 53.95400 40.32900
H  11.54800 55.56200 40.55500
H  8.96000 59.93300 40.49900
H  8.00700 59.06900 41.75300
H  7.56800 59.07400 40.03400
H  3.58400 57.84000 41.07200
H  2.33900 56.91500 43.69600
H  5.04600 58.82300 43.38100
H  3.35800 59.03700 43.81400
H  3.96000 59.75800 42.30600
H  0.81600 56.10800 41.27800
H  1.36700 57.84400 41.28600
H  0.09200 57.18500 43.79500
H  -0.92600 56.85500 42.35300
H  -0.14100 58.50600 42.76900
H  -0.29000 52.51400 42.43600
H  0.26100 52.28800 44.06400
H  -0.32500 50.92800 43.26100
H  4.33600 48.22600 42.44400
H  5.26800 44.93200 39.93300
H  4.97400 46.10700 38.60500
H  3.61900 45.38800 39.42400

