158

Mg 16.44400 -1.76300 27.32600
C  15.29100 0.43800 29.80700
C  18.43400 -3.23300 29.58000
C  17.73900 -3.49500 24.81100
C  14.82400 0.34800 25.03600
N  16.67000 -1.47400 29.41800
C  16.13000 -0.53600 30.27500
C  16.58100 -0.79900 31.68400
C  17.75400 -1.89400 31.49700
C  17.62600 -2.25800 30.07900
C  19.09200 -1.38900 31.98200
C  15.49300 -1.14200 32.71800
C  15.36600 -0.40500 34.07100
H  16.65100 -0.08700 34.86500
N  17.77800 -3.28400 27.26400
C  18.51500 -3.79200 28.25300
C  19.38700 -4.82500 27.76100
C  19.13400 -4.96000 26.36900
C  18.17700 -3.91000 26.07500
C  20.33100 -5.67500 28.62200
C  19.65300 -5.99700 25.38500
O  19.27400 -6.08700 24.25700
C  20.66600 -7.10400 25.77900
N  16.15900 -1.71900 25.17800
C  16.81800 -2.48700 24.37100
C  16.56000 -2.18000 22.90100
C  15.56700 -0.97200 23.00900
C  15.51600 -0.74700 24.54700
C  17.84100 -1.81000 22.05100
C  14.06700 -1.21200 22.46000
C  13.63400 -0.42100 21.24800
N  15.18500 -0.06700 27.33200
C  14.58900 0.70900 26.37200
C  13.81800 1.78800 26.90800
C  14.00900 1.70700 28.33000
C  14.93700 0.65900 28.47000
C  12.96400 2.77300 26.11600
C  13.70100 2.31600 29.56200
O  13.00000 3.27500 29.81000
C  14.50700 1.48700 30.67100
C  15.47300 2.37100 31.29100
O  16.59300 2.64500 30.89800
O  15.00500 2.77100 32.54000
C  15.76800 3.69200 33.39500
H  19.18600 -3.71800 30.20700
H  18.25500 -3.94700 23.96100
H  14.27400 0.98700 24.34200
H  17.02800 0.14200 32.00300
H  17.47000 -2.75600 32.10200
H  19.09200 -0.38800 32.41200
H  19.76400 -1.49400 31.13000
H  19.50100 -2.08900 32.71000
H  15.69300 -2.17900 32.98600
H  14.49700 -0.99300 32.30200
H  14.85400 -1.11200 34.72300
H  14.75900 0.48000 33.88500
H  21.37100 -5.51700 28.33700
H  20.00600 -6.68900 28.39000
H  20.16800 -5.50300 29.68500
H  20.24700 -7.70000 26.59000
H  21.58800 -6.60500 26.07800
H  21.07100 -7.67500 24.94400
H  16.07100 -3.05000 22.46300
H  16.03300 -0.05000 22.66300
H  18.14700 -2.69700 21.49700
H  18.48300 -1.40700 22.83400
H  17.64000 -0.98100 21.37100
H  13.41800 -1.04600 23.32000
H  14.09800 -2.26600 22.18200
H  13.09100 -1.13100 20.62500
H  14.36600 -0.01000 20.55300
H  12.98400 0.33100 21.69500
H  12.52600 2.37600 25.20100
H  13.29600 3.80700 26.02400
H  12.12500 2.91400 26.79800
H  13.90200 1.05500 31.46800
H  15.80800 4.70500 32.99400
H  16.73400 3.26500 33.66300
H  15.22100 3.86000 34.32300
Mg -11.97300 16.24000 42.76900
C  -9.03500 14.47500 42.16700
C  -10.45800 18.91400 40.92300
C  -15.01100 17.56900 42.22800
C  -13.34000 13.32500 44.04400
N  -10.02500 16.57900 41.52000
C  -8.95500 15.77200 41.55300
C  -7.77000 16.39500 40.78100
C  -8.19100 17.85200 40.54100
C  -9.58600 17.84600 41.19400
C  -7.16200 18.89300 41.12900
C  -7.53100 15.67300 39.46700
C  -6.09200 15.33100 39.03500
H  -5.52900 16.13000 37.83600
N  -12.57700 18.09100 41.98000
C  -11.84200 18.97300 41.22000
C  -12.73100 20.10600 40.80000
C  -14.07600 19.67900 41.17100
C  -13.93900 18.45300 41.88300
C  -12.32200 21.28100 39.89700
C  -15.32500 20.49000 40.80800
O  -15.25300 21.52000 40.12200
C  -16.68200 20.15200 41.27900
N  -13.94300 15.55200 43.09100
C  -14.99000 16.31200 42.83500
C  -16.24500 15.50500 43.17000
C  -15.62500 14.46700 44.13500
C  -14.21700 14.37300 43.73400
C  -17.42200 16.40600 43.71600
C  -16.41400 13.13600 44.22600
C  -16.37400 12.09700 43.09800
N  -11.32800 14.31600 43.11500
C  -11.99900 13.28900 43.71200
C  -11.13500 12.12500 43.89300
C  -9.93900 12.56000 43.30600
C  -10.07600 13.90200 42.82800
C  -11.37100 10.78200 44.50000
C  -8.62300 12.22900 43.06700
O  -7.99900 11.23900 43.42500
C  -7.95200 13.39900 42.31800
C  -6.82800 13.93900 43.14700
O  -6.95300 14.43900 44.23900
O  -5.64100 13.69700 42.44300
C  -4.35600 14.07200 43.07900
H  -9.99700 19.73900 40.37600
H  -15.97200 17.81500 41.77200
H  -13.58700 12.44700 44.64400
H  -6.86800 16.24800 41.37600
H  -8.38300 17.98000 39.47600
H  -6.62700 18.43600 41.96100
H  -7.49500 19.84200 41.55000
H  -6.40600 19.05400 40.36000
H  -8.04100 16.04300 38.57800
H  -7.93400 14.66900 39.60400
H  -6.00300 14.24700 38.96300
H  -5.48900 15.73400 39.85000
H  -13.08000 21.49100 39.14300
H  -11.38800 21.06400 39.37700
H  -12.23000 22.18700 40.49400
H  -16.74500 19.79500 42.30700
H  -17.10500 19.39000 40.62400
H  -17.29900 21.05000 41.31100
H  -16.64500 14.96500 42.31100
H  -15.67300 14.83000 45.16200
H  -17.38300 17.43500 43.35900
H  -17.55900 16.37200 44.79700
H  -18.39600 16.03000 43.40400
H  -17.44900 13.42000 44.41600
H  -16.16100 12.57600 45.12700
H  -17.27400 11.92700 42.50700
H  -16.05000 11.16500 43.56000
H  -15.54300 12.25800 42.41100
H  -12.02900 10.14700 43.90700
H  -11.76900 10.90200 45.50800
H  -10.45500 10.21000 44.64400
H  -7.42500 13.06600 41.42300
H  -4.49300 15.14900 43.17400
H  -3.53200 13.79000 42.42400
H  -4.20600 13.68300 44.08700

