158

Mg 48.73600 35.63300 27.21300
C  46.48600 34.28100 29.54700
C  49.15800 38.22400 29.30900
C  50.43000 37.13100 24.77100
C  48.01900 33.10200 24.98900
N  47.95700 36.06800 29.23000
C  47.13400 35.42000 30.07800
C  47.25500 35.89600 31.51500
C  47.85600 37.28500 31.27000
C  48.42200 37.18700 29.83600
C  46.82600 38.42600 31.57300
C  48.24100 34.98000 32.33000
C  47.91500 35.06400 33.80100
H  48.90700 35.77900 34.74200
N  49.74100 37.43100 27.06800
C  49.78200 38.36800 28.05800
C  50.63100 39.39100 27.64100
C  51.03500 39.08600 26.26000
C  50.41000 37.84400 25.93400
C  50.98700 40.65300 28.49700
C  51.93700 39.83000 25.31500
O  52.15500 39.49400 24.18900
C  52.46600 41.14400 25.69700
N  49.07600 35.17300 25.18800
C  49.87100 35.90700 24.40300
C  49.99900 35.34000 22.96200
C  49.35500 33.99700 23.06000
C  48.84300 34.05700 24.50500
C  49.39800 36.25100 21.87000
C  50.29000 32.84900 22.82200
C  49.88800 31.83300 21.68100
N  47.60800 33.95100 27.19600
C  47.41100 33.06000 26.25000
C  46.28200 32.22500 26.63700
C  45.84300 32.68700 27.83100
C  46.73300 33.75900 28.19500
C  45.89100 31.03500 25.72600
C  44.90800 32.47300 28.91300
O  43.96200 31.70600 29.03000
C  45.34500 33.44800 30.02700
C  45.58400 32.74600 31.34300
O  46.36500 31.87600 31.48700
O  44.67100 33.28100 32.22000
C  44.53000 32.68800 33.53200
H  49.31400 38.96800 30.09200
H  50.86500 37.51400 23.84600
H  47.62200 32.42800 24.22600
H  46.23400 35.84300 31.89300
H  48.61900 37.49900 32.01900
H  46.56300 38.92500 30.64000
H  47.39000 39.12300 32.19200
H  45.94700 38.06300 32.10600
H  49.24000 35.39400 32.19500
H  48.15500 33.95300 31.97400
H  47.88000 34.03800 34.16800
H  46.90800 35.47900 33.84400
H  52.03500 40.61100 28.79300
H  50.30500 40.82000 29.33100
H  50.79400 41.52700 27.87400
H  53.02100 40.94900 26.61500
H  51.65300 41.83400 25.92100
H  53.03800 41.58300 24.87900
H  51.04400 35.32800 22.65200
H  48.54400 33.83600 22.34900
H  48.86300 37.05300 22.38000
H  48.76100 35.76400 21.13200
H  50.19200 36.78100 21.34400
H  50.60200 32.27100 23.69200
H  51.21900 33.25100 22.41800
H  50.73100 31.96000 21.00200
H  48.96400 32.05400 21.14700
H  49.78400 30.80800 22.03800
H  45.12100 31.29600 25.00100
H  45.51700 30.18400 26.29500
H  46.74800 30.60800 25.20400
H  44.48300 34.11500 30.03500
H  45.01300 33.32000 34.27700
H  44.76700 31.63500 33.68500
H  43.49400 32.65400 33.87000
Mg 30.35100 57.69000 40.49800
C  27.74400 55.80900 38.96200
C  32.64200 55.46400 39.04100
C  32.81800 59.80200 41.12000
C  27.84200 60.10900 41.22400
N  30.14900 55.90000 38.99400
C  28.94500 55.26900 38.65200
C  29.26700 53.76800 38.22800
C  30.87700 53.69600 38.21000
C  31.27300 55.10900 38.84100
C  31.54300 52.49400 39.01700
C  28.61100 53.42400 36.81600
C  28.55000 54.62400 35.79700
H  29.09900 54.36300 34.42200
N  32.50500 57.66200 40.22300
C  33.20200 56.59800 39.68200
C  34.59200 57.03700 39.65200
C  34.73800 58.33200 40.14600
C  33.38100 58.63000 40.51800
C  35.65800 56.11500 39.10700
C  35.98000 59.10600 40.32400
O  37.10200 58.62900 40.15900
C  35.85700 60.55900 40.66800
N  30.30500 59.74600 41.09900
C  31.55000 60.30000 41.39200
C  31.19300 61.76400 41.87700
C  29.71600 61.69300 42.27200
C  29.18600 60.49000 41.46800
C  32.01100 62.12000 43.12200
C  28.95100 62.96300 41.85500
C  28.42200 63.75900 43.00800
N  28.19300 57.91600 40.24200
C  27.32400 58.90500 40.73500
C  26.01900 58.40400 40.62100
C  26.12600 57.21500 39.93300
C  27.48000 56.96700 39.69000
C  24.74600 59.11300 41.13900
C  25.33300 56.22800 39.32600
O  24.06500 56.02800 39.27800
C  26.32400 55.17100 38.70300
C  26.15400 53.89800 39.42200
O  26.48400 53.63400 40.59200
O  25.60400 52.94000 38.62100
C  25.26200 51.67800 39.15700
H  33.30600 54.66300 38.71100
H  33.58300 60.51700 41.43000
H  27.16000 60.80700 41.71500
H  28.97000 53.08600 39.02400
H  31.19900 53.67700 37.16800
H  32.35600 52.81700 39.66800
H  31.86600 51.79700 38.24300
H  30.81200 51.99800 39.65600
H  27.57000 53.13100 36.95300
H  29.01200 52.48700 36.43100
H  29.04900 55.50000 36.20900
H  27.49500 54.89900 35.81400
H  35.88700 56.48600 38.10800
H  35.36500 55.07100 39.00100
H  36.63100 56.16200 39.59600
H  36.83300 60.98700 40.44300
H  35.57800 60.59600 41.72100
H  35.10100 61.08500 40.08600
H  31.47500 62.47800 41.10400
H  29.52500 61.54300 43.33400
H  32.52200 62.99700 42.72300
H  32.73200 61.37400 43.45300
H  31.44800 62.34500 44.02800
H  28.02700 62.81700 41.29400
H  29.56100 63.67500 41.29900
H  27.46900 64.28600 42.95900
H  29.07000 64.61900 43.17900
H  28.46300 63.35100 44.01700
H  24.11500 58.45600 41.73800
H  24.19700 59.61900 40.34500
H  25.07800 59.90400 41.81200
H  26.05800 54.99800 37.66000
H  25.95500 50.85200 38.99400
H  24.30300 51.35200 38.75200
H  25.07000 51.83900 40.21700

