158

Mg -0.33600 7.99100 26.53800
C  0.46500 9.80100 29.35700
C  -0.33000 5.19700 28.51600
C  -0.80100 6.13700 23.72100
C  0.22000 10.80100 24.54600
N  0.33200 7.55500 28.69300
C  0.30600 8.47000 29.69400
C  0.17400 7.88100 31.08500
C  0.33600 6.38500 30.72600
C  0.12700 6.33200 29.20800
C  1.70200 5.70000 31.14600
C  -1.15000 8.34900 31.73800
C  -1.25900 8.80700 33.19600
H  0.04400 8.71200 34.01900
N  -0.51900 5.96600 26.17100
C  -0.63000 4.95300 27.12900
C  -1.07100 3.78500 26.58300
C  -1.25500 3.96900 25.19100
C  -0.83000 5.40400 24.95300
C  -1.21900 2.48600 27.45900
C  -1.77400 2.87900 24.12500
O  -1.81500 3.11800 22.95200
C  -2.20600 1.52200 24.62600
N  -0.16600 8.39600 24.36900
C  -0.50200 7.50000 23.42200
C  -0.42700 8.16200 21.99600
C  -0.28200 9.65100 22.30200
C  -0.04900 9.66700 23.85200
C  0.73700 7.59400 21.21800
C  -1.39200 10.44100 21.73800
C  -2.67600 10.69300 22.50500
N  0.28200 9.92300 26.82400
C  0.48200 10.95300 25.93900
C  0.85400 12.13200 26.68100
C  0.77700 11.75000 27.99200
C  0.48300 10.35200 28.10700
C  1.19300 13.45000 26.08000
C  1.02400 12.27300 29.26700
O  1.45900 13.36000 29.57200
C  0.76800 11.07400 30.23700
C  1.95100 10.90900 31.24500
O  2.80200 10.00100 31.32200
O  1.89700 11.92500 32.18700
C  3.08600 11.97200 33.08600
H  -0.27100 4.33500 29.18400
H  -0.96400 5.71200 22.72900
H  0.25500 11.60700 23.81100
H  1.01300 8.11500 31.74000
H  -0.42100 5.71500 31.13300
H  2.47400 6.36300 31.53600
H  2.11700 5.22700 30.25600
H  1.59200 4.93400 31.91400
H  -1.84500 7.52000 31.61000
H  -1.44900 9.20200 31.12800
H  -2.00600 8.10500 33.56600
H  -1.59500 9.83700 33.31000
H  -0.55400 2.49800 28.32300
H  -0.89800 1.63200 26.86200
H  -2.25000 2.31600 27.76700
H  -2.99900 1.50100 25.37300
H  -1.37000 0.91800 24.97900
H  -2.67500 1.07300 23.75000
H  -1.34900 7.90000 21.47800
H  0.57600 10.17400 21.88100
H  0.70600 6.56300 21.57000
H  1.67500 8.10400 21.43700
H  0.39900 7.74900 20.19300
H  -1.65700 10.10600 20.73500
H  -0.99100 11.44800 21.62600
H  -3.58300 10.59700 21.90900
H  -2.70500 11.69700 22.92800
H  -2.71500 9.98600 23.33300
H  1.62000 13.96700 26.94000
H  0.25700 13.93700 25.80800
H  1.92300 13.34600 25.27700
H  -0.01500 11.27300 30.97000
H  4.00300 12.00400 32.49700
H  3.12500 11.11800 33.76200
H  3.08700 12.92200 33.62100
Mg 10.07500 48.17000 26.21900
C  7.91200 47.78700 29.10400
C  12.35500 49.62600 28.13100
C  12.08600 48.05800 23.56200
C  7.38100 47.06400 24.30300
N  10.08800 48.70500 28.32800
C  9.17600 48.44200 29.36400
C  9.78400 48.88500 30.68200
C  10.95800 49.76300 30.28000
C  11.21400 49.31200 28.87400
C  10.80500 51.26500 30.54200
C  10.15400 47.69600 31.62000
C  9.55300 47.63300 32.98000
H  9.81900 46.37800 33.86600
N  11.94000 48.93100 25.86900
C  12.77300 49.37400 26.82100
C  14.09200 49.56600 26.22700
C  13.95200 49.15200 24.87500
C  12.59300 48.74200 24.67200
C  15.22800 50.03400 27.02900
C  14.98700 49.13500 23.89900
O  14.80800 48.92800 22.67800
C  16.39300 49.34800 24.29900
N  9.68200 48.00400 24.14700
C  10.75700 47.84700 23.27800
C  10.42100 47.02500 22.03100
C  8.96900 46.48400 22.30800
C  8.60300 47.29300 23.67600
C  10.75500 47.74900 20.69700
C  8.90200 44.91600 22.46300
C  8.77800 43.88800 21.26100
N  8.00800 47.58500 26.56100
C  7.07000 47.10100 25.67200
C  5.83300 46.85100 26.40200
C  6.15500 47.08300 27.79100
C  7.49200 47.44300 27.76900
C  4.56800 46.41300 25.82000
C  5.56600 47.22400 29.11200
O  4.39700 47.14900 29.47200
C  6.79500 47.32900 30.02800
C  6.99600 46.05800 30.81200
O  7.92500 45.22800 30.74300
O  6.00200 45.97500 31.82300
C  6.21500 44.85800 32.74400
H  13.03200 50.28800 28.67500
H  12.84100 47.63800 22.89400
H  6.69100 46.63600 23.57300
H  9.11100 49.49000 31.29100
H  11.85900 49.60500 30.87200
H  11.73400 51.67800 30.93600
H  10.00000 51.51100 31.23400
H  10.50700 51.73300 29.60400
H  11.23700 47.75700 31.72000
H  9.81300 46.79600 31.10800
H  8.49200 47.56700 32.74000
H  9.80400 48.55600 33.50300
H  14.86000 50.41300 27.98200
H  15.80400 50.82200 26.54300
H  15.81400 49.15900 27.31300
H  16.56700 50.33200 24.73300
H  17.03100 49.28400 23.41800
H  16.65800 48.62200 25.06800
H  11.09000 46.16500 22.05300
H  8.29100 46.89000 21.55700
H  11.65500 47.37200 20.21200
H  11.05400 48.75900 20.97900
H  10.11500 47.80000 19.81600
H  8.07300 44.79700 23.16000
H  9.84200 44.64800 22.94500
H  9.68600 43.36500 20.96200
H  8.37600 44.57900 20.52000
H  8.03800 43.11000 21.44800
H  4.33700 47.04200 24.96000
H  3.94300 46.54400 26.70400
H  4.58500 45.36600 25.51800
H  6.56300 48.11000 30.75300
H  7.13300 45.04200 33.30200
H  6.23400 43.88000 32.26300
H  5.37200 44.74600 33.42600

