158

Mg 35.84000 49.49600 24.82300
C  36.25400 47.65300 27.92400
C  34.37000 51.97000 26.67900
C  35.22700 51.02700 21.94000
C  37.22000 46.76600 23.07000
N  35.39800 49.73500 26.98500
C  35.57300 48.87200 28.03500
C  35.17500 49.51300 29.37200
C  34.46900 50.87700 28.91100
C  34.69600 50.81400 27.40000
C  32.96600 51.09300 29.28300
C  36.40200 49.58100 30.35500
C  36.06200 49.27400 31.81500
H  34.61000 49.01700 32.38600
N  35.16400 51.28100 24.42600
C  34.61500 52.20300 25.31500
C  34.13500 53.40300 24.58200
C  34.42300 53.19600 23.18900
C  34.94800 51.76800 23.11600
C  33.65300 54.65400 25.28300
C  34.18400 54.12300 21.89300
O  34.58300 53.84700 20.76800
C  33.43100 55.43500 22.03400
N  36.24600 48.98100 22.77100
C  35.85600 49.81400 21.73400
C  36.35400 49.32500 20.37300
C  37.27100 48.02100 20.80100
C  36.94900 47.90300 22.30000
C  35.23100 49.05900 19.30000
C  38.79100 48.17100 20.57700
C  39.61100 47.24000 19.76000
N  36.48700 47.52100 25.33400
C  37.03800 46.53400 24.47300
C  37.54100 45.42500 25.30600
C  37.18300 45.83700 26.61700
C  36.61400 47.08100 26.60000
C  38.14500 44.07800 24.90000
C  37.16100 45.37200 28.02100
O  37.50000 44.25000 28.45100
C  36.56800 46.53900 28.90300
C  35.44300 46.15800 29.83500
O  34.27100 46.14500 29.51800
O  35.93600 45.73700 31.00800
C  35.07200 45.09300 32.02700
H  33.93500 52.73000 27.33200
H  35.01300 51.51800 20.98900
H  37.71300 45.99200 22.47900
H  34.46600 48.77200 29.74100
H  35.02500 51.71300 29.33500
H  32.42500 50.67500 28.43400
H  32.74100 52.14100 29.48200
H  32.77600 50.47300 30.15900
H  36.75200 50.61300 30.38000
H  37.24900 48.98100 30.02300
H  36.64100 49.84600 32.54000
H  36.41700 48.24900 31.91600
H  33.87900 55.54900 24.70300
H  34.07600 54.71900 26.28600
H  32.56600 54.58700 25.31900
H  33.06600 55.66300 21.03200
H  34.03100 56.17400 22.56500
H  32.60500 55.31400 22.73500
H  36.97900 50.18100 20.12100
H  36.89500 47.19200 20.20200
H  35.78400 49.45600 18.44900
H  34.33000 49.62900 19.52700
H  35.00300 48.02300 19.05000
H  39.32000 48.44200 21.49000
H  38.93800 49.13700 20.09300
H  40.63300 47.31800 20.12900
H  39.54800 47.45400 18.69300
H  39.30300 46.19700 19.82600
H  38.02900 43.97500 23.82100
H  37.72700 43.21100 25.41100
H  39.21500 44.03600 25.10300
H  37.35400 46.74000 29.63100
H  35.68600 45.50500 32.82700
H  35.23200 44.04200 32.27100
H  34.04200 45.44700 32.07800
Mg 16.94900 51.60300 26.50200
C  18.73400 50.44200 29.27400
C  14.50200 52.78700 28.58900
C  15.48300 52.73800 23.73200
C  19.69600 50.45000 24.45400
N  16.65000 51.53400 28.67100
C  17.50900 51.01200 29.61000
C  17.02300 51.35600 31.01800
C  15.52400 51.74400 30.79800
C  15.46200 51.99800 29.24700
C  14.45700 50.68200 31.37800
C  17.88200 52.48300 31.65000
C  18.16900 52.23900 33.13100
H  17.16400 51.39600 33.99800
N  15.23800 52.59600 26.21600
C  14.39800 53.05800 27.17700
C  13.40900 53.87900 26.42600
C  13.55400 53.64600 25.04700
C  14.81300 52.95700 24.92900
C  12.36000 54.65000 27.13500
C  12.64300 54.12300 23.88400
O  12.94700 53.94300 22.66200
C  11.32900 54.73100 24.01300
N  17.60400 51.72500 24.40600
C  16.77200 52.21400 23.49700
C  17.46600 52.14100 22.05200
C  18.93800 51.70000 22.35300
C  18.68100 51.19600 23.78900
C  16.74900 51.16300 21.06800
C  19.99900 52.88100 22.41000
C  21.23100 52.77700 21.49100
N  18.77700 50.57400 26.72900
C  19.78400 50.22500 25.82000
C  20.85300 49.58200 26.55900
C  20.52300 49.70500 27.88700
C  19.26000 50.25800 27.97000
C  22.19900 48.99500 25.99700
C  20.92200 49.41000 29.21000
O  21.96300 48.88100 29.62000
C  19.80800 49.93700 30.19500
C  19.33400 48.74300 31.00300
O  18.85400 47.70200 30.52500
O  19.60700 48.95700 32.33700
C  19.32300 47.82100 33.12400
H  13.73000 53.24800 29.20900
H  15.09300 52.99200 22.74400
H  20.55800 50.11200 23.87600
H  17.16700 50.48400 31.65600
H  15.25500 52.68600 31.27700
H  14.90700 49.77600 31.78200
H  13.70200 50.37100 30.65600
H  13.86100 51.11200 32.18200
H  17.44100 53.47700 31.56700
H  18.87600 52.55500 31.20900
H  18.27200 53.24200 33.54500
H  19.14900 51.81200 33.33900
H  12.27900 55.62200 26.64800
H  12.50500 54.90900 28.18400
H  11.39100 54.14900 27.13300
H  10.65400 54.11100 23.42300
H  11.35900 55.73900 23.60100
H  10.79800 54.63000 24.95900
H  17.35300 53.12400 21.59300
H  19.20900 50.81300 21.78000
H  15.83500 50.78200 21.52200
H  17.36900 50.31100 20.78900
H  16.41500 51.76100 20.22100
H  20.46800 52.80500 23.39100
H  19.45000 53.82200 22.37500
H  21.39100 53.69700 20.92900
H  21.15200 51.91100 20.83400
H  22.08000 52.69300 22.17000
H  21.90200 47.97400 25.75600
H  22.83200 48.97800 26.88400
H  22.57800 49.66100 25.22200
H  20.26300 50.64600 30.88600
H  19.89400 47.80900 34.05300
H  19.45400 46.84700 32.65400
H  18.30300 47.84500 33.50800

