158

Mg 26.92000 49.56900 26.56300
C  24.96700 50.97400 29.14700
C  29.35600 48.68200 28.87000
C  28.93100 48.86100 24.00400
C  24.58400 51.14100 24.28400
N  27.14600 49.78100 28.78100
C  26.11200 50.31900 29.59600
C  26.57900 50.18000 31.04300
C  28.09300 49.74000 31.00500
C  28.21600 49.36400 29.48500
C  29.15400 50.74500 31.46100
C  25.58400 49.30200 31.96400
C  24.93400 50.05800 33.15600
H  24.92800 49.35100 34.54500
N  28.77100 48.73100 26.43100
C  29.55000 48.34600 27.51100
C  30.72800 47.68300 27.00300
C  30.75100 47.85900 25.56300
C  29.41600 48.49900 25.25000
C  31.81800 47.09600 27.83200
C  31.76900 47.53000 24.49900
O  31.75300 47.95900 23.36000
C  33.07800 46.87200 24.99700
N  26.80800 50.11000 24.49200
C  27.75200 49.53500 23.62400
C  27.39900 49.79300 22.17900
C  25.88400 50.29500 22.27400
C  25.74000 50.59200 23.79000
C  28.45800 50.68100 21.58500
C  24.97900 49.26700 21.69100
C  24.15600 49.70700 20.45800
N  25.14500 50.75400 26.70100
C  24.34000 51.33500 25.67200
C  23.17800 51.88400 26.27900
C  23.40600 51.74800 27.68300
C  24.58800 51.09800 27.83500
C  22.04200 52.47500 25.52500
C  22.79600 51.98900 28.98700
O  21.71200 52.43200 29.35400
C  23.83300 51.55400 30.00200
C  24.15500 52.74400 30.78800
O  24.93000 53.54300 30.42400
O  23.34800 52.76800 31.91700
C  23.50000 53.90600 32.81100
H  30.22700 48.45300 29.48700
H  29.49700 48.47100 23.15500
H  23.81900 51.55500 23.62300
H  26.58500 51.21500 31.38600
H  28.15000 48.81600 31.58100
H  28.95700 50.93500 32.51600
H  29.11700 51.57500 30.75500
H  30.11900 50.24100 31.51300
H  26.31600 48.65100 32.44100
H  24.80900 48.74200 31.44000
H  23.88900 50.31600 32.98600
H  25.59700 50.91000 33.30600
H  31.43700 46.89300 28.83300
H  32.65100 47.79300 27.92400
H  32.09400 46.10200 27.48100
H  32.81100 45.93400 25.48600
H  33.79600 47.53800 25.47500
H  33.62700 46.51400 24.12700
H  27.44100 48.80700 21.71400
H  25.57300 51.21500 21.78000
H  29.26500 50.96300 22.26100
H  27.94700 51.57500 21.22800
H  28.84300 50.23900 20.66600
H  24.40600 48.92400 22.55300
H  25.43200 48.32800 21.37200
H  24.31200 49.20000 19.50600
H  24.07100 50.78300 20.30500
H  23.14100 49.52100 20.81000
H  22.46200 53.39700 25.12300
H  21.28000 52.57700 26.29800
H  21.78500 51.69400 24.80800
H  23.41400 50.78000 30.64500
H  23.93300 54.72900 32.24200
H  24.13000 53.80700 33.69500
H  22.55000 54.13800 33.29300
Mg -11.82500 37.74600 42.43100
C  -9.62500 35.29400 41.23600
C  -9.97600 40.08200 40.75500
C  -14.25100 40.04200 43.13000
C  -14.11500 35.20600 43.25500
N  -10.11100 37.66200 41.01600
C  -9.24500 36.57500 40.84100
C  -7.93900 37.02700 40.11000
C  -8.05500 38.56400 40.08400
C  -9.48000 38.79300 40.58800
C  -6.91500 39.38800 40.77800
C  -7.75800 36.37200 38.65700
C  -6.37400 35.92000 38.28300
H  -5.72100 36.42200 37.08400
N  -11.95600 39.75500 42.20700
C  -11.07200 40.57500 41.51100
C  -11.44100 41.90600 41.68400
C  -12.63200 41.92800 42.41900
C  -13.02900 40.52300 42.63000
C  -10.68300 43.08700 41.14800
C  -13.33500 43.16800 42.98500
O  -12.84300 44.26700 42.80100
C  -14.62200 43.11700 43.86200
N  -13.92600 37.61500 43.11500
C  -14.65000 38.75000 43.21400
C  -16.04900 38.39800 43.69600
C  -16.06300 36.85200 43.76700
C  -14.68300 36.48600 43.28000
C  -16.52400 39.01800 45.02700
C  -17.29100 36.20500 42.94500
C  -18.37700 35.65200 43.94800
N  -11.90400 35.71400 42.36100
C  -12.80200 34.77400 42.90600
C  -12.18300 33.47800 43.00400
C  -10.88500 33.71200 42.39200
C  -10.82600 35.01200 41.98000
C  -12.76100 32.13800 43.58600
C  -9.61600 33.04100 42.04200
O  -9.29700 31.85700 42.21400
C  -8.75500 34.06200 41.26500
C  -7.47800 34.18100 41.97700
O  -7.32700 34.30900 43.16800
O  -6.46300 33.78500 41.18300
C  -5.17000 33.44500 41.78100
H  -9.30600 40.84100 40.34500
H  -15.09200 40.70400 43.34500
H  -14.84200 34.45600 43.57300
H  -7.07300 36.80700 40.73500
H  -8.07600 38.89700 39.04600
H  -6.06300 38.71200 40.85200
H  -7.20100 39.73700 41.77000
H  -6.68200 40.23100 40.12700
H  -8.09000 37.01000 37.83700
H  -8.32400 35.44100 38.62800
H  -6.26700 34.83900 38.36500
H  -5.64500 36.34800 38.97100
H  -11.16100 43.52800 40.27300
H  -9.69700 42.72100 40.86000
H  -10.61200 43.78700 41.98000
H  -15.49000 42.96500 43.22100
H  -14.87300 44.07100 44.32500
H  -14.67400 42.34400 44.62800
H  -16.70000 38.82600 42.93400
H  -16.08600 36.51100 44.80200
H  -16.70700 38.24300 45.77100
H  -17.44300 39.54100 44.76400
H  -15.86700 39.79500 45.41700
H  -16.90300 35.37000 42.36100
H  -17.78200 36.89000 42.25500
H  -18.51800 34.59500 43.72600
H  -19.39800 36.01400 43.82600
H  -18.09600 35.80500 44.99000
H  -13.82000 32.20200 43.83800
H  -12.21800 31.81100 44.47200
H  -12.80400 31.46000 42.73400
H  -8.52200 33.84100 40.22300
H  -4.92000 34.10400 42.61200
H  -4.51700 33.55100 40.91500
H  -5.27700 32.46300 42.24200

