158

Mg 42.32300 41.39600 26.68400
C  41.42600 43.85000 29.21800
C  43.43600 39.36600 29.23700
C  43.75200 39.53700 24.34200
C  41.58400 43.92500 24.31200
N  42.46600 41.58700 28.93800
C  41.85800 42.60400 29.72800
C  41.81500 42.17600 31.20100
C  42.57300 40.76400 31.20600
C  42.85500 40.57000 29.74000
C  43.65000 40.52800 32.29900
C  40.42000 42.33500 31.91600
C  40.40300 41.67800 33.33000
H  39.76700 42.48500 34.48000
N  43.29800 39.58900 26.77600
C  43.69100 38.90500 27.89400
C  44.18300 37.60700 27.49300
C  44.21400 37.67600 26.08500
C  43.77300 38.97800 25.66700
C  44.45000 36.42000 28.47400
C  44.57600 36.58600 25.12400
O  44.63900 36.68200 23.91900
C  44.91600 35.18700 25.66400
N  42.72200 41.79200 24.76900
C  43.24700 40.76600 23.89000
C  43.12900 41.11300 22.45000
C  42.11000 42.24700 22.51300
C  42.21400 42.78000 23.93100
C  44.44900 41.35600 21.82900
C  40.72200 41.93900 21.91500
C  39.68900 41.28700 22.79900
N  41.56200 43.42400 26.71700
C  41.35800 44.25200 25.65100
C  40.98000 45.59600 26.15700
C  40.95800 45.43600 27.52600
C  41.37200 44.15300 27.82100
C  40.67400 46.77500 25.26800
C  40.71900 46.08800 28.71200
O  40.48500 47.30200 28.87400
C  40.93200 45.09200 29.87800
C  41.96800 45.64600 30.89200
O  43.20500 45.81600 30.73600
O  41.31000 45.80800 32.12200
C  42.00400 46.21800 33.31200
H  43.74100 38.64000 29.99400
H  44.02100 38.87700 23.51500
H  41.32600 44.65900 23.54600
H  42.44900 42.87000 31.75300
H  41.84600 39.98500 31.43600
H  44.54000 40.37200 31.68900
H  43.51600 39.60200 32.85700
H  43.94000 41.38800 32.90300
H  39.61800 41.92900 31.29900
H  40.35900 43.40700 32.10300
H  41.40700 41.39100 33.64500
H  39.79600 40.77700 33.24600
H  43.72100 35.61300 28.40300
H  44.55200 36.72000 29.51700
H  45.39900 35.91300 28.29500
H  45.84100 35.25200 26.23800
H  45.08600 34.42800 24.90100
H  43.99000 34.96000 26.19200
H  42.58200 40.32800 21.92900
H  42.58100 43.04600 21.94100
H  45.20400 40.95300 22.50300
H  44.61000 42.43100 21.74900
H  44.48700 40.78000 20.90400
H  40.81200 41.42300 20.95900
H  40.21700 42.89400 21.77700
H  39.43400 40.41500 22.19600
H  38.77300 41.82000 23.05300
H  40.05800 40.87900 23.74000
H  41.59400 47.31000 25.03600
H  40.01500 47.44200 25.82500
H  40.13700 46.33700 24.42700
H  39.97700 44.90100 30.36800
H  43.08700 46.30300 33.22500
H  41.79000 45.57800 34.16800
H  41.66300 47.20400 33.62600
Mg 16.97300 51.19800 26.31100
C  18.80800 50.40500 29.16800
C  14.44500 52.30100 28.35600
C  14.97300 51.82900 23.64500
C  19.31900 49.93800 24.36000
N  16.62800 51.16300 28.50500
C  17.60500 51.02600 29.48000
C  17.12500 51.39900 30.87100
C  15.66300 51.80200 30.60000
C  15.54600 51.77300 29.03800
C  14.59300 51.00600 31.32200
C  18.02200 52.50200 31.54300
C  18.36000 52.12900 33.04400
H  17.40100 51.23400 33.84300
N  14.92300 52.02000 26.03300
C  14.09300 52.40300 27.02200
C  12.83500 52.81300 26.49500
C  13.02500 52.72900 25.03800
C  14.35000 52.16700 24.83800
C  11.59100 53.13600 27.32500
C  12.01800 53.15100 23.92400
O  12.33200 53.01500 22.78500
C  10.64800 53.66200 24.30600
N  17.15700 51.02100 24.23100
C  16.22900 51.28300 23.30300
C  16.63600 50.85000 21.94100
C  18.11400 50.38700 22.09000
C  18.29000 50.49300 23.67000
C  15.62800 49.89100 21.26900
C  19.28900 51.16400 21.35800
C  20.07900 50.44200 20.29800
N  18.75000 50.31600 26.62200
C  19.61500 49.86400 25.71200
C  20.70900 49.32500 26.41200
C  20.50500 49.58400 27.76800
C  19.24600 50.17800 27.88200
C  21.91900 48.67800 25.74200
C  21.01100 49.35400 29.12000
O  21.95700 48.66700 29.51400
C  19.92100 49.93300 30.10800
C  19.56300 48.76600 31.08000
O  18.60300 48.04200 31.04200
O  20.32600 48.85500 32.15400
C  20.16400 47.86200 33.24600
H  13.72600 52.56700 29.13400
H  14.38100 52.08000 22.76200
H  20.07600 49.44900 23.74300
H  17.25000 50.46600 31.42000
H  15.52600 52.84900 30.87000
H  13.99200 51.72600 31.87800
H  15.07200 50.20000 31.87700
H  13.79900 50.61300 30.68800
H  17.42100 53.40900 31.60000
H  18.92400 52.72200 30.97300
H  18.26200 53.09200 33.54300
H  19.38400 51.76200 33.12100
H  11.38200 54.19300 27.15700
H  11.79400 53.05300 28.39300
H  10.77600 52.48600 27.00900
H  10.05100 53.77100 23.40100
H  10.84500 54.51900 24.95000
H  10.09200 52.88500 24.83100
H  16.56300 51.73200 21.30600
H  18.10600 49.32200 21.85600
H  16.07400 48.95800 20.92300
H  15.08800 50.40000 20.47000
H  14.90900 49.60700 22.03700
H  19.97700 51.48600 22.14000
H  18.81200 52.05000 20.94100
H  19.69700 49.43500 20.13000
H  21.10000 50.34700 20.67000
H  20.08700 51.06300 19.40300
H  21.87300 48.64000 24.65400
H  22.22400 47.76500 26.25300
H  22.75800 49.36400 25.86000
H  20.33100 50.84000 30.55100
H  20.93100 48.04600 33.99800
H  20.44200 46.86500 32.90700
H  19.18100 48.07000 33.66900

