158

Mg 8.27700 2.88900 27.45000
C  9.58400 1.35400 30.43500
C  6.19200 4.68100 29.47000
C  6.62100 3.80700 24.66500
C  9.97200 0.35000 25.67200
N  8.02900 3.12200 29.72400
C  8.69300 2.42800 30.69800
C  8.36900 3.04300 32.11600
C  7.21900 4.00700 31.75900
C  7.10300 3.91400 30.26500
C  5.85200 3.92300 32.56100
C  9.61700 3.61700 32.91200
C  9.26600 4.56000 33.97600
H  10.12700 4.41600 35.25500
N  6.63300 4.04800 27.10100
C  5.95800 4.74900 28.08900
C  5.03900 5.68100 27.41800
C  5.13500 5.42900 25.97100
C  6.20500 4.46000 25.81100
C  4.16200 6.67600 28.22900
C  4.35800 6.08300 24.84900
O  4.42100 5.80900 23.68600
C  3.30500 7.12800 25.24200
N  8.25500 2.19000 25.45500
C  7.52000 2.77400 24.45200
C  7.98800 2.24500 23.04900
C  9.18100 1.24900 23.47700
C  9.10200 1.17500 24.97200
C  6.90700 1.68500 22.18500
C  10.61400 1.59000 23.02200
C  11.42500 2.53900 23.82600
N  9.59900 1.30400 27.89000
C  10.13500 0.35800 27.03400
C  10.95900 -0.56200 27.79800
C  10.77700 -0.15400 29.12500
C  9.94000 0.90400 29.13500
C  11.65500 -1.74500 27.22200
C  11.16700 -0.56800 30.46500
O  11.85800 -1.54700 30.84100
C  10.40100 0.40400 31.33500
C  9.61800 -0.28300 32.33600
O  8.70600 -1.01300 32.14300
O  10.07800 0.10200 33.60000
C  9.29800 -0.53100 34.65100
H  5.69600 5.32100 30.20200
H  6.19700 4.09500 23.70100
H  10.63800 -0.31900 25.12300
H  8.02300 2.20100 32.71500
H  7.53400 5.00700 32.05800
H  5.01000 3.74900 31.89000
H  5.75400 4.84800 33.12900
H  5.99400 3.06400 33.21600
H  10.33500 4.06000 32.22200
H  10.09800 2.81900 33.47800
H  8.24200 4.31900 34.25900
H  9.31500 5.57900 33.59200
H  4.27600 7.68300 27.83000
H  4.33800 6.48600 29.28800
H  3.19000 6.21500 28.04800
H  2.58300 6.62200 25.88200
H  2.80900 7.38700 24.30600
H  3.81000 8.03600 25.57400
H  8.49200 3.12100 22.63900
H  9.08100 0.29000 22.96800
H  5.96300 1.46400 22.68300
H  7.06000 0.65600 21.86000
H  6.63000 2.30200 21.32900
H  10.50900 2.11700 22.07400
H  11.15600 0.66500 22.82900
H  10.94400 2.80300 24.76800
H  11.59800 3.51100 23.36400
H  12.40800 2.13700 24.07400
H  10.98300 -2.32300 26.58800
H  11.82200 -2.48100 28.00800
H  12.61600 -1.43600 26.81100
H  11.14600 1.04800 31.80100
H  9.08000 -1.57900 34.44700
H  8.32200 -0.06200 34.77300
H  9.89700 -0.43300 35.55700
Mg 30.85000 59.21300 40.03100
C  27.81200 57.57700 38.74900
C  32.61100 56.70900 38.67700
C  33.50600 61.04800 40.63100
C  28.72300 62.04500 40.59400
N  30.21800 57.40900 38.73400
C  29.00900 56.88100 38.45600
C  29.18600 55.45500 37.98600
C  30.68700 55.08800 38.20900
C  31.22200 56.47600 38.65300
C  31.03000 53.94100 39.22500
C  28.62600 55.24600 36.56000
C  29.33700 56.06200 35.42800
H  28.41800 56.61100 34.29500
N  32.85300 58.83600 39.81200
C  33.38900 57.70500 39.28500
C  34.85900 57.81600 39.35000
C  35.13100 59.05200 40.04900
C  33.81500 59.73200 40.18600
C  35.77300 56.76400 38.76500
C  36.49900 59.47300 40.41000
O  37.43100 58.76900 40.09500
C  36.74100 60.82000 41.08700
N  31.03400 61.29900 40.50800
C  32.28800 61.74300 40.78600
C  32.18200 63.31100 40.95700
C  30.66000 63.56300 41.19400
C  30.10200 62.26800 40.71400
C  33.06300 64.01000 42.02700
C  30.16400 64.73400 40.31900
C  29.14000 65.69400 41.07600
N  28.69900 59.77800 39.79000
C  28.07800 60.94900 40.06200
C  26.68000 60.78900 39.80800
C  26.58200 59.44600 39.34500
C  27.82300 58.88100 39.30100
C  25.51500 61.72000 40.06100
C  25.61600 58.47500 38.77600
O  24.37200 58.62700 38.65900
C  26.33200 57.15400 38.39800
C  25.90400 55.93400 39.10200
O  25.47400 55.86900 40.24500
O  25.89000 54.82400 38.28600
C  25.35400 53.61200 38.96000
H  33.27400 55.97000 38.22200
H  34.36300 61.68400 40.85900
H  28.08200 62.89500 40.83500
H  28.58900 54.81200 38.63200
H  31.18500 54.83400 37.27300
H  30.21200 53.49300 39.78900
H  31.65700 54.38900 39.99500
H  31.59700 53.25400 38.59700
H  27.54800 55.39300 36.49900
H  28.83300 54.18800 36.40100
H  30.12100 55.45400 34.97700
H  29.78600 56.93200 35.90700
H  35.40600 55.78200 38.46600
H  36.45700 56.49800 39.57100
H  36.28200 57.23100 37.92200
H  37.76200 60.72300 41.45600
H  36.06100 60.93500 41.93100
H  36.59400 61.65200 40.39800
H  32.47900 63.71300 39.98800
H  30.59000 63.76200 42.26400
H  32.50500 64.70400 42.65500
H  33.82800 64.58300 41.50300
H  33.51300 63.25300 42.66900
H  29.60600 64.37200 39.45600
H  31.04000 65.20100 39.87000
H  29.57600 66.68500 41.20400
H  29.02400 65.27300 42.07400
H  28.21800 65.74000 40.49700
H  25.74400 62.72700 39.71300
H  25.17700 61.72500 41.09800
H  24.68700 61.33900 39.46400
H  26.31200 57.07800 37.31100
H  25.35400 52.95300 38.09100
H  24.33600 53.83000 39.28200
H  26.01800 53.27400 39.75500

