158

Mg 34.80700 2.68700 30.56200
C  32.48600 3.60800 32.90200
C  37.37900 3.05300 32.71500
C  36.93400 1.68700 28.11600
C  32.10500 2.77900 28.21400
N  34.87400 3.16700 32.50700
C  33.82700 3.52100 33.34100
C  34.24600 3.64800 34.76100
C  35.81500 3.70700 34.65100
C  36.08600 3.32600 33.15100
C  36.35900 5.21400 35.02400
C  33.68100 2.43200 35.60900
C  33.76900 2.63500 37.09900
H  34.17400 4.00400 37.67600
N  36.86300 2.41900 30.39800
C  37.78900 2.63300 31.41000
C  39.11600 2.16600 31.03600
C  39.00300 1.89200 29.65900
C  37.58800 2.04000 29.34000
C  40.26100 2.02300 32.00900
C  40.12700 1.58900 28.68000
O  39.84800 1.41200 27.46800
C  41.63100 1.59600 29.14600
N  34.57900 2.35300 28.49700
C  35.63700 1.92600 27.74600
C  35.21300 1.94200 26.22200
C  33.70300 2.08000 26.36900
C  33.44700 2.49400 27.86000
C  35.84000 3.11100 25.45800
C  32.91400 0.82000 25.99500
C  32.60800 0.67600 24.51500
N  32.75300 3.19200 30.47300
C  31.80200 3.13700 29.48200
C  30.48400 3.47400 30.00200
C  30.72200 3.65300 31.36600
C  32.10900 3.55800 31.57600
C  29.20000 3.56300 29.32100
C  30.01800 4.03300 32.54300
O  28.81100 4.10700 32.71600
C  31.14200 3.92400 33.64000
C  31.11000 5.07100 34.52100
O  31.76700 6.09800 34.37100
O  30.22900 4.88200 35.60100
C  30.25500 5.89300 36.63600
H  38.20400 3.27700 33.39500
H  37.54700 1.20900 27.34900
H  31.33200 2.79300 27.44200
H  33.93600 4.59700 35.19900
H  36.26400 3.00600 35.35400
H  36.94200 5.03700 35.92800
H  35.64600 5.98200 35.32600
H  37.05200 5.64800 34.30300
H  34.35900 1.63900 35.29400
H  32.66800 2.08800 35.40300
H  34.45000 1.92600 37.56900
H  32.78300 2.35000 37.46600
H  41.09800 2.64000 31.68100
H  40.49000 0.95700 32.01800
H  39.99600 2.31900 33.02400
H  41.87000 0.86900 29.92200
H  41.73300 2.63300 29.46700
H  42.26700 1.40700 28.28200
H  35.47400 1.05800 25.64100
H  33.34000 2.95900 25.83600
H  36.48900 2.62000 24.73300
H  36.27500 3.83400 26.14800
H  35.19900 3.65200 24.76200
H  31.97400 0.81700 26.54700
H  33.46300 -0.08500 26.25700
H  33.39900 1.06600 23.87400
H  31.70600 1.18000 24.16800
H  32.53600 -0.40800 24.43400
H  29.34800 3.16900 28.31600
H  28.84100 4.59200 29.34300
H  28.52400 2.89200 29.85100
H  30.80700 3.13600 34.31400
H  29.61800 6.69600 36.26500
H  31.25600 6.28700 36.81200
H  29.85500 5.59100 37.60500
Mg -3.74100 26.18800 25.69600
C  -2.37300 27.40900 28.60200
C  -5.86300 24.19400 27.41200
C  -4.26600 24.48800 22.81500
C  -1.28200 28.04700 23.85400
N  -4.07300 25.81800 27.76700
C  -3.44400 26.54100 28.81600
C  -3.97500 26.05800 30.20100
C  -5.04000 24.87600 29.72500
C  -4.96600 24.99600 28.18900
C  -4.71700 23.41600 30.25000
C  -4.63300 27.26000 31.00900
C  -5.68500 26.91200 32.13700
H  -5.33200 25.74500 33.06000
N  -5.00200 24.59200 25.21300
C  -5.86500 23.94400 26.01100
C  -6.76300 23.07200 25.22900
C  -6.17000 23.08200 23.88900
C  -5.15600 24.13100 23.94800
C  -7.82400 22.31500 25.87300
C  -6.43400 22.20400 22.70100
O  -5.78300 22.21600 21.63600
C  -7.58000 21.22500 22.70600
N  -2.85800 26.25200 23.59900
C  -3.20600 25.39300 22.66500
C  -2.49300 25.53000 21.26000
C  -1.57000 26.68600 21.65700
C  -1.96400 27.12400 23.08900
C  -1.84700 24.19000 20.73900
C  -1.51200 27.86100 20.62700
C  -0.13700 28.47200 20.58300
N  -2.33100 27.63600 26.05400
C  -1.41600 28.33400 25.24400
C  -0.71300 29.32000 26.08600
C  -0.96600 28.84000 27.38200
C  -1.95700 27.89200 27.30100
C  0.21800 30.25700 25.61700
C  -0.56600 29.01900 28.77100
O  0.32100 29.72300 29.22400
C  -1.46200 28.12400 29.64100
C  -0.62400 27.33300 30.55000
O  0.17900 26.46700 30.27200
O  -0.83700 27.73200 31.79400
C  -0.27400 26.89800 32.79800
H  -6.52200 23.55300 28.00100
H  -4.52600 24.00000 21.87200
H  -0.52100 28.47300 23.19700
H  -3.20300 25.57100 30.79700
H  -6.07400 25.08700 29.99500
H  -3.65900 23.29700 30.48200
H  -4.91800 22.70500 29.44900
H  -5.27800 23.06800 31.11700
H  -4.81400 28.01300 30.24300
H  -3.78600 27.57700 31.61800
H  -6.61700 26.69500 31.61500
H  -5.91200 27.76900 32.77200
H  -8.62100 22.15000 25.14800
H  -8.20000 22.78000 26.78400
H  -7.41500 21.33300 26.11200
H  -7.46500 20.76700 23.68800
H  -7.47200 20.45600 21.94200
H  -8.58500 21.59100 22.49400
H  -3.28900 25.78200 20.55900
H  -0.57200 26.26600 21.78800
H  -2.48500 23.67500 20.02200
H  -1.47000 23.62000 21.58800
H  -0.96500 24.57100 20.22300
H  -2.13400 28.69400 20.95700
H  -1.80000 27.70000 19.58800
H  -0.09100 28.85800 19.56400
H  0.58600 27.68000 20.77900
H  -0.10000 29.32300 21.26300
H  -0.15600 30.62400 24.66100
H  1.28100 30.02100 25.66300
H  0.20500 31.15900 26.22900
H  -2.13800 28.71500 30.25900
H  0.73100 27.29600 32.94000
H  -0.29400 25.83100 32.57700
H  -0.91300 27.08900 33.66000

