158

Mg 50.82500 45.89600 41.69300
C  47.81600 47.36100 40.71500
C  49.71200 42.98700 40.31500
C  54.08600 44.87800 41.70900
C  52.01700 49.17100 42.35600
N  49.00300 45.31800 40.56800
C  47.87100 46.04100 40.36800
C  46.64100 45.15200 39.91000
C  47.26400 43.68700 40.24700
C  48.74700 43.96000 40.45200
C  46.61300 42.93800 41.39900
C  46.30800 45.26700 38.37500
C  44.82600 45.42400 37.93800
H  44.24500 44.50400 36.85300
N  51.78100 44.16600 41.00500
C  51.14000 43.04900 40.44500
C  52.12600 42.07400 40.18300
C  53.37500 42.43700 40.72300
C  53.14400 43.85400 41.18000
C  51.78400 40.78500 39.50200
C  54.60700 41.65200 40.70100
O  54.59700 40.47600 40.26200
C  55.87300 42.29400 41.23000
N  52.80200 46.91700 41.94500
C  53.96700 46.17900 42.03900
C  55.16600 47.04100 42.51700
C  54.54500 48.46000 42.48900
C  53.04500 48.19500 42.20900
C  55.82600 46.46900 43.84800
C  55.04800 49.35700 41.31000
C  55.56200 50.72000 41.72800
N  50.03500 47.85600 41.79700
C  50.60800 49.01600 42.10000
C  49.63300 50.09100 41.97800
C  48.50100 49.49000 41.45000
C  48.86100 48.14300 41.24200
C  49.81500 51.52200 42.16900
C  47.17400 49.74200 40.92500
O  46.59500 50.83100 40.76900
C  46.60500 48.28600 40.57400
C  45.41200 47.78700 41.41300
O  45.39200 47.09500 42.43200
O  44.27500 48.18400 40.77800
C  43.08900 47.79200 41.56500
H  49.30200 42.07600 39.87400
H  55.09600 44.48200 41.83600
H  52.47000 50.10400 42.69900
H  45.71300 45.30200 40.46300
H  47.40100 43.03500 39.38500
H  46.01200 42.14300 40.95800
H  45.88300 43.49900 41.98200
H  47.34200 42.59300 42.13200
H  46.78900 44.39000 37.94100
H  46.82900 46.11200 37.92500
H  44.67800 46.46800 37.66200
H  44.17900 45.32500 38.80900
H  52.51300 40.62300 38.70800
H  50.76900 40.78900 39.10500
H  51.83000 39.98600 40.24300
H  55.70700 42.43100 42.29800
H  56.26800 43.12400 40.64400
H  56.63500 41.52300 41.11000
H  55.90900 46.90200 41.73200
H  54.78900 48.92300 43.44500
H  55.49000 45.47700 44.15000
H  55.64300 47.16200 44.67000
H  56.91500 46.45300 43.87100
H  54.20900 49.57700 40.65100
H  55.81900 48.83000 40.74700
H  55.01400 51.58300 41.34900
H  56.63500 50.86600 41.60100
H  55.40900 50.79300 42.80400
H  50.89300 51.63800 42.28800
H  49.29800 52.01600 42.99200
H  49.51000 51.93400 41.20800
H  46.34800 48.36800 39.51800
H  43.15100 47.70900 42.65000
H  42.66100 46.84300 41.24200
H  42.36100 48.57500 41.35800
Mg 0.23400 44.10600 26.62400
C  2.51400 43.96500 29.27200
C  -2.22100 43.39400 29.03100
C  -1.88500 43.47000 24.03900
C  2.78200 44.64600 24.33900
N  0.17600 43.90200 28.99000
C  1.22300 43.84700 29.84200
C  0.83600 43.78000 31.28500
C  -0.62500 43.37000 31.13700
C  -0.93800 43.63300 29.60200
C  -0.84400 41.85100 31.50500
C  1.09400 45.08900 32.09700
C  1.39300 44.82500 33.60500
H  0.98300 43.58500 34.35600
N  -1.73600 43.46200 26.55600
C  -2.56000 43.20800 27.62300
C  -3.85900 42.77300 27.17900
C  -3.80000 42.85800 25.68000
C  -2.45800 43.36800 25.35200
C  -5.06500 42.49200 28.12500
C  -4.95000 42.55000 24.67000
O  -4.74800 42.44600 23.47600
C  -6.33700 42.21100 25.15200
N  0.40100 43.93400 24.50400
C  -0.58700 43.65900 23.64700
C  -0.14300 43.80900 22.16200
C  1.32400 44.28100 22.30700
C  1.52400 44.31400 23.82600
C  -0.24500 42.44600 21.44200
C  1.74600 45.47500 21.41800
C  0.73500 46.60500 21.43600
N  2.22600 44.26100 26.75500
C  3.15300 44.48700 25.73200
C  4.47800 44.37600 26.28300
C  4.25700 44.13500 27.68300
C  2.91700 44.05600 27.91900
C  5.81500 44.44000 25.54500
C  4.89200 43.78400 28.85800
O  6.07900 43.58400 29.10500
C  3.83600 43.85100 29.99700
C  4.04200 42.70500 30.95400
O  3.69400 41.55800 30.79600
O  4.81900 43.15100 32.00700
C  4.86900 42.16800 33.10600
H  -2.98700 43.12400 29.76000
H  -2.43300 43.37100 23.09900
H  3.57200 44.72100 23.58900
H  1.36700 42.94900 31.75000
H  -1.37200 44.01600 31.59700
H  0.01000 41.18900 31.65300
H  -1.41300 41.33700 30.73000
H  -1.54800 41.74100 32.33000
H  0.20000 45.70100 31.97800
H  1.95200 45.55700 31.61500
H  1.10600 45.75500 34.09500
H  2.48100 44.79200 33.66300
H  -5.27100 43.50200 28.48000
H  -4.62000 42.08400 29.03200
H  -5.89100 41.89000 27.74600
H  -6.37300 41.29400 25.74000
H  -7.01100 42.18200 24.29600
H  -6.71900 43.03300 25.75800
H  -0.85300 44.53000 21.75800
H  1.88900 43.44600 21.89200
H  -0.36900 41.63800 22.16300
H  0.61000 42.16100 20.82800
H  -1.13600 42.53600 20.82100
H  1.89500 45.03200 20.43300
H  2.76600 45.78000 21.65300
H  0.01200 46.48400 22.24300
H  0.15300 46.60900 20.51400
H  1.27900 47.51300 21.69600
H  6.02200 43.41700 25.22900
H  6.59000 44.69100 26.26900
H  5.79200 45.03400 24.63100
H  3.96900 44.79100 30.53200
H  4.99900 41.13300 32.79000
H  3.98500 42.16600 33.74200
H  5.73800 42.52600 33.65800

