158

Mg 45.45200 3.61400 48.12600
C  43.59600 6.47900 47.35400
C  42.57800 1.69500 47.31900
C  47.41800 0.79200 47.89800
C  48.28600 5.50200 48.15500
N  43.22100 4.11800 47.64200
C  42.73200 5.33600 47.31000
C  41.15900 5.24900 46.98100
C  40.88500 3.72200 47.29400
C  42.31100 3.12400 47.41300
C  40.10300 3.47000 48.58100
C  40.75400 5.65500 45.50600
C  39.59200 6.62800 45.27700
H  38.70000 6.35800 43.99800
N  45.03400 1.54600 47.68800
C  43.84300 0.97200 47.36800
C  43.94200 -0.49800 47.25000
C  45.33600 -0.82200 47.52100
C  46.02800 0.54100 47.74400
C  42.75300 -1.36700 46.93400
C  45.93400 -2.22400 47.49500
O  45.21700 -3.19200 47.26100
C  47.42300 -2.48600 47.68200
N  47.55200 3.15400 48.23000
C  48.11100 1.96000 48.04300
C  49.62300 2.06200 48.24900
C  49.90100 3.61500 48.10300
C  48.49300 4.10800 48.27400
C  49.99000 1.41900 49.57300
C  50.57300 4.05100 46.75200
C  51.93400 4.70700 46.76800
N  45.90800 5.61400 47.89300
C  47.05200 6.29300 47.98100
C  46.89100 7.67200 47.56600
C  45.52000 7.77400 47.32200
C  44.98700 6.55700 47.61000
C  48.00300 8.71400 47.56700
C  44.40900 8.66000 46.98200
O  44.36700 9.91500 46.81300
C  43.11000 7.83000 46.91800
C  42.13600 8.44500 47.88200
O  41.86800 8.03400 49.01900
O  41.51200 9.47100 47.18900
C  40.53600 10.36100 47.91000
H  41.75300 1.05000 47.00900
H  48.12600 -0.03700 47.83600
H  49.07500 6.23700 47.97600
H  40.62700 5.92400 47.65100
H  40.36200 3.23400 46.47100
H  39.64800 4.39800 48.92700
H  40.74100 3.01200 49.33700
H  39.19400 2.88700 48.44100
H  40.40400 4.76400 44.98400
H  41.68800 5.94000 45.02300
H  39.93900 7.65400 45.15900
H  38.96200 6.44600 46.14800
H  42.82400 -1.64400 45.88200
H  41.79000 -0.89300 47.12300
H  42.96000 -2.20800 47.59600
H  48.04400 -2.36700 46.79400
H  47.33600 -3.54900 47.90400
H  47.66800 -1.94900 48.59800
H  50.12900 1.43300 47.51600
H  50.45200 4.06600 48.92800
H  50.72100 2.04400 50.08500
H  50.45900 0.46100 49.34900
H  49.09700 1.23500 50.17100
H  49.92700 4.71700 46.18100
H  50.67600 3.19500 46.08400
H  52.63800 4.07900 46.22300
H  52.34100 4.81300 47.77300
H  51.86900 5.65800 46.23800
H  47.92200 9.57800 46.90800
H  49.04500 8.40300 47.63900
H  47.90900 9.10700 48.58000
H  42.63600 7.87100 45.93800
H  39.97300 9.83300 48.68000
H  39.83600 10.71200 47.15100
H  41.02200 11.27000 48.26300
Mg 47.96200 16.41900 29.42100
C  45.48100 15.64400 31.70300
C  49.78000 17.84200 31.75800
C  49.88600 17.26800 26.95100
C  45.66800 15.08200 26.89400
N  47.55700 16.77500 31.45600
C  46.59100 16.20500 32.23000
C  46.82600 16.45300 33.76100
C  48.21700 17.18200 33.75600
C  48.52200 17.29600 32.20800
C  48.17200 18.61000 34.46400
C  46.75200 15.23000 34.73700
C  47.53500 15.31100 36.07000
H  47.45100 16.65200 36.76800
N  49.58500 17.48900 29.30800
C  50.20000 18.00700 30.42400
C  51.48800 18.67000 29.96100
C  51.51000 18.56800 28.55000
C  50.31000 17.73100 28.19900
C  52.47600 19.37900 30.97600
C  52.57800 18.96600 27.63000
O  52.56900 18.55700 26.43600
C  53.70700 19.82600 28.01500
N  47.70600 16.22600 27.20400
C  48.78600 16.59300 26.47600
C  48.62000 16.19700 25.03400
C  47.30700 15.34300 24.99000
C  46.89100 15.42100 26.46900
C  48.62000 17.27600 23.88600
C  47.40600 13.84400 24.47600
C  47.11800 13.71700 22.91200
N  45.91800 15.55900 29.24600
C  45.11300 15.15200 28.22600
C  43.85300 14.59200 28.78200
C  43.90300 14.86800 30.18500
C  45.18000 15.46200 30.31700
C  42.72400 13.96400 27.97800
C  43.20600 14.77100 31.45800
O  42.13000 14.33200 31.81700
C  44.24800 15.25400 32.48300
C  43.68900 16.36400 33.36000
O  43.53300 17.55800 33.07900
O  43.27100 15.73800 34.57000
C  42.57400 16.68500 35.46600
H  50.47500 18.11800 32.55500
H  50.60400 17.38200 26.13600
H  45.02100 14.65000 26.12800
H  46.05800 17.17700 34.03200
H  49.04400 16.59200 34.15200
H  47.21300 18.79700 34.94700
H  48.32000 19.26200 33.60300
H  49.04000 18.76600 35.10400
H  47.20900 14.39700 34.20300
H  45.68500 15.08700 34.91300
H  48.59900 15.12400 35.92400
H  47.10800 14.50800 36.67000
H  53.11600 18.69500 31.53400
H  51.78900 19.73800 31.74200
H  53.03300 20.29200 30.76200
H  53.32600 20.78600 28.36100
H  54.43300 19.85500 27.20200
H  54.20500 19.35300 28.86100
H  49.44800 15.51300 24.84900
H  46.43600 15.72500 24.45900
H  48.52900 18.21300 24.43500
H  47.78600 17.15700 23.19500
H  49.54900 17.16200 23.32700
H  46.70900 13.29500 25.11000
H  48.38000 13.47300 24.79500
H  46.97500 14.66200 22.38800
H  46.23100 13.08700 22.83800
H  47.94800 13.23900 22.39200
H  42.70600 12.87600 28.03200
H  42.93300 14.30600 26.96400
H  41.72400 14.37300 28.12100
H  44.51800 14.32900 32.99200
H  41.69100 17.10600 34.98400
H  43.31400 17.40900 35.80600
H  42.31200 16.15600 36.38300

