158

Mg 17.58300 -0.97600 27.95400
C  16.83500 1.11600 30.69400
C  20.01700 -2.44400 29.93100
C  18.66100 -2.43900 25.24100
C  15.64100 1.26400 25.95600
N  18.35500 -0.65600 30.08900
C  17.76000 0.15200 31.03900
C  18.24500 -0.15600 32.43300
C  19.41400 -1.17300 32.12700
C  19.35800 -1.34500 30.59300
C  20.78000 -0.69000 32.61300
C  17.09100 -0.69300 33.41900
C  16.78500 0.00500 34.73400
H  18.02300 0.71400 35.34600
N  18.94500 -2.31900 27.66800
C  19.85000 -2.84400 28.56900
C  20.57900 -3.93000 27.90400
C  20.26000 -3.95100 26.56800
C  19.21700 -2.87600 26.45500
C  21.58400 -4.69600 28.68600
C  20.86800 -4.79100 25.44000
O  20.47100 -4.66800 24.30000
C  21.93000 -5.88300 25.77200
N  17.13600 -0.70500 25.89100
C  17.81100 -1.37700 24.97100
C  17.69500 -0.69700 23.56300
C  16.68900 0.47400 23.80000
C  16.39200 0.26100 25.30900
C  19.12100 -0.29300 22.94500
C  15.46500 0.45200 22.88000
C  14.30700 -0.51300 23.19200
N  16.42900 0.74200 28.20700
C  15.70700 1.55400 27.30600
C  14.98300 2.62600 27.99500
C  15.39000 2.40900 29.33200
C  16.26900 1.30300 29.42400
C  14.07900 3.71900 27.50100
C  15.19200 2.92600 30.66700
O  14.40700 3.78500 30.99000
C  16.15800 2.16800 31.62600
C  17.06300 3.06100 32.38600
O  18.25700 3.21700 32.21900
O  16.38600 3.76300 33.34500
C  17.19600 4.94300 33.77700
H  20.96200 -2.72200 30.40400
H  19.08500 -2.87500 24.33400
H  15.18800 2.13300 25.47600
H  18.53200 0.81500 32.83700
H  19.11200 -2.12700 32.56000
H  21.53000 -0.46700 31.85400
H  21.15100 -1.42600 33.32700
H  20.58200 0.17200 33.24900
H  17.19900 -1.75400 33.64600
H  16.15900 -0.66600 32.85500
H  16.45600 -0.74200 35.45600
H  15.92100 0.66900 34.71800
H  21.09100 -5.66600 28.76600
H  21.93900 -4.38600 29.66900
H  22.51600 -4.87500 28.15100
H  21.49300 -6.45000 26.59400
H  22.84500 -5.38600 26.09600
H  22.06300 -6.42000 24.83300
H  17.38400 -1.44300 22.83200
H  17.27400 1.38500 23.67500
H  19.26100 0.76700 22.73300
H  19.36000 -0.85500 22.04200
H  19.98700 -0.44500 23.58900
H  15.84200 0.08800 21.92400
H  15.08600 1.46900 22.77800
H  13.50600 0.08300 23.63000
H  14.54400 -1.20100 24.00300
H  14.07600 -1.14000 22.33100
H  13.46500 3.28400 26.71200
H  14.84800 4.39000 27.11900
H  13.51100 4.11400 28.34300
H  15.53600 1.59000 32.30900
H  16.60500 5.34700 34.59900
H  17.26700 5.74100 33.03800
H  18.15800 4.61300 34.17100
Mg 47.34800 25.31800 27.72400
C  48.11700 27.50600 30.34300
C  47.07200 22.78600 29.97200
C  46.77200 23.20400 25.13900
C  48.14200 27.89800 25.50900
N  47.66100 25.23900 29.89800
C  47.82700 26.21700 30.81400
C  47.65600 25.83700 32.27500
C  47.46400 24.29700 32.05800
C  47.43000 24.04100 30.58200
C  48.60000 23.47600 32.79500
C  46.57300 26.59500 33.01800
C  46.31000 25.99200 34.49500
H  45.85500 26.94300 35.57300
N  46.95900 23.28500 27.59700
C  46.92600 22.39100 28.59600
C  46.56800 21.10300 28.15300
C  46.37900 21.17400 26.68900
C  46.76900 22.62100 26.39100
C  46.22200 19.97300 29.11200
C  45.92900 20.03100 25.66400
O  45.72100 20.36500 24.51700
C  45.62200 18.54800 26.10100
N  47.61000 25.47300 25.65700
C  47.06400 24.51900 24.80600
C  47.20400 24.87100 23.35300
C  47.53600 26.42500 23.41200
C  47.73400 26.63400 24.95900
C  48.17900 24.07700 22.46800
C  46.43900 27.31900 22.71500
C  46.93800 28.54400 21.96700
N  48.10200 27.32400 27.83700
C  48.34200 28.25300 26.83500
C  48.77800 29.46900 27.42300
C  48.62300 29.25100 28.82900
C  48.28500 27.88900 29.01500
C  49.11700 30.79300 26.74400
C  48.69600 29.88700 30.16400
O  49.05700 31.02100 30.45600
C  48.39800 28.76300 31.14200
C  49.50100 28.67700 32.16800
O  50.60400 28.19700 32.13000
O  49.00000 29.15400 33.32200
C  49.86200 29.10100 34.51300
H  46.85500 22.15200 30.83500
H  46.54900 22.47600 24.35600
H  48.36700 28.76300 24.88100
H  48.66100 25.94400 32.68300
H  46.51600 23.98400 32.49500
H  49.08500 22.64900 32.27600
H  48.12700 23.12000 33.71000
H  49.45400 24.10500 33.04600
H  45.61200 26.51700 32.51000
H  46.84400 27.64300 33.14700
H  47.13800 25.39700 34.88100
H  45.48700 25.28100 34.41600
H  45.15700 19.84800 28.91600
H  46.41800 20.33200 30.12200
H  46.90700 19.15900 28.87400
H  44.66900 18.45100 26.62300
H  46.46000 18.23700 26.72500
H  45.60700 17.87000 25.24800
H  46.24600 24.66200 22.87600
H  48.46400 26.66600 22.89300
H  49.07400 24.52800 22.04100
H  47.64900 23.64000 21.62200
H  48.59500 23.24800 23.04200
H  45.68600 27.62100 23.44300
H  45.94700 26.70300 21.96100
H  46.53700 28.59300 20.95400
H  48.01700 28.67400 22.05200
H  46.57100 29.46600 22.41700
H  48.33800 31.51200 27.00000
H  49.37200 30.72000 25.68700
H  50.04500 31.05700 27.25200
H  47.51300 29.10400 31.67800
H  49.51200 29.75000 35.31600
H  50.87100 29.45300 34.29500
H  49.93300 28.06400 34.83900

