158

Mg 49.89000 44.22200 43.00500
C  46.55900 44.66200 41.85500
C  49.66700 40.88400 42.40800
C  53.21900 44.09600 43.30800
C  50.19800 47.84800 42.90400
N  48.31400 42.95800 42.13000
C  46.97200 43.28400 41.82400
C  46.17800 42.04400 41.36000
C  47.21000 40.85400 41.55200
C  48.45200 41.56000 42.19700
C  46.78800 39.59200 42.40200
C  45.84900 42.23400 39.82700
C  44.32500 42.33500 39.61100
H  44.01400 43.19700 38.37900
N  51.20300 42.71000 43.00700
C  50.95300 41.38700 42.73800
C  52.19800 40.59300 42.80700
C  53.24500 41.52600 43.07500
C  52.59800 42.83900 43.11700
C  52.33900 39.06300 42.49800
C  54.73200 41.12400 43.21000
O  55.01600 39.94900 43.25900
C  55.83700 42.15600 43.34100
N  51.44200 45.82600 42.99600
C  52.74200 45.44600 43.21600
C  53.67500 46.65500 43.42900
C  52.72500 47.83900 43.38700
C  51.38400 47.18200 42.98200
C  54.66100 46.57000 44.59600
C  53.15300 49.05700 42.51300
C  53.22600 50.34200 43.32500
N  48.66600 45.95300 42.58500
C  48.89500 47.28300 42.68400
C  47.71900 47.94600 42.39000
C  46.76200 46.99400 42.14500
C  47.38200 45.75600 42.23500
C  47.56000 49.45500 42.59300
C  45.34500 46.81800 41.76400
O  44.37900 47.57200 41.70500
C  45.18600 45.23200 41.60300
C  44.13800 44.73300 42.56100
O  44.33500 44.34000 43.71800
O  42.92800 45.12200 42.09000
C  41.86000 44.84200 43.01300
H  49.71400 39.84200 42.08400
H  54.29300 44.10400 43.50500
H  50.12900 48.89500 42.60100
H  45.32400 41.87900 42.01600
H  47.57400 40.51600 40.58200
H  45.70600 39.60000 42.53300
H  47.22500 39.59900 43.40100
H  47.14200 38.73100 41.83600
H  46.17300 41.37600 39.23700
H  46.30700 43.14900 39.45300
H  43.88600 42.72700 40.52800
H  43.90300 41.33100 39.55100
H  53.31500 38.68600 42.19100
H  51.61800 38.91300 41.69500
H  51.93500 38.55200 43.37200
H  55.64100 42.75800 42.45400
H  56.82900 41.71000 43.42200
H  55.59300 42.63000 44.29200
H  54.28200 46.67600 42.52400
H  52.52500 48.23500 44.38300
H  54.83000 45.53200 44.88100
H  54.44600 47.17300 45.47800
H  55.57400 46.93100 44.12200
H  52.54500 49.16400 41.61400
H  54.17400 48.87300 42.18200
H  54.22600 50.72800 43.12600
H  53.12400 50.24400 44.40600
H  52.43600 51.04800 43.07100
H  48.13000 49.91400 43.40100
H  46.51400 49.69500 42.78200
H  47.97600 49.99100 41.73900
H  44.88800 45.00600 40.57900
H  41.84800 43.76000 43.14400
H  40.95800 45.12100 42.46700
H  41.93800 45.52200 43.86100
Mg 6.07600 54.17000 41.46700
C  5.28900 50.63600 41.09500
C  9.21100 53.32900 40.44200
C  6.61600 57.51500 41.12600
C  2.72300 54.72700 42.23300
N  7.05300 52.16700 40.71000
C  6.57000 50.89600 40.61000
C  7.64500 49.90100 40.22800
C  8.89200 50.75300 40.46700
C  8.33100 52.20600 40.54400
C  9.71400 50.48300 41.76500
C  7.66000 49.29100 38.75800
C  7.24800 50.24200 37.63100
H  5.76400 50.29500 37.18500
N  7.62900 55.30500 40.73500
C  8.88400 54.76500 40.47900
C  9.80300 55.80500 40.14900
C  9.10600 57.07400 40.43600
C  7.71000 56.71600 40.80600
C  11.23700 55.49000 39.83800
C  9.68700 58.50100 40.39000
O  10.90900 58.61800 40.24900
C  8.80600 59.73300 40.65200
N  4.82300 55.81400 41.66100
C  5.32100 57.08000 41.54000
C  4.23000 58.14000 41.86900
C  3.00700 57.25500 42.20000
C  3.51900 55.82000 42.03600
C  4.73300 59.11800 42.94900
C  1.71300 57.65400 41.38100
C  0.43900 57.89500 42.22200
N  4.32900 53.00800 41.87500
C  3.05800 53.36100 42.10100
C  2.17500 52.21600 42.19900
C  3.04700 51.13200 41.97400
C  4.33600 51.62900 41.64600
C  0.66900 52.16800 42.47400
C  3.11500 49.62700 41.85300
O  2.30600 48.75900 42.14200
C  4.53600 49.32900 41.34100
C  4.28000 48.68500 40.04600
O  3.74500 49.02200 39.03300
O  4.69800 47.34100 40.17400
C  4.85000 46.53400 38.94800
H  10.28300 53.15900 40.31700
H  6.59500 58.60100 41.01000
H  1.67100 54.96900 42.40100
H  7.62000 49.12800 40.99600
H  9.58200 50.66300 39.62800
H  9.68800 51.26800 42.52100
H  10.75300 50.35100 41.46500
H  9.46000 49.51500 42.19600
H  6.92500 48.48600 38.73600
H  8.64200 48.92900 38.45600
H  7.81800 49.92400 36.75800
H  7.56600 51.27900 37.73500
H  11.36000 54.46700 39.48100
H  11.91700 55.45700 40.69000
H  11.66400 56.14700 39.08100
H  8.05800 59.70200 39.85900
H  9.38200 60.65300 40.55500
H  8.28900 59.68100 41.61000
H  4.12500 58.71900 40.95100
H  2.74600 57.41700 43.24600
H  3.99700 59.30100 43.73300
H  4.83100 60.13500 42.56900
H  5.65100 58.70800 43.37000
H  1.48800 56.98500 40.55100
H  1.87000 58.62400 40.91000
H  0.39800 57.34000 43.15900
H  -0.40700 57.71400 41.55900
H  0.48800 58.93700 42.53700
H  0.07400 51.99300 41.57700
H  0.42500 53.12500 42.93500
H  0.35700 51.39900 43.18100
H  5.14000 48.70700 42.00100
H  5.77600 45.96100 38.97700
H  4.78000 47.20900 38.09500
H  4.05800 45.78800 39.01200

