158

Mg -1.88300 18.13800 27.09900
C  -2.21500 16.04400 29.64300
C  -2.62000 20.85000 29.12100
C  -2.19600 20.17300 24.38100
C  -1.50300 15.38500 24.76200
N  -2.37100 18.40100 29.23100
C  -2.25300 17.35600 30.09800
C  -2.32200 17.89700 31.56200
C  -2.79800 19.45700 31.29100
C  -2.69800 19.59500 29.75500
C  -4.17600 19.67100 31.87500
C  -1.01600 17.84300 32.39000
C  -1.20100 17.27800 33.76700
H  -0.09800 17.39400 34.76700
N  -2.18000 20.25800 26.82600
C  -2.43600 21.20200 27.79500
C  -2.27900 22.54600 27.19500
C  -2.17900 22.33000 25.78100
C  -2.19000 20.85500 25.59700
C  -2.53500 23.82900 28.04900
C  -1.95600 23.27800 24.68400
O  -1.78500 22.93900 23.51800
C  -2.14300 24.72100 24.97700
N  -1.93900 17.79800 24.91100
C  -2.09100 18.84000 24.10300
C  -1.93100 18.30300 22.64600
C  -1.40900 16.83800 22.71200
C  -1.60600 16.64900 24.18500
C  -3.32100 18.45200 21.88000
C  0.12900 16.56600 22.23700
C  1.21600 17.28400 23.06900
N  -1.84300 16.11800 27.10300
C  -1.70900 15.09200 26.16300
C  -1.85000 13.82900 26.81500
C  -2.05700 14.14900 28.17900
C  -2.01000 15.52800 28.33800
C  -1.95100 12.50300 26.21300
C  -2.28100 13.59100 29.47200
O  -2.36000 12.44800 29.74900
C  -2.32000 14.74400 30.50000
C  -1.27300 14.62400 31.54900
O  -0.10900 15.02300 31.39700
O  -1.74500 13.92200 32.56300
C  -0.85400 13.62000 33.68900
H  -2.66100 21.67600 29.83400
H  -2.23200 20.72500 23.44000
H  -1.51800 14.50500 24.11700
H  -3.06000 17.42300 32.21000
H  -2.15100 20.11100 31.87500
H  -4.10500 20.16700 32.84200
H  -4.74400 18.74400 31.95900
H  -4.67600 20.27500 31.11800
H  -0.56900 18.82500 32.54500
H  -0.30700 17.23700 31.82600
H  -1.38100 16.22000 33.57500
H  -2.11500 17.67000 34.21300
H  -2.63200 24.79200 27.54800
H  -1.67300 23.80700 28.71600
H  -3.41400 23.80500 28.69300
H  -1.90400 25.39400 24.15400
H  -1.36900 24.99700 25.69400
H  -3.16300 24.90100 25.31500
H  -1.15000 18.98300 22.30600
H  -2.02600 16.11400 22.18100
H  -4.15300 18.43400 22.58400
H  -3.19500 17.62900 21.17700
H  -3.28400 19.39200 21.32900
H  0.21400 16.84400 21.18600
H  0.39900 15.51100 22.20300
H  1.81600 17.91700 22.41600
H  1.95300 16.63300 23.54000
H  0.80000 17.81900 23.92200
H  -1.52400 12.52700 25.21000
H  -3.02500 12.32500 26.16700
H  -1.52600 11.71200 26.83100
H  -3.28800 14.67500 30.99600
H  0.00900 14.26300 33.86100
H  -0.51000 12.60400 33.49400
H  -1.52400 13.60400 34.54900
Mg 47.57400 25.13500 28.14600
C  48.62700 27.38100 30.69200
C  47.12400 22.74900 30.51700
C  46.96800 22.96300 25.63900
C  48.60700 27.49900 25.76300
N  47.92900 25.08500 30.32700
C  48.20800 26.10800 31.14100
C  47.81300 25.79400 32.56600
C  47.42300 24.25800 32.53800
C  47.46700 23.99600 31.03200
C  48.41600 23.23500 33.24200
C  46.84800 26.85700 33.32100
C  46.29300 26.39300 34.64600
H  46.12100 27.34000 35.78700
N  47.04900 23.18400 28.09900
C  46.90300 22.39500 29.19400
C  46.42500 21.15400 28.77600
C  46.37900 21.14100 27.31000
C  46.82300 22.48100 26.94400
C  45.98900 19.98900 29.73600
C  45.89300 20.04800 26.36700
O  45.97100 20.26400 25.14000
C  45.46800 18.70200 26.81400
N  47.76100 25.20200 26.03600
C  47.48700 24.17200 25.23600
C  47.68300 24.48500 23.78300
C  47.92400 25.99400 23.83000
C  48.13400 26.23700 25.32700
C  48.81900 23.71500 23.06300
C  46.69800 26.81900 23.37200
C  46.88600 28.08800 22.44600
N  48.57300 26.97000 28.17100
C  48.89200 27.79600 27.09000
C  49.45200 29.04700 27.60000
C  49.29000 28.92100 29.01900
C  48.78300 27.63700 29.31700
C  50.09500 30.21200 26.89800
C  49.35100 29.63700 30.25900
O  49.72800 30.77400 30.52400
C  48.85800 28.65800 31.40500
C  49.94000 28.74900 32.43900
O  51.17000 28.51800 32.30400
O  49.37100 29.19400 33.57000
C  50.10600 29.19500 34.86600
H  46.86300 22.14300 31.38700
H  47.02900 22.29300 24.77900
H  48.99900 28.05000 24.90600
H  48.77900 25.81100 33.07200
H  46.46500 24.27000 33.05800
H  49.03000 22.65900 32.54900
H  47.69700 22.73800 33.89300
H  49.10100 23.77400 33.89700
H  46.13000 27.20400 32.57800
H  47.45400 27.70900 33.62700
H  47.00100 25.63700 34.98400
H  45.36500 25.83400 34.52100
H  45.13900 19.48700 29.27400
H  45.69200 20.53200 30.63300
H  46.83800 19.32900 29.90800
H  44.55000 18.87700 27.37400
H  46.32500 18.42900 27.43100
H  45.39300 18.09100 25.91500
H  46.80900 24.31200 23.15500
H  48.85000 26.27800 23.32900
H  48.43300 23.53000 22.06100
H  49.12700 22.85000 23.65100
H  49.76800 24.24400 22.97900
H  46.09200 27.14200 24.21800
H  46.05600 26.13900 22.81300
H  46.55600 27.85600 21.43300
H  47.89800 28.48000 22.34800
H  46.33100 28.94100 22.83500
H  50.59300 29.83300 26.00600
H  50.86200 30.64000 27.54300
H  49.38300 30.99300 26.63600
H  47.92300 28.96900 31.87100
H  49.66700 28.45200 35.53300
H  50.00300 30.18100 35.31900
H  51.15400 28.95000 34.69200

