158

Mg 35.18000 2.95600 30.80200
C  32.85300 4.24100 33.30400
C  37.65000 3.36200 33.38000
C  37.52600 2.15200 28.46400
C  32.75100 3.08300 28.51900
N  35.28400 3.76700 33.07400
C  34.14600 3.97300 33.88100
C  34.54500 4.09700 35.38800
C  36.11500 4.12300 35.33800
C  36.38500 3.71700 33.87700
C  36.83100 5.47300 35.82200
C  33.87600 2.93300 36.22900
C  32.99700 3.38600 37.43200
H  33.36100 4.74300 38.05700
N  37.31900 2.76700 30.89700
C  38.08300 2.97400 31.99900
C  39.43200 2.55500 31.67800
C  39.49600 2.23700 30.27400
C  38.08400 2.36200 29.76100
C  40.53400 2.54300 32.71400
C  40.65200 1.69800 29.37400
O  40.63300 1.64700 28.13200
C  41.87700 1.20100 30.06200
N  35.18100 2.79900 28.77700
C  36.23700 2.41500 27.97300
C  35.77000 2.20600 26.52200
C  34.30800 2.57600 26.52300
C  34.01500 2.70100 28.09300
C  36.59400 2.96100 25.40700
C  33.52500 1.41800 25.76300
C  32.18500 1.88000 25.06400
N  33.11300 3.52600 30.87000
C  32.33700 3.59400 29.78600
C  31.03900 4.02000 30.24000
C  31.20000 4.27200 31.63400
C  32.56800 4.03000 31.93200
C  29.74500 4.20600 29.49100
C  30.52500 4.74200 32.78900
O  29.36600 5.07700 32.96100
C  31.56100 4.62700 33.94700
C  31.57500 5.92300 34.79200
O  32.24900 6.94200 34.54500
O  30.63000 5.83700 35.78800
C  30.39100 7.08700 36.60100
H  38.36500 3.20200 34.18900
H  38.21600 1.88400 27.66200
H  32.16100 3.32200 27.63200
H  34.18400 5.08200 35.68400
H  36.54900 3.45200 36.07900
H  37.20300 5.42400 36.84500
H  36.07700 6.25900 35.87100
H  37.52700 5.79000 35.04600
H  34.70700 2.31300 36.56500
H  33.36500 2.22000 35.58200
H  33.28100 2.67100 38.20400
H  31.93500 3.36500 37.18400
H  40.91600 1.52700 32.81300
H  40.17100 2.94200 33.66100
H  41.35700 3.19800 32.43000
H  42.67000 0.96300 29.35300
H  41.50100 0.39800 30.69500
H  42.36800 1.87500 30.76400
H  35.93900 1.14700 26.32600
H  34.19300 3.58300 26.12200
H  36.39100 4.02300 25.27100
H  36.49200 2.45500 24.44600
H  37.65500 2.84100 25.62600
H  33.36400 0.64500 26.51400
H  34.19000 1.13600 24.94700
H  32.14600 1.52400 24.03500
H  31.96400 2.94400 24.97200
H  31.47400 1.36400 25.70900
H  29.97400 3.88700 28.47400
H  29.54700 5.27800 29.50900
H  28.98100 3.64900 30.03200
H  31.39300 3.80400 34.64200
H  31.14500 7.30900 37.35700
H  29.41200 6.95700 37.06200
H  30.17000 7.96300 35.99100
Mg -6.66000 24.82500 26.40600
C  -5.47400 26.36700 29.33900
C  -8.38800 22.58600 28.26800
C  -7.62700 23.19200 23.63100
C  -4.29000 26.73400 24.61400
N  -6.69100 24.45000 28.58100
C  -6.38700 25.37100 29.59200
C  -7.11500 24.90500 30.86000
C  -7.70000 23.51500 30.53900
C  -7.59400 23.54100 29.01700
C  -6.84300 22.33000 31.02400
C  -8.23800 25.78300 31.49100
C  -8.71400 25.38500 32.96100
H  -7.83700 24.44600 33.81200
N  -7.88000 23.13700 25.99600
C  -8.50500 22.38300 26.89700
C  -9.17600 21.33200 26.28600
C  -9.10300 21.55900 24.86300
C  -8.19300 22.70300 24.77000
C  -9.92400 20.29100 27.04900
C  -9.76300 20.73900 23.69600
O  -9.51700 20.97400 22.54000
C  -10.86500 19.72500 24.01500
N  -6.07300 24.98400 24.46800
C  -6.63000 24.16400 23.47200
C  -5.90900 24.44200 22.14700
C  -4.86900 25.54000 22.41400
C  -5.08500 25.78200 23.90700
C  -5.54500 23.25600 21.19100
C  -4.94200 26.74100 21.49400
C  -5.96200 27.86600 21.85000
N  -5.24600 26.43900 26.84300
C  -4.31000 27.04400 25.98300
C  -3.58800 28.00700 26.76300
C  -4.06800 27.84700 28.14400
C  -4.96100 26.79400 28.10000
C  -2.60200 29.00500 26.19500
C  -3.99600 28.29400 29.52200
O  -3.26900 29.17000 29.98300
C  -4.82600 27.30400 30.34500
C  -3.99500 26.77100 31.44600
O  -3.28600 25.77900 31.40500
O  -3.80800 27.56600 32.59000
C  -2.82600 27.11900 33.57500
H  -8.93100 21.94800 28.96900
H  -7.85500 22.72000 22.67300
H  -3.66300 27.44000 24.06500
H  -6.34400 24.78700 31.62100
H  -8.74600 23.42400 30.83200
H  -6.43300 21.81600 30.15500
H  -7.45700 21.59600 31.54600
H  -6.06000 22.47400 31.76800
H  -9.14600 25.65200 30.90200
H  -7.99400 26.83500 31.34400
H  -9.62600 24.80200 32.83100
H  -8.84000 26.34600 33.46000
H  -10.05600 19.34800 26.51800
H  -10.89000 20.72000 27.31300
H  -9.46900 19.90900 27.96400
H  -11.32700 19.41500 23.07800
H  -11.59300 20.20700 24.66700
H  -10.40100 18.84900 24.46900
H  -6.66200 24.97400 21.56600
H  -3.88400 25.07200 22.39900
H  -4.49300 23.37800 20.93100
H  -6.19400 23.11800 20.32600
H  -5.63700 22.32700 21.75400
H  -5.07000 26.37500 20.47600
H  -3.95300 27.15900 21.68100
H  -6.82500 27.42700 22.35100
H  -6.32000 28.32700 20.92900
H  -5.38000 28.56300 22.45300
H  -1.59100 28.60300 26.25300
H  -2.61600 29.93200 26.76900
H  -2.93400 29.27000 25.19100
H  -5.58300 27.72100 31.01000
H  -1.84600 27.12500 33.09800
H  -3.13300 26.22900 34.12500
H  -2.70500 27.93600 34.28600

