158

Mg 47.02800 16.55500 28.92100
C  44.94100 15.84300 31.75300
C  49.19700 18.21700 31.03100
C  48.60700 17.61500 26.23900
C  44.57200 15.12900 26.90500
N  47.00700 16.92300 31.16000
C  46.10700 16.48500 32.10100
C  46.58700 16.88600 33.52900
C  47.80700 17.79300 33.21400
C  48.05700 17.63600 31.71400
C  47.67400 19.25900 33.48700
C  46.92200 15.63700 34.28700
C  47.60800 15.87500 35.63000
H  47.34600 17.06100 36.47300
N  48.66200 17.69500 28.62500
C  49.49100 18.17900 29.62200
C  50.63900 18.81000 29.04100
C  50.42300 18.78600 27.64600
C  49.22200 17.99900 27.43100
C  51.84400 19.31000 29.81200
C  51.31300 19.32000 26.56600
O  50.99600 19.25200 25.36500
C  52.61900 19.99300 26.87400
N  46.78100 16.26800 26.86100
C  47.56000 16.82900 25.90900
C  47.16200 16.38500 24.48000
C  45.82100 15.60500 24.75400
C  45.70100 15.58700 26.28400
C  47.04600 17.63800 23.53000
C  45.64700 14.18400 24.05000
C  45.88200 12.88600 24.84200
N  45.17400 15.61500 29.24000
C  44.30400 15.08000 28.27600
C  43.18200 14.55100 28.95200
C  43.35100 14.83800 30.35400
C  44.61200 15.47400 30.45700
C  41.92400 14.08200 28.29700
C  42.72500 14.86300 31.61200
O  41.64500 14.56400 32.02700
C  43.79700 15.38800 32.56600
C  43.22800 16.61400 33.31300
O  42.89600 17.64400 32.76700
O  43.01600 16.43000 34.64700
C  42.58600 17.60400 35.35700
H  49.87000 18.72700 31.72300
H  49.20300 17.82200 25.34700
H  43.93100 14.57100 26.22000
H  45.82800 17.49300 34.02300
H  48.65200 17.45500 33.81400
H  48.20500 19.47300 34.41500
H  46.64200 19.55700 33.67600
H  48.16000 19.82500 32.69300
H  47.58800 14.97700 33.73000
H  45.96500 15.15200 34.47900
H  48.68900 15.75200 35.56000
H  47.20900 15.15200 36.34100
H  52.05300 20.32000 29.46200
H  52.69100 18.69900 29.50100
H  51.69900 19.36800 30.89100
H  53.09900 20.25800 25.93200
H  53.29200 19.29400 27.37100
H  52.43100 20.94800 27.36400
H  47.92700 15.76300 24.01600
H  44.95800 16.21300 24.48400
H  47.71700 17.56400 22.67500
H  47.38300 18.52100 24.07300
H  46.02900 17.75900 23.15700
H  46.30600 14.02300 23.19600
H  44.61800 14.30000 23.71000
H  46.10000 13.13200 25.88100
H  46.74200 12.29800 24.51900
H  45.04900 12.18700 24.76400
H  41.69800 14.54100 27.33500
H  41.15000 14.34900 29.01700
H  41.92800 12.99400 28.21900
H  44.04000 14.60100 33.28000
H  41.67600 17.94100 34.86100
H  43.32400 18.40500 35.38400
H  42.44700 17.29300 36.39200
Mg 49.32700 46.58700 43.42700
C  45.96900 47.22600 42.35600
C  49.14800 43.51200 42.24000
C  52.66400 46.42600 43.74900
C  49.41900 50.00300 44.42500
N  47.71600 45.51400 42.40100
C  46.38900 45.91600 42.05200
C  45.64900 44.73300 41.54300
C  46.65100 43.47400 41.58400
C  47.93300 44.19800 42.11600
C  46.32500 42.20000 42.27800
C  44.96000 45.00700 40.17700
C  45.79400 45.65000 39.00000
H  45.92400 44.89800 37.62700
N  50.79400 45.11700 43.05300
C  50.45500 43.86400 42.59200
C  51.63700 43.07600 42.68800
C  52.68100 43.86500 43.16800
C  52.08900 45.21900 43.33200
C  51.69000 41.61000 42.21100
C  54.10400 43.39200 43.41000
O  54.42800 42.27500 43.18800
C  55.14000 44.24600 44.07000
N  50.83200 48.03300 43.91200
C  52.13100 47.71900 44.07900
C  52.97400 48.95000 44.31900
C  51.90900 50.08500 44.54300
C  50.68200 49.34100 44.34500
C  53.87600 48.65500 45.51300
C  52.01700 51.22400 43.48600
C  51.74300 52.67200 44.00900
N  48.03500 48.26500 43.39300
C  48.15000 49.60000 43.87800
C  46.90300 50.34700 43.86800
C  46.07100 49.41800 43.19300
C  46.75600 48.21100 42.96000
C  46.72900 51.77900 44.26500
C  44.75100 49.32900 42.63000
O  43.83600 50.16400 42.48400
C  44.57500 47.84700 42.21000
C  43.54000 47.10600 43.08800
O  43.53900 46.95700 44.30000
O  42.44500 46.58200 42.38400
C  41.71300 45.43500 43.01000
H  49.06900 42.43800 42.06400
H  53.74900 46.34100 43.83800
H  49.28500 51.02900 44.77500
H  44.87100 44.62300 42.29800
H  46.94200 43.19600 40.57100
H  46.31700 41.42300 41.51400
H  45.37000 42.35700 42.77900
H  47.07800 41.88900 43.00300
H  44.05200 45.58400 40.35200
H  44.54700 44.12400 39.69000
H  46.81800 45.73300 39.36500
H  45.31700 46.59700 38.74900
H  52.25500 41.50800 41.28500
H  50.73200 41.26900 41.81800
H  52.01900 40.91500 42.98300
H  54.66700 44.67200 44.95500
H  55.52600 45.00600 43.39100
H  55.97400 43.58600 44.30700
H  53.64500 49.10400 43.47400
H  51.96900 50.48900 45.55400
H  54.87000 49.04600 45.29400
H  54.18000 47.63300 45.73900
H  53.51200 49.17100 46.40100
H  51.25300 51.04500 42.72900
H  52.96300 51.05900 42.97000
H  51.09200 53.14000 43.27100
H  52.62500 53.31000 43.95100
H  51.42400 52.74300 45.04900
H  45.68600 52.09200 44.21100
H  47.30000 52.33000 43.51700
H  46.83400 52.07400 45.30900
H  44.13200 47.77700 41.21700
H  42.22700 45.01600 43.87500
H  41.47300 44.71100 42.23200
H  40.72800 45.73200 43.37100

