158

Mg 36.54200 49.98100 24.20300
C  36.73900 48.24100 27.35200
C  34.87000 52.56100 26.06000
C  36.01700 51.47200 21.41000
C  37.55600 47.18000 22.67500
N  35.85600 50.31700 26.52900
C  36.18500 49.50100 27.55100
C  35.80600 50.19900 28.85800
C  35.18400 51.57200 28.41100
C  35.31600 51.50600 26.87700
C  33.64800 51.70800 28.76000
C  36.97600 50.26500 29.88400
C  36.68600 49.84700 31.34400
H  35.29500 49.51000 31.70700
N  35.55400 51.75800 23.78200
C  35.01100 52.66700 24.65800
C  34.62300 53.83300 23.83400
C  34.85600 53.46800 22.45400
C  35.45600 52.15700 22.49500
C  34.02400 55.06100 24.50700
C  34.37500 54.07600 21.11600
O  34.48700 53.58800 19.98200
C  33.59800 55.40600 21.18500
N  36.62000 49.33800 22.24500
C  36.56100 50.23200 21.23400
C  36.92000 49.55100 19.91700
C  37.44600 48.13500 20.31500
C  37.24500 48.21000 21.79300
C  35.77900 49.63100 18.86900
C  38.94100 47.93200 19.86300
C  39.99700 48.56900 20.77800
N  37.27400 48.24000 24.77200
C  37.62200 47.08000 24.06600
C  37.87200 45.93900 24.92200
C  37.63600 46.40400 26.20300
C  37.17500 47.76500 26.08100
C  38.28900 44.56400 24.50400
C  37.63800 45.94500 27.65300
O  37.98800 44.85300 28.07800
C  37.09100 47.22000 28.38500
C  35.94900 46.65100 29.11700
O  34.83100 46.50300 28.72700
O  36.43600 46.14800 30.32800
C  35.58100 45.14500 31.02100
H  34.59600 53.38100 26.72600
H  35.98700 51.99600 20.45200
H  38.01000 46.30200 22.20900
H  34.89900 49.70600 29.20700
H  35.80400 52.39800 28.76200
H  33.07500 51.66100 27.83400
H  33.49000 52.69800 29.18500
H  33.27900 50.99200 29.49400
H  37.56600 51.18100 29.84500
H  37.79200 49.62500 29.54600
H  37.01700 50.68500 31.95800
H  37.32200 49.00500 31.62100
H  33.06400 55.27200 24.03600
H  34.63800 55.87600 24.12200
H  34.08900 55.21300 25.58400
H  33.49100 55.81400 20.18000
H  34.15700 56.13300 21.77400
H  32.62400 55.16900 21.61300
H  37.66800 50.20700 19.47200
H  36.84300 47.36500 19.83500
H  34.89800 50.03500 19.36800
H  35.52300 48.60800 18.59200
H  36.09500 50.33400 18.09800
H  38.97500 48.41600 18.88700
H  39.14400 46.86800 19.73900
H  40.99700 48.63000 20.35000
H  39.96700 47.99000 21.70100
H  39.82800 49.62400 20.99500
H  37.88800 43.88200 25.25400
H  39.37600 44.49000 24.47700
H  37.96100 44.44900 23.47100
H  37.84200 47.57500 29.09100
H  35.26800 45.67500 31.92000
H  36.09200 44.21000 31.25500
H  34.72600 44.91500 30.38600
Mg -1.62900 33.49300 26.85600
C  -3.10200 31.92600 29.59500
C  -0.32300 35.88300 29.21500
C  -0.50300 35.32000 24.25600
C  -3.22700 31.26600 24.74800
N  -1.59800 33.76300 29.18500
C  -2.33000 32.97000 30.01600
C  -2.19600 33.43700 31.44300
C  -1.45200 34.82800 31.21400
C  -1.05000 34.82900 29.75800
C  -2.14600 36.09900 31.74500
C  -1.36400 32.42900 32.36500
C  -2.03300 32.03800 33.65200
H  -1.09900 31.93300 34.91300
N  -0.55900 35.24400 26.74300
C  -0.12900 36.05900 27.79500
C  0.56600 37.17500 27.26700
C  0.51100 37.10000 25.85400
C  -0.19200 35.84100 25.53400
C  1.34100 38.21400 28.19200
C  1.03900 38.05500 24.80200
O  0.93800 37.93900 23.52900
C  1.62900 39.45100 25.21400
N  -2.00200 33.46400 24.75100
C  -1.25600 34.21300 23.89800
C  -1.37500 33.58100 22.43600
C  -2.40200 32.51400 22.67600
C  -2.52200 32.33100 24.14500
C  -1.79300 34.56700 21.29600
C  -2.14800 31.17300 21.93500
C  -0.95400 30.40900 22.48400
N  -2.93600 31.93500 27.08200
C  -3.47500 31.07500 26.11400
C  -4.24000 30.08900 26.76100
C  -4.15200 30.40700 28.11200
C  -3.32000 31.51600 28.21400
C  -4.97200 29.02400 25.99200
C  -4.58500 29.99000 29.44600
O  -5.31000 29.07900 29.86400
C  -4.01200 30.98800 30.46800
C  -5.04600 31.69400 31.28100
O  -5.60700 32.73700 30.87300
O  -5.26600 31.12500 32.46800
C  -6.36500 31.68400 33.30200
H  0.09500 36.44800 30.05200
H  -0.07800 35.83900 23.39500
H  -3.68300 30.44900 24.18400
H  -3.16200 33.64000 31.90600
H  -0.48000 34.81700 31.70700
H  -1.36100 36.72500 32.16900
H  -2.71300 35.82000 32.63400
H  -2.73000 36.60400 30.97600
H  -0.46100 32.94300 32.69300
H  -1.20600 31.50700 31.80600
H  -2.41200 31.01800 33.59400
H  -2.93600 32.64300 33.73400
H  2.37700 38.36300 27.88700
H  1.28400 37.88200 29.22900
H  0.82300 39.17300 28.20500
H  2.65600 39.33400 25.56300
H  1.08700 39.86700 26.06400
H  1.49700 40.08100 24.33500
H  -0.46800 33.04200 22.16200
H  -3.40600 32.79600 22.35800
H  -0.94800 34.53600 20.60900
H  -1.99700 35.54100 21.74000
H  -2.62700 34.28500 20.65300
H  -1.94100 31.45100 20.90200
H  -3.07300 30.59900 21.98700
H  -0.07600 30.47600 21.84100
H  -1.24400 29.35900 22.47000
H  -0.60900 30.62000 23.49600
H  -4.62300 28.69100 25.01500
H  -5.98800 29.41000 25.91100
H  -5.00300 28.24500 26.75400
H  -3.30400 30.44200 31.09100
H  -6.03200 32.61600 33.75900
H  -6.75300 30.90000 33.95100
H  -7.15100 31.91200 32.58300

