158

Mg 16.22900 -1.66700 27.78100
C  15.20700 0.54400 30.23000
C  18.18000 -3.34400 29.98500
C  17.73200 -3.13700 25.13000
C  14.43700 0.30900 25.38900
N  16.76700 -1.30300 29.81300
C  16.12400 -0.42700 30.70100
C  16.59600 -0.62800 32.13900
C  17.51700 -1.89600 32.10000
C  17.49400 -2.24000 30.55200
C  18.93300 -1.76200 32.57300
C  15.46700 -0.80800 33.25700
C  15.71000 -0.29400 34.65400
H  17.13700 0.28100 34.96000
N  17.66600 -2.98800 27.53100
C  18.27700 -3.68600 28.60000
C  19.21100 -4.64100 28.05500
C  19.07100 -4.62800 26.66200
C  18.14400 -3.54800 26.38000
C  20.04800 -5.49700 28.97300
C  19.77300 -5.43000 25.62400
O  19.56500 -5.32800 24.40600
C  20.84800 -6.42300 26.02300
N  16.13400 -1.42000 25.51500
C  16.85600 -2.16900 24.65100
C  16.51600 -1.88600 23.12100
C  15.36900 -0.78000 23.40000
C  15.21200 -0.71900 24.87000
C  17.66700 -1.27900 22.30400
C  13.96000 -1.00200 22.65100
C  13.52300 -0.07300 21.52200
N  14.95000 -0.03800 27.75100
C  14.23900 0.54400 26.77500
C  13.34400 1.49300 27.31900
C  13.63100 1.50000 28.64600
C  14.66200 0.63500 28.89900
C  12.39300 2.45400 26.55400
C  13.28600 2.21300 29.84700
O  12.47300 3.10600 30.06800
C  14.26200 1.55300 30.97000
C  14.97800 2.65200 31.61600
O  15.71300 3.44300 31.10000
O  14.48300 2.85700 32.90000
C  14.79100 4.14600 33.47900
H  18.53600 -3.98600 30.79400
H  18.16700 -3.62900 24.25800
H  13.77400 0.77000 24.65400
H  17.24100 0.22900 32.33400
H  17.16900 -2.75600 32.67400
H  19.50000 -1.07700 31.94400
H  19.43800 -2.71700 32.71900
H  18.68100 -1.40700 33.57200
H  15.22100 -1.86900 33.30200
H  14.57600 -0.27600 32.92500
H  15.49500 -1.02800 35.43100
H  14.98200 0.51700 34.68600
H  19.60500 -5.52400 29.96800
H  21.04900 -5.06900 29.02200
H  20.06000 -6.51700 28.58900
H  20.51100 -7.23900 26.66200
H  21.65300 -5.89200 26.53100
H  21.18600 -6.81700 25.06400
H  15.98800 -2.65800 22.56200
H  15.71700 0.19300 23.05300
H  18.56300 -1.42000 22.90900
H  17.63400 -0.21000 22.09200
H  17.82100 -1.79600 21.35800
H  13.20600 -1.02100 23.43800
H  14.00100 -2.00200 22.21800
H  14.31100 0.67800 21.45100
H  12.60500 0.45900 21.77100
H  13.34100 -0.65700 20.62000
H  11.58200 1.84500 26.15400
H  12.96100 2.94000 25.76200
H  11.98200 3.24500 27.18200
H  13.58700 1.08900 31.68800
H  14.31300 4.95500 32.92600
H  15.86800 4.27300 33.37600
H  14.43700 4.22800 34.50700
Mg 24.44300 1.91600 29.51700
C  26.68700 1.77100 32.32900
C  21.87600 1.90300 31.74400
C  22.42800 1.87400 26.91700
C  27.22000 1.34300 27.37000
N  24.26600 1.79300 31.86200
C  25.32800 1.83100 32.79300
C  24.78600 1.90300 34.21000
C  23.21800 1.94800 33.99300
C  23.10000 1.91300 32.46300
C  22.44200 0.86700 34.68000
C  25.46600 3.12700 34.94300
C  24.74400 3.56200 36.25400
H  25.54100 3.67500 37.52600
N  22.51700 1.79400 29.30900
C  21.60600 1.95900 30.40500
C  20.26400 1.89900 29.87300
C  20.39500 2.01100 28.47400
C  21.82900 1.89000 28.17600
C  19.07400 1.90600 30.74900
C  19.22800 2.16000 27.36700
O  19.45800 2.26600 26.14900
C  17.79500 2.06300 27.76600
N  24.79700 1.65700 27.54900
C  23.79900 1.84000 26.64000
C  24.25400 1.93700 25.12000
C  25.81000 1.92100 25.36600
C  25.96800 1.58300 26.83300
C  23.67400 0.90400 24.17800
C  26.52800 3.28300 25.01500
C  25.98100 4.58000 25.64800
N  26.52500 1.64400 29.74400
C  27.51400 1.28800 28.78900
C  28.73600 1.08700 29.42800
C  28.43600 1.33700 30.80300
C  27.11300 1.69400 30.94800
C  30.06700 0.68600 28.82200
C  29.07100 1.32100 32.09100
O  30.24300 1.12900 32.38200
C  28.01400 1.78200 33.16900
C  28.06100 0.74700 34.28100
O  27.78700 -0.40900 34.10500
O  28.50800 1.27800 35.49100
C  28.64500 0.28800 36.57400
H  21.07400 2.07800 32.46500
H  21.70800 1.93300 26.09800
H  27.94600 1.35900 26.55500
H  25.16200 0.96400 34.61700
H  22.81100 2.91500 34.28600
H  21.88000 0.36300 33.89300
H  21.76900 1.33300 35.40000
H  23.05300 0.20300 35.29200
H  25.54400 4.00600 34.30400
H  26.50700 2.93400 35.20300
H  23.93400 2.87200 36.48700
H  24.32300 4.52100 35.95200
H  18.08700 2.02500 30.30100
H  19.22700 2.66600 31.51500
H  18.93900 0.96000 31.27300
H  17.19800 2.12000 26.85600
H  17.38300 2.88000 28.35800
H  17.67200 1.16600 28.37400
H  23.96100 2.93200 24.78600
H  26.32400 1.18400 24.74900
H  23.20700 0.12600 24.78200
H  24.52800 0.44300 23.68000
H  23.00700 1.32100 23.42300
H  26.57500 3.28500 23.92600
H  27.59500 3.21200 25.23100
H  26.92300 4.98600 26.01700
H  25.23200 4.40200 26.42000
H  25.60800 5.19600 24.83000
H  29.89100 0.22300 27.85100
H  30.55500 -0.07000 29.43700
H  30.60200 1.61900 28.64600
H  28.26200 2.78400 33.52000
H  27.96500 0.53800 37.38800
H  29.67300 0.12400 36.89900
H  28.45300 -0.74900 36.30000

