158

Mg 48.93500 35.15700 27.07800
C  47.07800 33.62300 29.76700
C  49.30300 37.85700 29.32000
C  50.40200 36.62200 24.73900
C  48.01900 32.52200 24.98700
N  48.24200 35.61800 29.21600
C  47.63100 34.84100 30.16300
C  47.66000 35.46900 31.53200
C  47.91700 36.96300 31.18000
C  48.49000 36.84600 29.76200
C  46.66900 37.87800 31.17000
C  48.85900 34.84600 32.34500
C  48.65300 34.62000 33.84800
H  47.59300 35.38400 34.69400
N  49.87100 36.91400 27.03700
C  49.97800 37.88400 28.02000
C  50.94100 38.84300 27.56400
C  51.24700 38.54400 26.17300
C  50.46300 37.30600 25.92200
C  51.33600 40.00100 28.39800
C  52.08800 39.34500 25.19100
O  52.27100 39.08200 23.99900
C  52.79200 40.60800 25.71700
N  48.97000 34.70100 24.95100
C  49.82600 35.43400 24.26500
C  50.18700 34.75500 22.94300
C  49.45700 33.37500 23.05200
C  48.74600 33.55200 24.36500
C  49.92900 35.74400 21.77500
C  50.35100 32.11400 23.12000
C  51.48000 32.06400 22.09100
N  47.79000 33.36300 27.26200
C  47.54400 32.41500 26.32900
C  46.76100 31.41000 26.87500
C  46.51700 31.80200 28.26200
C  47.14700 33.07500 28.39800
C  46.06800 30.23800 26.13800
C  45.80700 31.50600 29.50600
O  45.13200 30.56800 29.92300
C  46.05400 32.73300 30.49700
C  46.53600 32.26200 31.80600
O  47.67400 31.91700 32.18400
O  45.50600 32.30400 32.66900
C  45.71400 31.90600 34.01200
H  49.38200 38.78000 29.89900
H  51.16700 36.99900 24.05600
H  47.79400 31.64300 24.38000
H  46.67900 35.30500 31.97600
H  48.68000 37.38700 31.83300
H  46.07000 37.79300 30.26400
H  47.03900 38.90400 31.16900
H  46.08800 37.64300 32.06200
H  49.74700 35.46500 32.21100
H  49.12400 33.88200 31.91200
H  49.65200 34.84800 34.22000
H  48.53700 33.54800 34.01000
H  52.32200 40.40400 28.16900
H  51.41600 39.67300 29.43500
H  50.58500 40.78900 28.45900
H  52.99300 41.15300 24.79500
H  53.65500 40.43000 26.35800
H  52.16100 41.28100 26.29800
H  51.27500 34.69700 22.89100
H  48.72900 33.17800 22.26500
H  48.84300 35.75800 21.87000
H  50.15500 35.34100 20.78700
H  50.34500 36.72900 21.98600
H  49.66200 31.27200 23.05800
H  50.84600 32.11400 24.09100
H  51.39800 31.12200 21.54900
H  52.43400 31.99500 22.61300
H  51.44400 32.94200 21.44600
H  45.25700 30.64900 25.53700
H  45.84300 29.39900 26.79600
H  46.89500 29.87000 25.53200
H  45.09800 33.23800 30.63800
H  44.78600 31.36800 34.20500
H  45.65900 32.85800 34.54100
H  46.61600 31.39300 34.34400
Mg -5.93100 25.77500 25.71700
C  -4.21200 26.88300 28.69100
C  -7.64200 23.54800 27.85800
C  -6.76400 23.80500 23.06000
C  -3.56100 27.53600 23.87500
N  -5.94500 25.38700 27.99700
C  -5.26900 26.00100 28.95400
C  -5.69700 25.53400 30.39700
C  -6.63400 24.33000 30.11900
C  -6.80200 24.43500 28.53100
C  -5.97000 23.01600 30.53700
C  -6.45000 26.67900 31.12600
C  -6.59800 26.68600 32.67800
H  -5.93500 25.47300 33.41400
N  -7.16100 23.99300 25.49300
C  -7.80900 23.27400 26.46700
C  -8.59200 22.24600 25.87200
C  -8.31200 22.21800 24.52200
C  -7.40500 23.35300 24.28200
C  -9.59200 21.32300 26.61000
C  -8.96700 21.38100 23.40800
O  -8.53100 21.44200 22.29500
C  -10.10900 20.39000 23.61400
N  -5.32000 25.72800 23.74500
C  -5.80800 24.82500 22.86100
C  -5.11000 24.98100 21.49500
C  -4.07400 26.13000 21.75800
C  -4.40200 26.60400 23.20300
C  -4.43700 23.59100 21.12400
C  -4.06600 27.26900 20.67800
C  -2.66100 27.60900 20.08400
N  -4.36300 27.15900 26.15700
C  -3.49100 27.80300 25.27000
C  -2.60100 28.66200 26.01100
C  -2.82200 28.32100 27.33900
C  -3.88600 27.36800 27.39100
C  -1.46900 29.50100 25.38200
C  -2.32600 28.50500 28.77100
O  -1.38000 29.20900 29.20600
C  -3.27000 27.61000 29.65800
C  -2.25300 26.73600 30.24200
O  -1.51600 25.99000 29.60600
O  -2.32000 26.81800 31.56700
C  -1.79500 25.78300 32.38100
H  -8.22200 22.82000 28.42900
H  -7.07400 23.25300 22.17000
H  -2.81800 28.03400 23.24700
H  -4.88100 25.30000 31.08100
H  -7.59200 24.39800 30.63300
H  -5.01400 23.20900 31.02400
H  -5.79000 22.43900 29.63000
H  -6.63400 22.44500 31.18600
H  -7.44500 26.84100 30.71200
H  -5.97400 27.63700 30.91500
H  -7.64900 26.75300 32.95900
H  -6.04600 27.58900 32.93700
H  -10.55500 21.76700 26.36000
H  -9.25700 21.34500 27.64800
H  -9.72500 20.29500 26.27400
H  -10.54000 20.10200 22.65500
H  -10.89400 20.82200 24.23500
H  -9.78700 19.50800 24.16800
H  -5.94900 25.31700 20.88600
H  -3.10200 25.64300 21.83600
H  -4.71900 23.30800 20.11000
H  -4.83500 22.80500 21.76600
H  -3.35000 23.63800 21.05700
H  -4.60700 28.09500 21.13900
H  -4.72400 26.95900 19.86600
H  -1.81400 27.09500 20.53800
H  -2.52900 28.68000 19.93100
H  -2.51500 27.20900 19.08100
H  -0.62900 29.62100 26.06600
H  -1.87900 30.45400 25.04900
H  -1.09500 28.91900 24.53900
H  -3.69100 28.19200 30.47800
H  -2.53000 24.99900 32.56200
H  -1.65000 26.33100 33.31200
H  -0.80500 25.37800 32.17000

