158

Mg 2.07500 -2.45500 44.23900
C  5.40000 -1.76600 43.55100
C  1.18700 0.20500 42.08000
C  -1.13000 -3.28300 44.43000
C  3.07300 -5.57700 45.66100
N  3.11900 -1.08500 42.83300
C  4.51000 -0.89000 42.87300
C  4.99600 0.31200 41.88800
C  3.61700 0.91100 41.44100
C  2.54400 -0.04700 42.11900
C  3.32100 2.40900 41.94000
C  5.93800 -0.07000 40.66900
C  7.13200 0.93800 40.48600
H  8.06600 0.72500 39.23700
N  0.24900 -1.56700 43.55600
C  0.12800 -0.46200 42.74200
C  -1.29600 -0.19600 42.54700
C  -2.02700 -1.13300 43.33100
C  -0.95000 -2.02700 43.82200
C  -1.85200 0.92300 41.66200
C  -3.60500 -1.15000 43.51300
O  -4.34600 -0.33100 42.96200
C  -4.28200 -2.13500 44.43200
N  1.08200 -4.23700 44.89100
C  -0.28500 -4.26700 44.92700
C  -0.76000 -5.65500 45.39400
C  0.52200 -6.21700 46.09600
C  1.66600 -5.34900 45.51500
C  -2.11800 -5.79300 46.20900
C  0.80400 -7.74500 45.87700
C  0.28300 -8.68100 47.05400
N  3.78300 -3.50600 44.58700
C  4.08600 -4.68400 45.25800
C  5.51600 -4.73800 45.44600
C  6.02400 -3.58400 44.84500
C  4.95300 -2.89900 44.33400
C  6.24000 -5.83900 46.14000
C  7.23500 -2.83300 44.69500
O  8.35000 -3.07300 45.17900
C  6.92600 -1.65700 43.78400
C  7.31400 -0.52300 44.61000
O  7.05100 -0.32600 45.76800
O  7.98300 0.39100 43.75200
C  8.18500 1.74300 44.25600
H  0.95700 1.14600 41.57600
H  -2.14400 -3.68700 44.40800
H  3.35600 -6.48100 46.20400
H  5.50400 1.01500 42.54800
H  3.49000 0.97900 40.36100
H  2.80800 2.95100 41.14600
H  4.25400 2.90800 42.20300
H  2.82700 2.37200 42.91100
H  5.37000 -0.19000 39.74700
H  6.35500 -1.05200 40.89400
H  7.82100 0.85300 41.32600
H  6.77900 1.96900 40.50000
H  -2.33000 0.53000 40.76500
H  -1.10700 1.62900 41.29400
H  -2.63000 1.55400 42.09100
H  -4.45800 -3.15100 44.08100
H  -5.21200 -1.71600 44.81800
H  -3.64100 -2.20800 45.31000
H  -0.85200 -6.21200 44.46100
H  0.65800 -6.03700 47.16300
H  -1.96200 -6.07000 47.25100
H  -2.76000 -6.54500 45.75000
H  -2.55300 -4.79500 46.14400
H  1.88300 -7.87300 45.78900
H  0.36300 -7.99800 44.91300
H  -0.39100 -8.16400 47.73600
H  1.09100 -9.03800 47.69300
H  -0.14600 -9.58500 46.62000
H  5.94800 -6.73500 45.59300
H  5.91200 -5.72200 47.17200
H  7.31200 -5.64100 46.11700
H  7.44700 -1.80600 42.83800
H  8.87300 1.69700 45.10100
H  7.18700 2.07200 44.54500
H  8.56000 2.52700 43.59800
Mg 49.21800 35.54600 27.72700
C  46.63600 34.19400 29.85400
C  49.42700 38.12500 29.96800
C  50.97400 37.20600 25.38400
C  48.21700 33.07100 25.35200
N  48.23700 35.95800 29.83700
C  47.28300 35.30500 30.49200
C  46.88100 36.06200 31.79100
C  47.60400 37.42300 31.62800
C  48.45000 37.20700 30.39000
C  46.67300 38.61100 31.56000
C  47.42000 35.38100 33.07400
C  48.64300 34.49900 33.11900
H  49.92800 35.20000 33.60400
N  50.24700 37.28800 27.72000
C  50.30200 38.15600 28.76600
C  51.22100 39.20900 28.42600
C  51.59200 39.03600 27.08400
C  50.94700 37.76400 26.63500
C  51.45200 40.44500 29.31000
C  52.26900 39.91200 26.04300
O  52.41400 39.68100 24.85700
C  52.62100 41.37000 26.47400
N  49.35600 35.26000 25.64200
C  50.25600 36.09500 24.90600
C  50.49500 35.52900 23.53600
C  49.79600 34.14200 23.54200
C  49.07100 34.12000 24.91400
C  49.93400 36.39000 22.45400
C  50.67300 32.89000 23.30100
C  50.61200 32.28400 21.86600
N  47.80500 33.94000 27.60000
C  47.57700 33.00900 26.57200
C  46.54400 32.09700 26.98500
C  46.15800 32.50900 28.27700
C  46.92700 33.63900 28.58600
C  46.02400 30.91600 26.18600
C  45.21400 32.20100 29.36600
O  44.42700 31.22400 29.47200
C  45.46600 33.36800 30.46500
C  46.04900 32.63600 31.56400
O  47.05800 31.82000 31.60500
O  45.17600 32.88100 32.58700
C  45.39900 32.14900 33.82400
H  49.63700 38.97800 30.61600
H  51.52100 37.65300 24.55100
H  47.89000 32.27200 24.68400
H  45.79500 36.11900 31.86000
H  48.28200 37.58100 32.46700
H  45.62700 38.30600 31.54900
H  46.90700 39.18000 30.66000
H  46.69200 39.23100 32.45600
H  46.66500 34.71700 33.49400
H  47.50400 36.22600 33.75800
H  48.93400 34.09900 32.14800
H  48.42600 33.67800 33.80300
H  52.50400 40.70200 29.43500
H  50.80000 40.45400 30.18400
H  51.00100 41.25700 28.74000
H  51.73300 42.00100 26.43700
H  53.38000 41.55300 25.71400
H  53.15000 41.42200 27.42500
H  51.57600 35.50500 23.40500
H  49.03400 34.10400 22.76400
H  50.69600 37.09200 22.11700
H  49.03400 36.91800 22.76700
H  49.65700 35.79400 21.58500
H  50.22400 32.20700 24.02200
H  51.71200 33.14500 23.50800
H  50.70400 31.22200 22.09700
H  51.47400 32.56800 21.26100
H  49.75700 32.59100 21.26400
H  45.28400 30.32600 26.72700
H  46.93800 30.34600 26.02200
H  45.59000 31.29900 25.26200
H  44.67400 34.10200 30.61600
H  45.64600 31.08900 33.77300
H  44.42100 32.13300 34.30400
H  46.19000 32.62900 34.40200

