158

Mg 25.38700 1.28400 29.86500
C  27.26200 1.40500 32.79200
C  22.56000 1.87200 31.91200
C  23.50900 1.17000 27.09700
C  28.19100 0.52200 27.86500
N  24.96000 1.46700 32.19600
C  25.92700 1.61900 33.13100
C  25.40500 1.88900 34.51000
C  23.78900 1.84600 34.20900
C  23.71100 1.75900 32.63900
C  22.93800 0.70500 34.73000
C  25.90500 3.20100 35.21900
C  26.84900 3.09000 36.45000
H  26.65800 4.06100 37.56900
N  23.34700 1.48600 29.55600
C  22.39000 1.67700 30.54500
C  21.13300 1.60400 29.89800
C  21.35000 1.45300 28.48000
C  22.78300 1.37400 28.27900
C  19.80200 1.53200 30.65800
C  20.36300 1.25800 27.40600
O  20.64800 0.99400 26.24300
C  18.92900 1.37500 27.70500
N  25.80300 0.66300 27.67700
C  24.80500 0.81800 26.76800
C  25.32500 0.83600 25.33500
C  26.90500 0.65200 25.58300
C  27.01900 0.50200 27.12200
C  24.73800 -0.22000 24.38200
C  27.82400 1.66000 24.86700
C  28.71500 1.11300 23.75000
N  27.32000 0.96600 30.23000
C  28.40800 0.68800 29.28800
C  29.68100 0.67000 30.03500
C  29.25900 0.94200 31.37500
C  27.81300 1.06300 31.50100
C  31.09000 0.45100 29.55500
C  29.76500 1.05800 32.69200
O  30.88600 0.91800 33.08000
C  28.49900 1.37500 33.65600
C  28.40300 0.33600 34.61300
O  27.68800 -0.67600 34.62400
O  29.08300 0.64200 35.76100
C  28.77800 -0.23000 37.01100
H  21.66900 2.05300 32.51800
H  22.92800 1.05900 26.17900
H  28.98800 0.60900 27.12400
H  25.66200 0.99200 35.07200
H  23.29300 2.74000 34.58800
H  22.23700 0.29400 34.00300
H  22.45000 1.12500 35.61000
H  23.57200 -0.14100 34.99400
H  25.03500 3.79000 35.50900
H  26.48400 3.74600 34.47300
H  27.88100 3.21500 36.12400
H  26.84100 2.07700 36.85400
H  19.43000 0.52700 30.46200
H  19.09900 2.31100 30.36200
H  19.90900 1.55800 31.74200
H  18.65200 0.48700 28.27300
H  18.38000 1.45400 26.76600
H  18.64600 2.22100 28.33100
H  25.04100 1.81500 24.94700
H  27.28100 -0.28000 25.16100
H  25.48100 -0.88600 23.94400
H  24.05700 0.02800 23.56800
H  24.02600 -0.70900 25.04700
H  28.42900 2.10900 25.65500
H  27.28800 2.51100 24.44600
H  29.76300 1.16000 24.04600
H  28.62900 1.79300 22.90200
H  28.48000 0.11700 23.37400
H  31.26000 0.90800 28.58000
H  31.36100 -0.60400 29.54100
H  31.65300 1.00500 30.30600
H  28.74100 2.36100 34.05300
H  28.91400 -1.29100 36.80200
H  27.74600 -0.01500 37.28800
H  29.43600 0.06100 37.83000
Mg 16.87800 52.02800 25.25900
C  18.73900 50.94600 27.99800
C  14.31600 52.91600 27.44600
C  15.33900 53.06500 22.53900
C  19.35000 50.52900 23.09300
N  16.52800 51.83100 27.51600
C  17.50300 51.51200 28.41000
C  17.01900 51.75100 29.78800
C  15.51300 52.30900 29.60600
C  15.41300 52.32400 28.10200
C  14.41200 51.31500 30.29700
C  17.88600 52.81400 30.52900
C  17.48600 53.36900 31.96700
H  16.47000 52.62500 32.86300
N  15.08500 52.89700 25.05600
C  14.17700 53.20600 26.06600
C  13.00000 53.67400 25.36500
C  13.35900 53.78200 23.98000
C  14.68500 53.21900 23.79600
C  11.68700 53.97400 26.07600
C  12.48600 54.27600 22.85300
O  12.85000 54.55300 21.72300
C  11.00300 54.56200 23.03500
N  17.36300 51.97200 23.10800
C  16.53000 52.44500 22.21800
C  17.08800 52.40700 20.78900
C  18.42500 51.75900 21.01700
C  18.43300 51.39100 22.51700
C  16.15200 51.72200 19.84100
C  19.53600 52.78700 20.70600
C  20.85600 52.19800 20.27700
N  18.63600 50.90300 25.44100
C  19.47900 50.31000 24.53800
C  20.58100 49.70800 25.24800
C  20.37600 49.91700 26.54800
C  19.13400 50.59800 26.64500
C  21.82700 49.04600 24.68300
C  20.94300 49.79100 27.90900
O  21.99300 49.33900 28.32000
C  19.91000 50.45900 28.89200
C  19.37700 49.60000 29.96800
O  18.68500 48.69000 29.71600
O  19.98400 49.88900 31.12400
C  19.38600 49.24100 32.34600
H  13.46900 53.35700 27.97500
H  14.80800 53.44400 21.66300
H  20.20400 50.27600 22.46200
H  17.00700 50.83400 30.37600
H  15.37900 53.30200 30.03400
H  13.70400 50.80700 29.64100
H  13.85700 51.91900 31.01400
H  14.85600 50.54000 30.92100
H  18.08000 53.64500 29.85100
H  18.85400 52.33600 30.67900
H  17.01500 54.34400 31.83400
H  18.35100 53.51000 32.61500
H  11.99200 54.36400 27.04700
H  11.10600 53.05600 26.16800
H  11.13800 54.82700 25.67700
H  10.96500 55.36200 23.77400
H  10.43300 53.67900 23.32600
H  10.65700 54.89700 22.05700
H  17.09300 53.45700 20.49900
H  18.56600 50.93400 20.31900
H  15.79600 50.88600 20.44300
H  16.65000 51.47700 18.90300
H  15.18200 52.21700 19.80300
H  19.72000 53.29300 21.65400
H  19.24800 53.50300 19.93600
H  21.21300 52.62400 19.33900
H  20.77200 51.11200 20.32600
H  21.58800 52.52800 21.01400
H  22.04000 49.23900 23.63200
H  21.55100 47.99600 24.59200
H  22.71700 49.12700 25.30800
H  20.26200 51.38100 29.35600
H  18.99900 48.23500 32.18500
H  18.45400 49.76800 32.55100
H  20.15800 49.21400 33.11500

