158

Mg -2.11400 17.68400 26.76100
C  -2.72100 15.56700 29.50000
C  -2.54400 20.40300 28.79800
C  -2.03200 19.60200 23.91100
C  -2.50300 14.88100 24.69200
N  -2.74100 17.88200 28.91500
C  -2.57000 16.92500 29.92400
C  -2.69400 17.49800 31.26800
C  -2.82300 18.97000 30.99900
C  -2.76900 19.14800 29.44400
C  -4.19900 19.53300 31.49200
C  -1.41800 17.14300 32.15100
C  -1.28900 17.94500 33.47400
H  -1.07800 17.17000 34.80600
N  -2.20700 19.70200 26.40400
C  -2.39600 20.65400 27.39500
C  -2.23700 21.95200 26.78500
C  -1.92500 21.73900 25.42700
C  -2.03600 20.28500 25.16100
C  -2.25700 23.26200 27.59800
C  -1.69900 22.83400 24.37900
O  -1.57700 22.54300 23.17000
C  -1.42800 24.24000 24.70300
N  -2.51800 17.33300 24.62800
C  -2.27800 18.25900 23.68200
C  -2.21700 17.69200 22.20800
C  -2.30700 16.14700 22.55000
C  -2.43700 16.13400 24.05000
C  -3.31500 18.18900 21.31500
C  -1.11300 15.27800 22.04200
C  0.14900 15.47400 22.76900
N  -2.48100 15.61300 26.96700
C  -2.56200 14.58100 26.04900
C  -2.76200 13.31600 26.78400
C  -2.76700 13.64900 28.13500
C  -2.67300 15.06000 28.19000
C  -3.00700 11.91900 26.18500
C  -3.00900 13.05800 29.44200
O  -3.27000 11.85900 29.72600
C  -3.00500 14.29400 30.37200
C  -1.98600 14.05100 31.33100
O  -0.77300 14.07600 31.10300
O  -2.60000 13.71900 32.55600
C  -1.71500 13.20900 33.60300
H  -2.40400 21.12200 29.60800
H  -1.82900 20.15400 22.99200
H  -2.43700 14.04300 23.99400
H  -3.60800 17.02100 31.62000
H  -2.00800 19.56100 31.41800
H  -4.68900 18.79000 32.12200
H  -4.83500 19.73100 30.63000
H  -4.03400 20.46300 32.03700
H  -0.46900 17.13600 31.61600
H  -1.57000 16.09500 32.40900
H  -2.14600 18.60500 33.61600
H  -0.37900 18.54300 33.49700
H  -2.98000 23.93700 27.14000
H  -1.27600 23.73400 27.53400
H  -2.49400 22.91300 28.60300
H  -2.39200 24.71900 24.87400
H  -0.88100 24.75200 23.91100
H  -0.87400 24.31100 25.63900
H  -1.18200 17.86600 21.91500
H  -3.19400 15.67000 22.13200
H  -3.88900 17.46400 20.73700
H  -2.91500 18.84700 20.54400
H  -4.00800 18.83200 21.85800
H  -0.93700 15.54000 20.99900
H  -1.37000 14.22100 21.98500
H  0.07900 15.93400 23.75500
H  0.86900 15.95300 22.10600
H  0.52900 14.47300 22.96900
H  -2.22200 11.80600 25.43700
H  -3.91000 12.02800 25.58500
H  -3.04000 11.23000 27.02900
H  -3.96100 14.33400 30.89400
H  -1.96100 13.71200 34.53800
H  -0.67400 13.49600 33.45700
H  -1.70600 12.12100 33.67000
Mg 47.12300 17.22300 28.31500
C  45.10900 17.13700 31.22100
C  49.48400 18.95600 30.21700
C  48.70500 17.71000 25.49300
C  44.53700 15.66000 26.57700
N  47.29400 17.89000 30.49100
C  46.37400 17.73500 31.45300
C  46.94600 18.06700 32.83800
C  48.24800 18.90300 32.45500
C  48.38500 18.58800 30.93800
C  48.26000 20.49900 32.76800
C  47.11300 16.86100 33.78100
C  46.88300 17.07600 35.29800
H  46.45400 18.49000 35.76000
N  48.94200 17.97200 27.96300
C  49.75800 18.66000 28.84700
C  50.95900 19.08400 28.09100
C  50.77400 18.75100 26.68700
C  49.43600 18.14400 26.62900
C  52.13600 19.70700 28.84800
C  51.69600 19.01900 25.51500
O  51.38800 18.70000 24.37400
C  53.03100 19.62700 25.78600
N  46.67300 16.74900 26.40400
C  47.45500 17.07600 25.34100
C  47.03300 16.46700 24.02100
C  45.97700 15.47600 24.52200
C  45.63000 16.08100 25.92600
C  46.60000 17.60700 23.04100
C  46.34000 13.97100 24.47500
C  45.58900 13.13700 23.43600
N  45.21500 16.60000 28.73400
C  44.28900 15.94500 27.89900
C  43.15800 15.61100 28.61900
C  43.41900 16.01200 29.94700
C  44.70900 16.69300 29.94600
C  41.94000 14.87100 28.01700
C  42.93100 15.97500 31.31900
O  41.91000 15.44200 31.77000
C  44.03800 16.70500 32.12000
C  43.46900 17.68600 33.11300
O  43.24400 18.90100 32.94000
O  43.01600 16.92000 34.14100
C  42.27300 17.66000 35.11600
H  50.21000 19.53700 30.79000
H  49.39400 17.82400 24.65400
H  43.79500 15.17100 25.94100
H  46.18300 18.67400 33.32400
H  49.15100 18.49900 32.91100
H  48.24500 21.07900 31.84400
H  49.07600 20.78400 33.43100
H  47.39100 20.69800 33.39500
H  48.12600 16.49600 33.61300
H  46.46500 16.02000 33.53600
H  47.84800 16.96800 35.79200
H  46.35000 16.27600 35.81300
H  52.03100 20.79200 28.81400
H  53.01300 19.27300 28.36700
H  52.22400 19.43200 29.89900
H  52.78500 20.44900 26.45800
H  53.49900 20.00900 24.87800
H  53.64600 18.86500 26.26400
H  47.94400 16.08100 23.56500
H  45.04700 15.61100 23.97100
H  47.40400 17.67700 22.30900
H  46.47600 18.56800 23.54100
H  45.65000 17.23600 22.65700
H  46.12800 13.66100 25.49900
H  47.42300 13.92200 24.36400
H  46.30700 12.38200 23.11800
H  45.35200 13.70200 22.53400
H  44.75500 12.56700 23.84600
H  41.99500 13.82500 28.31600
H  41.89500 14.91600 26.92800
H  41.00900 15.23100 28.45600
H  44.51900 15.97600 32.77200
H  41.23600 17.80500 34.81300
H  42.81300 18.57500 35.36100
H  42.29800 17.08000 36.03900

