158

Mg 36.11400 48.94500 24.65700
C  36.34700 47.04700 27.78000
C  35.13100 51.51000 26.34700
C  35.26200 50.15500 21.65200
C  37.04200 45.91700 23.01400
N  35.77100 49.18000 26.83800
C  36.03500 48.42500 27.91500
C  35.80200 49.20200 29.24600
C  35.39300 50.64900 28.75600
C  35.42100 50.44900 27.19300
C  34.01500 51.20500 29.31900
C  36.83300 49.11200 30.40500
C  36.30000 48.49500 31.72800
H  34.88500 48.75600 32.20100
N  35.29100 50.58400 24.12000
C  34.97100 51.59600 24.93400
C  34.42900 52.62100 24.18500
C  34.46300 52.27500 22.77500
C  35.00700 50.94900 22.77300
C  33.96300 53.90400 24.78900
C  34.12400 53.11400 21.56200
O  34.07700 52.74300 20.35900
C  33.59100 54.47300 21.73800
N  36.03000 48.06700 22.63100
C  35.66900 48.83600 21.55700
C  36.03200 48.15000 20.17400
C  36.71900 46.87500 20.69300
C  36.65200 46.96100 22.23700
C  34.88700 47.92500 19.17700
C  38.18300 46.68900 20.18200
C  39.32900 47.45600 20.96200
N  36.54800 46.76500 25.21300
C  37.01200 45.79400 24.41900
C  37.26100 44.62000 25.19800
C  36.92800 45.03900 26.52900
C  36.61600 46.39400 26.48600
C  37.68400 43.22400 24.73200
C  36.70600 44.55900 27.89100
O  36.60300 43.44600 28.39300
C  36.53900 45.90600 28.80500
C  35.36600 45.67100 29.59700
O  34.18200 45.95900 29.31100
O  35.73300 45.10400 30.78900
C  34.69300 44.54300 31.61200
H  34.82800 52.40300 26.89700
H  35.21600 50.73000 20.72500
H  37.35700 45.07300 22.39800
H  34.92300 48.66800 29.60700
H  36.22200 51.33700 28.91500
H  34.23700 52.25700 29.49800
H  33.74800 50.69600 30.24500
H  33.21100 51.15400 28.58500
H  37.26400 50.09400 30.60100
H  37.62400 48.52300 29.94200
H  36.98300 48.83600 32.50600
H  36.45500 47.42600 31.57500
H  32.99900 54.28400 24.45100
H  34.64200 54.74600 24.65200
H  33.91000 53.83500 25.87600
H  34.35500 54.90300 22.38500
H  32.61500 54.44100 22.22200
H  33.48400 55.06500 20.82900
H  36.74900 48.83600 19.72400
H  36.12900 45.97700 20.51300
H  34.03700 48.54300 19.46800
H  34.59200 46.88200 19.06200
H  35.27900 48.23900 18.20900
H  38.23400 46.95600 19.12600
H  38.38900 45.62300 20.27800
H  38.89600 48.07200 21.75100
H  39.89300 48.14500 20.33300
H  40.09900 46.79800 21.36400
H  37.05800 42.87800 23.90900
H  37.60200 42.50100 25.54300
H  38.74600 43.27500 24.49100
H  37.47000 45.94600 29.37100
H  33.96400 43.94000 31.07100
H  34.03600 45.28400 32.06700
H  35.10200 43.82000 32.31700
Mg 16.69400 51.50600 25.54200
C  18.30200 50.59700 28.42800
C  13.98000 52.46200 27.53300
C  15.03800 52.14800 22.83300
C  19.27800 50.02900 23.68500
N  16.28700 51.65100 27.74300
C  17.11100 51.20600 28.73700
C  16.58600 51.48000 30.14700
C  15.10000 51.98800 29.84000
C  15.13700 52.15700 28.27800
C  13.73600 51.24500 30.30300
C  17.51900 52.38300 31.10600
C  17.89200 51.92800 32.51300
H  16.94100 51.02500 33.35500
N  14.75300 52.15900 25.23600
C  13.83200 52.51800 26.11500
C  12.64500 53.06600 25.45000
C  12.91800 53.08100 24.06700
C  14.27200 52.39600 23.95300
C  11.51200 53.59700 26.16100
C  12.07300 53.57500 22.88400
O  12.53100 53.68700 21.73300
C  10.65400 53.84900 23.20100
N  17.03700 51.07900 23.52700
C  16.23200 51.50000 22.57200
C  16.80700 51.10800 21.15600
C  18.23000 50.77800 21.55200
C  18.17000 50.55100 23.03100
C  15.97500 49.97000 20.54100
C  19.29100 51.89200 21.17800
C  20.73200 51.43800 20.90500
N  18.49300 50.59400 25.90700
C  19.39300 49.99300 25.11400
C  20.45100 49.36200 25.87600
C  19.97700 49.52600 27.15600
C  18.85000 50.32100 27.16500
C  21.69000 48.65400 25.31100
C  20.32400 49.22700 28.52800
O  21.22300 48.62500 29.02200
C  19.19000 49.82200 29.41100
C  18.61700 48.78700 30.32500
O  17.76400 47.92200 30.07400
O  19.33200 48.92300 31.50400
C  19.28500 47.89400 32.50300
H  13.09300 52.69600 28.12500
H  14.56400 52.33300 21.86700
H  20.13300 49.61400 23.14700
H  16.44900 50.47600 30.55000
H  14.96000 52.95700 30.31900
H  13.18700 50.78600 29.48100
H  13.12000 52.03400 30.73600
H  13.89700 50.47600 31.05800
H  17.22900 53.43400 31.09900
H  18.46800 52.46100 30.57400
H  18.00200 52.82200 33.12700
H  18.90900 51.53600 32.52800
H  11.77400 54.09400 27.09500
H  10.87500 52.74300 26.39200
H  11.02200 54.33700 25.52900
H  10.54000 54.85600 23.60200
H  10.20300 52.97900 23.67800
H  10.07600 53.80200 22.27800
H  16.73600 52.04800 20.60700
H  18.53400 49.84300 21.08300
H  15.38500 49.55300 21.35700
H  16.50000 49.12700 20.09100
H  15.23900 50.42000 19.87400
H  19.23200 52.58100 22.02100
H  18.95100 52.39400 20.27300
H  21.49600 52.00500 21.43800
H  20.79100 51.70600 19.85000
H  20.85800 50.37100 21.08600
H  22.40300 49.47800 25.34500
H  21.44300 48.32100 24.30300
H  21.83400 47.76600 25.92500
H  19.72600 50.54700 30.02300
H  19.89900 47.04600 32.19600
H  18.24000 47.67000 32.71800
H  19.70500 48.25600 33.44200

