158

Mg 46.23600 34.51800 27.05300
C  44.80800 33.08000 29.89100
C  47.13000 37.35600 29.05000
C  47.38800 36.15000 24.34600
C  45.54400 31.70700 25.36500
N  45.81100 35.12700 29.22000
C  45.25900 34.33700 30.21600
C  45.63900 34.96600 31.61100
C  45.94000 36.48300 31.20100
C  46.33900 36.33500 29.74300
C  44.73400 37.38700 31.48900
C  46.74900 34.21400 32.33100
C  46.86400 34.20400 33.82600
H  45.82900 34.90900 34.66100
N  47.25500 36.44700 26.80300
C  47.54400 37.40800 27.73100
C  48.31400 38.42100 27.09000
C  48.35100 38.20500 25.68400
C  47.57800 36.91800 25.57400
C  49.03100 39.47500 27.91300
C  48.94500 39.04900 24.50500
O  48.97500 38.63400 23.34100
C  49.66900 40.37400 24.78900
N  46.27000 34.09800 25.11300
C  46.84600 34.86500 24.16400
C  46.95700 34.17000 22.84100
C  46.51500 32.70700 23.24300
C  46.10000 32.80000 24.67200
C  46.35800 34.88600 21.65700
C  47.38900 31.43400 22.86000
C  48.42100 31.04500 23.89000
N  45.30400 32.76800 27.44700
C  45.15600 31.61100 26.64600
C  44.60400 30.58000 27.36500
C  44.37100 31.13600 28.65300
C  44.83700 32.46000 28.62500
C  44.34300 29.20300 26.93200
C  43.89500 30.97200 29.99200
O  43.39100 29.97500 30.51100
C  43.96200 32.28800 30.73400
C  44.23900 31.98100 32.13800
O  45.23500 31.43900 32.53700
O  43.04900 32.15100 32.80900
C  42.93300 31.87700 34.25000
H  47.37000 38.24300 29.64000
H  47.87800 36.52300 23.44400
H  45.24700 30.85200 24.75400
H  44.70100 34.85400 32.15500
H  46.82600 36.83500 31.72800
H  43.78100 36.86000 31.54600
H  44.71300 38.14700 30.70800
H  44.91700 37.77400 32.49100
H  47.60400 34.82300 32.03700
H  46.83500 33.19500 31.95300
H  47.89200 34.42300 34.11200
H  46.79500 33.14500 34.07500
H  50.11200 39.39300 27.79600
H  48.89900 39.23000 28.96700
H  48.91000 40.51900 27.62200
H  49.89700 40.77700 23.80200
H  50.54100 40.16500 25.40900
H  49.07800 41.11300 25.32900
H  48.02200 34.20600 22.61300
H  45.55600 32.47900 22.77900
H  47.07800 35.18200 20.89500
H  45.96700 35.81900 22.06400
H  45.60300 34.19600 21.28100
H  48.02200 31.73200 22.02500
H  46.78200 30.54800 22.67200
H  49.37700 30.76700 23.44800
H  48.02000 30.13900 24.34400
H  48.66800 31.89500 24.52700
H  45.22300 28.79600 26.43500
H  43.67500 29.31100 26.07800
H  43.96000 28.67300 27.80400
H  42.97200 32.74100 30.69100
H  42.59300 30.85800 34.43400
H  42.24100 32.62100 34.64300
H  43.85200 31.99300 34.82500
Mg -2.26300 35.03300 26.69200
C  -3.87600 32.94900 29.16500
C  -0.77600 36.64600 29.25500
C  -1.12400 37.04800 24.39300
C  -3.95900 33.05200 24.25400
N  -2.48500 34.80100 28.99000
C  -3.08500 33.89200 29.79800
C  -2.77300 34.06500 31.24500
C  -1.76600 35.27600 31.27400
C  -1.63200 35.61500 29.73700
C  -2.28200 36.44200 32.14400
C  -2.07400 32.89700 31.87900
C  -2.72100 32.20800 33.09000
H  -1.81500 31.93800 34.26400
N  -1.11800 36.72300 26.83700
C  -0.57500 37.17500 27.95400
C  0.39700 38.20500 27.61300
C  0.33900 38.32500 26.21000
C  -0.72500 37.42300 25.75100
C  1.15300 39.09900 28.62400
C  1.14900 39.12600 25.32200
O  0.95500 39.10100 24.10900
C  2.21700 40.11100 25.81200
N  -2.59800 35.10100 24.69700
C  -1.95500 36.05100 23.90900
C  -2.13500 35.78100 22.39400
C  -2.83000 34.33900 22.32200
C  -3.07900 34.08400 23.88800
C  -2.92000 36.93900 21.64300
C  -1.90800 33.27100 21.70400
C  -0.75400 32.85700 22.54600
N  -3.74500 33.40800 26.67500
C  -4.28000 32.69200 25.61100
C  -5.07400 31.60200 26.08900
C  -4.96300 31.68000 27.49000
C  -4.09500 32.75200 27.75500
C  -5.80700 30.64100 25.25600
C  -5.31400 31.00000 28.73800
O  -6.03400 30.02700 28.99400
C  -4.64400 31.81100 29.82400
C  -5.67800 32.28000 30.77300
O  -6.24100 33.37000 30.68200
O  -5.95700 31.32800 31.76700
C  -6.72000 31.87300 32.93700
H  -0.11600 37.07600 30.01100
H  -0.64000 37.56300 23.56000
H  -4.20900 32.28900 23.51400
H  -3.74200 34.30300 31.68500
H  -0.76200 35.02400 31.61500
H  -1.76300 37.36100 31.87400
H  -1.94100 36.08900 33.11700
H  -3.37100 36.49900 32.17000
H  -1.09300 33.12900 32.29500
H  -1.87000 32.05100 31.22400
H  -3.11800 31.21500 32.87700
H  -3.59600 32.75100 33.44800
H  0.68500 40.07300 28.76700
H  2.20000 39.30600 28.40100
H  1.09500 38.62200 29.60200
H  2.62500 40.76500 25.04200
H  3.04100 39.63900 26.34800
H  1.75700 40.80900 26.51100
H  -1.09000 35.65400 22.11200
H  -3.65300 34.48000 21.62200
H  -2.99600 37.78200 22.33000
H  -3.95700 36.65900 21.45800
H  -2.39000 37.45300 20.84200
H  -1.45200 33.57900 20.76400
H  -2.59300 32.43700 21.55200
H  -0.81900 31.77600 22.66300
H  -0.81400 33.43900 23.46600
H  0.20200 33.00200 22.04300
H  -5.19600 30.35300 24.40100
H  -6.69400 31.20500 24.96800
H  -6.04300 29.75800 25.84900
H  -3.91800 31.22300 30.38700
H  -6.18100 32.70200 33.39500
H  -6.91100 31.02700 33.59700
H  -7.73600 32.23300 32.77400

