158

Mg 16.62600 -2.15100 27.83400
C  15.53700 -0.05600 30.52800
C  18.60600 -3.87500 29.89000
C  18.04100 -3.70500 25.10400
C  14.86200 -0.08200 25.65200
N  16.87200 -1.97700 30.01100
C  16.32500 -1.14400 30.87600
C  17.02700 -1.34500 32.30000
C  17.96500 -2.52000 32.03600
C  17.85400 -2.84200 30.52600
C  19.45900 -2.25500 32.58300
C  15.93900 -1.54900 33.36300
C  16.03300 -0.70500 34.64200
H  17.35400 0.07700 34.88500
N  18.02000 -3.70500 27.52000
C  18.73900 -4.26800 28.54000
C  19.49500 -5.42000 27.99900
C  19.29500 -5.38300 26.60000
C  18.37700 -4.19300 26.33600
C  20.27400 -6.35900 28.88000
C  19.96600 -6.31000 25.53300
O  19.80600 -6.09300 24.33300
C  21.02600 -7.38800 26.01500
N  16.73300 -1.70600 25.60200
C  17.28200 -2.60800 24.69700
C  16.96300 -2.14300 23.28800
C  15.70400 -1.23200 23.51400
C  15.74900 -1.00200 24.99600
C  18.11300 -1.20300 22.79100
C  14.40000 -1.91400 23.05200
C  13.93600 -1.45700 21.63800
N  15.37500 -0.51100 28.01100
C  14.77900 0.29400 26.99900
C  13.93400 1.31600 27.56500
C  14.25800 1.23200 28.94100
C  15.09300 0.08000 29.20000
C  13.07200 2.27100 26.81000
C  14.05300 1.87400 30.19900
O  13.38200 2.92100 30.39700
C  14.89600 1.11100 31.30000
C  15.72700 2.09300 32.05900
O  16.77900 2.49000 31.66800
O  15.10700 2.50500 33.23400
C  15.59400 3.78500 33.75000
H  19.23800 -4.43000 30.58700
H  18.23900 -4.43900 24.32000
H  14.18400 0.38700 24.93500
H  17.59600 -0.44100 32.51900
H  17.55100 -3.37900 32.56500
H  19.93700 -1.48400 31.97800
H  19.84100 -3.26900 32.70400
H  19.29900 -1.71000 33.51300
H  15.89400 -2.62100 33.55500
H  14.93900 -1.31700 32.99800
H  15.72500 -1.36900 35.45000
H  15.28100 0.07900 34.55200
H  21.32200 -6.07100 28.95300
H  20.14800 -7.37600 28.50700
H  19.80800 -6.37200 29.86500
H  21.42300 -7.79500 25.08500
H  20.44200 -8.12000 26.57400
H  21.71700 -6.83600 26.65100
H  16.78700 -3.02300 22.66900
H  15.91200 -0.25900 23.06800
H  19.07300 -1.33300 23.29300
H  17.97300 -0.15200 23.04300
H  18.42900 -1.16400 21.74900
H  13.59500 -1.64200 23.73500
H  14.45200 -2.99700 23.16900
H  14.47700 -0.53700 21.41700
H  12.84900 -1.38800 21.61600
H  14.17400 -2.22700 20.90300
H  13.40900 3.18100 27.30700
H  12.03000 2.07600 27.06200
H  13.21400 2.37600 25.73500
H  14.08100 0.90100 31.99300
H  15.91400 4.42800 32.93100
H  16.34700 3.54900 34.50200
H  14.71600 4.24400 34.20600
Mg 44.41700 4.98400 48.00700
C  42.28100 7.81000 47.60700
C  41.72700 2.94500 47.52700
C  46.52800 2.39000 47.79200
C  47.16400 7.25300 48.12800
N  42.21300 5.40200 47.63900
C  41.52400 6.57000 47.58200
C  40.03800 6.40100 47.31500
C  39.93700 4.85700 47.72700
C  41.37500 4.28700 47.61700
C  39.34800 4.48500 49.04000
C  39.46300 7.11400 46.01400
C  38.40900 6.20900 45.32500
H  37.84800 6.64900 43.89800
N  44.14700 2.90600 47.76200
C  42.95900 2.28900 47.50600
C  43.25700 0.93600 47.28100
C  44.66800 0.71900 47.32800
C  45.19600 2.08700 47.68600
C  42.13600 -0.10000 47.11800
C  45.26400 -0.65100 47.15900
O  44.55300 -1.67100 46.98400
C  46.79300 -0.87000 47.24400
N  46.64400 4.82500 47.85200
C  47.22800 3.64000 47.94400
C  48.76100 3.75700 47.95400
C  48.92800 5.35600 47.97300
C  47.48700 5.83800 48.00800
C  49.49200 3.04300 49.10100
C  49.93000 5.89300 47.01400
C  50.94800 6.87900 47.64600
N  44.77700 7.07500 47.88000
C  45.85600 7.81900 47.97400
C  45.54900 9.19300 47.73700
C  44.19600 9.22900 47.64400
C  43.69200 7.95300 47.71900
C  46.57800 10.34200 47.43100
C  43.06000 10.14300 47.56700
O  43.03700 11.34900 47.59700
C  41.75800 9.22200 47.52700
C  40.86300 9.57500 48.64800
O  40.91500 9.09500 49.79900
O  39.93400 10.50000 48.27200
C  38.80200 10.82200 49.14900
H  40.94900 2.18900 47.40600
H  47.16100 1.50700 47.90300
H  48.04000 7.87500 47.93200
H  39.52700 6.99100 48.07500
H  39.33400 4.31700 46.99700
H  38.50300 3.80800 48.91700
H  38.98500 5.33000 49.62500
H  40.10800 4.04700 49.68600
H  40.27300 7.19800 45.28900
H  39.06000 8.06400 46.36600
H  37.61600 5.93100 46.02000
H  38.97400 5.30100 45.11500
H  42.08100 -0.38700 46.06800
H  41.16100 0.32000 47.36600
H  42.36400 -0.87200 47.85300
H  47.04600 -1.85900 46.86200
H  46.89800 -0.74400 48.32200
H  47.33800 -0.18100 46.59800
H  49.02900 3.37200 46.97000
H  49.35400 5.65200 48.93100
H  48.71000 2.78600 49.81500
H  50.28100 3.62300 49.58000
H  49.80100 2.11800 48.61500
H  49.45500 6.28200 46.11400
H  50.44300 5.01400 46.62300
H  50.69700 7.22400 48.64900
H  50.99600 7.85300 47.15900
H  51.95500 6.46900 47.71600
H  47.56000 10.21600 47.88700
H  46.20200 11.25300 47.89700
H  46.67600 10.57900 46.37200
H  41.16100 9.46100 46.64700
H  38.56600 11.88500 49.10000
H  38.87100 10.53700 50.19900
H  37.95200 10.28700 48.72700

