158

Mg 37.00100 50.16300 25.51300
C  37.09800 48.19900 28.45900
C  35.88400 52.77900 27.24900
C  36.59400 51.73300 22.56400
C  37.97500 47.25200 23.80100
N  36.34600 50.35700 27.60100
C  36.64600 49.58000 28.66600
C  36.32700 50.20100 30.00400
C  35.82800 51.53200 29.52300
C  35.96200 51.59100 28.04700
C  34.36400 51.86100 29.95600
C  37.59500 50.14000 30.91900
C  37.37300 50.00800 32.43600
H  35.99800 49.69800 32.98500
N  36.25700 51.96500 25.01900
C  35.93100 52.93600 25.86000
C  35.66100 54.16700 25.16200
C  35.93300 53.93300 23.77400
C  36.25600 52.45300 23.68100
C  35.51900 55.47300 25.91900
C  35.92200 54.86500 22.60800
O  35.75900 54.42900 21.45800
C  35.90400 56.36600 22.71500
N  37.08800 49.50600 23.53700
C  36.96700 50.37700 22.45200
C  37.43700 49.77900 21.07700
C  38.01800 48.40300 21.55600
C  37.62500 48.34700 23.06400
C  36.28300 49.58400 20.02300
C  39.50600 48.29700 21.22900
C  40.48200 49.28400 21.94900
N  37.47000 48.09800 25.97400
C  37.79100 47.05700 25.15200
C  38.12400 45.84100 25.88900
C  37.82700 46.24300 27.20400
C  37.48700 47.64500 27.18500
C  38.63300 44.50400 25.31200
C  37.76200 45.87000 28.59700
O  38.00500 44.75900 29.02100
C  37.31900 47.09500 29.46500
C  36.11800 46.69300 30.15600
O  35.04000 46.71500 29.63300
O  36.43400 46.26500 31.43700
C  35.35500 45.71000 32.24500
H  35.59400 53.64900 27.84200
H  36.60900 52.29900 21.63000
H  38.33800 46.40000 23.22300
H  35.46100 49.64300 30.36200
H  36.51700 52.30500 29.86400
H  33.91700 51.25100 30.74100
H  33.76300 51.99000 29.05500
H  34.45000 52.82300 30.46100
H  38.13600 51.08400 30.86800
H  38.20200 49.30300 30.57300
H  37.66000 50.92600 32.95000
H  38.06600 49.25500 32.81000
H  36.50400 55.74900 26.29400
H  34.81300 55.36500 26.74300
H  35.35200 56.24600 25.16900
H  34.91900 56.59900 23.12100
H  35.96300 56.89000 21.76000
H  36.71000 56.67300 23.38100
H  38.19400 50.43900 20.65200
H  37.36100 47.67000 21.08800
H  35.94300 48.54900 19.99600
H  36.60100 49.87600 19.02200
H  35.34500 50.06000 20.30800
H  39.57900 48.52600 20.16600
H  39.70200 47.22500 21.26800
H  41.19400 49.84800 21.34700
H  41.02400 48.68300 22.68000
H  39.86500 49.94900 22.55200
H  39.40600 44.09400 25.96200
H  38.99600 44.65200 24.29500
H  37.79800 43.82800 25.13100
H  38.13700 47.19000 30.17900
H  35.72800 45.60100 33.26300
H  34.86100 44.82200 31.84900
H  34.48500 46.36700 32.26900
Mg 10.36600 47.29800 25.92000
C  8.36700 47.64300 28.80400
C  12.95900 48.48900 27.66400
C  12.17400 47.07900 23.10300
C  7.38200 46.61900 24.02900
N  10.47600 48.20900 27.87700
C  9.60400 48.18200 28.93300
C  10.23700 48.73400 30.15300
C  11.56200 49.30700 29.68800
C  11.72100 48.65100 28.30500
C  11.60700 50.85600 29.64300
C  10.58400 47.68500 31.31000
C  10.19700 48.00700 32.76400
H  10.01200 46.92000 33.81800
N  12.34700 47.55800 25.46900
C  13.26600 47.97500 26.43900
C  14.56500 47.84900 25.94300
C  14.39400 47.41600 24.56500
C  12.95900 47.26200 24.31100
C  15.84900 48.14800 26.67300
C  15.50600 47.18200 23.48200
O  15.23400 46.70000 22.38800
C  16.91800 47.53000 23.90800
N  9.81600 47.14700 23.79800
C  10.82900 47.08500 22.85500
C  10.20200 46.77300 21.52300
C  8.67600 46.52100 21.84400
C  8.57900 46.76400 23.34000
C  10.50100 47.88400 20.41000
C  8.19600 45.08500 21.57400
C  8.76000 43.99600 22.52000
N  8.22900 47.17300 26.30100
C  7.22400 46.77100 25.44200
C  6.05500 46.52400 26.30200
C  6.43700 46.86800 27.65900
C  7.81200 47.19700 27.56800
C  4.68200 46.19100 25.88100
C  6.01700 46.99200 28.98900
O  4.94800 46.71300 29.44900
C  7.32900 47.35300 29.81200
C  7.62600 46.27100 30.83100
O  8.09500 45.20000 30.58100
O  7.15200 46.59800 32.08200
C  7.08900 45.43200 32.97400
H  13.77000 48.80800 28.32200
H  12.74800 46.92800 22.18600
H  6.53400 46.25500 23.44400
H  9.63600 49.52200 30.60500
H  12.38700 49.07200 30.36000
H  10.58900 51.24500 29.66200
H  12.13200 51.29300 28.79300
H  12.09700 51.19700 30.55400
H  11.63400 47.41600 31.42400
H  10.19200 46.70100 31.05600
H  9.23800 48.52000 32.70200
H  11.03000 48.64900 33.05100
H  16.64900 47.41000 26.61800
H  15.69600 48.18100 27.75200
H  16.22100 49.10500 26.30800
H  17.19200 48.53200 24.24000
H  17.51500 47.39900 23.00600
H  17.33700 46.83100 24.63200
H  10.65400 45.83700 21.19300
H  8.00300 47.19800 21.31800
H  11.14800 48.71200 20.70000
H  9.57400 48.38300 20.13000
H  10.87600 47.40400 19.50600
H  8.51600 44.77700 20.57800
H  7.10700 45.05900 21.61700
H  7.94100 43.56400 23.09600
H  9.60600 44.43100 23.05100
H  9.13900 43.19200 21.88800
H  4.18000 47.12300 25.62300
H  4.16300 45.54300 26.58800
H  4.68000 45.67500 24.92000
H  7.11200 48.31500 30.27700
H  6.18500 44.83400 32.86000
H  7.14100 45.78300 34.00500
H  7.91400 44.75400 32.75600

