158

Mg 1.48000 -1.75400 44.79600
C  4.77900 -0.88200 44.30600
C  0.45000 1.35400 43.82300
C  -1.66600 -3.04300 44.55900
C  2.65200 -5.07200 45.40700
N  2.50700 0.06900 44.34200
C  3.85500 0.16200 44.11900
C  4.17300 1.57700 43.52000
C  2.79600 2.36100 43.73900
C  1.83500 1.18400 43.94900
C  2.69100 3.28000 44.93200
C  4.59300 1.41500 42.03600
C  5.97900 1.98500 41.68500
H  6.52000 1.64800 40.27500
N  -0.30300 -0.96700 44.17500
C  -0.55400 0.37800 43.89700
C  -2.01700 0.54200 43.76800
C  -2.59700 -0.74500 43.88600
C  -1.47400 -1.70000 44.16200
C  -2.69100 1.88600 43.33500
C  -4.11200 -1.00900 43.87100
O  -4.89900 -0.07100 43.77400
C  -4.73300 -2.45000 43.87600
N  0.58100 -3.77300 44.99600
C  -0.73700 -4.04900 44.92800
C  -1.10000 -5.50700 45.39400
C  0.33900 -6.06300 45.74100
C  1.27500 -4.88600 45.32800
C  -2.17300 -5.67600 46.51500
C  0.74400 -7.42000 45.11700
C  1.16800 -8.52500 46.12100
N  3.30000 -2.81100 44.96400
C  3.62400 -4.11300 45.28800
C  5.07700 -4.20800 45.40800
C  5.54900 -2.97200 45.00500
C  4.45000 -2.14800 44.72400
C  5.76200 -5.43100 45.86500
C  6.75400 -2.21100 44.86100
O  7.90500 -2.54700 45.05500
C  6.27500 -0.75600 44.30100
C  6.57600 0.36200 45.28800
O  6.01300 0.43800 46.37900
O  7.52500 1.24800 44.87000
C  7.66700 2.49500 45.74000
H  0.05000 2.33800 43.56700
H  -2.70500 -3.37700 44.51500
H  3.02000 -6.07800 45.61700
H  4.88300 2.19400 44.07200
H  2.45800 2.90200 42.85500
H  2.56100 2.69800 45.84400
H  1.94200 4.06400 44.82200
H  3.62300 3.80100 45.15000
H  3.87500 1.93600 41.40300
H  4.52800 0.39000 41.67100
H  6.75100 1.68000 42.39200
H  5.99200 3.07400 41.74200
H  -3.22900 1.82600 42.38900
H  -1.88900 2.62300 43.37500
H  -3.40000 2.12800 44.12700
H  -5.79200 -2.39200 43.62500
H  -4.60800 -2.78800 44.90500
H  -4.19800 -3.00300 43.10400
H  -1.48900 -5.99900 44.50300
H  0.37200 -6.07000 46.83100
H  -3.00200 -6.27200 46.13300
H  -2.67800 -4.74000 46.75400
H  -1.76400 -6.29200 47.31500
H  1.46300 -7.31100 44.30500
H  -0.19300 -7.75900 44.67400
H  2.23500 -8.71900 46.01000
H  0.72000 -9.51500 46.04100
H  1.09600 -8.23800 47.17000
H  5.58000 -5.59600 46.92700
H  6.83600 -5.29500 45.73800
H  5.43700 -6.34800 45.37300
H  6.70800 -0.52500 43.32700
H  8.37400 3.23900 45.37400
H  7.92500 2.29000 46.77900
H  6.66900 2.92900 45.79800
Mg -1.46400 33.78300 26.98000
C  -3.48200 32.65800 29.59100
C  0.03000 35.91700 29.16700
C  -0.02100 35.39000 24.43600
C  -3.50500 32.03700 24.78200
N  -1.64200 34.16800 29.13400
C  -2.59500 33.60900 29.97600
C  -2.31300 33.93900 31.40300
C  -1.24900 35.13800 31.23100
C  -1.01500 35.19600 29.71600
C  -1.60700 36.47800 31.86100
C  -1.76000 32.71800 32.26100
C  -1.19800 33.15300 33.62500
H  -1.73900 32.59800 34.84000
N  -0.01000 35.28500 26.82300
C  0.54100 36.00700 27.83800
C  1.48800 36.89300 27.38500
C  1.47000 36.90600 25.96700
C  0.44600 35.87100 25.65600
C  2.34600 37.75800 28.36400
C  2.29500 37.60400 24.91700
O  2.20400 37.44700 23.75400
C  3.42100 38.48900 25.29700
N  -1.74800 33.70000 24.88400
C  -0.99500 34.45100 24.07300
C  -1.12800 34.05300 22.60100
C  -2.18000 32.89200 22.74200
C  -2.52300 32.85000 24.16100
C  -1.53700 35.20100 21.62300
C  -1.87200 31.51700 21.99700
C  -0.43700 31.08500 21.58900
N  -3.02200 32.52600 27.14800
C  -3.77700 31.92600 26.17500
C  -4.80500 31.07400 26.75200
C  -4.69400 31.36300 28.09400
C  -3.66900 32.26500 28.25900
C  -5.62800 30.05600 26.00000
C  -5.30800 30.93100 29.31600
O  -6.27200 30.18300 29.53500
C  -4.60000 31.85000 30.36200
C  -5.58700 32.69700 31.03900
O  -6.13000 33.70400 30.58900
O  -5.83500 32.20000 32.28800
C  -7.07300 32.68900 32.91000
H  0.48000 36.63900 29.85200
H  0.57600 35.75000 23.59500
H  -4.13900 31.49200 24.08000
H  -3.21500 34.40400 31.80100
H  -0.34000 34.85500 31.76200
H  -2.56100 36.50200 32.38700
H  -1.83200 37.20800 31.08400
H  -0.77500 36.84200 32.46400
H  -0.97100 32.28900 31.64400
H  -2.48200 31.93400 32.49000
H  -1.23000 34.24200 33.60200
H  -0.12200 32.97800 33.60200
H  2.33200 37.22700 29.31600
H  1.86700 38.72600 28.50800
H  3.37200 37.88700 28.02100
H  4.18400 37.89400 25.79900
H  3.01100 39.19600 26.01800
H  3.84400 39.04800 24.46200
H  -0.15200 33.78300 22.19800
H  -3.12000 33.26600 22.33800
H  -0.71100 35.37400 20.93300
H  -1.71300 36.11700 22.18700
H  -2.44100 35.01200 21.04400
H  -2.48300 31.59200 21.09800
H  -2.29800 30.72600 22.61300
H  0.33500 31.78700 21.90300
H  -0.36700 31.13100 20.50200
H  -0.23700 30.06000 21.90200
H  -6.54700 30.32900 25.48100
H  -5.68900 29.25200 26.73400
H  -5.05300 29.68700 25.15100
H  -4.14600 31.14400 31.05600
H  -7.63700 33.46200 32.38800
H  -6.70700 33.16100 33.82200
H  -7.57700 31.78800 33.26200

