158

Mg 23.77500 -5.72500 45.05700
C  25.84500 -3.30700 43.68900
C  21.15700 -4.50800 43.11900
C  22.08800 -8.56100 45.57800
C  26.53700 -7.16400 46.51900
N  23.62700 -4.22400 43.35000
C  24.57200 -3.24900 43.09500
C  23.99200 -2.12800 42.14300
C  22.41500 -2.40900 42.18100
C  22.38400 -3.82900 42.90000
C  21.36500 -1.40800 42.83200
C  24.57900 -2.41000 40.69200
C  25.10300 -1.11400 40.02600
H  24.75100 -0.95000 38.46000
N  21.78200 -6.38000 44.57100
C  20.88500 -5.70200 43.79400
C  19.60400 -6.35200 43.99200
C  19.83500 -7.65300 44.51000
C  21.27000 -7.63200 44.87400
C  18.31500 -5.81600 43.40500
C  18.83500 -8.68600 44.74400
O  17.66300 -8.40100 44.49700
C  19.12800 -10.01600 45.39000
N  24.23300 -7.61600 45.84500
C  23.32900 -8.57700 46.06600
C  23.82700 -9.68000 46.91900
C  25.29200 -9.10500 47.28300
C  25.34500 -7.91700 46.45100
C  22.95800 -10.15400 48.13300
C  26.48900 -10.11200 47.04400
C  27.37500 -10.43500 48.26800
N  25.75600 -5.40900 45.12200
C  26.78300 -6.02500 45.79600
C  27.99800 -5.22700 45.74100
C  27.66100 -4.23800 44.83200
C  26.30700 -4.31500 44.53000
C  29.31800 -5.64100 46.37700
C  28.19800 -3.14800 44.08600
O  29.33600 -2.69900 44.09100
C  27.02700 -2.55700 43.23000
C  26.82500 -1.09700 43.45600
O  26.20400 -0.52000 44.39700
O  27.51500 -0.41000 42.51100
C  27.46300 1.08200 42.50100
H  20.25300 -3.98100 42.80500
H  21.69000 -9.54100 45.84700
H  27.40000 -7.48100 47.10900
H  24.14600 -1.17900 42.65700
H  22.05800 -2.60400 41.16900
H  20.96400 -0.72500 42.08300
H  21.95100 -0.83100 43.54800
H  20.52800 -1.91000 43.31600
H  23.79400 -2.78800 40.03700
H  25.31600 -3.21300 40.67300
H  26.13700 -1.05300 40.36400
H  24.65300 -0.22800 40.47600
H  18.31100 -6.08300 42.34800
H  18.29300 -4.72700 43.40300
H  17.44600 -6.13600 43.98100
H  18.28300 -10.70200 45.33700
H  19.45000 -9.82900 46.41400
H  19.98800 -10.46800 44.89500
H  23.85100 -10.54800 46.26000
H  25.36600 -8.61600 48.25400
H  23.54000 -10.28600 49.04500
H  22.59000 -11.12400 47.79800
H  22.15800 -9.41800 48.22100
H  27.18400 -9.57000 46.40300
H  26.14200 -11.06200 46.63800
H  28.34000 -9.96000 48.09400
H  27.51800 -11.48700 48.51700
H  26.93900 -10.08600 49.20400
H  29.05000 -5.97900 47.37800
H  30.07600 -4.86900 46.24600
H  29.62900 -6.46300 45.73200
H  27.21200 -2.82600 42.19000
H  28.31600 1.61100 42.92500
H  26.70300 1.39000 43.21900
H  27.18000 1.46700 41.52200
Mg 41.51200 42.17700 26.62900
C  40.72300 44.55200 29.17600
C  42.51400 40.01600 29.00600
C  42.26200 40.07300 24.25000
C  40.58100 44.55800 24.27900
N  41.76200 42.38000 28.85300
C  41.28900 43.41500 29.69600
C  41.47900 43.05400 31.18400
C  42.09100 41.59400 31.07500
C  42.15000 41.27400 29.60200
C  43.45400 41.31400 31.91100
C  40.15700 43.14700 32.00200
C  40.05000 42.37100 33.37300
H  39.58100 43.08400 34.75700
N  42.27000 40.26100 26.63300
C  42.58200 39.50000 27.72100
C  43.05900 38.29100 27.28100
C  43.05500 38.30900 25.90500
C  42.54900 39.58100 25.52400
C  43.54900 37.18800 28.20800
C  43.41000 37.22700 24.91400
O  43.19000 37.33600 23.74400
C  43.99500 36.02800 25.38400
N  41.46400 42.32100 24.60400
C  41.69800 41.26700 23.83400
C  41.43300 41.56500 22.29800
C  40.90100 42.99200 22.39900
C  40.93500 43.33800 23.85400
C  42.70400 41.43400 21.34500
C  39.50900 43.00800 21.77200
C  38.41800 42.21600 22.45700
N  40.86300 44.17800 26.64000
C  40.57800 45.02900 25.59000
C  40.14600 46.29700 26.06000
C  40.06400 46.15100 27.50000
C  40.59000 44.85000 27.79000
C  39.53700 47.38200 25.17300
C  39.69800 46.78200 28.76400
O  39.19300 47.87400 28.98100
C  40.12500 45.78200 29.85800
C  41.14500 46.49800 30.73900
O  42.28100 46.70700 30.31000
O  40.78000 46.53600 32.02300
C  41.84900 46.72900 33.01800
H  42.54600 39.25100 29.78500
H  42.48100 39.42600 23.39700
H  40.22600 45.30800 23.56800
H  42.19400 43.76500 31.59800
H  41.35200 40.92900 31.52200
H  43.77100 42.22300 32.42200
H  44.33500 40.96400 31.37300
H  43.23200 40.51500 32.61900
H  39.36600 42.89700 31.29600
H  40.07200 44.21200 32.21900
H  40.93900 41.78400 33.60300
H  39.24000 41.66800 33.17900
H  42.74000 36.45900 28.25100
H  43.71500 37.51300 29.23500
H  44.40900 36.66300 27.79100
H  44.98800 36.26600 25.76500
H  44.16900 35.33400 24.56200
H  43.31400 35.59800 26.11900
H  40.73800 40.72700 22.24000
H  41.53600 43.76800 21.97200
H  43.61800 41.37300 21.93600
H  42.69700 42.24800 20.62000
H  42.65300 40.47800 20.82300
H  39.70900 42.69900 20.74600
H  39.20900 44.05400 21.70600
H  38.67700 41.49300 23.23100
H  38.07300 41.56300 21.65600
H  37.61800 42.86100 22.82000
H  38.74000 47.85200 25.74900
H  39.05700 47.12200 24.22900
H  40.30100 48.11600 24.92100
H  39.26500 45.56000 30.49100
H  41.60400 47.71300 33.41800
H  42.86900 46.65700 32.64100
H  41.67300 45.98700 33.79700

