158

Mg 23.90800 -4.46900 46.21600
C  26.25600 -2.24900 44.65200
C  21.62500 -3.38400 43.97900
C  22.17900 -7.17800 46.84500
C  26.60800 -5.84500 48.01400
N  24.06000 -3.11700 44.38400
C  24.99700 -2.23800 44.03600
C  24.58800 -1.21000 43.05800
C  23.00600 -1.40900 42.98100
C  22.84800 -2.69400 43.91300
C  22.11500 -0.18100 43.39300
C  25.18500 -1.40000 41.56600
C  25.64900 -0.12900 40.80800
H  25.10200 0.08600 39.38300
N  22.12900 -5.17200 45.50100
C  21.30500 -4.57400 44.60300
C  20.07800 -5.33800 44.37900
C  20.20100 -6.41500 45.29700
C  21.55500 -6.34200 45.88100
C  19.01700 -4.97800 43.42800
C  19.05300 -7.38900 45.54100
O  17.93200 -7.21300 45.07900
C  19.26000 -8.63200 46.37500
N  24.30000 -6.31600 47.27200
C  23.45300 -7.23600 47.41100
C  23.86400 -8.29700 48.41300
C  25.27100 -7.84300 48.81500
C  25.43400 -6.56700 48.02100
C  22.84300 -8.54000 49.58700
C  26.45000 -8.93400 48.83900
C  27.07000 -9.38800 50.14200
N  25.95000 -4.08000 46.44200
C  26.84700 -4.71100 47.23100
C  28.09800 -3.94000 47.11700
C  27.93200 -2.94800 46.11500
C  26.64100 -3.19600 45.68500
C  29.33900 -4.22500 47.82600
C  28.60400 -1.87600 45.43800
O  29.77400 -1.50000 45.60900
C  27.57000 -1.42000 44.38300
C  27.47000 0.04100 44.46500
O  26.80000 0.68500 45.21700
O  28.16100 0.61400 43.41900
C  28.08000 2.11300 43.30600
H  20.80300 -2.91200 43.43600
H  21.52100 -7.96600 47.21700
H  27.37100 -6.19000 48.71400
H  24.84900 -0.22700 43.45000
H  22.67600 -1.74600 41.99800
H  21.26800 -0.24100 42.70900
H  22.70800 0.72000 43.24100
H  21.85300 -0.27700 44.44700
H  24.51700 -1.84300 40.82700
H  25.96300 -2.16400 41.57300
H  26.73600 -0.09600 40.87000
H  25.31300 0.68800 41.44700
H  18.45900 -5.84100 43.06500
H  19.47100 -4.49800 42.56100
H  18.39400 -4.25300 43.95200
H  18.96500 -8.44600 47.40800
H  20.23100 -9.12500 46.32000
H  18.57000 -9.40300 46.03300
H  23.88200 -9.26600 47.91400
H  25.11500 -7.46400 49.82500
H  22.35400 -9.50600 49.46200
H  22.14800 -7.71900 49.41500
H  23.28400 -8.38300 50.57200
H  27.29500 -8.50600 48.29800
H  26.03300 -9.82100 48.36200
H  27.44300 -10.40200 49.99500
H  26.44200 -9.16900 51.00600
H  28.00900 -8.91000 50.41900
H  29.34900 -5.30300 47.98700
H  29.40500 -3.62500 48.73300
H  30.27600 -4.03400 47.30100
H  28.02100 -1.76200 43.45100
H  27.03500 2.36800 43.13400
H  28.70300 2.51300 42.50600
H  28.31200 2.59400 44.25600
Mg 17.47900 -0.28000 27.89100
C  16.43600 1.71700 30.54700
C  19.52700 -1.97200 30.06700
C  19.09100 -1.82400 25.24800
C  16.03700 1.89900 25.77700
N  17.94700 -0.04200 30.05100
C  17.19900 0.63700 30.94800
C  17.50100 0.25200 32.39600
C  18.64500 -0.80200 32.22400
C  18.79100 -0.91800 30.68200
C  19.99200 -0.43900 32.89400
C  16.25100 -0.39500 33.14100
C  15.98200 -0.03100 34.62400
H  17.20700 0.55900 35.42500
N  18.88100 -1.91200 27.69700
C  19.58200 -2.48500 28.72500
C  20.49500 -3.51600 28.25000
C  20.36500 -3.52100 26.77700
C  19.41700 -2.38300 26.52300
C  21.28600 -4.40000 29.19300
C  21.01600 -4.40500 25.77200
O  20.84500 -4.20500 24.56100
C  22.08000 -5.35400 26.11900
N  17.60900 -0.04100 25.78200
C  18.19700 -0.77500 24.89100
C  17.72700 -0.42000 23.45100
C  16.64400 0.67600 23.66100
C  16.73400 0.84500 25.13900
C  18.87000 0.12500 22.46800
C  15.27600 0.31400 23.03900
C  14.91200 1.08400 21.70900
N  16.41400 1.50100 28.01700
C  15.82400 2.25200 27.07700
C  15.16300 3.43500 27.67700
C  15.41300 3.27200 29.05900
C  16.14700 2.02200 29.17800
C  14.49700 4.50500 26.84700
C  15.13100 3.75100 30.40100
O  14.35000 4.69800 30.78000
C  15.67300 2.74500 31.36000
C  16.67900 3.52700 32.10900
O  17.66300 4.04000 31.65600
O  16.22200 3.65800 33.42300
C  16.87200 4.58700 34.31100
H  19.94100 -2.72600 30.74000
H  19.61500 -2.32200 24.43000
H  15.35000 2.37200 25.07200
H  17.85300 1.18900 32.82700
H  18.39000 -1.83000 32.48400
H  20.42100 -1.33400 33.34400
H  19.84800 0.41600 33.55400
H  20.79700 -0.02800 32.28300
H  16.36300 -1.47800 33.19000
H  15.27500 -0.21400 32.69000
H  15.69400 -0.89000 35.22900
H  15.04100 0.51800 34.66600
H  20.64300 -5.18700 29.58600
H  21.63800 -3.72800 29.97500
H  22.15900 -4.88500 28.75600
H  22.81300 -4.58000 26.34500
H  22.44500 -5.89900 25.24900
H  21.71100 -5.91900 26.97500
H  17.38700 -1.41600 23.16700
H  16.93900 1.61500 23.19400
H  19.87300 -0.16900 22.77600
H  18.93000 1.21200 22.53300
H  18.63000 -0.28100 21.48600
H  14.55200 0.50000 23.83300
H  15.23200 -0.75800 22.84500
H  15.74700 1.53600 21.17400
H  14.26000 1.87700 22.07600
H  14.45300 0.44800 20.95100
H  13.50500 4.24300 26.48100
H  15.08200 4.92600 26.02900
H  14.37600 5.30200 27.58100
H  14.88800 2.38300 32.02400
H  17.61300 5.20600 33.80400
H  17.55500 4.02900 34.95100
H  16.18900 5.19100 34.90900

