158

Mg 17.65500 -0.28700 27.56600
C  16.80800 1.37800 30.61700
C  19.50600 -2.43800 29.43300
C  18.69100 -1.56300 24.70500
C  15.66400 2.07200 25.93300
N  18.28100 -0.34700 29.71700
C  17.67200 0.29300 30.77500
C  18.01400 -0.33000 32.14100
C  19.17600 -1.33500 31.73600
C  18.99600 -1.39500 30.21500
C  20.66300 -0.88300 31.92400
C  16.84700 -1.08000 32.83900
C  16.72200 -0.85900 34.33600
H  18.05300 -0.56100 35.09600
N  18.84300 -1.83200 27.15500
C  19.50100 -2.70100 28.03200
C  20.19000 -3.74100 27.27600
C  19.91300 -3.50300 25.92300
C  19.13700 -2.28200 25.85800
C  21.03500 -4.86400 27.98200
C  20.51000 -4.27200 24.77100
O  20.24100 -3.99900 23.60500
C  21.46800 -5.47600 24.97500
N  17.19500 0.16500 25.67000
C  17.89100 -0.42800 24.60200
C  17.79400 0.38500 23.36200
C  16.50800 1.27000 23.69500
C  16.44100 1.21200 25.22200
C  19.04300 1.18500 22.83000
C  15.11900 1.06100 22.95200
C  14.96600 1.97000 21.67100
N  16.54800 1.39400 28.12400
C  15.71400 2.26200 27.34500
C  15.03300 3.18700 28.16300
C  15.37000 2.82900 29.40800
C  16.39900 1.85900 29.37700
C  14.10600 4.28000 27.68000
C  15.08200 3.12300 30.88500
O  14.42600 4.03400 31.41600
C  15.99900 2.17800 31.63800
C  16.89300 3.05100 32.54900
O  17.99900 3.47500 32.23400
O  16.32200 3.27800 33.75600
C  17.05900 4.17100 34.65500
H  20.05100 -3.20900 29.98100
H  18.98100 -1.95000 23.72600
H  15.12800 2.75200 25.26700
H  18.27000 0.47800 32.82600
H  19.04300 -2.32100 32.18200
H  21.16800 -0.70600 30.97500
H  21.16900 -1.73800 32.37400
H  20.53500 -0.00900 32.56200
H  16.96200 -2.16300 32.82700
H  15.93200 -0.83600 32.29900
H  16.37700 -1.74500 34.86900
H  16.05400 -0.02100 34.53600
H  20.96000 -4.75900 29.06400
H  22.07800 -4.72800 27.69800
H  20.62000 -5.84400 27.74300
H  22.39100 -5.12300 25.43500
H  21.65200 -5.66600 23.91800
H  21.02600 -6.33700 25.47700
H  17.65300 -0.36200 22.58100
H  16.80100 2.30600 23.52500
H  19.99100 0.76700 23.16900
H  19.09500 2.26600 22.95700
H  19.24500 0.90600 21.79500
H  14.33900 1.26300 23.68700
H  14.97500 0.01000 22.70400
H  14.27100 2.80600 21.74600
H  14.59000 1.38900 20.82900
H  16.00700 2.25600 21.51700
H  14.11300 4.39500 26.59700
H  14.23500 5.22900 28.20000
H  13.13600 3.93200 28.03600
H  15.51400 1.53800 32.37500
H  17.11300 3.63400 35.60200
H  16.48000 5.08100 34.81700
H  18.07800 4.33900 34.30700
Mg 56.45500 25.24400 45.07300
C  54.16700 27.64100 43.75900
C  54.88100 22.84100 43.64800
C  59.29500 23.42400 45.57900
C  58.32000 28.15300 46.18000
N  54.91900 25.32800 43.67000
C  54.06100 26.34700 43.28300
C  53.08600 25.80600 42.28500
C  53.04500 24.24200 42.58800
C  54.41600 24.12500 43.28800
C  51.84700 23.79200 43.49400
C  53.58200 26.02200 40.76900
C  52.55700 26.01100 39.64700
H  52.48000 24.83700 38.57700
N  56.94700 23.23500 44.81100
C  56.09800 22.36900 44.26600
C  56.73300 21.11200 44.08100
C  58.10300 21.32900 44.43900
C  58.19100 22.70100 44.97500
C  56.10300 19.89900 43.45400
C  59.27800 20.21800 44.25000
O  58.97100 19.10200 43.76600
C  60.68400 20.51000 44.60200
N  58.52600 25.75600 45.81100
C  59.47200 24.75600 45.88600
C  60.81200 25.21900 46.38300
C  60.46400 26.70400 46.63000
C  59.00300 26.93500 46.13800
C  61.32300 24.45200 47.61200
C  61.43900 27.67600 45.92100
C  61.86400 28.91200 46.71500
N  56.22900 27.48200 45.17000
C  57.01700 28.47500 45.70800
C  56.24300 29.77500 45.65600
C  55.14700 29.46800 44.89800
C  55.20400 28.10500 44.57900
C  56.64900 31.05700 46.24600
C  53.98000 30.02400 44.26600
O  53.58700 31.15400 44.23000
C  53.21400 28.81700 43.57400
C  53.06300 29.19000 42.08800
O  53.90100 29.77500 41.40000
O  51.78700 28.90800 41.75200
C  51.49300 29.15900 40.30400
H  54.39100 22.01500 43.12900
H  60.21300 22.84800 45.70800
H  58.96700 28.93400 46.58400
H  52.07700 26.20500 42.39300
H  52.94400 23.72900 41.63200
H  51.23300 24.60900 43.87500
H  52.25300 23.39200 44.42300
H  51.33200 23.07600 42.85400
H  54.42800 25.37400 40.54000
H  53.90200 27.06300 40.72600
H  52.74500 26.91400 39.06600
H  51.50300 26.07700 39.91800
H  56.23200 19.10900 44.19400
H  56.57900 19.51500 42.55100
H  55.03600 20.08200 43.32800
H  61.26200 19.73300 44.10200
H  60.69600 20.41000 45.68800
H  60.96200 21.50400 44.25400
H  61.42600 25.15400 45.48500
H  60.44800 26.91000 47.70000
H  61.89100 25.15700 48.22000
H  61.89500 23.63600 47.17100
H  60.50900 24.01500 48.19100
H  60.96700 27.92800 44.97200
H  62.35700 27.14600 45.66900
H  61.21500 29.77700 46.57300
H  62.89800 29.23600 46.59900
H  61.72900 28.73900 47.78300
H  57.37700 31.05400 47.05700
H  55.80900 31.45400 46.81600
H  56.99200 31.76500 45.49100
H  52.25300 28.56500 44.02200
H  52.30400 29.43100 39.62800
H  50.86200 30.04100 40.41100
H  50.89600 28.33100 39.92200

