158

Mg 44.96300 5.43600 47.86000
C  42.92100 8.14700 46.85500
C  42.20200 3.33700 47.19700
C  46.98300 2.82600 47.99700
C  47.67700 7.55800 47.70800
N  42.88500 5.70000 47.01000
C  42.21900 6.90700 46.78200
C  40.81100 6.65200 46.22500
C  40.57500 5.23600 46.75100
C  41.97700 4.72800 47.00400
C  39.58400 4.99100 47.89300
C  40.76900 6.83800 44.64200
C  39.60000 7.73000 44.09500
H  38.74100 7.15800 43.00200
N  44.61800 3.33100 47.73400
C  43.43700 2.70700 47.46600
C  43.65700 1.31700 47.66900
C  45.00900 1.15000 47.98600
C  45.63200 2.47800 47.97000
C  42.57700 0.30400 47.38600
C  45.65900 -0.16500 48.33000
O  44.99600 -1.24200 48.19500
C  47.05500 -0.32800 48.93500
N  47.05600 5.22500 47.87500
C  47.66600 4.06500 47.96800
C  49.16100 4.16000 48.08700
C  49.41500 5.74400 48.00400
C  47.93900 6.27000 47.89100
C  49.59600 3.43500 49.31700
C  50.29600 6.09700 46.71800
C  51.81900 6.09100 47.05400
N  45.26100 7.48500 47.70500
C  46.45900 8.20800 47.58400
C  46.16900 9.62500 47.30200
C  44.73200 9.64000 47.17700
C  44.31300 8.29200 47.20400
C  47.18100 10.72800 47.22100
C  43.64700 10.51400 46.84200
O  43.57700 11.70200 46.66500
C  42.38000 9.57100 46.67700
C  41.38700 9.86900 47.64100
O  41.44500 9.39900 48.78900
O  40.21900 10.55800 47.18800
C  39.06800 10.51500 48.00200
H  41.27200 2.77300 47.10600
H  47.63500 1.96200 47.85200
H  48.54500 8.19700 47.53200
H  40.06200 7.30500 46.67400
H  40.09300 4.62500 45.98800
H  40.05600 4.97100 48.87600
H  39.03400 4.05800 47.76700
H  38.86700 5.81100 47.91000
H  40.92200 5.84400 44.22200
H  41.68900 7.38800 44.44600
H  40.09200 8.59300 43.64500
H  38.96000 8.10700 44.89200
H  41.56800 0.68400 47.22600
H  42.37200 -0.42100 48.17300
H  42.78800 -0.39400 46.57500
H  47.74100 -0.43100 48.09400
H  47.12500 -1.23400 49.53800
H  47.28500 0.61400 49.43300
H  49.66400 3.70500 47.23400
H  50.02700 6.04200 48.85500
H  49.79100 2.37700 49.14300
H  48.94400 3.55700 50.18200
H  50.50800 3.99600 49.52600
H  49.96600 7.06900 46.35200
H  50.00000 5.50100 45.85500
H  52.41100 5.87200 46.16600
H  52.09100 5.30100 47.75400
H  52.22100 7.05900 47.35400
H  47.93100 10.36600 46.51900
H  47.54100 11.04200 48.20100
H  46.69600 11.57000 46.72600
H  41.89000 9.74900 45.71900
H  39.05800 11.29000 48.76800
H  39.00500 9.55300 48.51000
H  38.27800 10.73000 47.28200
Mg -4.06800 25.60500 25.93300
C  -2.73700 26.90000 28.91700
C  -6.18600 23.68500 27.76100
C  -4.70000 24.01200 23.18100
C  -1.42200 27.28800 24.22800
N  -4.42100 25.40100 28.11600
C  -3.81900 26.05300 29.09200
C  -4.60800 25.83000 30.39500
C  -5.45800 24.58300 30.08600
C  -5.40500 24.54000 28.55200
C  -4.98900 23.28300 30.72200
C  -5.54100 27.07500 30.64400
C  -5.97000 27.23600 32.15900
H  -5.53900 26.19400 33.21600
N  -5.37800 24.15100 25.48300
C  -6.21900 23.54300 26.34100
C  -7.08600 22.58800 25.63400
C  -6.74100 22.73200 24.22100
C  -5.55800 23.67200 24.24100
C  -8.19700 21.78800 26.22000
C  -7.26700 22.11000 22.90700
O  -6.97300 22.55800 21.83000
C  -8.50200 21.26900 23.03700
N  -3.19300 25.57800 23.96000
C  -3.61100 24.78000 23.04600
C  -2.84400 24.90000 21.75000
C  -1.87000 26.19400 22.02800
C  -2.15800 26.40300 23.51300
C  -2.17000 23.57700 21.24100
C  -2.26800 27.44100 21.10500
C  -1.17500 28.29300 20.51700
N  -2.50300 26.91800 26.39100
C  -1.59400 27.59500 25.58700
C  -0.75200 28.55600 26.36800
C  -1.19400 28.22700 27.69700
C  -2.22800 27.26100 27.65400
C  0.31100 29.47100 25.84800
C  -1.00300 28.59600 29.08700
O  -0.17000 29.34200 29.59700
C  -1.96000 27.73900 29.95800
C  -1.11600 26.87700 30.91800
O  -0.52000 25.83100 30.63400
O  -1.50600 27.24700 32.22600
C  -1.13600 26.28500 33.23200
H  -6.84200 23.00100 28.30400
H  -4.81300 23.42700 22.26600
H  -0.66600 27.93500 23.78000
H  -3.88700 25.66700 31.19500
H  -6.48400 24.77900 30.39700
H  -4.60100 23.47300 31.72300
H  -4.27300 22.82000 30.04200
H  -5.83400 22.60900 30.86000
H  -6.34800 27.02200 29.91300
H  -5.01700 28.01700 30.48400
H  -7.05600 27.30400 32.23100
H  -5.50400 28.20700 32.32900
H  -9.12200 22.21700 25.83400
H  -8.03400 21.80300 27.29700
H  -8.02900 20.73600 25.99000
H  -8.62200 20.75500 22.08300
H  -9.31000 21.96300 23.27200
H  -8.38900 20.48800 23.78900
H  -3.61200 25.10900 21.00500
H  -0.82900 25.88800 21.92700
H  -2.56100 23.32500 20.25500
H  -2.36800 22.85800 22.03700
H  -1.12100 23.78100 21.02900
H  -2.84600 28.22600 21.59200
H  -2.87500 27.08700 20.27200
H  -0.17300 27.90500 20.70100
H  -1.17200 29.28300 20.97400
H  -1.38900 28.35800 19.45000
H  0.72700 30.22300 26.51800
H  -0.10000 30.00700 24.99200
H  1.06100 28.73900 25.54800
H  -2.52800 28.45500 30.55200
H  -1.68900 25.35000 33.13600
H  -1.32100 26.65800 34.23900
H  -0.06300 26.09600 33.22000

