158

Mg 16.97600 -1.59400 28.57200
C  15.82200 0.59800 31.10000
C  18.91900 -3.18200 30.96100
C  18.51800 -3.31400 26.09800
C  15.48000 0.61100 26.25500
N  17.13200 -1.47800 30.83600
C  16.61800 -0.43500 31.60900
C  17.14000 -0.55700 33.05600
C  18.33000 -1.68100 32.91800
C  18.12700 -2.07100 31.43700
C  19.70900 -1.12100 33.29800
C  15.92600 -1.07900 33.87400
C  15.72800 -0.38300 35.23500
H  16.84300 0.25400 35.98800
N  18.29300 -3.16000 28.61700
C  18.95100 -3.72600 29.68600
C  19.56700 -4.94800 29.20000
C  19.61200 -4.92000 27.81900
C  18.80200 -3.74500 27.43200
C  20.15900 -6.01800 30.09300
C  20.20700 -5.93800 26.85100
O  20.12000 -5.85100 25.68600
C  21.12200 -7.00200 27.37900
N  17.16900 -1.23100 26.46200
C  17.80300 -2.20100 25.66500
C  17.53600 -1.89500 24.21600
C  16.40400 -0.81200 24.27400
C  16.31600 -0.42900 25.72300
C  18.94200 -1.48600 23.57300
C  15.04500 -1.25800 23.63900
C  14.38600 -0.22000 22.66000
N  15.72300 0.12000 28.63100
C  15.21000 0.89600 27.57700
C  14.34200 1.95100 28.12400
C  14.52200 1.83300 29.49600
C  15.45600 0.76500 29.73700
C  13.61500 3.06300 27.35800
C  14.17400 2.45400 30.79100
O  13.44400 3.34100 31.10900
C  15.14800 1.73100 31.85500
C  16.07300 2.78900 32.48600
O  17.00700 3.33100 31.84200
O  15.68700 3.15300 33.77400
C  16.48200 4.19800 34.40200
H  19.55200 -3.53100 31.78000
H  19.03000 -3.81700 25.27400
H  14.89100 1.19300 25.54400
H  17.53200 0.41000 33.37000
H  18.09700 -2.55800 33.52000
H  19.70800 -0.15100 33.79400
H  20.37700 -1.14600 32.43700
H  20.22700 -1.81600 33.96000
H  15.87800 -2.15000 34.07200
H  15.03100 -0.87400 33.28600
H  15.47200 -1.26500 35.82100
H  14.80300 0.18800 35.31100
H  21.20100 -6.07300 30.40600
H  19.68900 -6.94100 29.75200
H  19.69600 -5.81000 31.05800
H  21.99600 -6.62800 27.91300
H  21.42500 -7.60300 26.52200
H  20.51400 -7.68500 27.97100
H  17.14500 -2.79900 23.74900
H  16.62000 0.14500 23.79800
H  19.00000 -0.40500 23.44400
H  19.07100 -1.97300 22.60600
H  19.80900 -1.74500 24.18100
H  14.48400 -1.50200 24.54200
H  15.09400 -2.20000 23.09200
H  15.20200 0.38300 22.26100
H  13.69900 0.36800 23.26700
H  13.82400 -0.65500 21.83300
H  13.83900 3.16500 26.29700
H  13.91900 4.05300 27.69900
H  12.58200 2.79400 27.58100
H  14.49300 1.43700 32.67500
H  16.47400 5.00500 33.67000
H  17.46400 3.74900 34.54900
H  16.03600 4.48100 35.35600
Mg 25.24100 1.23700 30.01400
C  27.26600 1.17400 32.76400
C  22.54800 1.53800 31.99400
C  23.44700 1.19400 27.16700
C  28.11100 0.51900 28.09300
N  24.96500 1.32800 32.18200
C  25.90400 1.45000 33.12400
C  25.33500 1.60900 34.54700
C  23.74500 1.64600 34.29600
C  23.72100 1.39700 32.76900
C  22.86900 0.60700 35.13300
C  25.91200 2.79600 35.39000
C  26.42400 2.53200 36.83000
H  26.10600 3.46400 37.98500
N  23.21600 1.18200 29.59300
C  22.27300 1.38900 30.56900
C  20.97800 1.49900 29.87300
C  21.22400 1.46100 28.50000
C  22.67100 1.21500 28.34900
C  19.67300 1.66800 30.65000
C  20.17300 1.51500 27.32200
O  20.46200 1.44100 26.10000
C  18.63200 1.55100 27.67500
N  25.71000 0.79400 27.87700
C  24.76200 0.97500 26.92400
C  25.37000 1.06100 25.52200
C  26.93100 0.79200 25.82400
C  26.91100 0.63800 27.34000
C  24.74000 0.11100 24.45200
C  27.95300 1.84400 25.20300
C  27.86500 3.22400 25.88800
N  27.22100 0.82100 30.34000
C  28.25300 0.56500 29.47900
C  29.49800 0.30400 30.22000
C  29.14400 0.54800 31.49500
C  27.76400 0.90400 31.52300
C  30.89100 -0.07400 29.63000
C  29.69200 0.63700 32.85600
O  30.77100 0.53800 33.33000
C  28.39600 0.99000 33.76900
C  28.18000 -0.10600 34.76200
O  27.58000 -1.14100 34.52100
O  28.61700 0.31300 36.00700
C  28.50200 -0.66800 37.09700
H  21.66300 1.58000 32.63200
H  22.80500 1.28900 26.28900
H  29.02200 0.31500 27.52600
H  25.61300 0.73500 35.13600
H  23.27900 2.62600 34.40400
H  22.38200 1.18500 35.91900
H  23.58300 -0.13500 35.49100
H  22.24900 0.06200 34.42200
H  25.15600 3.57900 35.44200
H  26.76200 3.17800 34.82400
H  27.50600 2.44000 36.93000
H  26.14100 1.50400 37.05400
H  19.76600 1.79800 31.72800
H  19.11600 0.73000 30.64600
H  19.09000 2.55200 30.39200
H  18.33000 0.63500 28.18400
H  18.14700 1.59500 26.70000
H  18.36000 2.47400 28.18600
H  25.26700 2.11000 25.24700
H  27.21900 -0.21100 25.50900
H  24.13700 0.65400 23.72400
H  24.05400 -0.59900 24.91300
H  25.53900 -0.31100 23.84300
H  27.74200 1.99600 24.14500
H  28.92100 1.38700 25.41300
H  27.73400 3.05300 26.95700
H  27.07900 3.84000 25.45100
H  28.87700 3.60100 25.74600
H  30.76600 -0.47900 28.62600
H  31.30400 -0.83000 30.29700
H  31.49100 0.83700 29.63900
H  28.59400 1.88400 34.36100
H  28.98100 -1.59500 36.78100
H  27.46700 -0.82200 37.40300
H  29.01700 -0.34000 38.00000

