158

Mg 36.12600 49.12900 24.98800
C  36.43100 47.57600 28.02900
C  35.20800 52.08200 26.64300
C  35.65100 50.65300 22.09900
C  37.25200 46.19500 23.42200
N  35.96100 49.77200 27.09500
C  36.12100 48.94800 28.16400
C  36.21700 49.82200 29.45800
C  35.71500 51.22600 29.00600
C  35.63600 51.01600 27.46600
C  34.35100 51.63400 29.67500
C  37.56000 49.77300 30.16900
C  37.39400 49.31500 31.63500
H  36.03200 49.43000 32.51100
N  35.51700 51.08300 24.48700
C  35.11900 52.13000 25.27800
C  34.75000 53.30000 24.42600
C  34.80400 52.87400 23.11000
C  35.34000 51.47500 23.16600
C  34.51600 54.64100 25.01600
C  34.51700 53.69200 21.85200
O  34.62100 53.25200 20.72200
C  33.94200 55.00600 22.00400
N  36.33400 48.52300 23.08500
C  36.14600 49.35500 22.00900
C  36.61600 48.80300 20.68500
C  37.23900 47.46000 21.08700
C  36.96500 47.34300 22.65600
C  35.52100 48.59800 19.57100
C  38.72000 47.20500 20.86800
C  38.99900 45.98200 19.95700
N  36.60800 47.25500 25.51600
C  37.02500 46.12700 24.83000
C  37.20900 45.00200 25.67600
C  37.05600 45.59400 26.98400
C  36.64400 46.93100 26.83700
C  37.56500 43.65700 25.20800
C  37.13700 45.26000 28.39900
O  37.47000 44.17900 28.90500
C  36.83200 46.56800 29.17600
C  35.67600 46.31400 30.08400
O  34.52700 46.10100 29.66600
O  35.99800 46.00600 31.37900
C  35.08600 45.25400 32.22900
H  34.81900 52.96300 27.15800
H  35.60700 51.13100 21.11900
H  37.77300 45.35500 22.95800
H  35.48800 49.30300 30.08100
H  36.42800 52.03000 29.18800
H  33.40900 51.35700 29.20100
H  34.27300 52.70300 29.87000
H  34.40200 51.18000 30.66400
H  38.02500 50.75800 30.17500
H  38.27500 49.18300 29.59600
H  38.20500 49.87200 32.10300
H  37.54800 48.23600 31.67100
H  33.45700 54.89800 24.99200
H  35.11200 55.34000 24.42900
H  34.89300 54.72400 26.03500
H  33.00500 54.89500 22.55100
H  33.67200 55.43500 21.04000
H  34.70600 55.65800 22.42800
H  37.31300 49.59600 20.41500
H  36.60500 46.67600 20.67400
H  34.59600 48.22700 20.01200
H  35.84100 47.82000 18.87700
H  35.42200 49.54700 19.04300
H  39.21300 47.10700 21.83500
H  39.09200 48.12000 20.40600
H  39.76600 45.39400 20.46100
H  39.33500 46.54400 19.08600
H  38.10700 45.44200 19.64100
H  38.60500 43.51000 24.91600
H  36.93500 43.26700 24.40900
H  37.31700 43.06500 26.08900
H  37.71000 46.92000 29.71800
H  34.85600 44.34800 31.66800
H  34.20200 45.87600 32.37000
H  35.60400 45.00900 33.15600
Mg 0.18700 42.87800 26.74300
C  2.39700 42.92700 29.45200
C  -2.32800 42.26800 29.01500
C  -1.87800 42.38900 24.12900
C  2.86300 43.15200 24.56600
N  0.02800 42.58100 29.00800
C  1.09300 42.74600 29.84400
C  0.63600 42.74700 31.27000
C  -0.88400 42.29700 31.20300
C  -1.09000 42.37100 29.66300
C  -1.07600 40.79600 31.61600
C  0.69900 44.20900 31.94500
C  1.08900 44.34200 33.38400
H  0.94300 43.19900 34.33500
N  -1.86600 42.28100 26.58100
C  -2.74800 42.28600 27.69200
C  -4.12400 42.11300 27.15300
C  -3.95700 42.14700 25.70900
C  -2.51300 42.27700 25.38400
C  -5.23200 41.87300 28.11600
C  -5.01500 42.04300 24.60400
O  -4.83600 42.05600 23.37700
C  -6.46700 41.95900 25.06200
N  0.43000 42.74900 24.66000
C  -0.54500 42.54500 23.78100
C  -0.04400 42.47000 22.23400
C  1.35700 43.27600 22.47600
C  1.59500 43.06200 24.00700
C  -0.01400 41.09200 21.59100
C  1.21800 44.78500 22.06300
C  1.27400 45.92500 23.12700
N  2.19200 43.03000 26.89900
C  3.18400 43.11700 25.93200
C  4.47500 43.14800 26.55800
C  4.22200 43.09500 27.93200
C  2.83500 42.98100 28.13000
C  5.86300 43.29700 25.84300
C  4.87800 43.03700 29.22100
O  6.04400 42.98200 29.62400
C  3.59800 43.00700 30.23600
C  3.85900 41.86100 31.12100
O  3.79900 40.70000 30.75700
O  4.12600 42.30500 32.41800
C  4.63200 41.34800 33.43100
H  -3.13800 42.33100 29.74500
H  -2.58200 42.32500 23.29700
H  3.67400 43.35400 23.86200
H  1.20300 42.04800 31.88500
H  -1.51300 42.96000 31.79600
H  -1.40700 40.24800 30.73500
H  -1.87800 40.74700 32.35200
H  -0.26300 40.25600 32.10200
H  -0.20100 44.74300 31.64000
H  1.46900 44.78200 31.42900
H  0.42800 45.10400 33.79800
H  2.13200 44.64600 33.48100
H  -4.97000 40.91800 28.57000
H  -6.20400 41.68000 27.66300
H  -5.36200 42.52700 28.97800
H  -6.39600 41.09900 25.72800
H  -7.25700 41.76300 24.33700
H  -6.70500 42.75900 25.76200
H  -0.74600 43.05600 21.64100
H  2.17600 42.90400 21.86000
H  -0.41300 40.30200 22.22700
H  1.01600 40.81200 21.37300
H  -0.50400 41.03700 20.61800
H  0.42200 44.94100 21.33400
H  2.09300 44.99700 21.44800
H  0.39700 46.54100 22.92800
H  2.15300 46.55200 22.98200
H  1.11100 45.48600 24.11100
H  5.73300 42.87000 24.84800
H  6.55800 42.73300 26.46500
H  6.22000 44.32100 25.72900
H  3.56000 43.91200 30.84200
H  5.21100 40.56900 32.93400
H  3.83000 40.86300 33.98700
H  5.31000 41.91800 34.06700

