158

Mg 47.20000 24.60200 27.17400
C  48.48500 26.85300 29.64000
C  46.27200 22.49800 29.72800
C  46.46000 22.24600 24.88200
C  48.48600 26.73700 24.63500
N  47.52000 24.66600 29.46600
C  47.83900 25.72900 30.20800
C  47.55900 25.45800 31.67800
C  47.23100 23.91100 31.61800
C  46.87700 23.75100 30.13900
C  48.48300 22.98700 32.03700
C  46.38600 26.36300 32.21800
C  45.88100 25.85100 33.63700
H  46.03300 26.84200 34.75000
N  46.38400 22.70800 27.24300
C  46.06600 22.05000 28.40300
C  45.51000 20.76200 28.09000
C  45.43900 20.70100 26.69200
C  46.17000 21.89500 26.16700
C  45.01000 19.74200 29.12400
C  44.90500 19.59200 25.76400
O  45.02800 19.75100 24.55700
C  44.31300 18.29400 26.32900
N  47.24800 24.60300 25.03700
C  46.99600 23.42400 24.39000
C  47.14500 23.71100 22.85700
C  47.64100 25.16700 22.79900
C  47.86200 25.52500 24.26500
C  47.91600 22.64800 22.15000
C  46.65600 26.14300 22.08700
C  47.29700 27.10200 21.09400
N  48.27100 26.35700 27.10100
C  48.77500 27.09900 26.00200
C  49.55600 28.30000 26.48900
C  49.40900 28.18800 27.86400
C  48.64100 27.03200 28.23900
C  50.21800 29.38800 25.71400
C  49.62900 28.94300 29.16900
O  50.23200 29.95200 29.35700
C  48.89500 28.17600 30.34200
C  49.84000 27.87700 31.44100
O  50.72100 27.06600 31.55200
O  49.29600 28.56500 32.51500
C  49.98200 28.42600 33.80700
H  46.02500 21.84000 30.56400
H  46.30400 21.67500 23.96400
H  48.69700 27.48200 23.86400
H  48.43400 25.65300 32.29800
H  46.35600 23.64400 32.21200
H  48.91100 22.51400 31.15300
H  48.21400 22.14300 32.67300
H  49.24600 23.56700 32.55600
H  45.52700 26.13900 31.58600
H  46.52800 27.44200 32.26600
H  46.51800 25.07200 34.05500
H  44.87600 25.42900 33.65100
H  45.00400 20.05900 30.16700
H  45.48300 18.77300 28.97100
H  43.95800 19.50900 28.95700
H  43.44600 18.48400 26.96200
H  45.08900 17.81800 26.92900
H  43.91300 17.70400 25.50400
H  46.16300 23.66200 22.38600
H  48.57100 25.25300 22.23600
H  47.28400 21.89600 21.67600
H  48.46100 22.12500 22.93600
H  48.63500 23.07700 21.45200
H  46.08700 26.80600 22.73900
H  45.81700 25.71200 21.54100
H  47.18400 28.11400 21.48100
H  46.95900 27.14900 20.05900
H  48.36300 26.90900 20.96900
H  50.33400 29.10100 24.66900
H  51.19600 29.51900 26.17600
H  49.78600 30.38700 25.78700
H  48.13300 28.91700 30.58600
H  51.06300 28.28600 33.80100
H  49.49800 27.66900 34.42300
H  49.92800 29.34300 34.39400
Mg 0.70200 44.02000 26.15700
C  2.11400 43.92200 29.24000
C  -2.42500 43.16600 27.47800
C  -0.63300 44.13200 23.05300
C  3.89200 44.64000 24.75100
N  0.00800 43.43200 28.06400
C  0.81000 43.55200 29.25100
C  -0.04000 43.57900 30.57200
C  -1.45800 43.17300 30.00200
C  -1.34700 43.28900 28.40200
C  -2.03300 41.85700 30.54900
C  -0.03400 44.95100 31.34800
C  -0.16600 44.84500 32.86200
H  -0.38400 43.51400 33.68400
N  -1.22200 43.63800 25.39200
C  -2.34800 43.28800 26.17500
C  -3.50700 43.22900 25.29700
C  -3.06200 43.63900 23.99000
C  -1.58900 43.82700 24.08800
C  -4.94100 42.86100 25.86000
C  -3.85300 43.98900 22.71800
O  -3.34300 44.38800 21.71300
C  -5.37100 44.00900 22.71300
N  1.51000 44.18300 24.16500
C  0.78300 44.23600 23.02900
C  1.55300 44.67700 21.79600
C  2.95100 45.09000 22.42600
C  2.82000 44.60000 23.86800
C  1.65000 43.62800 20.77800
C  3.14700 46.62400 22.34500
C  2.88400 47.47900 21.09200
N  2.62100 44.30800 26.78800
C  3.84500 44.44200 26.11900
C  4.86700 44.47500 27.12800
C  4.24300 44.27200 28.33800
C  2.92300 44.12700 28.05000
C  6.38200 44.65600 26.89000
C  4.54600 44.08000 29.69500
O  5.56000 44.21200 30.38900
C  3.12000 43.85000 30.38300
C  3.16400 42.59600 31.16200
O  2.85100 41.45600 30.77400
O  3.68400 42.80100 32.48700
C  3.92800 41.62300 33.31700
H  -3.39000 43.10500 27.98700
H  -1.05800 44.26100 22.05500
H  4.91900 44.75800 24.40000
H  0.31700 42.87100 31.32000
H  -2.20600 43.92400 30.25500
H  -1.12700 41.30800 30.80600
H  -2.51200 41.25600 29.77600
H  -2.77700 42.12900 31.29800
H  -0.93500 45.50800 31.09000
H  0.74900 45.65200 31.05800
H  -0.95500 45.50800 33.21800
H  0.67600 45.36800 33.31600
H  -4.82400 41.98900 26.50300
H  -5.54400 42.66700 24.97200
H  -5.26700 43.68300 26.49700
H  -5.79400 43.03700 22.46000
H  -5.58000 44.62600 21.83900
H  -5.82400 44.39100 23.62800
H  1.13000 45.52500 21.25700
H  3.80000 44.61700 21.93200
H  1.10200 42.72200 21.03600
H  2.68400 43.44100 20.48800
H  1.21700 44.05000 19.87200
H  4.21900 46.77900 22.47400
H  2.66500 47.06900 23.21600
H  3.83800 47.95100 20.85900
H  2.08100 48.18100 21.31500
H  2.57900 46.79200 20.30200
H  6.89000 43.75300 26.55100
H  6.61800 45.10700 27.85300
H  6.54100 45.42700 26.13600
H  2.93000 44.64600 31.10200
H  3.06700 40.96200 33.22500
H  3.98000 42.00600 34.33600
H  4.88000 41.18300 33.01700

