158

Mg -0.32700 7.33400 26.24500
C  0.95900 9.26000 28.96900
C  -0.64800 4.78300 28.59600
C  -1.40300 5.38600 23.85600
C  0.27900 9.99700 24.11700
N  0.04300 7.09800 28.50600
C  0.53300 8.04200 29.43700
C  0.38500 7.63000 30.88800
C  0.07500 6.09600 30.68200
C  -0.20300 5.98800 29.14100
C  1.23800 5.21500 31.19600
C  -0.68400 8.44300 31.61600
C  -0.85600 8.24600 33.16300
H  0.21000 7.64600 34.02300
N  -0.77100 5.28600 26.17300
C  -0.88400 4.41500 27.24900
C  -1.42900 3.12800 26.75500
C  -1.80500 3.34900 25.41500
C  -1.36000 4.71500 25.10200
C  -1.55000 1.88500 27.62800
C  -2.28300 2.30100 24.41600
O  -2.49000 2.65500 23.26200
C  -2.43100 0.84700 24.76300
N  -0.52600 7.62700 24.27000
C  -1.04300 6.69700 23.45300
C  -1.49300 7.26500 22.05700
C  -1.12400 8.71000 22.22800
C  -0.43000 8.84700 23.60900
C  -0.86800 6.66500 20.75500
C  -2.35900 9.71900 22.15700
C  -2.23600 10.77600 21.11900
N  0.36000 9.21900 26.45700
C  0.69800 10.12900 25.46100
C  1.21200 11.36900 26.05600
C  1.37800 11.01400 27.40900
C  0.88800 9.71100 27.57300
C  1.50400 12.71100 25.39500
C  1.75100 11.63500 28.57500
O  2.26300 12.73300 28.85600
C  1.39600 10.58900 29.72900
C  2.57000 10.26600 30.58200
O  3.55000 9.72700 30.29200
O  2.50000 10.93100 31.77900
C  3.59100 10.79700 32.77200
H  -0.72600 4.00300 29.35600
H  -1.86300 4.93600 22.97400
H  0.57800 10.76100 23.39600
H  1.32900 7.77800 31.41300
H  -0.85000 5.85500 31.20500
H  1.65700 4.75600 30.30100
H  0.80800 4.48400 31.88100
H  1.99300 5.77900 31.74500
H  -1.66600 8.22100 31.19700
H  -0.53100 9.51500 31.49000
H  -1.77900 7.71300 33.39100
H  -0.93300 9.26500 33.54200
H  -1.30800 0.92400 27.17400
H  -2.58000 1.87000 27.98300
H  -0.86500 2.03600 28.46200
H  -2.85500 0.24500 23.95900
H  -2.98900 0.69000 25.68600
H  -1.47400 0.32500 24.78700
H  -2.55800 7.04900 22.14300
H  -0.28400 9.00000 21.59600
H  -1.41700 5.87000 20.25100
H  0.17500 6.38300 20.90500
H  -0.79100 7.51300 20.07400
H  -2.48200 10.08900 23.17500
H  -3.25900 9.18400 21.85800
H  -1.26200 10.77100 20.62900
H  -2.43200 11.71300 21.64000
H  -3.05000 10.70100 20.39800
H  0.65200 13.28000 25.02400
H  2.12200 12.45200 24.53500
H  2.04300 13.38800 26.05900
H  0.67000 11.09000 30.36900
H  4.49500 10.35900 32.34700
H  3.16000 10.21300 33.58500
H  3.76800 11.83900 33.03900
Mg 7.41700 2.76200 28.21500
C  8.80300 1.47100 31.32600
C  5.47300 4.83400 30.21600
C  5.94200 3.68100 25.48700
C  9.15600 0.22000 26.61900
N  7.13100 3.01600 30.49000
C  7.86800 2.50600 31.48800
C  7.60800 3.20400 32.82700
C  6.38200 4.10000 32.50900
C  6.33400 4.01100 30.95000
C  5.11800 3.83300 33.40900
C  8.84900 4.00400 33.32900
C  8.67600 4.75200 34.69500
H  9.53100 4.18400 35.80300
N  5.88600 4.11900 27.89900
C  5.24800 4.93900 28.83100
C  4.47100 5.87300 28.05900
C  4.56500 5.61300 26.64400
C  5.41500 4.42100 26.63700
C  3.64900 7.05000 28.69500
C  4.03600 6.38200 25.42700
O  4.22100 6.00200 24.25400
C  3.12600 7.56100 25.56700
N  7.57400 2.14700 26.38900
C  6.86400 2.64700 25.35300
C  7.31600 2.12100 24.01100
C  8.49400 1.18100 24.38100
C  8.37800 1.18800 25.92100
C  6.18000 1.40200 23.29500
C  9.86200 1.71400 23.81900
C  10.94800 2.43400 24.69300
N  8.60800 1.08700 28.83000
C  9.24600 0.07900 28.03000
C  9.92000 -0.91000 28.83400
C  9.78500 -0.36200 30.07000
C  8.96600 0.80000 30.08200
C  10.74600 -2.06200 28.33800
C  10.35200 -0.43400 31.36800
O  11.20100 -1.16500 31.81400
C  9.60900 0.61200 32.26700
C  8.68900 -0.16600 33.18900
O  7.64500 -0.76500 32.79500
O  9.08400 -0.07200 34.47100
C  8.46900 -1.00000 35.42800
H  4.89600 5.46600 30.89400
H  5.52900 4.01300 24.53200
H  9.75900 -0.47700 26.03400
H  7.34300 2.45100 33.56900
H  6.78800 5.04100 32.88100
H  4.89300 4.72900 33.98600
H  5.28400 3.00100 34.09300
H  4.29700 3.56200 32.74500
H  9.28900 4.65300 32.57100
H  9.72200 3.36500 33.45800
H  7.62900 4.67300 34.98700
H  8.92800 5.79700 34.51000
H  2.62600 6.68200 28.60800
H  3.59900 8.05600 28.27800
H  3.79300 7.21900 29.76200
H  3.46700 8.42800 25.00100
H  2.76600 7.85400 26.55300
H  2.22100 7.21600 25.06700
H  7.50900 3.00600 23.40500
H  8.36200 0.10900 24.23300
H  5.28000 1.25100 23.89100
H  6.43400 0.42200 22.89100
H  5.92800 1.97400 22.40200
H  9.57200 2.28100 22.93500
H  10.29300 0.78800 23.43700
H  10.56600 2.75400 25.66300
H  11.21900 3.33700 24.14600
H  11.82500 1.80400 24.84300
H  10.70400 -1.95200 27.25500
H  10.24100 -3.00400 28.54900
H  11.73300 -1.99400 28.79600
H  10.31600 1.27700 32.76500
H  9.17200 -1.73600 35.81900
H  7.63700 -1.58400 35.03500
H  7.97700 -0.39200 36.18700

