158

Mg 24.52200 1.46700 29.11800
C  26.62400 0.75100 31.89300
C  21.93100 1.35500 31.14700
C  22.54800 2.05900 26.34100
C  27.31600 1.16800 27.06800
N  24.36200 1.15000 31.30100
C  25.29800 1.00000 32.25700
C  24.73300 1.03800 33.63600
C  23.19200 1.30700 33.40000
C  23.15500 1.32200 31.86500
C  22.18200 0.34100 34.11700
C  25.50000 2.07900 34.57000
C  24.67100 2.72300 35.65200
H  25.45400 3.28100 36.82300
N  22.54200 1.65100 28.87500
C  21.59100 1.51600 29.79700
C  20.27400 1.62300 29.23500
C  20.45400 1.69300 27.81200
C  21.90400 1.85200 27.60800
C  19.01700 1.34600 30.04600
C  19.40900 1.55200 26.68900
O  19.65800 1.43200 25.47100
C  17.98100 1.52900 27.07300
N  24.85700 1.73600 27.06000
C  23.91800 1.96600 26.10800
C  24.58400 2.15200 24.75300
C  26.10500 2.02500 25.01000
C  26.12000 1.66000 26.50100
C  24.08200 1.48600 23.50000
C  26.85700 3.40300 24.79200
C  26.64200 4.42500 25.91700
N  26.49400 0.78100 29.28100
C  27.49600 0.73600 28.37000
C  28.73300 0.38400 29.01100
C  28.43600 0.50100 30.39100
C  27.03200 0.59800 30.53100
C  29.97000 0.08700 28.34200
C  29.03200 0.46200 31.67700
O  30.16000 0.25300 32.12600
C  27.87600 0.71600 32.71900
C  28.02300 -0.41400 33.73300
O  27.58300 -1.50600 33.55700
O  28.66000 0.05100 34.95600
C  28.79900 -1.02200 36.04100
H  21.14500 1.36800 31.90400
H  22.06600 2.18900 25.36900
H  28.17000 1.12500 26.38900
H  24.94000 0.04300 34.02800
H  23.05100 2.33300 33.74000
H  21.73200 0.91600 34.92700
H  22.75800 -0.41700 34.64700
H  21.60200 -0.11900 33.31700
H  25.95900 2.88400 33.99600
H  26.30200 1.56700 35.10100
H  24.00200 1.88800 35.86200
H  24.17400 3.62700 35.29800
H  18.77400 0.30600 29.82900
H  18.16100 1.98300 29.82500
H  19.29300 1.48100 31.09100
H  17.34400 1.60600 26.19200
H  17.80500 2.32100 27.80100
H  17.86800 0.50000 27.41700
H  24.35700 3.17300 24.44600
H  26.48300 1.18800 24.42300
H  23.65600 2.24000 22.83800
H  23.33600 0.72900 23.74100
H  24.90600 1.06400 22.92400
H  26.28700 3.81100 23.95700
H  27.89500 3.27800 24.48700
H  26.76000 4.13000 26.95900
H  25.65300 4.87800 25.84000
H  27.33500 5.26500 25.87500
H  29.73700 -0.18800 27.31300
H  30.52200 -0.67800 28.88600
H  30.59700 0.97600 28.40700
H  27.98800 1.68800 33.19900
H  28.34700 -1.98400 35.80100
H  28.21600 -0.67800 36.89600
H  29.81700 -1.12500 36.41600
Mg 41.00200 9.52100 30.24100
C  43.07000 10.64100 32.58300
C  38.89500 8.12500 32.63300
C  38.95400 8.37500 27.74300
C  43.30300 10.60500 27.74400
N  40.98700 9.32400 32.28600
C  41.92900 10.02200 33.09300
C  41.58400 9.92300 34.57900
C  40.35700 8.85100 34.57700
C  40.11200 8.69400 33.07800
C  40.62300 7.53800 35.35700
C  41.25900 11.29300 35.31300
C  41.96500 11.48600 36.64700
H  41.32300 12.21000 37.90300
N  39.17100 8.45000 30.17700
C  38.49000 7.97800 31.30000
C  37.16600 7.41000 30.79800
C  37.18300 7.41700 29.36500
C  38.48300 8.09200 29.01500
C  36.18500 6.69900 31.69700
C  36.19700 6.83300 28.36500
O  36.37700 6.67200 27.17200
C  34.92700 6.18200 28.87400
N  41.11200 9.58900 28.03400
C  40.15700 8.93900 27.27000
C  40.41700 9.16700 25.69200
C  41.83500 9.86300 25.75500
C  42.12400 10.04000 27.25300
C  40.26100 7.84100 24.87900
C  41.90000 11.18200 24.87300
C  41.19100 12.40800 25.54100
N  42.96700 10.33900 30.10700
C  43.68600 10.85900 29.09100
C  44.84500 11.52800 29.59900
C  44.69200 11.51600 31.01600
C  43.51600 10.73300 31.23900
C  45.96700 12.10700 28.83300
C  45.12200 11.98000 32.31300
O  46.09400 12.66100 32.68800
C  44.14200 11.38700 33.38000
C  44.92500 10.65400 34.38600
O  45.32100 9.47900 34.33300
O  45.08600 11.42400 35.48200
C  45.66700 10.90400 36.74000
H  38.08500 7.91700 33.33600
H  38.40300 8.02200 26.86900
H  44.00900 10.79000 26.93200
H  42.50500 9.63900 35.08800
H  39.43900 9.27900 34.98000
H  40.61100 6.72200 34.63400
H  39.97100 7.39800 36.21900
H  41.65000 7.49700 35.72000
H  40.20800 11.32700 35.60000
H  41.42400 12.12100 34.62300
H  42.81900 12.08600 36.33400
H  42.46100 10.58000 36.99500
H  36.49800 6.68100 32.74100
H  36.06300 5.65900 31.39600
H  35.20300 7.16800 31.74600
H  34.24500 5.85200 28.09000
H  34.45300 7.00400 29.41000
H  35.04700 5.29100 29.49100
H  39.78000 9.99900 25.39600
H  42.52700 9.07400 25.46000
H  39.99700 6.94700 25.44400
H  41.07000 7.45600 24.25900
H  39.38500 8.06400 24.26900
H  41.36200 11.08900 23.93000
H  42.92400 11.41500 24.58000
H  40.69700 12.95200 24.73700
H  42.03500 12.97600 25.93200
H  40.44100 11.95300 26.18900
H  45.73100 12.94000 28.17000
H  46.27200 11.33100 28.13100
H  46.73700 12.27500 29.58700
H  43.75000 12.29300 33.84300
H  46.32500 10.05400 36.56000
H  44.89300 10.66400 37.46900
H  46.28100 11.74100 37.07200

