158

Mg 8.65300 3.51000 27.97500
C  10.11500 2.03300 30.82800
C  6.93600 5.66500 30.11800
C  6.95700 4.89400 25.23400
C  9.99200 1.15500 25.90300
N  8.54800 3.82700 30.18500
C  9.29600 3.12000 31.14400
C  9.09900 3.66500 32.55000
C  7.94600 4.78200 32.33200
C  7.80100 4.76200 30.78000
C  6.63200 4.62100 33.05700
C  10.40800 4.33900 33.13000
C  10.98400 3.77500 34.43700
H  10.88100 4.79400 35.67900
N  7.14800 5.10300 27.69600
C  6.59600 5.88300 28.67600
C  5.65700 6.84300 28.14500
C  5.63900 6.57900 26.71300
C  6.60900 5.47600 26.48300
C  4.85300 7.72700 28.95800
C  4.77400 7.19700 25.64100
O  4.63300 6.78100 24.48500
C  3.97400 8.45200 25.97600
N  8.66400 3.18000 25.91300
C  7.94000 3.83000 25.00800
C  8.23700 3.30300 23.58600
C  9.31400 2.26300 23.76900
C  9.30400 2.16600 25.30500
C  6.95700 2.90200 22.78700
C  10.70800 2.65600 23.15200
C  11.54600 1.48100 22.54800
N  9.78200 1.88300 28.23700
C  10.21400 1.01900 27.27700
C  11.14400 0.13300 27.93100
C  11.18700 0.48500 29.30300
C  10.29400 1.55300 29.45300
C  11.74400 -1.07900 27.21000
C  11.66500 0.14000 30.59400
O  12.40700 -0.79700 30.94400
C  11.17000 1.30500 31.60000
C  10.52600 0.64800 32.76200
O  9.34900 0.22200 32.77600
O  11.42100 0.51900 33.76000
C  11.12200 0.09500 35.09400
H  6.40500 6.38900 30.73900
H  6.46800 5.30500 24.34800
H  10.58100 0.40300 25.37300
H  8.70000 2.88400 33.19800
H  8.30200 5.75100 32.68300
H  6.36200 5.45600 33.70300
H  6.60600 3.63900 33.52900
H  5.91200 4.55700 32.24000
H  10.16000 5.36300 33.41100
H  11.18200 4.32500 32.36200
H  12.00600 3.42000 34.29800
H  10.39600 2.88800 34.67100
H  4.59300 7.31800 29.93400
H  3.89900 7.83900 28.44400
H  5.26100 8.73700 28.98000
H  3.89800 9.13700 25.13200
H  4.60000 9.01700 26.66700
H  3.05400 8.17900 26.49400
H  8.56300 4.16800 23.00800
H  9.15200 1.28600 23.31400
H  6.01900 2.92900 23.34100
H  7.04300 1.87800 22.42500
H  6.66300 3.67600 22.07700
H  11.33500 3.10600 23.92200
H  10.63800 3.34200 22.30800
H  11.84000 1.58200 21.50300
H  11.04900 0.51500 22.63200
H  12.44100 1.35800 23.15900
H  12.56100 -0.72400 26.58200
H  11.02700 -1.56400 26.54900
H  12.08400 -1.85500 27.89600
H  11.95300 1.97900 31.94800
H  10.36500 0.74700 35.52900
H  11.95000 0.06500 35.80200
H  10.62900 -0.87400 35.00900
Mg -2.23500 34.99100 26.71500
C  -3.88400 33.40100 29.36600
C  -0.89300 37.19400 28.94300
C  -1.17600 36.80600 24.14800
C  -4.27600 33.02700 24.48100
N  -2.34200 35.21000 28.89300
C  -3.07700 34.39200 29.77700
C  -2.83500 34.85800 31.22700
C  -1.97900 36.18300 31.04300
C  -1.73900 36.27300 29.56200
C  -2.67600 37.46700 31.65000
C  -2.07300 33.84400 32.15900
C  -2.78900 33.32200 33.39200
H  -2.03800 33.32000 34.75600
N  -1.06000 36.64700 26.52300
C  -0.60000 37.41700 27.52300
C  0.25300 38.44200 27.02700
C  0.33300 38.24900 25.69500
C  -0.65700 37.22400 25.41900
C  0.96200 39.38700 27.91100
C  1.33200 38.76400 24.59500
O  1.36400 38.25600 23.47300
C  2.31400 39.86600 25.00500
N  -2.70000 34.97700 24.61400
C  -2.08100 35.81500 23.78400
C  -2.66800 35.72300 22.39400
C  -3.41500 34.36300 22.44100
C  -3.50900 34.09400 23.91100
C  -3.60400 36.95800 22.07300
C  -2.87500 33.18300 21.58000
C  -1.74500 32.21300 22.21300
N  -3.66700 33.52900 26.84000
C  -4.29200 32.71300 25.82900
C  -5.14300 31.75500 26.47800
C  -5.06800 32.00200 27.87600
C  -4.11000 33.02100 28.04400
C  -5.99400 30.74800 25.77200
C  -5.55200 31.68800 29.12500
O  -6.40500 30.88500 29.46500
C  -4.79100 32.54300 30.19900
C  -5.90100 33.29100 30.98200
O  -6.80300 33.90500 30.45600
O  -5.76500 32.89200 32.27000
C  -7.02600 33.15700 33.00700
H  -0.41900 37.77700 29.73500
H  -0.70400 37.28200 23.28600
H  -4.85000 32.33500 23.86200
H  -3.80300 35.03200 31.69800
H  -1.01200 36.00100 31.51200
H  -1.92600 37.97500 32.25600
H  -3.52000 37.17900 32.27700
H  -2.95300 38.22800 30.92000
H  -1.07900 34.18800 32.44300
H  -2.00800 32.98000 31.49700
H  -2.95000 32.25300 33.25300
H  -3.78600 33.76100 33.41100
H  1.04100 40.27400 27.28400
H  2.00100 39.11900 28.10500
H  0.50400 39.62100 28.87200
H  3.05900 39.98300 24.21800
H  2.92100 39.57700 25.86300
H  1.69400 40.74100 25.20000
H  -1.87600 35.81700 21.65100
H  -4.46500 34.49100 22.18100
H  -4.65600 36.72900 21.90200
H  -3.09700 37.46500 21.25200
H  -3.71800 37.64500 22.91100
H  -2.56800 33.62000 20.63000
H  -3.75000 32.54600 21.44600
H  -1.23200 32.75800 23.00600
H  -1.15500 31.91100 21.34800
H  -2.14900 31.27600 22.59500
H  -6.98500 31.08900 25.47200
H  -5.98900 29.89400 26.45000
H  -5.58000 30.39500 24.82800
H  -4.23900 31.92300 30.90600
H  -7.88700 32.65600 32.56600
H  -7.15300 34.23500 32.90800
H  -6.82400 32.78700 34.01200

