158

Mg 25.06500 2.04800 29.83400
C  27.56100 2.11400 32.51100
C  22.73700 2.32900 32.01700
C  22.98400 1.97100 27.18800
C  27.82800 1.32900 27.60600
N  25.21200 2.33300 31.96700
C  26.21500 2.45100 32.88800
C  25.67300 2.48200 34.32000
C  24.16200 2.47300 34.04000
C  24.01100 2.35600 32.58200
C  23.39200 1.52400 34.97400
C  26.20800 3.72800 35.16600
C  26.91600 3.39900 36.48100
H  26.88200 4.39500 37.62900
N  23.08500 2.16800 29.62400
C  22.22900 2.29400 30.64600
C  20.85000 2.20300 30.16800
C  20.90500 1.95600 28.77500
C  22.38400 2.04700 28.46300
C  19.68600 2.15200 31.12100
C  19.80600 1.66600 27.73900
O  20.04400 1.51600 26.57400
C  18.44800 1.58200 28.06200
N  25.32500 1.66100 27.71100
C  24.32300 1.72900 26.79500
C  24.77500 1.54900 25.35200
C  26.31600 1.54500 25.56500
C  26.54400 1.48100 27.04800
C  24.10300 0.30300 24.61100
C  27.19300 2.57100 24.72200
C  27.82600 3.77600 25.47000
N  27.25100 1.78700 29.99800
C  28.11600 1.47700 29.00400
C  29.46600 1.39000 29.63300
C  29.25300 1.57000 30.99500
C  27.93100 1.94000 31.13600
C  30.77600 1.04800 28.96000
C  29.86900 1.53200 32.32400
O  31.05200 1.24300 32.69400
C  28.78100 1.95800 33.35400
C  28.68500 0.89900 34.41300
O  27.94100 -0.04100 34.41400
O  29.33800 1.38000 35.58000
C  29.04500 0.69600 36.80900
H  21.99000 2.47300 32.80100
H  22.30600 1.84000 26.34200
H  28.51200 1.01400 26.81600
H  25.91400 1.52800 34.78900
H  23.91000 3.48200 34.36700
H  22.60700 2.10800 35.45400
H  24.06800 1.05200 35.68700
H  22.93300 0.78100 34.32100
H  25.41900 4.44000 35.40800
H  26.94300 4.20700 34.51900
H  27.96900 3.30700 36.21400
H  26.50800 2.43100 36.77000
H  19.12300 1.22100 31.05000
H  18.93000 2.86100 30.78400
H  19.95900 2.27800 32.16900
H  18.44200 0.61600 28.56800
H  17.82100 1.55600 27.17000
H  18.00000 2.36500 28.67300
H  24.40800 2.49300 24.94900
H  26.69600 0.59500 25.19200
H  23.29700 -0.01300 25.27300
H  24.86300 -0.46800 24.48400
H  23.77500 0.76700 23.68100
H  26.55600 3.03400 23.96900
H  28.00100 2.12200 24.14500
H  28.88900 3.53800 25.51100
H  27.47000 3.88100 26.49500
H  27.74800 4.72600 24.94000
H  30.63500 1.14600 27.88400
H  31.07800 0.05000 29.27800
H  31.50800 1.82300 29.18900
H  29.09500 2.90600 33.79100
H  29.95000 0.35400 37.31200
H  28.34400 -0.13800 36.84200
H  28.55500 1.38500 37.49800
Mg 10.06500 47.54600 26.60600
C  8.30300 47.45900 29.53200
C  12.69500 48.93200 28.32700
C  11.70400 47.77300 23.66300
C  7.14200 46.50400 24.88400
N  10.43500 48.07200 28.67800
C  9.58800 47.97400 29.73100
C  10.26000 48.36100 31.04400
C  11.38700 49.30900 30.51800
C  11.49500 48.75100 29.02200
C  11.22000 50.79500 30.51600
C  10.88700 47.18600 31.86400
C  11.06400 47.57900 33.36900
H  11.06300 46.46400 34.40700
N  11.94900 48.27900 26.07200
C  12.96400 48.59300 26.96200
C  14.25800 48.61500 26.31500
C  13.93000 48.28900 24.96200
C  12.49400 48.16100 24.83700
C  15.56700 48.95100 27.00100
C  14.95800 48.06600 23.92700
O  14.71000 47.93100 22.71100
C  16.43600 48.00100 24.25600
N  9.36100 47.58400 24.56200
C  10.32200 47.53300 23.54400
C  9.63700 47.16300 22.24800
C  8.51300 46.24000 22.74100
C  8.29600 46.80800 24.14300
C  9.14600 48.36800 21.52800
C  8.94300 44.70300 22.78800
C  9.06400 43.85300 21.46500
N  8.09500 47.15800 27.01700
C  6.96900 46.74000 26.27100
C  5.86600 46.34700 27.10800
C  6.37300 46.71400 28.42900
C  7.68800 47.16300 28.28500
C  4.46100 45.93600 26.72300
C  5.95600 46.76900 29.78900
O  4.95600 46.37500 30.37200
C  7.27600 47.15300 30.60400
C  7.55300 45.97400 31.46900
O  7.85900 44.93500 31.00600
O  7.44800 46.30600 32.82000
C  7.60800 45.17700 33.72100
H  13.53200 49.44700 28.80300
H  12.38400 47.68300 22.81300
H  6.37400 45.96300 24.32900
H  9.54600 48.95000 31.62000
H  12.28600 49.12400 31.10600
H  10.24200 50.92700 30.97800
H  11.23000 51.08200 29.46500
H  11.93000 51.33800 31.14000
H  11.91500 47.06200 31.52500
H  10.37500 46.22600 31.80000
H  10.56700 48.47700 33.73500
H  12.07700 47.96500 33.48200
H  15.38800 49.09800 28.06600
H  15.96600 49.89100 26.62000
H  16.32600 48.19400 26.79800
H  16.58800 47.09200 24.83900
H  16.85800 48.89400 24.71600
H  17.05200 47.71300 23.40400
H  10.35000 46.68100 21.57900
H  7.70200 46.45600 22.04600
H  9.81400 48.35700 20.66700
H  9.32200 49.32700 22.01500
H  8.10900 48.24100 21.21600
H  8.29500 44.11100 23.43500
H  9.92700 44.77200 23.25200
H  8.89500 44.54300 20.63800
H  8.27500 43.10200 21.45300
H  10.12300 43.59800 21.43000
H  3.79600 45.79900 27.57500
H  4.51700 45.01000 26.15100
H  4.15200 46.67000 25.97900
H  7.10900 48.01400 31.25200
H  7.56200 44.17100 33.30500
H  6.77300 45.25800 34.41700
H  8.54100 45.16700 34.28500

