158

Mg 48.28900 34.02400 26.61400
C  45.76500 32.89600 28.94000
C  48.40700 37.00800 28.39100
C  50.00600 35.33700 24.03900
C  47.16000 31.43000 24.49500
N  47.27100 34.76900 28.42800
C  46.52300 33.97500 29.36300
C  46.62900 34.58600 30.70400
C  47.12200 36.06900 30.44200
C  47.55700 35.97900 28.92600
C  46.08600 37.15400 30.64300
C  47.60300 33.77300 31.57800
C  47.63300 33.86400 33.10700
H  46.67100 34.75500 33.88900
N  49.10100 35.89900 26.27500
C  49.06800 36.97400 27.11600
C  49.87600 38.04800 26.60200
C  50.39400 37.55600 25.39800
C  49.88800 36.17300 25.21100
C  49.90800 39.42800 27.26700
C  51.32200 38.33200 24.41100
O  51.60200 37.91100 23.33200
C  51.91300 39.71600 24.76000
N  48.41100 33.56500 24.47100
C  49.45600 34.14300 23.74300
C  49.71300 33.34300 22.43100
C  48.79400 32.08600 22.61600
C  48.14800 32.33500 23.95700
C  49.49900 34.09300 21.12800
C  49.56700 30.75800 22.42800
C  50.22600 30.45900 21.05500
N  46.90500 32.42900 26.66200
C  46.57800 31.38100 25.79800
C  45.60000 30.46900 26.30900
C  45.29300 30.99000 27.56700
C  46.06500 32.25700 27.73200
C  45.02400 29.29400 25.73100
C  44.55800 30.76000 28.72100
O  43.74100 29.88000 28.94900
C  44.76100 32.04500 29.62500
C  44.96700 31.67100 31.13000
O  45.76700 30.88800 31.56700
O  43.96000 32.22200 31.81000
C  43.94600 31.93100 33.23600
H  48.53000 37.91900 28.98100
H  50.79400 35.61200 23.33400
H  46.82800 30.59600 23.87200
H  45.76400 34.67600 31.36200
H  47.97100 36.27900 31.09200
H  45.25000 36.74500 31.21100
H  45.67200 37.62400 29.75000
H  46.52300 38.00500 31.16500
H  48.58500 34.06100 31.20400
H  47.42100 32.71400 31.39100
H  48.62200 34.08800 33.50600
H  47.57400 32.85400 33.51400
H  50.76100 39.43300 27.94500
H  49.01200 39.79600 27.76700
H  49.90200 40.16500 26.46400
H  52.32500 39.60900 25.76300
H  51.18400 40.51000 24.59900
H  52.81900 39.88100 24.17600
H  50.75400 33.02100 22.46200
H  48.11500 32.12600 21.76400
H  48.73900 33.68100 20.46400
H  50.47100 34.00500 20.64200
H  49.25800 35.14900 21.25000
H  48.81400 29.97500 22.51600
H  50.37900 30.70800 23.15300
H  50.03900 31.38400 20.51000
H  49.81600 29.55500 20.60500
H  51.30500 30.33300 21.15000
H  44.47000 28.67400 26.43700
H  45.76600 28.58200 25.36900
H  44.43900 29.68800 24.90000
H  43.76200 32.48000 29.65300
H  44.90600 32.18700 33.68500
H  43.76300 30.89300 33.51400
H  43.13400 32.53200 33.64600
Mg -2.32700 35.41600 27.02200
C  -4.23000 33.86800 29.73300
C  -1.12400 37.63900 29.24800
C  -0.91800 37.04200 24.46200
C  -3.77600 33.06400 24.88800
N  -2.72500 35.73200 29.21400
C  -3.50300 34.99800 30.13500
C  -3.23500 35.50800 31.56400
C  -2.49200 36.79300 31.33100
C  -2.04500 36.72100 29.81300
C  -3.34100 38.00000 31.78500
C  -2.52000 34.44000 32.54500
C  -2.96500 34.48700 33.95600
H  -2.97000 33.19300 34.79000
N  -1.14400 37.13000 26.85200
C  -0.71500 37.89200 27.89000
C  0.23100 38.89700 27.44700
C  0.40300 38.71300 26.03300
C  -0.58600 37.63700 25.70100
C  0.85800 39.92900 28.40200
C  1.30200 39.39500 24.97700
O  1.21900 39.05400 23.80800
C  2.41900 40.37900 25.46900
N  -2.40000 35.10100 24.93500
C  -1.68200 35.87500 24.15200
C  -1.84500 35.50500 22.67300
C  -2.71800 34.20100 22.78900
C  -2.98800 34.10200 24.27100
C  -2.47400 36.57000 21.78300
C  -2.08200 32.85900 22.26900
C  -3.10300 32.01300 21.45100
N  -3.75700 33.81600 27.20500
C  -4.06800 32.87500 26.26400
C  -4.84500 31.80900 26.84700
C  -4.87800 32.15500 28.18200
C  -4.28400 33.39000 28.38600
C  -5.48400 30.61700 26.11100
C  -5.49900 31.77400 29.52000
O  -6.16600 30.78100 29.83700
C  -5.01600 32.84300 30.54400
C  -6.27800 33.49600 31.16700
O  -7.15000 34.09500 30.52700
O  -6.24900 33.21800 32.51400
C  -7.59300 33.34800 33.11500
H  -0.63500 38.25400 30.00600
H  -0.53500 37.53100 23.56400
H  -4.25700 32.29100 24.28600
H  -4.15900 35.77500 32.07700
H  -1.54600 36.84700 31.87000
H  -3.11100 38.77700 31.05600
H  -3.03000 38.52200 32.69100
H  -4.42000 37.89800 31.67600
H  -1.47400 34.74300 32.53300
H  -2.50500 33.41300 32.17900
H  -4.05100 34.58100 33.92100
H  -2.33800 35.17200 34.52600
H  0.38400 39.94300 29.38400
H  0.63500 40.92100 28.01000
H  1.92800 39.77400 28.54300
H  3.14400 39.81400 26.05500
H  1.98100 41.19500 26.04400
H  3.02200 40.72200 24.62800
H  -0.82000 35.26000 22.39200
H  -3.70100 34.45100 22.39000
H  -1.74700 36.97400 21.07900
H  -2.79900 37.42700 22.37300
H  -3.24400 36.11100 21.16200
H  -1.50500 32.30100 23.00600
H  -1.33900 33.06900 21.50000
H  -2.67400 31.38700 20.66800
H  -3.87000 32.63600 20.99200
H  -3.42800 31.37000 22.26900
H  -4.86400 30.28800 25.27800
H  -6.49500 30.87100 25.79100
H  -5.68500 29.81600 26.82300
H  -4.39800 32.41200 31.33100
H  -8.20600 34.06500 32.57000
H  -7.45000 33.65600 34.15100
H  -8.20200 32.44600 33.05900

