158

Mg 1.09500 -0.93600 43.76600
C  4.49900 -0.44000 43.08100
C  0.19800 1.66900 41.83700
C  -2.20100 -2.15700 43.66000
C  1.96000 -4.05000 45.11800
N  2.26400 0.26800 42.28400
C  3.63100 0.42800 42.31100
C  3.98600 1.66600 41.57700
C  2.59300 2.45700 41.55300
C  1.58300 1.41200 41.89000
C  2.44400 3.68400 42.39400
C  4.83000 1.48900 40.26700
C  6.23400 2.16600 40.09100
H  6.49000 2.96500 38.80100
N  -0.75300 -0.25500 43.01200
C  -0.83800 0.82200 42.11900
C  -2.15400 1.06700 41.89300
C  -2.93200 0.00300 42.42600
C  -1.98500 -0.86200 43.08900
C  -2.62300 2.37800 41.20700
C  -4.46500 -0.03700 42.42000
O  -5.10900 0.89700 41.94900
C  -5.19400 -1.22100 42.92700
N  0.02200 -2.83000 44.23000
C  -1.30300 -3.04900 44.21600
C  -1.73700 -4.46400 44.77600
C  -0.40600 -4.92700 45.38600
C  0.57800 -3.90200 44.84200
C  -3.04300 -4.61400 45.57600
C  -0.09500 -6.39800 45.00400
C  -0.26300 -7.35700 46.20700
N  2.85200 -2.05600 44.12200
C  3.02100 -3.23000 44.77600
C  4.42600 -3.44100 45.02000
C  5.06000 -2.38000 44.27600
C  4.06900 -1.54200 43.78800
C  5.17000 -4.53700 45.69900
C  6.32700 -1.75000 43.96700
O  7.46100 -2.07000 44.27400
C  6.02700 -0.49900 43.13200
C  6.62100 0.76400 43.69300
O  6.24400 1.17800 44.81500
O  7.67500 1.30600 42.99100
C  8.48500 2.24100 43.79100
H  0.02300 2.67700 41.45500
H  -3.19700 -2.60600 43.66100
H  2.27600 -4.90100 45.72600
H  4.63400 2.21700 42.25800
H  2.46100 2.71900 40.50400
H  3.30700 3.93000 43.01300
H  1.55000 3.72800 43.01500
H  2.45200 4.48600 41.65600
H  4.33700 1.94500 39.40800
H  4.91000 0.40600 40.16900
H  7.02000 1.41000 40.09100
H  6.45000 2.67100 41.03300
H  -1.92700 3.21100 41.10500
H  -3.44100 2.78500 41.80100
H  -2.92700 2.22400 40.17200
H  -5.09800 -1.34600 44.00600
H  -4.66000 -2.02100 42.41400
H  -6.23000 -1.25800 42.59100
H  -1.89700 -4.91900 43.79900
H  -0.40800 -4.71500 46.45600
H  -3.48600 -3.65200 45.83600
H  -2.79700 -4.96900 46.57700
H  -3.62600 -5.38100 45.06700
H  0.90100 -6.44400 44.56200
H  -0.70100 -6.75600 44.17200
H  -1.19300 -7.09700 46.71200
H  0.60100 -7.32500 46.87000
H  -0.40200 -8.36000 45.80200
H  4.64200 -4.81700 46.61100
H  6.15200 -4.14300 45.95900
H  5.18300 -5.39400 45.02600
H  6.35000 -0.79000 42.13300
H  7.92400 3.14500 44.02900
H  9.37600 2.45600 43.20100
H  8.91500 1.76400 44.67200
Mg 48.90000 45.33300 42.86100
C  45.64600 45.15400 41.47200
C  49.24800 41.90700 42.03500
C  52.11500 45.47600 43.46800
C  48.42700 48.55100 43.43200
N  47.50900 43.73900 41.96900
C  46.28600 43.96300 41.36600
C  45.85200 42.68100 40.60500
C  46.72500 41.67600 41.32700
C  47.93500 42.45200 41.81200
C  46.05500 40.93500 42.56300
C  45.98200 42.89200 39.01000
C  44.71000 42.55400 38.13800
H  44.87100 41.77600 36.84200
N  50.46900 43.85800 42.79900
C  50.47300 42.55000 42.40700
C  51.75100 41.96100 42.56700
C  52.54200 42.91500 43.19300
C  51.71000 44.13400 43.20300
C  52.13500 40.58600 42.08900
C  53.94000 42.79100 43.79200
O  54.52300 41.73600 43.66200
C  54.64300 43.89400 44.56000
N  50.15500 46.84900 43.20100
C  51.46900 46.70800 43.53400
C  52.13200 48.05700 43.72100
C  50.93700 49.01700 44.00400
C  49.76200 48.09400 43.59400
C  53.31700 48.14500 44.79600
C  51.03100 50.34800 43.27000
C  50.86800 51.62800 44.13600
N  47.40600 46.67700 42.55700
C  47.28400 47.92700 42.93500
C  45.99000 48.45700 42.61700
C  45.29200 47.39700 42.00700
C  46.23500 46.32400 42.04500
C  45.50400 49.88800 42.82700
C  44.05100 47.04700 41.37800
O  43.05100 47.64700 40.98900
C  44.34400 45.57400 40.92800
C  43.16200 44.81000 41.35200
O  42.27100 44.33900 40.61600
O  43.22100 44.68500 42.74500
C  41.95700 44.21400 43.26700
H  49.30400 40.81700 42.07900
H  53.17900 45.66700 43.62500
H  48.29200 49.60900 43.66700
H  44.77800 42.62100 40.78000
H  46.92600 40.97100 40.52100
H  46.08400 39.85100 42.45600
H  44.99200 41.17100 42.51800
H  46.39500 41.26700 43.54400
H  46.74900 42.20200 38.65800
H  46.27900 43.92000 38.80300
H  44.24400 43.51200 37.90800
H  44.04900 41.96100 38.77000
H  52.97200 40.63000 41.39200
H  51.34500 39.96500 41.66700
H  52.46100 39.99400 42.94300
H  55.16500 44.50200 43.82200
H  55.35500 43.32700 45.15900
H  54.05400 44.52400 45.22600
H  52.58200 48.31800 42.76300
H  50.93900 49.13200 45.08800
H  53.13500 48.82900 45.62500
H  54.23500 48.43800 44.28700
H  53.40900 47.12900 45.17900
H  50.13800 50.31300 42.64600
H  51.89900 50.50700 42.63200
H  51.73800 52.26100 43.96100
H  50.73000 51.24000 45.14500
H  50.01100 52.19500 43.77100
H  45.49200 50.16100 43.88300
H  44.51400 50.05000 42.39900
H  46.27700 50.51100 42.37800
H  44.38200 45.65800 39.84200
H  42.02600 44.51400 44.31300
H  41.79500 43.13700 43.22200
H  41.09500 44.73900 42.85600

