158

Mg 16.47000 -1.95000 28.30100
C  15.72000 0.14900 30.99900
C  18.54000 -3.79400 30.23400
C  17.86500 -3.55700 25.43300
C  14.99300 0.30900 26.15100
N  17.16900 -1.66700 30.35400
C  16.60700 -0.84800 31.28400
C  17.12200 -1.27500 32.68900
C  18.13300 -2.42600 32.42800
C  17.94800 -2.70900 30.92000
C  19.60900 -2.43300 32.87800
C  16.00700 -1.63600 33.68500
C  16.05400 -1.02800 35.12100
H  17.33200 -0.47900 35.64800
N  17.93900 -3.55300 27.87200
C  18.63900 -4.15500 28.90500
C  19.32800 -5.32500 28.35300
C  19.01100 -5.39500 26.94400
C  18.20300 -4.17000 26.68100
C  20.12200 -6.30700 29.23300
C  19.36200 -6.51600 26.02900
O  18.98500 -6.50800 24.86400
C  20.22700 -7.68000 26.51000
N  16.36000 -1.76000 26.11600
C  17.06900 -2.40700 25.20700
C  16.87500 -1.82400 23.77100
C  15.93100 -0.71100 23.99300
C  15.71100 -0.72400 25.49700
C  18.17900 -1.57700 22.89300
C  14.60100 -0.71000 23.12200
C  13.43000 -1.31700 23.78900
N  15.44100 -0.20800 28.50000
C  14.81100 0.58100 27.53700
C  14.01700 1.58100 28.16900
C  14.37900 1.48100 29.53600
C  15.26400 0.39100 29.68000
C  13.17300 2.65700 27.50400
C  14.15300 1.99100 30.91900
O  13.42200 2.89500 31.30600
C  15.06200 1.17500 31.88000
C  15.99700 2.13400 32.61600
O  16.93900 2.76400 32.20200
O  15.58000 2.15300 33.90900
C  16.16300 3.23700 34.75400
H  19.06700 -4.44400 30.93700
H  18.41100 -3.96900 24.58200
H  14.63000 1.16400 25.57600
H  17.76400 -0.47500 33.05900
H  17.71200 -3.33000 32.86700
H  20.25900 -2.12500 32.05900
H  19.94100 -3.37000 33.32500
H  19.63600 -1.66100 33.64700
H  15.88700 -2.71600 33.76300
H  15.02300 -1.30000 33.35700
H  15.73000 -1.83300 35.78200
H  15.28200 -0.27700 35.28500
H  21.14200 -6.27900 28.85100
H  19.76200 -7.33000 29.12600
H  20.22300 -6.03000 30.28200
H  20.31600 -8.39500 25.69200
H  19.95900 -8.21300 27.42200
H  21.21900 -7.33200 26.80100
H  16.37800 -2.70900 23.37400
H  16.44800 0.23500 23.83200
H  18.30300 -0.52700 22.62800
H  18.12500 -2.16200 21.97400
H  19.11900 -1.81100 23.39300
H  14.84500 -1.19900 22.17900
H  14.41400 0.32400 22.83200
H  13.62500 -2.19600 24.40200
H  12.74400 -1.63400 23.00400
H  12.97600 -0.56800 24.43800
H  12.13500 2.32300 27.47500
H  13.62200 2.82500 26.52500
H  13.22900 3.52400 28.16200
H  14.34700 0.67000 32.52900
H  15.92200 4.16900 34.24300
H  17.22400 3.10800 34.96800
H  15.68200 3.28100 35.73200
Mg 55.37300 23.80600 44.22400
C  53.01500 26.47500 43.42900
C  53.10700 21.58900 43.17800
C  57.87700 21.64100 44.45300
C  57.74500 26.49200 44.65800
N  53.23000 24.12400 43.20300
C  52.41100 25.19900 43.21800
C  51.03500 24.83400 42.68900
C  51.04900 23.26500 42.87500
C  52.53000 22.93900 43.17300
C  50.21200 22.73300 44.03900
C  50.74600 25.26100 41.22100
C  49.25100 25.22500 40.88500
H  49.08500 24.55800 39.45500
N  55.48600 21.86800 43.83600
C  54.39200 21.09300 43.56700
C  54.84800 19.74600 43.59100
C  56.26600 19.70700 43.88800
C  56.58700 21.13900 44.08100
C  53.88800 18.69300 43.26000
C  57.12800 18.50000 44.04300
O  56.65700 17.38200 43.77900
C  58.59300 18.47100 44.36500
N  57.48700 24.06500 44.30900
C  58.32100 22.98000 44.48800
C  59.69100 23.27400 44.89500
C  59.69300 24.90100 45.05000
C  58.24600 25.18600 44.61200
C  60.15100 22.70800 46.32400
C  60.83600 25.76800 44.24200
C  61.34300 27.12100 44.80200
N  55.42100 25.97600 44.15700
C  56.38400 26.92500 44.43100
C  55.82500 28.21700 44.44500
C  54.53300 28.05900 44.05400
C  54.33200 26.71300 43.83400
C  56.41400 29.47600 44.90300
C  53.39300 28.80600 43.86100
O  53.14100 29.99100 44.12800
C  52.35900 27.83200 43.23700
C  52.21900 28.17000 41.81300
O  52.98600 27.68800 40.96400
O  51.13800 29.00200 41.59400
C  51.05600 29.43900 40.14200
H  52.39600 20.80900 42.89500
H  58.71000 20.97800 44.69100
H  58.45200 27.29100 44.89100
H  50.24600 25.23500 43.32600
H  50.66000 22.76000 41.99100
H  50.89400 22.46300 44.84500
H  49.71100 21.84700 43.64600
H  49.48500 23.41900 44.47300
H  51.41600 24.63800 40.62900
H  50.98100 26.29400 40.96100
H  48.83700 26.21900 41.05100
H  48.78200 24.54900 41.60000
H  53.39000 18.16200 44.07100
H  54.38600 18.01100 42.57100
H  53.01200 18.93800 42.66100
H  59.27300 18.76500 43.56500
H  58.87700 17.45600 44.64400
H  58.74300 19.04000 45.28300
H  60.39500 23.04300 44.09500
H  59.61400 25.30500 46.05900
H  59.93600 23.33900 47.18600
H  61.20500 22.43100 46.29300
H  59.62200 21.76100 46.43200
H  60.45700 25.95700 43.23800
H  61.74000 25.16100 44.18500
H  62.43100 27.11600 44.73900
H  61.09500 27.12500 45.86300
H  61.04200 28.02900 44.27800
H  55.66500 30.26100 44.80200
H  57.23900 29.76700 44.25400
H  56.72400 29.40600 45.94600
H  51.39200 27.95000 43.72500
H  50.81000 28.48500 39.67400
H  52.02200 29.83100 39.82400
H  50.21800 30.08200 39.87200

