158

Mg 1.17900 -1.98000 43.43100
C  4.60400 -1.64500 42.87500
C  0.52000 0.63700 41.23000
C  -2.06600 -3.04700 43.03900
C  1.90800 -5.23600 44.66300
N  2.44300 -0.72400 42.25800
C  3.78900 -0.75400 42.13100
C  4.24400 0.16300 41.03400
C  2.95300 1.07200 40.84300
C  1.88500 0.33700 41.55500
C  3.17300 2.53600 41.34800
C  4.73200 -0.67400 39.87800
C  6.13400 -0.26500 39.37700
H  6.27700 0.45500 38.01800
N  -0.52000 -1.20600 42.45300
C  -0.60900 -0.05700 41.71500
C  -1.96100 0.16300 41.31600
C  -2.74900 -0.91600 41.77700
C  -1.79600 -1.77900 42.55100
C  -2.33400 1.27600 40.36400
C  -4.25000 -1.17900 41.43400
O  -4.77500 -0.39300 40.63800
C  -5.15100 -2.24800 42.10400
N  0.12400 -3.96300 43.74700
C  -1.26200 -4.03300 43.60400
C  -1.76000 -5.40200 43.95500
C  -0.51900 -6.06200 44.64600
C  0.59700 -5.08000 44.34500
C  -3.03500 -5.53600 44.76100
C  -0.14100 -7.54100 44.27100
C  -0.25500 -8.66200 45.26000
N  2.84200 -3.09300 44.00600
C  2.97600 -4.34000 44.45300
C  4.39100 -4.75500 44.54500
C  5.02700 -3.69500 43.93600
C  4.09700 -2.70200 43.64800
C  4.97800 -6.04200 45.05500
C  6.35800 -3.17600 43.59600
O  7.45000 -3.51500 43.96800
C  6.05200 -1.93200 42.67200
C  6.81100 -0.76800 43.30900
O  7.93000 -0.45500 43.03300
O  6.14300 -0.24200 44.42100
C  6.86500 0.86800 45.14000
H  0.25300 1.40200 40.49800
H  -3.00400 -3.53100 42.76100
H  2.22700 -6.18800 45.09500
H  5.02100 0.80000 41.45600
H  2.74400 1.02100 39.77400
H  3.10200 3.19500 40.48300
H  4.10000 2.72500 41.89100
H  2.38600 2.68000 42.08800
H  3.97500 -0.61500 39.09600
H  4.82800 -1.73900 40.08900
H  6.74900 -1.16400 39.39300
H  6.56300 0.39900 40.12700
H  -1.61800 2.07500 40.55800
H  -3.35100 1.65400 40.46800
H  -2.31000 0.76600 39.40100
H  -6.16600 -1.85400 42.16200
H  -4.86400 -2.41700 43.14200
H  -5.02500 -3.23500 41.66100
H  -1.82700 -5.82900 42.95400
H  -0.63500 -6.09600 45.72900
H  -3.65500 -4.64000 44.73500
H  -2.88300 -5.74400 45.82000
H  -3.59600 -6.42700 44.48100
H  0.87200 -7.55700 43.86800
H  -0.74300 -7.73900 43.38400
H  -0.56700 -8.30100 46.24000
H  0.67100 -9.20900 45.43600
H  -0.98800 -9.38200 44.89400
H  6.06300 -5.94000 45.07700
H  4.74500 -6.80900 44.31700
H  4.60300 -6.26600 46.05400
H  6.33400 -1.98700 41.62100
H  6.27600 1.49100 45.81300
H  7.50200 1.53700 44.56200
H  7.51800 0.33800 45.83400
Mg 27.04300 51.68400 26.52000
C  24.91400 53.09900 28.95200
C  29.01500 50.48300 29.08600
C  29.16300 50.37200 24.19500
C  25.01600 52.86500 23.96200
N  27.02100 51.89100 28.69700
C  26.03300 52.38500 29.49700
C  26.24200 52.15100 30.96400
C  27.65500 51.50000 30.98000
C  27.86300 51.20200 29.51600
C  28.90800 52.28900 31.59000
C  25.09300 51.39500 31.75800
C  24.38500 52.17600 32.84100
H  25.21000 52.64100 33.98200
N  28.95800 50.73500 26.65200
C  29.58100 50.29700 27.80300
C  30.77600 49.57400 27.43000
C  30.86200 49.51500 25.99100
C  29.65000 50.26000 25.50700
C  31.63500 49.09900 28.53900
C  31.86700 48.77200 25.10500
O  31.75900 48.81200 23.89400
C  32.89500 47.95400 25.66900
N  27.13300 51.69600 24.42900
C  28.09300 51.03300 23.71100
C  27.63400 50.74700 22.30400
C  26.27900 51.57200 22.23100
C  26.12800 52.11000 23.60300
C  28.67300 51.07000 21.23900
C  25.14600 50.87800 21.49200
C  24.57800 49.61000 22.28600
N  25.33200 52.82300 26.42100
C  24.57200 53.22600 25.28900
C  23.49500 54.03100 25.79100
C  23.56400 53.92200 27.20000
C  24.69100 53.21000 27.54200
C  22.42000 54.73700 24.85000
C  22.81000 54.27400 28.42900
O  21.70400 54.79200 28.64000
C  23.74900 53.73900 29.57200
C  24.22100 54.80900 30.44100
O  25.30400 55.38500 30.30000
O  23.24400 55.07600 31.34300
C  23.65000 55.97500 32.42100
H  29.59100 49.97000 29.85900
H  29.64000 49.74800 23.43700
H  24.34700 53.12500 23.13900
H  26.26000 53.13600 31.43200
H  27.70500 50.59200 31.58200
H  28.58000 53.32000 31.72300
H  29.73600 52.32100 30.88200
H  29.27300 51.82400 32.50600
H  25.31100 50.44300 32.24200
H  24.38700 50.96900 31.04500
H  23.54200 51.59800 33.22100
H  23.94200 53.07000 32.40200
H  32.67500 49.15400 28.21500
H  31.41700 48.06500 28.80500
H  31.45600 49.63700 29.47100
H  33.63100 48.60900 26.13500
H  33.46000 47.45200 24.88400
H  32.53500 47.27800 26.44400
H  27.33400 49.71300 22.13500
H  26.44700 52.51700 21.71500
H  29.64400 51.36400 21.63600
H  28.49000 51.86500 20.51700
H  28.83900 50.10900 20.75200
H  25.54300 50.48900 20.55400
H  24.36200 51.63000 21.40000
H  24.52200 49.84600 23.34800
H  25.15900 48.75300 21.94600
H  23.51500 49.38900 22.18700
H  22.61400 54.65100 23.78100
H  22.60500 55.76300 25.16700
H  21.46200 54.40500 25.24900
H  23.22700 52.99000 30.16700
H  24.13500 56.85500 31.99800
H  24.30000 55.43100 33.10700
H  22.74300 56.22500 32.97200

