158

Mg 40.43200 8.53900 30.20400
C  42.21500 9.87700 32.89200
C  37.93600 7.54500 32.48400
C  38.70600 7.28300 27.61500
C  43.01500 9.18600 28.10900
N  40.17400 8.70200 32.40800
C  40.96200 9.34000 33.26400
C  40.22400 9.43600 34.63600
C  38.93500 8.59900 34.50500
C  38.97300 8.31200 33.03100
C  38.84400 7.43100 35.46800
C  40.02900 10.89900 35.14700
C  39.55400 11.08300 36.59100
H  40.26600 11.84800 37.64000
N  38.61700 7.46900 30.07900
C  37.72800 7.22500 31.07100
C  36.55300 6.50000 30.56700
C  36.84100 6.39700 29.10800
C  38.11900 7.07400 28.87300
C  35.40400 6.00100 31.41500
C  35.93900 5.72900 28.03300
O  36.27100 5.67300 26.82700
C  34.69800 4.99900 28.37300
N  40.84600 8.11800 28.18700
C  39.91500 7.74800 27.32600
C  40.50100 7.74000 25.92000
C  41.72300 8.71600 25.97300
C  41.84100 8.74200 27.50300
C  40.91200 6.32500 25.41000
C  41.60600 10.04000 25.22600
C  41.00300 11.27700 25.98000
N  42.35400 9.18900 30.42300
C  43.30400 9.46000 29.47300
C  44.49400 10.03600 30.18800
C  44.05600 10.29800 31.51400
C  42.75900 9.74600 31.61500
C  45.80400 10.34800 29.49600
C  44.47400 10.95300 32.70600
O  45.53400 11.55000 32.91700
C  43.30400 10.66400 33.69600
C  43.90800 10.01000 34.88900
O  44.54600 8.96000 34.85900
O  43.75200 10.79600 35.99500
C  44.48600 10.37400 37.19500
H  37.05800 7.35200 33.10400
H  38.10800 7.00300 26.74600
H  43.77800 9.53900 27.41200
H  40.89500 9.01200 35.38300
H  38.20000 9.32400 34.85700
H  38.65300 6.47600 34.97800
H  38.02900 7.71400 36.13500
H  39.69500 7.42500 36.14900
H  39.27300 11.25300 34.44600
H  40.94100 11.49000 35.06400
H  39.34100 10.07100 36.93700
H  38.56300 11.53000 36.66900
H  34.46500 6.55100 31.46500
H  35.65700 5.76700 32.44900
H  35.12500 5.02200 31.02400
H  34.25700 4.70700 27.42000
H  33.87100 5.63200 28.69700
H  34.87200 4.16500 29.05200
H  39.74100 8.10700 25.22900
H  42.65600 8.29600 25.59800
H  40.14100 5.62900 25.74200
H  41.92000 6.07800 25.74200
H  41.01000 6.30200 24.32500
H  40.99100 9.86500 24.34300
H  42.61100 10.38900 24.98900
H  40.07800 11.38400 25.41400
H  41.65800 12.14400 25.89700
H  40.83300 10.96300 27.00900
H  45.71100 11.36000 29.10200
H  45.92900 9.62400 28.69100
H  46.53000 10.23000 30.30100
H  42.88800 11.64300 33.93300
H  44.16200 9.38100 37.50700
H  44.31400 11.02100 38.05500
H  45.54800 10.21500 37.01000
Mg 53.61400 23.43800 45.72200
C  51.29700 25.47600 44.22100
C  51.83800 20.73600 44.57700
C  56.38100 21.38300 46.25300
C  55.56100 26.09700 46.32000
N  51.81000 23.10500 44.58500
C  51.09000 24.13500 43.97500
C  49.77500 23.48700 43.41400
C  49.79900 22.05100 43.87700
C  51.26800 21.92500 44.37800
C  48.63000 21.62200 44.86300
C  49.67700 23.65100 41.84900
C  48.29000 23.84200 41.23600
H  48.05400 23.39700 39.84100
N  54.02800 21.29200 45.42200
C  53.14200 20.33200 44.99700
C  53.75000 18.99900 45.04000
C  55.02100 19.16400 45.62800
C  55.19100 20.68400 45.83700
C  53.03800 17.82200 44.34800
C  55.95100 18.02200 45.95200
O  55.74800 16.88100 45.54100
C  57.16200 18.34800 46.71700
N  55.77300 23.67400 46.01000
C  56.66100 22.73800 46.39200
C  58.01700 23.27900 46.85500
C  57.77400 24.86100 46.66700
C  56.26800 24.89900 46.32600
C  58.37000 22.94100 48.34600
C  58.60200 25.55700 45.48900
C  59.81300 26.41600 45.82900
N  53.41100 25.37900 45.59600
C  54.26000 26.41800 45.90300
C  53.68100 27.73200 45.66600
C  52.45600 27.40000 45.08400
C  52.40500 25.95600 44.92200
C  54.26600 29.14100 45.90000
C  51.23000 27.92500 44.54300
O  50.73800 29.00500 44.55500
C  50.41800 26.71000 43.90700
C  50.42900 26.92800 42.39500
O  51.42300 26.83700 41.63300
O  49.18200 27.37000 42.00800
C  49.18100 27.87700 40.67600
H  51.15500 19.92800 44.30800
H  57.37000 20.94300 46.39400
H  56.26400 26.90400 46.53700
H  48.94500 23.98100 43.91900
H  49.75800 21.45100 42.96800
H  47.94500 22.46100 44.98500
H  48.99700 21.37900 45.86000
H  48.05500 20.71600 44.67200
H  50.04800 22.76000 41.34000
H  50.27100 24.50200 41.51600
H  47.93400 24.84200 41.48400
H  47.61500 23.15600 41.74700
H  53.17300 16.90600 44.92300
H  53.50900 17.67900 43.37500
H  51.99000 18.06500 44.17100
H  56.87900 18.71400 47.70400
H  57.80200 18.95500 46.07600
H  57.68500 17.39400 46.77900
H  58.70000 22.86800 46.11200
H  57.89600 25.25800 47.67400
H  59.14800 22.18300 48.43200
H  57.44400 22.50700 48.72200
H  58.67400 23.82700 48.90400
H  57.88300 26.21300 44.99800
H  58.92100 24.80100 44.77100
H  59.62500 27.39200 45.38000
H  60.70800 26.04200 45.33200
H  60.03600 26.40900 46.89600
H  54.18900 29.36500 46.96300
H  53.71600 29.88400 45.32300
H  55.31100 29.25000 45.61200
H  49.43500 26.65200 44.37600
H  50.17300 28.06200 40.26300
H  48.59600 28.79200 40.77200
H  48.55500 27.18400 40.11400

