158

Mg 48.64700 35.85200 27.85800
C  46.92400 34.14600 30.41400
C  49.03900 38.47000 29.98900
C  49.89700 37.66000 25.27800
C  47.65900 33.29300 25.66800
N  48.10800 36.15200 29.95800
C  47.60700 35.31800 30.88100
C  47.77400 35.89800 32.31400
C  48.03700 37.44000 32.06000
C  48.38700 37.35600 30.54700
C  46.90200 38.41100 32.43100
C  48.95200 35.22700 33.12500
C  48.68000 34.85200 34.54200
H  49.29100 35.94900 35.48400
N  49.40400 37.84000 27.72500
C  49.55400 38.75100 28.69100
C  50.31200 39.92900 28.27900
C  50.47900 39.71600 26.89600
C  49.86000 38.38600 26.51700
C  50.75900 41.06700 29.16100
C  51.29600 40.51500 25.81300
O  51.46700 40.10900 24.64800
C  51.87600 41.75700 26.22500
N  48.84000 35.38000 25.71500
C  49.46000 36.32600 24.88900
C  49.47700 35.69300 23.48000
C  48.95000 34.23100 23.65000
C  48.48100 34.30600 25.06000
C  48.63300 36.54000 22.39500
C  50.02100 33.10900 23.40500
C  49.46400 31.92500 22.57600
N  47.59500 34.05300 28.00400
C  47.25400 33.09100 27.00100
C  46.48400 32.06000 27.54100
C  46.46300 32.36200 28.92200
C  47.05500 33.60700 29.13100
C  45.84400 30.97500 26.80400
C  45.95000 31.89100 30.27700
O  45.40400 30.82600 30.64400
C  46.13500 33.16400 31.20400
C  46.62100 32.87100 32.60700
O  47.62500 32.32400 32.95200
O  45.60700 33.04300 33.41200
C  45.54700 32.30100 34.66900
H  49.43900 39.13000 30.76100
H  50.46800 38.07200 24.44300
H  47.22800 32.48400 25.07500
H  46.83600 35.80000 32.86000
H  48.98200 37.62400 32.57200
H  47.16400 39.18800 33.14800
H  46.00300 37.93900 32.82700
H  46.51900 38.87100 31.52000
H  49.76100 35.94900 33.01400
H  49.32000 34.30300 32.67800
H  49.15100 33.90600 34.80900
H  47.61200 34.93100 34.74500
H  50.43900 42.04500 28.80200
H  51.83500 41.05900 29.33800
H  50.33600 40.87200 30.14600
H  51.00300 42.35200 26.49200
H  52.38300 42.31400 25.43800
H  52.53800 41.56600 27.07000
H  50.52200 35.68000 23.16800
H  48.03700 34.04100 23.08600
H  48.05100 35.77400 21.88300
H  49.26500 37.02500 21.65100
H  48.07100 37.31100 22.92100
H  50.42900 32.66500 24.31200
H  50.85400 33.61900 22.92100
H  48.73500 32.25800 21.83700
H  48.86900 31.29500 23.23900
H  50.20700 31.26200 22.13400
H  46.53100 30.15200 26.60600
H  45.47900 31.43400 25.88500
H  44.88300 30.68300 27.22900
H  45.13900 33.57700 31.36400
H  46.08000 32.64500 35.55500
H  45.87200 31.27600 34.49000
H  44.48300 32.35900 34.89900
Mg 2.01200 42.19400 24.28700
C  2.90100 42.36100 27.67000
C  -1.06600 40.99300 25.31900
C  1.35900 41.27200 21.17400
C  5.37300 42.81100 23.59600
N  1.12800 41.57100 26.20900
C  1.56400 41.94700 27.48000
C  0.56400 41.66800 28.53800
C  -0.65100 41.07800 27.75700
C  -0.18400 41.24000 26.35100
C  -1.03000 39.64100 28.11500
C  0.23700 42.90800 29.44300
C  -0.90100 42.95800 30.48200
H  -1.73000 41.71400 30.83500
N  0.28400 41.37600 23.27500
C  -0.91300 41.03500 23.90400
C  -1.82100 40.67200 22.87400
C  -1.11000 40.69800 21.59000
C  0.20300 41.14300 21.95300
C  -3.15400 40.10700 23.16500
C  -1.56900 40.47100 20.16300
O  -0.90600 40.62400 19.13200
C  -3.01200 40.04000 19.95000
N  3.21600 41.96500 22.66100
C  2.72700 41.55100 21.44000
C  3.79700 41.63100 20.38200
C  4.91800 42.45700 21.04600
C  4.55100 42.35600 22.56300
C  4.23600 40.18600 19.87300
C  5.07500 43.87200 20.61500
C  3.98700 44.94700 20.74500
N  3.82200 42.67400 25.34700
C  5.09400 42.90500 24.98800
C  5.93300 43.24500 26.13100
C  5.12900 43.05600 27.23800
C  3.86200 42.68000 26.70700
C  7.33800 43.66000 26.06800
C  5.12100 42.91300 28.66400
O  6.03100 42.97900 29.42600
C  3.68100 42.49700 28.96900
C  3.83000 41.14000 29.60500
O  4.61500 40.27800 29.20900
O  2.87400 40.96800 30.58200
C  2.64300 39.60100 31.00700
H  -2.09400 40.76000 25.60300
H  1.28200 41.04700 20.10900
H  6.42700 42.87600 23.32000
H  0.93300 40.82400 29.12100
H  -1.43200 41.83500 27.82300
H  -0.65000 39.34100 29.09200
H  -0.62200 38.88000 27.45000
H  -2.11100 39.53200 28.19600
H  0.03000 43.75500 28.78900
H  1.15400 43.23700 29.93300
H  -1.61000 43.71000 30.13400
H  -0.46100 43.36800 31.39100
H  -3.83100 40.07900 22.31100
H  -3.70200 40.56400 23.98900
H  -3.02500 39.05100 23.39800
H  -3.15400 39.09000 20.46500
H  -3.03900 39.97900 18.86200
H  -3.75000 40.74600 20.33000
H  3.56500 42.02600 19.39300
H  5.90900 42.00600 20.99400
H  3.76400 39.93600 18.92300
H  3.87600 39.44300 20.58400
H  5.32400 40.13500 19.84000
H  5.04800 43.79000 19.52900
H  6.02000 44.26100 20.99300
H  3.29000 44.54900 21.48300
H  3.49500 45.05500 19.77900
H  4.39200 45.86900 21.16300
H  7.65300 44.12500 25.13400
H  7.93500 42.78000 26.30600
H  7.72000 44.38000 26.79200
H  3.27800 43.12700 29.76300
H  3.28100 39.37800 31.86200
H  2.82800 38.85800 30.23200
H  1.59900 39.63600 31.31900

