158

Mg 36.40000 48.97700 24.25400
C  36.42000 47.32000 27.45700
C  35.14000 51.70300 25.93600
C  35.62500 50.29400 21.21100
C  37.25000 45.96800 22.71500
N  35.77900 49.40700 26.47100
C  35.92500 48.63200 27.59200
C  35.72900 49.44100 28.88700
C  35.36500 50.82600 28.32700
C  35.38500 50.64300 26.82900
C  34.06400 51.47700 28.93600
C  36.99300 49.40600 29.86900
C  36.84200 48.96700 31.31600
H  35.48400 49.07100 31.96500
N  35.48300 50.75300 23.65400
C  35.11200 51.75500 24.51500
C  34.61800 52.90600 23.71400
C  34.80000 52.57100 22.36600
C  35.30400 51.17000 22.33200
C  34.08800 54.15800 24.32500
C  34.47100 53.41200 21.13200
O  34.73200 53.05200 20.03400
C  33.96900 54.82300 21.28700
N  36.40300 48.24400 22.27000
C  36.10200 48.98000 21.14200
C  36.34900 48.17900 19.81600
C  36.91100 46.83100 20.35300
C  36.92800 47.01500 21.89000
C  35.05100 47.99300 18.94600
C  38.21900 46.35800 19.53900
C  39.55700 46.95200 20.00100
N  36.88500 47.05000 24.88000
C  37.22800 45.90100 24.16700
C  37.42000 44.76800 25.05500
C  37.21400 45.31500 26.35300
C  36.76800 46.66400 26.20400
C  37.88600 43.36900 24.59000
C  37.20500 44.91900 27.82100
O  37.45100 43.82700 28.46900
C  36.64200 46.24900 28.53600
C  35.38300 45.94900 29.29700
O  34.26200 46.04800 28.92100
O  35.70300 45.37400 30.48800
C  34.59600 44.89200 31.31800
H  34.94300 52.58700 26.54500
H  35.35400 50.76900 20.26600
H  37.50900 45.02600 22.22900
H  34.85100 49.01000 29.36800
H  36.07700 51.62500 28.53700
H  33.55800 52.07200 28.17600
H  34.31600 52.14300 29.76100
H  33.37900 50.70500 29.28700
H  37.43600 50.39600 29.98000
H  37.83200 48.79700 29.53300
H  37.56700 49.54200 31.89100
H  37.04900 47.89800 31.27800
H  34.75300 55.02100 24.30200
H  33.76900 53.96600 25.34900
H  33.16100 54.38600 23.79800
H  34.57200 55.34100 22.03300
H  32.90600 54.94500 21.49900
H  34.18500 55.43100 20.40900
H  36.98600 48.73400 19.12700
H  36.17900 46.10300 20.00300
H  34.94600 48.74200 18.16000
H  34.23400 48.03300 19.66700
H  34.95100 47.01000 18.48600
H  38.05700 46.47100 18.46700
H  38.31800 45.29500 19.75500
H  40.05800 46.23100 20.64700
H  39.35800 47.93200 20.43600
H  40.09100 47.07800 19.05900
H  37.81600 42.75000 25.48500
H  38.86200 43.46700 24.11500
H  37.16900 43.05300 23.83200
H  37.36800 46.45900 29.32200
H  34.01000 44.12600 30.81000
H  33.94500 45.70300 31.64400
H  34.97000 44.56300 32.28800
Mg 9.67800 47.66200 26.09200
C  7.76300 48.06700 28.91400
C  12.50300 48.42500 27.79900
C  11.45500 47.21400 23.20800
C  6.72600 47.52100 24.23500
N  10.13800 48.22500 28.13700
C  9.18400 48.25300 29.17300
C  9.90700 48.30000 30.50100
C  11.27200 48.78100 30.03800
C  11.35100 48.47900 28.57000
C  11.69100 50.24900 30.24600
C  9.83300 47.01700 31.38100
C  9.67500 47.35200 32.89400
H  9.46400 46.22500 33.94800
N  11.69100 47.70600 25.58800
C  12.71600 48.06700 26.48000
C  13.95600 48.15500 25.79300
C  13.64600 47.87300 24.43600
C  12.23200 47.53200 24.37900
C  15.37500 48.52000 26.42400
C  14.60600 47.84200 23.17700
O  14.16600 47.73800 22.05100
C  16.14500 47.84500 23.44800
N  9.19700 47.34000 24.08300
C  10.09800 47.15600 23.13100
C  9.41400 46.72700 21.81000
C  7.88500 46.75600 22.17200
C  7.92400 47.21300 23.60300
C  9.83000 47.42000 20.45800
C  7.27700 45.35900 22.07100
C  7.49700 44.36200 23.20900
N  7.61300 48.00200 26.39900
C  6.52900 47.92300 25.55300
C  5.26000 47.98800 26.30100
C  5.70000 47.98300 27.63700
C  7.12900 48.01100 27.64100
C  3.90200 47.91900 25.69600
C  5.27500 47.93000 28.99800
O  4.12700 47.83900 29.41900
C  6.54200 47.95800 29.91300
C  6.49100 46.66500 30.68200
O  6.90200 45.55900 30.37600
O  5.86300 46.85900 31.92200
C  5.80800 45.68200 32.82200
H  13.45100 48.55500 28.32400
H  12.08200 46.94700 22.35500
H  5.88800 47.32000 23.56400
H  9.33800 49.07000 31.02300
H  11.96300 48.18300 30.63300
H  10.79200 50.80800 30.50700
H  12.24900 50.77700 29.47200
H  12.37300 50.36500 31.08700
H  10.69600 46.35800 31.27700
H  9.02100 46.42600 30.95800
H  8.73700 47.90600 32.89800
H  10.46000 48.02600 33.23800
H  15.46900 48.46900 27.50900
H  15.78000 49.47100 26.07900
H  16.07600 47.74500 26.11500
H  16.30800 46.97700 24.08600
H  16.47200 48.74900 23.96200
H  16.83200 47.83600 22.60100
H  9.74000 45.68900 21.73900
H  7.24200 47.43100 21.60700
H  10.17900 48.38900 20.81600
H  9.09200 47.68900 19.70200
H  10.76000 46.95300 20.13200
H  7.72600 44.90000 21.19000
H  6.20000 45.34200 21.90400
H  6.98000 43.41400 23.06400
H  6.99300 44.74100 24.09900
H  8.48900 44.11800 23.58900
H  3.76600 46.84800 25.84500
H  3.79400 48.05400 24.62000
H  3.19100 48.50100 26.28300
H  6.46400 48.73900 30.66800
H  6.73100 45.10400 32.77700
H  4.91600 45.07900 32.65400
H  5.68000 46.00500 33.85500

