158

Mg -0.33700 7.00700 26.97500
C  0.57100 9.08600 29.52700
C  -0.61200 4.35200 29.41200
C  -1.04400 4.92400 24.50000
C  0.52800 9.46000 24.63000
N  -0.09900 6.78700 29.30500
C  0.21900 7.85100 30.13500
C  0.11100 7.42700 31.60400
C  0.11300 5.86800 31.48500
C  -0.24400 5.59300 29.98500
C  1.51700 5.23400 31.77600
C  -1.18700 7.95900 32.32200
C  -1.31300 8.19800 33.84800
H  -0.06900 7.88000 34.73700
N  -0.85100 5.00000 26.96300
C  -0.95000 4.08900 28.04800
C  -1.24100 2.76700 27.51000
C  -1.29800 2.87500 26.05800
C  -1.03400 4.32800 25.80900
C  -1.30400 1.57600 28.37900
C  -1.52500 1.82400 25.04300
O  -1.49300 2.00100 23.81500
C  -1.62500 0.45000 25.50800
N  -0.14000 7.17000 24.77600
C  -0.55100 6.13100 23.99500
C  -0.54100 6.53600 22.50200
C  -0.12000 8.04800 22.55100
C  0.04100 8.28600 24.03300
C  0.20200 5.69900 21.50800
C  -0.99500 9.03900 21.84100
C  -2.03600 9.76100 22.63200
N  0.42300 8.85100 27.04500
C  0.67900 9.79800 26.03400
C  1.11700 11.02200 26.57400
C  1.05500 10.85500 27.91700
C  0.71200 9.47200 28.13300
C  1.52300 12.36300 25.78800
C  1.26700 11.46500 29.20900
O  1.71000 12.61100 29.45600
C  0.99900 10.33700 30.26700
C  2.20500 10.21900 31.09200
O  3.22900 9.72200 30.70600
O  1.93500 10.75900 32.35600
C  3.15000 10.86400 33.18800
H  -0.63000 3.62900 30.22900
H  -1.17800 4.26000 23.64400
H  0.74200 10.24800 23.90400
H  1.01700 7.82600 32.05900
H  -0.67300 5.43800 32.10600
H  1.95200 4.91100 30.83000
H  1.39800 4.31900 32.35700
H  2.02800 5.98000 32.38400
H  -2.01600 7.31600 32.02700
H  -1.52300 8.90100 31.88900
H  -2.11500 7.66900 34.36200
H  -1.57500 9.24900 33.96400
H  -1.38000 1.84700 29.43200
H  -0.48800 0.91800 28.08200
H  -2.23100 1.06400 28.12000
H  -2.47000 0.35800 26.19000
H  -0.66500 0.11400 25.89900
H  -1.76700 -0.19300 24.63900
H  -1.60000 6.41300 22.27200
H  0.93900 8.13700 22.30900
H  0.81900 5.01400 22.09000
H  0.88500 6.31600 20.92400
H  -0.46200 5.05000 20.93700
H  -1.49300 8.38100 21.12800
H  -0.41900 9.81600 21.33800
H  -2.93900 10.03800 22.08900
H  -1.54200 10.72300 22.77100
H  -2.25000 9.27800 23.58500
H  2.20200 12.22500 24.94600
H  2.07100 13.15300 26.30200
H  0.62600 12.84400 25.39800
H  0.17300 10.64500 30.90900
H  3.09300 11.61400 33.97700
H  4.07400 11.05900 32.64400
H  3.42100 9.91400 33.65000
Mg 35.16600 3.33400 29.44400
C  33.11100 4.39400 31.86400
C  37.93500 3.20800 31.41000
C  37.10100 2.65000 26.75800
C  32.45500 3.91400 27.08700
N  35.54700 3.97000 31.34400
C  34.48600 4.11100 32.23700
C  35.02000 4.12800 33.66000
C  36.61000 3.98200 33.41700
C  36.75400 3.70300 31.95500
C  37.42900 5.23300 33.88100
C  34.28700 3.03600 34.49600
C  33.98800 3.36200 35.98500
H  34.99000 4.29800 36.72200
N  37.14600 2.77000 29.16800
C  38.10900 2.72800 30.13400
C  39.24300 2.05800 29.64400
C  39.07300 1.94600 28.25000
C  37.74700 2.47500 28.00400
C  40.45900 1.71600 30.44600
C  40.09200 1.51000 27.16800
O  39.74700 1.45600 25.95600
C  41.53100 1.34600 27.58500
N  34.83300 3.38300 27.27000
C  35.81800 3.02100 26.41000
C  35.36100 2.88900 24.97200
C  33.85900 3.32000 25.08000
C  33.64200 3.54000 26.58700
C  36.10000 3.77000 23.99100
C  32.82800 2.25600 24.47400
C  32.45100 0.98200 25.25400
N  33.13400 4.01300 29.44300
C  32.18000 4.20700 28.45800
C  30.93300 4.58700 29.06400
C  31.24700 4.71200 30.44800
C  32.60800 4.37200 30.56500
C  29.64200 4.61700 28.36400
C  30.65600 5.04900 31.71300
O  29.52100 5.40300 32.02500
C  31.82900 4.65700 32.69600
C  31.94500 5.68400 33.74100
O  32.69700 6.64000 33.69700
O  31.19100 5.40900 34.86100
C  31.19500 6.46100 35.88200
H  38.73300 3.09400 32.14700
H  37.59600 2.33600 25.83700
H  31.72200 4.25400 26.35200
H  34.75700 5.03500 34.20500
H  37.06700 3.12600 33.91300
H  36.86400 6.04500 34.33800
H  38.04200 5.74400 33.13800
H  38.18900 4.81300 34.53900
H  34.73100 2.04100 34.53000
H  33.27800 2.94300 34.09500
H  33.79300 2.49400 36.61600
H  33.05800 3.92600 35.92100
H  41.38500 2.20400 30.14100
H  40.59900 0.63600 30.39000
H  40.28900 1.99700 31.48500
H  42.18300 0.96000 26.80200
H  41.69500 0.66200 28.41800
H  41.82800 2.33000 27.94800
H  35.48200 1.82500 24.77100
H  33.67500 4.31700 24.67900
H  36.33700 4.75500 24.39400
H  35.46400 3.85600 23.11000
H  37.07000 3.33900 23.74300
H  33.16600 1.92600 23.49200
H  31.92200 2.82300 24.26000
H  31.37500 0.82000 25.31600
H  32.95100 0.87800 26.21700
H  32.77400 0.14000 24.64300
H  29.71000 4.90200 27.31400
H  28.98900 5.32900 28.86900
H  29.10700 3.67800 28.50500
H  31.65900 3.73500 33.25300
H  32.09800 6.33800 36.48000
H  30.34800 6.29400 36.54800
H  31.10700 7.43100 35.39400

