158

Mg 43.09000 42.67000 26.57800
C  41.97000 44.92000 29.08500
C  44.06600 40.54000 28.85700
C  44.61600 41.00300 24.06500
C  42.13600 45.05900 24.10900
N  42.88600 42.77400 28.81400
C  42.50000 43.72000 29.61000
C  42.45600 43.24800 31.04300
C  43.16100 41.96600 30.91600
C  43.33900 41.65800 29.42800
C  44.48300 41.99600 31.75500
C  41.02800 43.12300 31.74000
C  40.72100 44.04700 32.93500
H  40.19800 43.45800 34.26200
N  44.16000 40.95100 26.46700
C  44.46000 40.15400 27.56300
C  45.26400 39.03200 27.09600
C  45.49300 39.20000 25.70900
C  44.76600 40.45100 25.29300
C  45.85600 38.00300 28.08700
C  46.37400 38.36700 24.84900
O  46.51800 38.61900 23.63600
C  47.29000 37.22000 25.45900
N  43.39800 43.02300 24.44500
C  44.01700 42.11900 23.62300
C  43.86800 42.49100 22.13700
C  42.93700 43.69200 22.14500
C  42.85700 43.99000 23.63100
C  45.27000 42.73100 21.49700
C  41.53400 43.44700 21.53600
C  40.54100 42.60700 22.35500
N  42.34900 44.64300 26.56100
C  42.05100 45.53500 25.44600
C  41.31700 46.67400 25.96200
C  41.22800 46.52700 27.36700
C  41.89700 45.26400 27.70900
C  40.80400 47.77100 25.15300
C  40.78700 47.09800 28.63800
O  40.18800 48.14100 28.87200
C  41.27600 46.02500 29.76900
C  42.21400 46.81200 30.69100
O  43.36200 47.16400 30.40600
O  41.56200 47.13300 31.87800
C  42.35200 47.58500 32.96200
H  44.48500 39.92800 29.65800
H  44.89300 40.31100 23.26600
H  41.68800 45.72300 23.36700
H  43.01900 44.05800 31.50700
H  42.55000 41.15400 31.30800
H  44.48200 42.74300 32.55000
H  45.25400 42.26200 31.03200
H  44.68800 41.04300 32.24100
H  40.74900 42.10200 31.99600
H  40.34100 43.35000 30.92500
H  39.94600 44.64500 32.45500
H  41.48700 44.82000 32.99500
H  45.34700 37.88500 29.04300
H  46.89400 38.22500 28.33200
H  45.92000 37.00100 27.66300
H  48.04400 36.82900 24.77500
H  46.83700 36.29800 25.82400
H  47.79400 37.74600 26.26900
H  43.49300 41.56300 21.70500
H  43.35300 44.57200 21.65500
H  45.29900 41.93800 20.75000
H  46.04200 42.66100 22.26300
H  45.25400 43.75500 21.12400
H  41.79700 42.87000 20.64900
H  41.09500 44.40000 21.23900
H  40.91700 42.56000 23.37700
H  40.54700 41.58200 21.98500
H  39.50400 42.93200 22.26900
H  39.92700 47.51100 24.56000
H  41.66800 47.99600 24.52800
H  40.51300 48.59200 25.80700
H  40.41900 45.71900 30.37000
H  42.58900 46.69400 33.54400
H  41.78900 48.27600 33.58900
H  43.24600 48.10700 32.62100
Mg -5.26000 25.15900 26.29500
C  -3.63800 26.75600 28.93300
C  -7.24900 23.56300 28.66900
C  -6.57300 23.32500 23.85600
C  -2.90500 26.58500 24.13800
N  -5.40700 25.23300 28.50800
C  -4.63200 25.89400 29.39700
C  -4.91700 25.59500 30.81800
C  -6.04500 24.59500 30.68100
C  -6.26000 24.46800 29.18700
C  -5.76300 23.24800 31.52800
C  -5.17000 26.86000 31.70200
C  -6.08300 26.71200 32.91800
H  -5.68400 25.62600 33.91600
N  -6.67100 23.62700 26.22200
C  -7.42100 23.12700 27.34900
C  -8.47800 22.34600 26.83400
C  -8.40100 22.32900 25.43000
C  -7.24600 23.10400 25.07400
C  -9.47700 21.69900 27.76300
C  -9.32900 21.69500 24.42100
O  -9.20700 21.76700 23.20400
C  -10.52900 20.93200 24.86800
N  -4.92400 25.07300 24.19700
C  -5.52300 24.19300 23.40400
C  -4.85800 24.21100 22.00900
C  -3.66200 25.21300 22.19700
C  -3.85000 25.70200 23.60100
C  -4.48500 22.90500 21.34100
C  -3.61800 26.36400 21.14200
C  -2.48100 26.25400 20.06500
N  -3.68200 26.51100 26.41200
C  -2.82400 27.01500 25.44300
C  -1.86500 27.82300 26.10200
C  -2.09100 27.74700 27.46800
C  -3.22400 27.00900 27.59400
C  -0.79400 28.66500 25.47600
C  -1.64200 28.13700 28.80800
O  -0.61600 28.77300 29.03200
C  -2.55700 27.39200 29.88200
C  -1.82100 26.44800 30.78000
O  -1.39400 25.35900 30.46300
O  -1.69900 27.05800 32.02600
C  -1.20900 26.38700 33.27000
H  -7.81700 23.17400 29.51600
H  -6.98000 22.76600 23.01000
H  -2.06600 26.96400 23.55100
H  -4.08100 24.97000 31.12900
H  -6.95200 25.14500 30.93300
H  -5.82500 22.44400 30.79600
H  -6.53600 23.15100 32.29100
H  -4.83700 23.22300 32.10300
H  -5.30400 27.76100 31.10200
H  -4.20600 27.04300 32.17600
H  -7.13300 26.68600 32.62500
H  -6.06000 27.68000 33.41800
H  -9.52900 20.61100 27.72600
H  -10.42500 22.23200 27.68200
H  -9.29500 21.88200 28.82200
H  -11.04600 21.67000 25.48100
H  -10.21300 20.07500 25.46300
H  -11.09300 20.74800 23.95400
H  -5.56000 24.76900 21.38900
H  -2.70400 24.70300 22.30500
H  -3.58700 22.96300 20.72600
H  -5.21700 22.47100 20.66000
H  -4.30500 22.20800 22.15900
H  -3.47400 27.30000 21.68300
H  -4.59100 26.50200 20.67100
H  -2.14300 25.22200 20.15900
H  -1.67700 26.99000 20.09600
H  -2.93800 26.39700 19.08600
H  -0.81500 28.70000 24.38700
H  0.14300 28.18000 25.74600
H  -0.88900 29.73100 25.68600
H  -3.08800 28.10300 30.51600
H  -0.33600 26.89600 33.67800
H  -1.00500 25.33400 33.07900
H  -1.89500 26.52500 34.10600

