158

Mg -2.02800 17.50300 27.68300
C  -2.43000 15.25500 30.37600
C  -2.96200 20.04100 29.78400
C  -1.49000 19.56400 25.13400
C  -1.58700 14.76100 25.58900
N  -2.69600 17.58700 29.85800
C  -2.63400 16.57600 30.79700
C  -2.83300 17.15100 32.24800
C  -3.42000 18.60200 31.92200
C  -2.98400 18.81400 30.44300
C  -4.84500 18.81800 32.33000
C  -1.47600 17.12500 33.10800
C  -1.78100 16.35500 34.50100
H  -0.70000 16.35400 35.47600
N  -2.08500 19.55600 27.52600
C  -2.54000 20.42300 28.48200
C  -2.36600 21.76100 27.99300
C  -1.94000 21.64900 26.67400
C  -1.90100 20.18700 26.33300
C  -2.59100 22.95700 28.88200
C  -1.55300 22.71100 25.69100
O  -1.25300 22.57100 24.48700
C  -1.42700 24.11800 26.10300
N  -1.90600 17.22300 25.54600
C  -1.48700 18.20100 24.76600
C  -1.18500 17.63000 23.27900
C  -1.07400 16.11600 23.59800
C  -1.56700 16.02300 25.00800
C  -2.31400 17.93300 22.21200
C  0.30400 15.41700 23.15300
C  1.41300 15.62600 24.16500
N  -2.10900 15.44600 27.80500
C  -1.98800 14.43800 26.90900
C  -2.13500 13.13400 27.56800
C  -2.26200 13.38000 28.94000
C  -2.30800 14.81400 29.05000
C  -1.93500 11.79500 26.93500
C  -2.31500 12.79200 30.20400
O  -2.25900 11.58400 30.53800
C  -2.40400 14.00900 31.15000
C  -1.02000 13.91900 31.79100
O  -0.02700 14.52200 31.50000
O  -1.09400 13.05000 32.88600
C  0.08300 12.64700 33.60100
H  -3.21500 20.89500 30.41500
H  -1.26300 20.26200 24.32500
H  -1.15400 13.93300 25.02300
H  -3.68600 16.66400 32.72100
H  -2.82500 19.37200 32.41300
H  -5.25300 18.10900 33.05100
H  -5.29800 18.76200 31.34100
H  -4.86900 19.82700 32.74100
H  -1.11600 18.13900 33.28100
H  -0.71600 16.58700 32.54000
H  -1.99900 15.29900 34.34100
H  -2.68600 16.74600 34.96700
H  -2.95300 23.83300 28.34300
H  -1.57700 23.12800 29.24100
H  -3.21200 22.80000 29.76400
H  -2.37800 24.64500 26.17200
H  -0.70000 24.60600 25.45400
H  -1.08900 24.00900 27.13400
H  -0.24600 18.04000 22.90600
H  -1.84800 15.66400 22.97800
H  -3.02900 18.63100 22.64700
H  -2.86000 17.04000 21.91100
H  -1.87100 18.40200 21.33300
H  0.53400 15.66300 22.11600
H  0.08000 14.36100 23.00100
H  1.92300 16.54300 23.86900
H  2.12800 14.80600 24.09900
H  1.11700 15.81600 25.19600
H  -2.21200 11.95800 25.89300
H  -2.61600 11.09300 27.41600
H  -0.90400 11.52200 27.16100
H  -3.28600 13.85900 31.77300
H  0.28700 13.29400 34.45400
H  1.00300 12.77000 33.03000
H  0.07800 11.61300 33.94600
Mg 26.71300 50.88500 26.33100
C  25.09000 52.21100 29.11100
C  29.23200 50.17800 28.41000
C  28.51600 50.06900 23.70100
C  24.37300 52.53100 24.24000
N  26.97700 50.95500 28.63300
C  26.19300 51.46200 29.56000
C  26.80500 51.21400 30.94000
C  28.25700 50.76700 30.65200
C  28.16500 50.63300 29.15400
C  29.31600 51.85800 31.16700
C  26.10600 50.07900 31.76000
C  25.48600 50.49900 33.07100
H  26.21500 51.18800 34.19500
N  28.64000 50.04200 26.08000
C  29.51900 49.85400 27.09100
C  30.65400 49.14900 26.55800
C  30.40400 48.90800 25.14300
C  29.18900 49.74500 24.90400
C  31.69700 48.43100 27.46500
C  31.20000 48.14900 24.06400
O  30.85500 48.09500 22.89300
C  32.51300 47.51700 24.51600
N  26.55800 51.41000 24.23500
C  27.38400 50.80200 23.35600
C  26.98800 51.11600 21.87500
C  25.47500 51.68400 22.05800
C  25.40600 51.81700 23.59400
C  27.95100 51.84900 20.94000
C  24.37300 50.76300 21.39500
C  23.68400 51.29600 20.11500
N  25.07600 52.17900 26.49700
C  24.13100 52.70900 25.61100
C  23.09800 53.28000 26.34500
C  23.44000 53.09000 27.68200
C  24.65200 52.42600 27.75600
C  21.91100 53.99100 25.76100
C  23.02400 53.42000 29.08000
O  22.03600 54.08700 29.49300
C  24.00000 52.82100 29.99400
C  24.53200 53.95800 30.86800
O  25.54200 54.56300 30.71200
O  23.71800 53.99500 31.99500
C  24.24000 54.68500 33.18500
H  30.07600 50.01200 29.08400
H  29.09500 49.71100 22.84700
H  23.50900 52.84400 23.65000
H  26.70600 52.11000 31.55300
H  28.60200 49.92400 31.25100
H  29.82300 52.33900 30.33000
H  30.07100 51.33900 31.75800
H  28.89200 52.57500 31.87100
H  26.80400 49.31700 32.10700
H  25.29600 49.61100 31.20200
H  25.15300 49.52700 33.43400
H  24.58100 51.06400 32.84700
H  32.61100 48.95900 27.19400
H  31.86300 47.38500 27.20400
H  31.42700 48.65800 28.49600
H  33.04600 48.29300 25.06500
H  33.00300 47.27000 23.57400
H  32.38700 46.62200 25.12500
H  26.86500 50.14700 21.39200
H  25.29900 52.67300 21.63700
H  28.70900 52.28200 21.59300
H  27.42800 52.71500 20.53600
H  28.41300 51.14800 20.24400
H  23.58300 50.64800 22.13700
H  24.80500 49.78400 21.18700
H  23.99300 50.65000 19.29300
H  23.96200 52.32300 19.87900
H  22.59800 51.20600 20.15900
H  21.15800 53.98100 26.54900
H  21.54300 53.55200 24.83400
H  22.31200 55.00200 25.69200
H  23.53200 52.01100 30.55300
H  24.30400 55.74500 32.93700
H  25.22500 54.23800 33.31400
H  23.70300 54.45100 34.10400

