158

Mg 36.27900 49.45300 26.84300
C  36.63000 47.42000 29.52600
C  35.46600 52.03900 28.96700
C  36.01100 51.42600 24.15300
C  36.97100 46.69600 24.73600
N  36.19500 49.71300 29.01900
C  36.45700 48.74900 29.93700
C  36.29200 49.25500 31.39200
C  35.49300 50.61200 31.08500
C  35.73800 50.88000 29.61300
C  34.03800 50.59200 31.56700
C  37.65700 49.41200 32.23200
C  37.55900 49.35400 33.74300
H  36.23700 49.66900 34.40900
N  35.84200 51.48900 26.63200
C  35.51500 52.39400 27.58800
C  35.06200 53.62700 26.96200
C  35.38000 53.48500 25.58400
C  35.70800 52.08800 25.39900
C  34.60600 54.86400 27.78100
C  35.39600 54.60000 24.50400
O  35.77200 54.45700 23.37500
C  34.89500 56.01800 24.92900
N  36.35200 49.02800 24.69900
C  36.27000 50.06900 23.82300
C  36.59800 49.57000 22.43000
C  36.96100 48.09000 22.64000
C  36.80600 47.93300 24.13800
C  35.46500 49.71500 21.39000
C  38.41600 47.76500 22.18400
C  38.63500 46.93200 20.89900
N  36.64700 47.43400 27.01200
C  36.95600 46.40400 26.09700
C  37.26200 45.17300 26.80100
C  37.04800 45.54500 28.09100
C  36.69800 46.88900 28.18500
C  37.65400 43.90000 26.18600
C  37.11900 45.02900 29.47500
O  37.46200 43.89100 29.82200
C  36.79600 46.19200 30.43100
C  35.63200 45.92400 31.26000
O  34.47100 45.83600 30.87100
O  36.07500 45.76700 32.58100
C  35.03500 45.59400 33.55500
H  35.13600 52.85100 29.61700
H  35.93100 52.12200 23.31500
H  37.26200 45.94400 23.99900
H  35.55800 48.71000 31.98600
H  35.95500 51.44900 31.60800
H  33.61400 49.62400 31.83100
H  33.38000 50.97700 30.78800
H  33.90000 51.29800 32.38600
H  38.16700 50.34800 32.00600
H  38.31500 48.61400 31.88600
H  38.31000 50.03800 34.13800
H  37.84400 48.36600 34.10600
H  35.42900 55.54900 27.98600
H  34.44500 54.61700 28.83100
H  33.69200 55.38500 27.49700
H  35.51400 56.44400 25.71900
H  33.86100 55.87200 25.24200
H  34.98000 56.58100 24.00000
H  37.46100 50.17100 22.14300
H  36.26800 47.35900 22.22300
H  35.45300 50.74900 21.04300
H  34.47400 49.50400 21.79100
H  35.71900 49.03900 20.57400
H  39.00400 47.29500 22.97300
H  38.91000 48.72600 22.03900
H  38.63700 45.87800 21.17700
H  39.58800 47.17400 20.43000
H  37.84200 47.17100 20.19100
H  38.66500 43.87200 25.77900
H  37.16400 43.71300 25.23100
H  37.44600 43.02800 26.80500
H  37.65200 46.29900 31.09800
H  34.34200 44.87300 33.12100
H  34.58500 46.55000 33.82300
H  35.44000 45.18700 34.48100
Mg 6.26300 54.89400 39.56400
C  5.78000 51.38200 39.23600
C  9.63200 54.37900 39.34000
C  6.70000 58.28300 39.32200
C  2.76200 55.36700 39.29300
N  7.51500 53.07800 39.30100
C  7.13800 51.73800 39.25900
C  8.40500 50.88300 39.10400
C  9.59400 51.88100 39.43500
C  8.89300 53.22400 39.29300
C  10.34700 51.72600 40.75900
C  8.59300 50.26400 37.67100
C  8.40000 51.17900 36.51900
H  7.72400 50.53400 35.27000
N  7.97100 56.16100 39.34700
C  9.28500 55.71200 39.22000
C  10.15400 56.92200 39.09500
C  9.35000 58.03900 39.31100
C  7.90700 57.53400 39.35200
C  11.60300 56.78700 38.81000
C  9.84700 59.44500 39.45700
O  10.99500 59.69700 39.55200
C  8.92800 60.65300 39.47400
N  4.92100 56.58400 39.35100
C  5.34100 57.87300 39.36900
C  4.14800 58.89000 39.34900
C  2.90100 57.94800 39.24500
C  3.52700 56.53600 39.23300
C  3.87600 59.82100 40.55800
C  1.96000 58.19400 38.04600
C  0.36600 58.24300 38.31000
N  4.53400 53.69500 39.52600
C  3.22100 53.98000 39.41200
C  2.49700 52.73600 39.52200
C  3.41000 51.68500 39.49000
C  4.67600 52.32300 39.41700
C  1.04800 52.82600 39.61300
C  3.63500 50.20700 39.50300
O  2.91000 49.23400 39.61800
C  5.19800 50.01400 39.32000
C  5.56600 49.03900 38.24000
O  5.42700 49.27500 37.03100
O  6.10400 47.85200 38.71200
C  6.21800 46.78900 37.63900
H  10.72300 54.32000 39.33800
H  6.69000 59.36700 39.18700
H  1.71000 55.65900 39.33100
H  8.37200 50.10300 39.86400
H  10.32300 51.89000 38.62500
H  10.43000 52.56500 41.45000
H  11.36800 51.51800 40.44200
H  9.93200 50.85700 41.26900
H  8.16600 49.26200 37.65300
H  9.67500 50.13200 37.69700
H  9.40100 51.46500 36.19500
H  7.89800 52.13900 36.63500
H  11.73600 55.86200 38.24900
H  12.09500 56.69400 39.77900
H  11.94100 57.56500 38.12500
H  9.58900 61.49800 39.66800
H  8.13200 60.51400 40.20600
H  8.49700 60.68400 38.47300
H  4.07300 59.50300 38.45100
H  2.34500 57.86900 40.17900
H  4.63200 60.60600 40.54100
H  3.97900 59.27600 41.49600
H  2.89700 60.27800 40.41500
H  2.21200 57.37100 37.37700
H  2.24900 59.09500 37.50600
H  0.25700 58.23500 39.39500
H  -0.11600 57.35100 37.91000
H  -0.00000 59.17000 37.86900
H  0.62300 52.42000 38.69500
H  0.61500 53.82500 39.66200
H  0.79300 52.27200 40.51600
H  5.48900 49.66100 40.30900
H  6.95900 47.15400 36.92700
H  5.21900 46.72900 37.20800
H  6.43800 45.78900 38.01300

