158

Mg 24.82500 -7.86800 47.50500
C  26.95700 -5.23400 46.25900
C  22.46600 -6.94300 45.28000
C  23.24400 -10.70000 48.24400
C  27.75400 -9.06900 49.17900
N  24.84500 -6.36700 45.78000
C  25.71800 -5.31800 45.58800
C  25.16900 -4.25100 44.62200
C  23.66500 -4.75700 44.52200
C  23.64500 -6.09100 45.21500
C  22.74300 -3.68100 45.03500
C  26.02100 -4.17600 43.29600
C  26.58200 -2.76000 42.99000
H  26.28200 -2.26700 41.58700
N  23.05300 -8.67500 46.89900
C  22.17800 -8.09200 46.00200
C  20.98300 -8.83800 45.79000
C  21.15200 -9.93300 46.72600
C  22.48000 -9.81700 47.38200
C  19.86900 -8.47100 44.75700
C  20.05600 -11.04100 47.00900
O  19.03400 -11.02300 46.39600
C  20.42500 -12.04600 48.08400
N  25.46400 -9.66000 48.44100
C  24.53700 -10.61700 48.71300
C  25.15700 -11.67900 49.60400
C  26.52400 -11.09600 50.10300
C  26.61300 -9.87900 49.16400
C  24.27600 -12.28600 50.71000
C  27.79900 -12.04300 50.05100
C  28.76200 -12.16700 51.21000
N  26.88000 -7.25800 47.84000
C  27.93000 -7.82200 48.55000
C  29.05100 -6.96600 48.58800
C  28.72800 -5.90700 47.76100
C  27.41100 -6.20100 47.24500
C  30.29100 -7.28500 49.42700
C  29.12800 -4.62500 47.30100
O  30.16300 -3.95900 47.43800
C  28.03200 -4.21000 46.21300
C  27.56600 -2.81700 46.51600
O  26.58200 -2.45100 47.14500
O  28.37000 -1.89500 45.89400
C  27.90600 -0.53000 45.80700
H  21.74200 -6.54300 44.56700
H  22.78900 -11.64700 48.54100
H  28.41300 -9.46400 49.95400
H  25.15900 -3.27700 45.11100
H  23.31400 -4.90800 43.50100
H  23.28000 -2.79200 45.36600
H  22.12000 -4.04700 45.85100
H  22.07000 -3.45700 44.20700
H  25.47000 -4.49800 42.41300
H  26.90400 -4.81200 43.35700
H  27.65600 -2.93800 43.04100
H  26.34000 -1.91800 43.63800
H  20.15900 -8.66000 43.72400
H  19.51300 -7.44200 44.70900
H  18.93100 -9.00800 44.89600
H  21.19500 -12.69400 47.66700
H  19.57700 -12.70300 48.27900
H  20.71900 -11.47500 48.96500
H  25.43300 -12.53000 48.98100
H  26.52700 -10.74000 51.13300
H  23.31600 -11.80200 50.89100
H  24.85300 -12.18300 51.62900
H  24.10600 -13.34700 50.52600
H  28.44000 -11.74900 49.22000
H  27.31600 -12.99400 49.82600
H  29.75100 -12.20100 50.75400
H  28.53800 -13.05400 51.80300
H  28.73700 -11.21700 51.74400
H  29.98100 -7.52700 50.44400
H  30.89700 -6.37900 49.42200
H  30.75900 -8.20600 49.07700
H  28.46900 -4.14600 45.21700
H  26.83600 -0.59300 45.60700
H  28.45700 -0.07700 44.98300
H  28.03800 0.01000 46.74400
Mg 26.18000 -0.13400 29.35000
C  27.85300 -0.60000 32.44100
C  23.29900 0.28300 30.98100
C  24.54500 -0.45100 26.28200
C  29.17700 -1.20300 27.68000
N  25.67000 -0.17400 31.52600
C  26.51500 -0.34500 32.60100
C  25.72600 0.02800 33.92100
C  24.29300 -0.06600 33.39700
C  24.42900 0.04400 31.84200
C  23.45400 -1.25100 33.86600
C  26.13900 1.43000 34.49900
C  25.80200 1.64900 35.93100
H  26.88100 1.82300 37.02700
N  24.26300 -0.02500 28.72200
C  23.23400 0.22300 29.57500
C  22.07900 0.44000 28.78400
C  22.37900 0.20700 27.39600
C  23.82100 -0.14800 27.47400
C  20.73300 0.66600 29.38000
C  21.52300 0.19600 26.07800
O  21.87800 -0.02200 24.90200
C  20.04200 0.50100 26.28900
N  26.77800 -0.69900 27.27600
C  25.89800 -0.72900 26.22700
C  26.62800 -1.19000 24.97000
C  28.18500 -1.20700 25.34800
C  28.04100 -1.09200 26.86900
C  26.05000 -2.44900 24.25800
C  29.03700 -0.11300 24.75800
C  30.45800 -0.55700 24.66400
N  28.11200 -0.62100 29.85800
C  29.24800 -0.98600 29.07800
C  30.36600 -1.11400 29.94500
C  29.87400 -0.96500 31.25100
C  28.50200 -0.76000 31.13500
C  31.71100 -1.38900 29.53300
C  30.32800 -0.93400 32.67800
O  31.37100 -1.16500 33.23100
C  29.03700 -0.57900 33.49300
C  28.80400 -1.57300 34.58400
O  28.39700 -2.69700 34.28900
O  29.08300 -0.99600 35.84600
C  28.73100 -1.87700 36.99200
H  22.38300 0.39600 31.56500
H  24.12700 -0.43300 25.27400
H  30.05000 -1.56500 27.13300
H  25.87700 -0.71500 34.70400
H  23.83600 0.85400 33.76200
H  23.18800 -1.93700 33.06100
H  22.54700 -0.83600 34.30600
H  24.00200 -1.86600 34.57900
H  25.65200 2.14100 33.83100
H  27.21800 1.54500 34.39600
H  25.20100 0.79900 36.25300
H  25.21500 2.56200 35.84100
H  19.91700 0.14400 28.88000
H  20.52900 1.71400 29.15900
H  20.54600 0.54100 30.44700
H  19.53200 -0.29600 26.83000
H  19.62000 0.69800 25.30300
H  20.03000 1.50100 26.72200
H  26.57900 -0.44500 24.17600
H  28.59500 -2.19200 25.12800
H  25.03400 -2.68400 24.57500
H  26.68300 -3.32200 24.41800
H  25.99800 -2.32600 23.17600
H  29.12900 0.73500 25.43600
H  28.70400 0.19800 23.76800
H  30.77200 -0.49100 23.62200
H  30.51700 -1.60200 24.96800
H  31.16000 -0.00600 25.29100
H  31.92500 -0.85100 28.60900
H  31.90100 -2.42200 29.24200
H  32.39000 -1.07300 30.32500
H  29.17000 0.37200 34.01100
H  27.64400 -1.91600 37.06600
H  29.10200 -1.37100 37.88400
H  28.98200 -2.93600 36.93400

