158

Mg -1.72100 17.69900 26.82400
C  -2.34400 15.63800 29.48200
C  -2.46900 20.41200 28.88000
C  -1.26300 19.80700 24.21800
C  -1.45800 14.97900 24.67000
N  -2.68200 17.95400 28.89000
C  -2.52200 16.96000 29.83800
C  -3.04000 17.49100 31.22600
C  -3.09700 19.01900 30.95300
C  -2.64300 19.15300 29.43900
C  -4.46800 19.73800 31.45400
C  -2.07700 16.96500 32.40500
C  -1.81300 17.72200 33.70800
H  -1.95900 16.88200 34.99000
N  -1.78300 19.83900 26.56800
C  -2.03600 20.74100 27.55800
C  -1.96400 22.08600 27.07100
C  -1.43500 21.93900 25.70400
C  -1.54300 20.49100 25.40800
C  -2.31900 23.37800 27.81600
C  -1.00100 22.90200 24.73700
O  -0.70600 22.67400 23.54400
C  -0.80800 24.35000 25.33400
N  -1.54200 17.43000 24.68800
C  -1.27900 18.48600 23.87300
C  -1.02800 17.95300 22.43500
C  -1.00700 16.40000 22.61400
C  -1.25100 16.24400 24.05500
C  -2.21500 18.44400 21.48400
C  0.32900 15.72900 22.13400
C  1.50200 15.74300 23.20600
N  -1.91100 15.72600 26.94200
C  -1.75000 14.73000 25.98000
C  -1.83500 13.48000 26.66300
C  -1.97200 13.75900 28.04300
C  -2.07600 15.17900 28.15500
C  -1.69100 12.20000 25.92600
C  -2.09400 13.16100 29.34000
O  -2.08400 11.99700 29.73200
C  -2.32200 14.31000 30.36500
C  -1.16500 14.23000 31.29900
O  -0.03000 14.65600 31.19800
O  -1.61400 13.35700 32.24000
C  -0.72500 13.20200 33.35900
H  -2.51800 21.24700 29.58200
H  -1.10200 20.49200 23.38200
H  -1.33700 14.12500 24.00000
H  -3.97600 16.97000 31.42600
H  -2.25600 19.51500 31.43600
H  -5.07700 18.90600 31.80700
H  -4.92200 20.12200 30.54000
H  -4.33700 20.36600 32.33500
H  -1.14900 16.69100 31.90300
H  -2.58100 16.04200 32.68800
H  -2.54500 18.51000 33.88200
H  -0.78600 18.07700 33.79300
H  -2.75000 23.29800 28.81400
H  -3.06400 23.83300 27.16400
H  -1.43600 23.99300 27.98900
H  -1.81900 24.75400 25.38700
H  -0.37800 24.84200 24.46200
H  -0.15700 24.42500 26.20500
H  -0.02800 18.31500 22.19600
H  -1.93100 15.98600 22.20800
H  -2.87800 19.14600 21.99000
H  -2.91900 17.64000 21.26800
H  -1.85100 18.88000 20.55300
H  0.64800 16.14200 21.17700
H  0.10600 14.68000 21.94100
H  1.22800 16.03700 24.21900
H  2.24800 16.40300 22.76400
H  1.85600 14.71500 23.27600
H  -2.53800 11.53900 26.10800
H  -0.76900 11.65700 26.13700
H  -1.83500 12.35000 24.85700
H  -3.31400 14.20200 30.80500
H  0.27300 12.91500 33.02900
H  -1.10000 12.34700 33.92100
H  -0.65700 14.13500 33.91900
Mg 16.86100 52.06500 26.13000
C  18.49200 50.74500 28.91900
C  14.32000 53.01200 28.25900
C  15.09000 53.03500 23.48000
C  19.37800 50.77800 24.06700
N  16.50500 52.03600 28.45500
C  17.32400 51.48800 29.30200
C  16.85100 51.77700 30.78200
C  15.40600 52.18500 30.55300
C  15.35600 52.49600 29.02700
C  14.33300 51.12200 31.00200
C  17.85200 52.75200 31.46900
C  18.17700 52.45100 32.92700
H  17.05000 51.79600 33.80300
N  15.03000 52.91800 25.91100
C  14.10600 53.21400 26.89300
C  12.91500 53.85500 26.30300
C  13.24000 53.97800 24.94800
C  14.54300 53.33300 24.72100
C  11.80400 54.49200 27.11900
C  12.37300 54.53500 23.82900
O  12.68300 54.54500 22.65400
C  11.09500 55.07600 24.17500
N  17.14800 51.88100 24.07500
C  16.31900 52.41800 23.16300
C  16.88000 52.29900 21.74500
C  18.30700 51.74800 21.95200
C  18.33000 51.46000 23.41400
C  15.99200 51.44200 20.78700
C  19.43300 52.70400 21.48900
C  19.50500 54.19200 21.84800
N  18.53300 50.82300 26.32800
C  19.52500 50.50500 25.43600
C  20.59800 49.74600 26.09900
C  20.18900 49.80200 27.51500
C  18.94400 50.53900 27.57800
C  21.88200 49.20100 25.50600
C  20.57000 49.44300 28.85500
O  21.51500 48.78600 29.23100
C  19.49700 50.05200 29.82200
C  18.94500 48.93000 30.54800
O  18.16800 48.11500 30.08300
O  19.29800 49.03800 31.84300
C  18.75800 48.10900 32.82500
H  13.49100 53.24000 28.93200
H  14.59200 53.10800 22.51100
H  20.28800 50.64200 23.48000
H  16.88400 50.80800 31.28000
H  15.10900 53.08800 31.08600
H  13.68400 51.60100 31.73500
H  14.89600 50.26000 31.36000
H  13.68900 50.73400 30.21300
H  17.49900 53.78300 31.48400
H  18.81800 52.65700 30.97200
H  18.37700 53.34700 33.51400
H  19.06200 51.82200 32.82100
H  12.06000 54.45500 28.17800
H  10.88800 53.90700 27.03900
H  11.64500 55.52200 26.79900
H  10.37800 54.39800 24.63800
H  10.53200 55.02900 23.24300
H  11.17900 56.08600 24.57700
H  16.91500 53.34900 21.45400
H  18.41800 50.75000 21.52900
H  16.51400 50.84300 20.04100
H  15.42700 51.97900 20.02400
H  15.32500 50.76600 21.32200
H  19.40900 52.87600 20.41300
H  20.37700 52.20300 21.70400
H  20.22900 54.35200 22.64700
H  18.55000 54.52600 22.25200
H  19.84400 54.72700 20.96100
H  21.94400 49.25800 24.41900
H  22.09400 48.14400 25.66900
H  22.73900 49.66100 25.99700
H  20.03800 50.69500 30.51700
H  19.28800 47.15900 32.76600
H  17.67200 48.02100 32.84400
H  18.96400 48.48900 33.82600

