158

Mg 44.72800 4.09100 46.51900
C  42.69000 7.06100 46.29900
C  41.60200 2.47400 45.66000
C  46.39700 1.30600 45.97800
C  47.55300 6.11400 46.52900
N  42.41300 4.69200 46.06900
C  41.89400 5.96900 46.04200
C  40.40900 5.96500 45.82400
C  40.03800 4.45800 45.78200
C  41.42100 3.80700 45.84900
C  38.99500 3.97000 46.86900
C  39.96200 6.70900 44.53100
C  40.99700 6.89300 43.36600
H  40.52300 7.21300 41.93100
N  44.11100 2.13900 46.07700
C  42.79300 1.67600 45.76000
C  42.88000 0.23500 45.47600
C  44.28600 -0.17700 45.53800
C  44.98800 1.11600 45.84600
C  41.62300 -0.57300 45.15200
C  44.83000 -1.59400 45.22300
O  44.05900 -2.49200 44.85700
C  46.32700 -1.88400 45.41500
N  46.69300 3.79700 46.47100
C  47.13700 2.49600 46.20300
C  48.68500 2.50300 46.18100
C  49.03700 4.02700 46.34000
C  47.70900 4.70600 46.41200
C  49.31600 1.55600 47.18500
C  49.92100 4.68800 45.15800
C  51.20900 5.44600 45.58300
N  45.16300 6.13300 46.57600
C  46.37200 6.79800 46.55400
C  46.12000 8.24600 46.65700
C  44.72200 8.40200 46.60000
C  44.12400 7.07500 46.49100
C  47.02200 9.44600 46.70600
C  43.66500 9.33900 46.73400
O  43.68700 10.54000 46.93700
C  42.34700 8.58100 46.48900
C  41.51100 8.71600 47.65400
O  41.68900 8.17700 48.75500
O  40.46500 9.56100 47.40600
C  39.55900 9.74800 48.52800
H  40.78900 1.83500 45.30800
H  47.13800 0.51600 45.83800
H  48.42800 6.76300 46.46400
H  40.02800 6.42500 46.73600
H  39.55600 4.22500 44.83300
H  38.55900 4.77900 47.45600
H  39.54200 3.22600 47.44900
H  38.15200 3.53500 46.33200
H  39.78900 7.69300 44.96700
H  39.07000 6.23900 44.11700
H  41.61400 5.99500 43.32500
H  41.71200 7.69100 43.56600
H  40.77700 -0.18700 45.72100
H  41.73100 -1.65200 45.25800
H  41.50800 -0.52000 44.06900
H  46.24200 -2.93500 45.69000
H  46.80600 -1.35500 46.24000
H  46.88600 -1.68900 44.50000
H  48.87000 2.27600 45.13100
H  49.53700 4.24400 47.28500
H  50.27400 2.01500 47.42900
H  49.44100 0.55400 46.77300
H  48.68000 1.50100 48.06800
H  49.31400 5.20100 44.41100
H  50.26300 3.80600 44.61700
H  51.95400 4.81900 45.09500
H  51.58500 5.43200 46.60600
H  51.07800 6.47300 45.24300
H  46.56500 10.25700 46.13800
H  47.94200 9.18800 46.18100
H  47.31400 9.81000 47.69100
H  41.83200 8.90300 45.58500
H  39.71100 10.75700 48.91200
H  39.62400 8.97500 49.29400
H  38.59500 9.56500 48.05300
Mg 40.13200 9.20400 29.92400
C  42.40400 10.60300 32.26300
C  38.26800 8.11600 32.57800
C  38.15400 7.86400 27.77900
C  42.36300 10.03800 27.37100
N  40.44000 9.32500 32.17400
C  41.29000 10.07500 32.88900
C  40.86000 10.12900 34.35400
C  39.82600 8.92400 34.32600
C  39.44700 8.78900 32.97400
C  40.27900 7.62300 35.01500
C  40.28300 11.52800 34.78500
C  40.07200 11.43100 36.31200
H  40.93700 12.23400 37.21600
N  38.43400 8.19100 30.17100
C  37.79200 7.76900 31.33300
C  36.47000 7.16400 30.97000
C  36.52400 7.02100 29.55700
C  37.75100 7.66200 29.11200
C  35.46700 6.54200 31.96900
C  35.51900 6.30300 28.60900
O  35.65300 6.10700 27.41700
C  34.44400 5.63500 29.27700
N  40.31200 8.82900 27.85900
C  39.23800 8.42800 27.20500
C  39.38000 8.56600 25.68800
C  40.87200 9.09300 25.52900
C  41.22900 9.34800 26.94200
C  39.07400 7.12200 24.98500
C  40.95000 10.29500 24.59000
C  40.47500 11.63400 25.14100
N  42.05400 10.09300 29.76500
C  42.78000 10.39400 28.65400
C  44.03500 11.02200 29.08500
C  43.89200 11.20500 30.49300
C  42.73000 10.56800 30.89700
C  45.10800 11.49300 28.11400
C  44.43500 11.87700 31.66300
O  45.44500 12.60500 31.79000
C  43.57700 11.42500 32.84500
C  44.46500 10.68400 33.77200
O  44.82200 9.53700 33.61200
O  44.69600 11.49600 34.87700
C  45.43900 10.92600 36.00300
H  37.71300 7.67100 33.40700
H  37.42600 7.55000 27.02800
H  43.02600 10.20200 26.52000
H  41.71400 9.86300 34.97700
H  38.93700 9.25300 34.86400
H  40.15100 6.77000 34.34800
H  39.85100 7.32100 35.97100
H  41.34600 7.77800 35.17400
H  39.41400 11.76300 34.17100
H  40.99500 12.29900 34.49100
H  40.01100 10.43800 36.75800
H  39.03800 11.76900 36.37000
H  34.53100 7.00100 31.65200
H  35.73200 6.88200 32.97000
H  35.50300 5.46100 31.84000
H  34.91500 4.83700 29.85000
H  33.72700 5.19100 28.58600
H  33.88200 6.26600 29.96500
H  38.63600 9.31000 25.40500
H  41.59700 8.34100 25.21900
H  39.95600 6.76100 24.45600
H  38.21400 7.13600 24.31600
H  38.87100 6.36800 25.74600
H  40.31100 10.17000 23.71600
H  41.99600 10.34100 24.28400
H  40.20100 11.76200 26.18800
H  39.74800 12.10600 24.48000
H  41.33100 12.30300 25.06500
H  44.65000 12.42600 27.78500
H  44.89900 10.72800 27.36600
H  46.05300 11.55700 28.65200
H  43.13200 12.29500 33.32900
H  44.63600 10.55700 36.64000
H  46.04700 11.70600 36.46100
H  46.07000 10.10300 35.66800

