158

Mg -0.62800 6.76000 25.10600
C  0.09400 7.89600 28.27000
C  -0.97600 3.48700 26.37900
C  -0.83700 5.49600 21.95400
C  0.20800 9.92100 23.79900
N  -0.38900 5.75900 27.06400
C  -0.26000 6.55100 28.24400
C  -0.62100 5.63000 29.46500
C  -0.75200 4.20600 28.88300
C  -0.77400 4.45800 27.36900
C  0.43200 3.19000 29.18900
C  -1.83800 6.20500 30.27300
C  -1.80200 6.07700 31.81800
H  -1.08200 4.83100 32.48600
N  -0.99000 4.85100 24.28700
C  -1.14600 3.65100 24.98500
C  -1.59400 2.61000 24.09100
C  -1.45300 3.15600 22.78100
C  -1.09200 4.57200 22.92700
C  -1.95400 1.19100 24.52400
C  -1.43700 2.40600 21.40900
O  -1.25700 2.85400 20.29900
C  -1.84800 0.94500 21.37800
N  -0.19800 7.60900 23.07300
C  -0.49400 6.88600 21.97900
C  -0.41200 7.74200 20.74800
C  -0.41400 9.20700 21.36100
C  -0.18300 8.95000 22.88500
C  0.83100 7.38200 19.89900
C  -1.77000 9.99200 21.17000
C  -1.82000 10.99200 19.99400
N  0.16700 8.52300 25.87700
C  0.36100 9.80600 25.21400
C  0.72600 10.80100 26.21400
C  0.56600 10.11600 27.47900
C  0.23800 8.80100 27.18800
C  0.92200 12.26600 26.03300
C  0.56200 10.34700 28.89400
O  0.87700 11.27000 29.65300
C  0.28200 8.88100 29.42800
C  1.45000 8.43000 30.27300
O  2.52700 8.12300 29.79800
O  1.07700 8.45300 31.59400
C  2.18100 8.22500 32.61500
H  -1.07200 2.47900 26.78700
H  -0.93900 5.03300 20.97000
H  0.49300 10.84100 23.28400
H  0.25600 5.72200 30.10600
H  -1.67100 3.71000 29.19800
H  -0.03700 2.22300 29.37200
H  0.94800 3.41000 30.12400
H  1.15600 3.12500 28.37700
H  -2.72300 5.68600 29.90400
H  -2.05300 7.25900 30.09700
H  -2.79400 6.13900 32.26500
H  -1.27200 6.98400 32.11100
H  -1.06800 0.58100 24.34800
H  -2.75200 0.74700 23.92800
H  -2.21000 1.11000 25.58000
H  -1.93200 0.55100 20.36500
H  -2.87700 0.99100 21.73400
H  -1.15400 0.31900 21.93800
H  -1.27200 7.50800 20.12100
H  0.39500 9.75700 20.87900
H  0.77100 8.03600 19.02900
H  0.68600 6.33700 19.62300
H  1.78500 7.49200 20.41500
H  -1.83600 10.49400 22.13500
H  -2.68200 9.39500 21.16900
H  -1.78700 11.98400 20.44500
H  -2.71300 10.85800 19.38300
H  -0.96800 10.88500 19.32200
H  0.13400 12.72300 25.43400
H  1.89900 12.39700 25.56800
H  0.76500 12.74900 26.99800
H  -0.54100 8.99200 30.13400
H  3.12200 7.89600 32.17400
H  1.82500 7.58400 33.42200
H  2.43400 9.16400 33.10700
Mg 34.32000 3.02400 29.67500
C  31.93900 4.09100 32.05500
C  36.68600 3.43700 32.09400
C  36.36600 1.92400 27.38900
C  31.72800 2.88600 27.24200
N  34.32800 3.70900 31.78300
C  33.27200 3.96600 32.53000
C  33.63000 4.15300 33.98700
C  35.23600 4.11000 34.00000
C  35.45200 3.65500 32.57100
C  36.02700 5.42100 34.32800
C  32.90300 3.16600 34.86700
C  32.35300 3.68900 36.21700
H  33.21600 4.71400 37.00000
N  36.33600 2.81600 29.66000
C  37.14300 2.95200 30.80100
C  38.48600 2.55500 30.32500
C  38.41300 2.13500 28.92600
C  37.04400 2.33700 28.59300
C  39.65100 2.85100 31.31600
C  39.55100 1.71600 27.95500
O  39.37300 1.23300 26.82500
C  40.93400 1.65800 28.55100
N  34.13200 2.49100 27.62500
C  35.17900 2.13600 26.82400
C  34.75300 1.87800 25.34000
C  33.22000 1.78400 25.49000
C  33.03100 2.44600 26.88500
C  35.30700 2.94600 24.36900
C  32.55800 0.37300 25.47200
C  31.98400 -0.07000 24.10600
N  32.29400 3.38500 29.59200
C  31.35700 3.29600 28.55300
C  30.09000 3.71500 29.01300
C  30.25700 4.05900 30.41100
C  31.58100 3.80200 30.72100
C  28.86700 3.77400 28.16500
C  29.58500 4.48600 31.59500
O  28.40100 4.72800 31.80800
C  30.62500 4.50700 32.78400
C  30.67100 5.90200 33.37500
O  31.27400 6.84700 32.85600
O  30.04100 5.91900 34.56700
C  30.02900 7.21700 35.21400
H  37.47000 3.63800 32.82700
H  37.09200 1.37200 26.78800
H  30.98500 3.00200 26.44900
H  33.36400 5.15400 34.32600
H  35.56600 3.22000 34.53600
H  35.38900 6.18300 34.77800
H  36.58200 5.71300 33.43600
H  36.71900 5.29500 35.16100
H  33.50900 2.27400 35.03000
H  32.08400 2.59800 34.42500
H  32.23000 2.86700 36.92200
H  31.36900 4.14900 36.12900
H  40.37800 2.04900 31.18300
H  39.29800 2.74500 32.34200
H  40.19800 3.77800 31.14600
H  41.69700 1.48400 27.79200
H  40.92800 0.85500 29.28800
H  41.22200 2.53100 29.13600
H  35.15700 0.91000 25.04400
H  32.73600 2.46700 24.79300
H  34.50400 3.56400 23.96600
H  35.84500 2.51800 23.52300
H  35.96200 3.53400 25.01100
H  31.80800 0.25200 26.25300
H  33.32800 -0.37600 25.65800
H  32.54500 -0.92900 23.73700
H  31.92600 0.69500 23.33200
H  30.97500 -0.46800 24.22100
H  28.00100 3.61500 28.80700
H  28.81300 3.04000 27.36100
H  28.80800 4.77200 27.73100
H  30.47300 3.88700 33.66800
H  29.01100 7.60600 35.19100
H  30.68400 7.98700 34.80600
H  30.18400 6.95300 36.26000

