158

Mg 42.96200 4.00400 46.84100
C  41.42800 7.41600 46.60300
C  39.88200 2.78100 46.14000
C  44.38900 1.02700 46.65200
C  46.05800 5.69200 47.02900
N  40.96500 5.14000 46.27800
C  40.47800 6.40400 46.44900
C  39.00700 6.56000 46.21200
C  38.55500 5.04000 46.38100
C  39.89300 4.23600 46.25700
C  37.87500 4.78500 47.79700
C  38.64800 7.30700 44.92400
C  39.53500 6.93200 43.73900
H  38.93800 6.89400 42.26400
N  42.24700 2.23800 46.35800
C  40.96500 1.90300 46.13200
C  40.84600 0.42900 45.97200
C  42.11900 -0.14200 46.13400
C  43.02200 1.04900 46.38100
C  39.51800 -0.25500 45.54400
C  42.42500 -1.63300 46.07500
O  41.59100 -2.46700 45.70500
C  43.73200 -2.18000 46.45300
N  45.03700 3.45900 46.74400
C  45.28300 2.14600 46.78700
C  46.84300 2.04000 46.52500
C  47.36600 3.49500 46.91300
C  46.09900 4.27600 46.81200
C  47.51400 0.93200 47.41300
C  48.51200 4.04200 45.97800
C  49.35500 5.16200 46.54700
N  43.59200 6.01900 46.83000
C  44.84500 6.51100 46.95200
C  44.89900 7.99300 46.95200
C  43.53800 8.38500 46.89200
C  42.80200 7.18400 46.81300
C  46.18100 8.82300 47.19000
C  42.68300 9.56000 46.79600
O  42.93800 10.74300 46.84700
C  41.23400 8.96200 46.53000
C  40.24200 9.40200 47.48400
O  39.87600 8.82300 48.52200
O  39.63000 10.51000 46.92200
C  38.41700 11.00100 47.66700
H  38.89900 2.37700 45.89000
H  44.79100 0.02300 46.50300
H  47.03600 6.15800 47.16500
H  38.54300 7.02900 47.07900
H  37.93100 4.82700 45.51400
H  37.04100 4.09900 47.64900
H  37.52500 5.72900 48.21500
H  38.55300 4.23100 48.44600
H  38.50700 8.37800 45.07000
H  37.64100 6.98200 44.66300
H  39.79600 5.88000 43.85200
H  40.43600 7.54200 43.79400
H  38.86500 0.34700 44.91300
H  38.95800 -0.56000 46.42700
H  39.79900 -1.08300 44.89300
H  44.11800 -1.69600 47.35000
H  44.42900 -2.01100 45.63200
H  43.49600 -3.22900 46.63200
H  47.01600 1.80300 45.47500
H  47.65900 3.61600 47.95600
H  46.82300 0.14300 47.70900
H  47.93300 1.33400 48.33500
H  48.29100 0.41000 46.85400
H  47.95400 4.46300 45.14200
H  49.16800 3.25100 45.61500
H  50.39500 4.85900 46.66800
H  49.04900 5.35500 47.57600
H  49.17500 5.98500 45.85600
H  46.88800 8.64700 46.37900
H  46.74100 8.56000 48.08600
H  46.07300 9.90800 47.17700
H  40.91000 9.31000 45.54900
H  37.59100 10.37300 48.00100
H  37.99900 11.81700 47.07800
H  38.80100 11.46300 48.57700
Mg 49.15500 35.46700 27.69900
C  46.73000 34.00100 29.88900
C  49.42400 38.01000 29.86300
C  50.89800 37.06600 25.38800
C  48.52400 32.87400 25.41300
N  48.20000 35.86900 29.72700
C  47.26100 35.22400 30.42000
C  46.99900 35.90600 31.74800
C  47.57000 37.27800 31.55500
C  48.41300 37.12400 30.24000
C  46.56900 38.51300 31.31100
C  47.55700 35.15200 33.04800
C  49.08100 34.64500 32.92100
H  50.12000 35.44100 33.84400
N  50.20400 37.21900 27.73000
C  50.22100 38.08900 28.71400
C  51.14300 39.18300 28.43800
C  51.47100 39.04700 27.05500
C  50.82800 37.71500 26.66400
C  51.47900 40.20300 29.52300
C  52.26700 39.90400 26.18200
O  52.45100 39.62000 25.01900
C  52.84900 41.12500 26.76400
N  49.69000 35.03100 25.61500
C  50.37400 35.87300 24.84000
C  50.52900 35.34100 23.41200
C  49.96200 33.87700 23.55400
C  49.40100 33.88000 24.94500
C  49.82200 36.24500 22.40200
C  51.03100 32.71400 23.51700
C  51.39900 32.59500 22.03600
N  48.00700 33.77300 27.62100
C  47.88500 32.80000 26.68500
C  47.02900 31.79900 27.15000
C  46.51000 32.24100 28.36800
C  47.12500 33.47300 28.63200
C  46.73000 30.51200 26.44700
C  45.57400 31.85000 29.45200
O  44.79800 30.90800 29.65300
C  45.76900 33.02800 30.49400
C  46.23400 32.38800 31.68700
O  47.26800 31.76300 31.74000
O  45.33000 32.43100 32.76400
C  45.85500 31.88100 34.03500
H  49.35700 38.85900 30.54700
H  51.43100 37.46800 24.52400
H  48.39200 31.98400 24.79600
H  45.91600 35.89700 31.87000
H  48.20700 37.49600 32.41200
H  46.74900 39.21500 32.12400
H  45.56200 38.16000 31.53600
H  46.61300 39.05300 30.36500
H  46.89300 34.34800 33.36500
H  47.43800 35.87000 33.86000
H  49.56500 34.61900 31.94500
H  49.09100 33.66500 33.39800
H  52.55200 40.39000 29.54900
H  51.12100 40.03300 30.53900
H  51.11700 41.20000 29.27200
H  52.05200 41.63000 27.31100
H  53.24600 41.76500 25.97600
H  53.67600 40.85400 27.42000
H  51.58000 35.44100 23.14300
H  49.24100 33.63100 22.77400
H  49.22100 37.00600 22.89900
H  49.18600 35.74100 21.67300
H  50.51400 36.78700 21.75800
H  50.65200 31.83500 24.03800
H  51.90600 33.11400 24.03000
H  52.29400 33.17500 21.80900
H  50.64500 33.03000 21.38000
H  51.46400 31.52700 21.82800
H  46.17800 30.74400 25.53600
H  46.07000 29.88800 27.04900
H  47.56800 29.88800 26.13600
H  44.77800 33.44400 30.67500
H  46.90600 32.12600 34.18800
H  45.62900 30.82600 34.18800
H  45.28300 32.37400 34.82000

