158

Mg 6.49300 54.21200 40.67800
C  5.87700 50.76800 40.03500
C  9.71900 53.49100 39.78500
C  6.90400 57.45500 40.47900
C  3.15700 54.58800 41.41600
N  7.58400 52.36600 39.61600
C  7.08900 51.07600 39.52100
C  8.22400 50.09700 39.25700
C  9.54400 50.95300 39.72200
C  8.93900 52.34200 39.71400
C  10.06800 50.58600 41.12600
C  8.33100 49.27600 37.86300
C  8.16700 49.98900 36.51000
H  6.98400 49.76500 35.65300
N  8.03500 55.34300 40.08000
C  9.31000 54.87500 39.86300
C  10.22100 55.95900 39.77400
C  9.47400 57.13400 39.95100
C  8.09600 56.68000 40.23400
C  11.64200 55.75500 39.35800
C  9.99500 58.57000 39.95400
O  11.22900 58.71800 39.79700
C  9.17000 59.72900 40.43000
N  5.16700 55.79700 40.71500
C  5.56000 57.06900 40.67500
C  4.44800 58.11100 41.11200
C  3.21400 57.18600 41.15400
C  3.89700 55.74800 41.20200
C  4.84800 58.83300 42.48300
C  2.21800 57.38300 39.96400
C  0.81200 56.81400 39.95600
N  4.87400 52.92600 40.86400
C  3.62100 53.23100 41.26400
C  2.88400 52.03700 41.37700
C  3.68600 50.99400 41.02000
C  4.88100 51.62900 40.60600
C  1.49100 51.84600 41.74200
C  3.81400 49.52700 40.80300
O  2.98600 48.59600 40.89200
C  5.23000 49.36100 40.19200
C  4.99500 48.59100 38.89000
O  4.74200 49.03300 37.76600
O  5.06200 47.26400 39.21100
C  4.67500 46.31500 38.12500
H  10.78200 53.31000 39.61000
H  6.94000 58.54200 40.58500
H  2.15100 54.61000 41.84100
H  8.10800 49.23600 39.91600
H  10.22400 50.83000 38.87800
H  9.45500 49.84700 41.64200
H  9.97400 51.48800 41.73000
H  11.09000 50.25300 40.94200
H  7.59600 48.48300 38.00500
H  9.32100 48.82500 37.92700
H  9.06600 49.78400 35.92900
H  8.22600 51.04300 36.78000
H  11.84000 55.80500 38.28700
H  12.16700 54.85100 39.66500
H  12.17200 56.53700 39.90100
H  8.34600 60.01900 39.77700
H  9.86400 60.55500 40.58400
H  8.86700 59.44400 41.43700
H  4.36800 58.83300 40.29800
H  2.67000 57.26300 42.09500
H  5.87700 58.60600 42.75900
H  4.25100 58.49600 43.33000
H  4.75700 59.88700 42.21800
H  2.70200 56.93800 39.09400
H  2.15100 58.46100 39.82000
H  0.64300 56.30600 40.90600
H  0.67400 56.10400 39.14000
H  0.02900 57.56700 39.86600
H  0.81700 52.24800 40.98600
H  1.30400 52.49200 42.60100
H  1.24600 50.83300 42.06100
H  5.86600 48.59500 40.63500
H  4.83700 46.71200 37.12300
H  3.63500 45.98700 38.13400
H  5.38600 45.49600 38.23500
Mg 0.54500 43.92000 25.71000
C  2.14900 43.79100 28.85600
C  -2.40400 42.81800 27.24800
C  -0.69800 43.68200 22.67700
C  3.83700 44.37400 24.22600
N  -0.03400 43.50400 27.79500
C  0.73200 43.62300 28.90900
C  -0.05600 43.50500 30.17600
C  -1.42700 42.94500 29.61300
C  -1.32700 43.09500 28.09800
C  -1.77000 41.45000 29.94500
C  -0.02000 44.77800 31.06400
C  0.31900 44.65100 32.60000
H  0.35800 43.20800 33.19000
N  -1.32400 43.42600 25.08100
C  -2.40000 42.96500 25.85200
C  -3.54000 42.87300 24.98200
C  -3.09500 43.12000 23.66200
C  -1.64800 43.36100 23.73100
C  -4.90500 42.44100 25.45300
C  -3.88900 43.14900 22.33200
O  -3.34200 43.47900 21.28200
C  -5.31700 42.82700 22.39100
N  1.45400 43.91200 23.63500
C  0.64100 43.95000 22.61100
C  1.44500 44.03200 21.38800
C  2.91000 44.44000 21.85200
C  2.74300 44.24700 23.35600
C  1.32000 42.74800 20.52200
C  3.33100 45.90200 21.46800
C  2.52800 47.02800 22.19700
N  2.53000 44.27500 26.36000
C  3.74600 44.32800 25.63500
C  4.84300 44.38900 26.60500
C  4.25800 44.19500 27.84300
C  2.88400 44.06600 27.67500
C  6.32800 44.48700 26.33000
C  4.56200 44.14900 29.25800
O  5.66400 44.20700 29.86700
C  3.18400 43.92900 29.95500
C  3.30500 42.62300 30.79200
O  2.95800 41.48500 30.54700
O  3.93000 43.01400 31.92400
C  4.50600 41.92000 32.79400
H  -3.35400 42.48400 27.67100
H  -1.14500 43.60500 21.68300
H  4.79200 44.64300 23.76900
H  0.46400 42.72400 30.73100
H  -2.26800 43.57400 29.90300
H  -1.74200 40.84300 29.04000
H  -2.78700 41.45100 30.33700
H  -1.06000 41.09100 30.69100
H  -1.04400 45.14200 31.14600
H  0.60000 45.53900 30.59100
H  -0.43000 45.19700 33.17400
H  1.27600 45.07300 32.90600
H  -5.64200 43.22500 25.28000
H  -5.10800 42.16400 26.48700
H  -5.20600 41.56200 24.88200
H  -5.82200 42.96600 21.43500
H  -5.71400 43.52400 23.13000
H  -5.51700 41.82600 22.77200
H  1.07900 44.89500 20.83200
H  3.69500 43.74100 21.56500
H  0.48500 42.17400 20.92300
H  2.23600 42.15700 20.48800
H  0.99700 43.00900 19.51500
H  3.23500 45.98600 20.38600
H  4.40700 45.99400 21.61300
H  1.81600 47.51800 21.53400
H  3.22400 47.83600 22.42100
H  2.05100 46.77200 23.14400
H  6.80500 45.23100 26.96800
H  6.62200 44.63000 25.29000
H  6.76900 43.54000 26.64100
H  3.02300 44.84900 30.51700
H  5.57600 41.84600 32.60000
H  4.03100 40.95500 32.61500
H  4.39500 42.17100 33.84800

