158

Mg 47.12300 17.22300 28.31500
C  45.10900 17.13700 31.22100
C  49.48400 18.95600 30.21700
C  48.70500 17.71000 25.49300
C  44.53700 15.66000 26.57700
N  47.29400 17.89000 30.49100
C  46.37400 17.73500 31.45300
C  46.94600 18.06700 32.83800
C  48.24800 18.90300 32.45500
C  48.38500 18.58800 30.93800
C  48.26000 20.49900 32.76800
C  47.11300 16.86100 33.78100
C  46.88300 17.07600 35.29800
H  46.45400 18.49000 35.76000
N  48.94200 17.97200 27.96300
C  49.75800 18.66000 28.84700
C  50.95900 19.08400 28.09100
C  50.77400 18.75100 26.68700
C  49.43600 18.14400 26.62900
C  52.13600 19.70700 28.84800
C  51.69600 19.01900 25.51500
O  51.38800 18.70000 24.37400
C  53.03100 19.62700 25.78600
N  46.67300 16.74900 26.40400
C  47.45500 17.07600 25.34100
C  47.03300 16.46700 24.02100
C  45.97700 15.47600 24.52200
C  45.63000 16.08100 25.92600
C  46.60000 17.60700 23.04100
C  46.34000 13.97100 24.47500
C  45.58900 13.13700 23.43600
N  45.21500 16.60000 28.73400
C  44.28900 15.94500 27.89900
C  43.15800 15.61100 28.61900
C  43.41900 16.01200 29.94700
C  44.70900 16.69300 29.94600
C  41.94000 14.87100 28.01700
C  42.93100 15.97500 31.31900
O  41.91000 15.44200 31.77000
C  44.03800 16.70500 32.12000
C  43.46900 17.68600 33.11300
O  43.24400 18.90100 32.94000
O  43.01600 16.92000 34.14100
C  42.27300 17.66000 35.11600
H  50.21000 19.53700 30.79000
H  49.39400 17.82400 24.65400
H  43.79500 15.17100 25.94100
H  46.18300 18.67400 33.32400
H  49.15100 18.49900 32.91100
H  48.24500 21.07900 31.84400
H  49.07600 20.78400 33.43100
H  47.39100 20.69800 33.39500
H  48.12600 16.49600 33.61300
H  46.46500 16.02000 33.53600
H  47.84800 16.96800 35.79200
H  46.35000 16.27600 35.81300
H  52.03100 20.79200 28.81400
H  53.01300 19.27300 28.36700
H  52.22400 19.43200 29.89900
H  52.78500 20.44900 26.45800
H  53.49900 20.00900 24.87800
H  53.64600 18.86500 26.26400
H  47.94400 16.08100 23.56500
H  45.04700 15.61100 23.97100
H  47.40400 17.67700 22.30900
H  46.47600 18.56800 23.54100
H  45.65000 17.23600 22.65700
H  46.12800 13.66100 25.49900
H  47.42300 13.92200 24.36400
H  46.30700 12.38200 23.11800
H  45.35200 13.70200 22.53400
H  44.75500 12.56700 23.84600
H  41.99500 13.82500 28.31600
H  41.89500 14.91600 26.92800
H  41.00900 15.23100 28.45600
H  44.51900 15.97600 32.77200
H  41.23600 17.80500 34.81300
H  42.81300 18.57500 35.36100
H  42.29800 17.08000 36.03900
Mg 49.41400 35.95600 27.37800
C  46.93500 34.37600 29.61700
C  49.33400 38.54800 29.55700
C  50.97600 37.65700 25.12300
C  48.56200 33.41000 25.05600
N  48.26600 36.34000 29.29800
C  47.60300 35.45500 30.12100
C  47.55400 36.02200 31.54300
C  47.78700 37.54300 31.38800
C  48.51000 37.53200 29.98800
C  46.47700 38.43700 31.54600
C  48.78800 35.42500 32.31900
C  48.72900 35.65400 33.86100
H  47.56000 36.44700 34.59300
N  50.15200 37.78700 27.39400
C  50.03800 38.74100 28.36400
C  50.81400 39.90400 27.98000
C  51.43900 39.60600 26.69100
C  50.86600 38.30300 26.34800
C  50.88500 41.12100 28.90500
C  52.29500 40.44500 25.73600
O  52.59100 40.16900 24.54700
C  52.81300 41.76400 26.23400
N  49.72200 35.58100 25.39200
C  50.50500 36.41800 24.68600
C  51.01400 35.81200 23.38400
C  50.12100 34.46900 23.27100
C  49.40700 34.42600 24.68600
C  51.14600 36.62700 22.10700
C  51.03500 33.14800 23.11700
C  50.40500 32.08400 22.19100
N  48.12400 34.19200 27.28500
C  47.89000 33.24500 26.28800
C  47.00500 32.21100 26.75000
C  46.62900 32.59700 28.06000
C  47.21900 33.85300 28.27000
C  46.50900 31.00600 25.99300
C  45.85800 32.23900 29.19300
O  45.19900 31.20100 29.41000
C  45.90300 33.42300 30.17800
C  46.32100 32.86900 31.51600
O  47.35600 32.37500 31.87400
O  45.27300 33.04500 32.36000
C  45.14100 32.31800 33.63300
H  49.40900 39.32200 30.32500
H  51.64100 38.05600 24.35400
H  48.32800 32.66900 24.28900
H  46.62600 35.83500 32.08200
H  48.55500 37.78400 32.12300
H  46.27100 38.97800 30.62200
H  46.43900 39.05200 32.44500
H  45.56600 37.84100 31.60400
H  49.74500 35.75700 31.91700
H  48.86500 34.34600 32.18800
H  49.62900 36.18200 34.17500
H  48.81600 34.68800 34.35800
H  49.96100 41.28600 29.45900
H  51.07800 41.96300 28.24000
H  51.60700 40.86100 29.68000
H  52.00400 42.47000 26.41900
H  53.56000 42.12800 25.52800
H  53.25800 41.49000 27.19000
H  52.06600 35.69000 23.64200
H  49.27900 34.68400 22.61400
H  50.37900 36.41000 21.36300
H  52.09600 36.47900 21.59300
H  51.06500 37.70800 22.21500
H  51.13200 32.67800 24.09600
H  52.00500 33.40200 22.69100
H  49.89300 32.48900 21.31800
H  49.86300 31.43500 22.87900
H  51.24900 31.47500 21.86900
H  46.10100 31.40900 25.06600
H  45.96000 30.32900 26.64800
H  47.34300 30.36700 25.70300
H  45.00200 34.03500 30.13400
H  46.09900 32.09200 34.10200
H  44.45200 31.47600 33.70200
H  44.61000 32.96100 34.33500

