158

Mg -1.47700 16.95300 26.29200
C  -2.03700 14.62900 28.88400
C  -1.81600 19.48600 28.52200
C  -1.07400 19.12100 23.69900
C  -1.72100 14.33000 23.96900
N  -1.79300 16.99900 28.46100
C  -1.99600 15.95400 29.30900
C  -2.25300 16.45500 30.71800
C  -2.13400 18.01200 30.58100
C  -2.02600 18.18900 29.07800
C  -3.32300 18.86500 31.25100
C  -1.21200 15.67000 31.69400
C  -0.57000 16.57400 32.79000
H  -0.59500 15.83600 34.13700
N  -1.41200 19.07000 26.17000
C  -1.57700 19.87200 27.16000
C  -1.46300 21.24500 26.67800
C  -1.31300 21.15200 25.28400
C  -1.18300 19.74500 24.96400
C  -1.66800 22.39200 27.60400
C  -1.24900 22.29500 24.20300
O  -1.10400 22.06000 23.03500
C  -1.29300 23.82000 24.62800
N  -1.35400 16.72700 24.09500
C  -1.15200 17.78900 23.29500
C  -1.04500 17.34000 21.82700
C  -1.06100 15.74200 21.94200
C  -1.43600 15.59300 23.39900
C  -2.21800 17.85700 20.87400
C  0.21200 14.93300 21.47400
C  0.25400 14.85200 19.91000
N  -1.75600 14.86400 26.36600
C  -1.83900 13.93500 25.34200
C  -2.03900 12.58800 25.88900
C  -2.19800 12.84100 27.27400
C  -1.94800 14.19000 27.51200
C  -2.03100 11.23700 25.06800
C  -2.43900 12.22100 28.55600
O  -2.60400 11.04900 28.77400
C  -2.48700 13.32700 29.64200
C  -1.77800 12.74300 30.80700
O  -0.54100 12.64500 30.79500
O  -2.56400 12.30700 31.87900
C  -1.81400 11.71700 32.97500
H  -1.82700 20.25100 29.30100
H  -0.81900 19.73200 22.83100
H  -1.76600 13.59000 23.16700
H  -3.27400 16.20200 31.00200
H  -1.18700 18.36200 30.99200
H  -2.99000 19.42400 32.12600
H  -4.10100 18.17100 31.57000
H  -3.84400 19.46800 30.50700
H  -0.36000 15.33300 31.10400
H  -1.67200 14.83600 32.22400
H  -0.99600 17.56900 32.92000
H  0.44500 16.78100 32.45100
H  -1.40800 22.24900 28.65300
H  -2.59800 22.94900 27.48900
H  -0.91500 23.09700 27.25100
H  -1.50200 24.50200 23.80400
H  -0.34900 23.98500 25.14800
H  -2.00200 23.79100 25.45500
H  -0.08800 17.64800 21.40700
H  -1.87600 15.37000 21.32100
H  -2.87000 18.61400 21.31000
H  -2.87700 17.06200 20.52300
H  -1.73600 18.22800 19.97000
H  0.12700 13.96200 21.96300
H  1.11700 15.37600 21.88900
H  1.11900 15.30400 19.42400
H  -0.59200 15.18100 19.30700
H  0.32100 13.81200 19.59200
H  -1.14000 11.11800 24.45000
H  -2.96500 10.98400 24.56600
H  -2.07100 10.51800 25.88600
H  -3.49100 13.69200 29.85700
H  -1.14300 12.49200 33.34400
H  -1.13900 10.93400 32.62800
H  -2.41400 11.30800 33.78800
Mg -1.91000 34.13100 26.58900
C  -3.28600 31.83900 28.87900
C  -0.69500 35.93500 29.14500
C  -0.91900 36.29700 24.37700
C  -3.65700 32.27700 24.08900
N  -1.89700 33.80200 28.80800
C  -2.50000 32.84500 29.50900
C  -2.31600 33.14700 30.99300
C  -1.75300 34.59700 31.07100
C  -1.40200 34.80800 29.60000
C  -2.62700 35.70800 31.66700
C  -1.55200 32.04100 31.77100
C  -2.19600 31.63900 33.13200
H  -1.21800 31.71000 34.28500
N  -0.86300 35.90800 26.74500
C  -0.42900 36.46000 27.86500
C  0.34700 37.68400 27.46800
C  0.31500 37.76400 26.03200
C  -0.55900 36.65000 25.67000
C  1.01800 38.53600 28.52000
C  0.91100 38.84300 25.12600
O  0.71100 38.76400 23.89500
C  1.69600 39.95400 25.73200
N  -2.36300 34.31700 24.57400
C  -1.69400 35.26600 23.87100
C  -1.62300 34.93200 22.35200
C  -2.51700 33.64200 22.26100
C  -2.85600 33.33100 23.69200
C  -2.36900 36.09700 21.53900
C  -1.83000 32.50000 21.41500
C  -0.42600 32.15500 21.71300
N  -3.30400 32.49300 26.43100
C  -3.85100 31.85700 25.33700
C  -4.68500 30.72000 25.81800
C  -4.52600 30.78000 27.20400
C  -3.60100 31.74100 27.48800
C  -5.57100 29.86300 24.97500
C  -4.86100 30.06400 28.42800
O  -5.57200 29.06200 28.58600
C  -3.96000 30.63500 29.53900
C  -4.91900 31.07700 30.59300
O  -5.40600 32.22400 30.67100
O  -5.11300 30.12900 31.50400
C  -5.75700 30.58900 32.74300
H  -0.32700 36.50400 30.00200
H  -0.52300 36.94300 23.59100
H  -4.01600 31.66500 23.25900
H  -3.32600 33.17400 31.40100
H  -0.86500 34.46000 31.68900
H  -2.34300 36.10000 32.64400
H  -3.60800 35.24000 31.75500
H  -2.65500 36.51400 30.93300
H  -0.54900 32.45400 31.88100
H  -1.33800 31.15100 31.17800
H  -2.42200 30.57800 33.02100
H  -3.08500 32.24700 33.29700
H  0.93000 38.14000 29.53200
H  0.54000 39.51500 28.53500
H  2.05900 38.73800 28.26800
H  1.02600 40.33900 26.50100
H  1.89000 40.73300 24.99500
H  2.64100 39.58900 26.13600
H  -0.61800 34.79400 21.95400
H  -3.53100 33.76800 21.88300
H  -3.11500 35.76000 20.82100
H  -1.61300 36.77600 21.14500
H  -2.95100 36.64900 22.27700
H  -1.85600 32.86000 20.38700
H  -2.39500 31.56800 21.44200
H  -0.17600 32.39200 22.74700
H  0.35600 32.49100 21.03100
H  -0.32700 31.07400 21.61200
H  -5.84200 30.48400 24.12100
H  -6.48400 29.56500 25.49100
H  -5.02600 28.96800 24.67600
H  -3.19300 30.02400 30.01600
H  -6.67900 31.16700 32.69100
H  -5.01700 31.19700 33.26400
H  -6.05700 29.67300 33.25200

