158

Mg 40.77900 8.32500 30.02300
C  42.62100 9.83300 32.60000
C  38.48800 7.12500 32.08700
C  39.18100 7.26200 27.38100
C  43.62000 9.25600 27.91800
N  40.65700 8.39300 32.18700
C  41.39000 9.14600 33.02800
C  40.91100 8.94100 34.48600
C  39.58300 8.11600 34.27800
C  39.56600 7.82500 32.72600
C  39.58300 6.87400 35.23400
C  40.65200 10.32700 35.16400
C  39.72300 10.27100 36.46300
H  40.13000 11.32900 37.53800
N  39.01700 7.29800 29.82700
C  38.16600 6.89900 30.77300
C  37.05500 6.27300 30.14000
C  37.22700 6.40200 28.75800
C  38.56400 6.98600 28.62300
C  35.99500 5.50200 30.91300
C  36.32600 5.97300 27.67000
O  36.73000 5.93400 26.49700
C  34.89300 5.67300 27.93600
N  41.37300 8.10700 27.96900
C  40.48100 7.78200 27.04200
C  41.11800 7.87800 25.61900
C  42.45500 8.59100 25.83200
C  42.50800 8.65600 27.39200
C  41.22000 6.53000 24.91900
C  42.54400 9.90700 25.15200
C  41.57200 11.03600 25.62000
N  42.64600 9.46300 30.15100
C  43.67200 9.75500 29.22800
C  44.73600 10.51400 29.80500
C  44.37000 10.66200 31.13200
C  43.11600 9.90900 31.29800
C  46.03100 10.91300 29.17300
C  44.62800 11.17800 32.40200
O  45.53700 11.85200 32.79800
C  43.52200 10.67900 33.43600
C  44.18800 9.85000 34.46900
O  44.50200 8.69900 34.40100
O  44.44800 10.63100 35.61700
C  45.07900 9.92900 36.77800
H  37.76800 6.72300 32.80200
H  38.73300 6.90900 26.45000
H  44.44800 9.55500 27.27300
H  41.61600 8.25700 34.95900
H  38.68300 8.70500 34.45500
H  38.53200 6.74900 35.49300
H  40.10700 7.01000 36.18000
H  40.00700 6.03200 34.68700
H  40.31200 11.08400 34.45600
H  41.60400 10.64500 35.58900
H  39.71300 9.25400 36.85600
H  38.71200 10.56500 36.18300
H  35.04700 6.03400 30.83000
H  36.26200 5.43100 31.96700
H  36.00400 4.48600 30.51700
H  34.71900 4.82400 28.59800
H  34.41700 5.63500 26.95700
H  34.51200 6.54000 28.47700
H  40.36600 8.34400 24.98200
H  43.32100 8.01100 25.51500
H  42.24300 6.15400 24.91000
H  40.84900 6.65200 23.90100
H  40.63700 5.79900 25.48000
H  42.40100 9.71000 24.09000
H  43.54900 10.29000 25.32800
H  41.10300 10.75800 26.56400
H  40.83500 11.38900 24.89800
H  42.07400 11.97900 25.83700
H  46.01400 10.92700 28.08300
H  46.75200 10.16600 29.50700
H  46.21300 11.93600 29.50200
H  43.20200 11.62700 33.86800
H  45.62600 9.02600 36.50900
H  44.37300 9.54600 37.51500
H  45.78000 10.57100 37.31100
Mg 26.54400 49.82100 26.85400
C  24.47300 51.04900 29.36100
C  28.84400 49.01600 29.20700
C  28.53100 48.86300 24.29800
C  24.04500 50.91600 24.57300
N  26.62500 50.08700 29.04400
C  25.68000 50.53500 29.94500
C  26.06700 50.17800 31.39100
C  27.59500 49.82200 31.27300
C  27.71700 49.66300 29.72700
C  28.57100 50.83900 31.93500
C  25.19800 49.09600 32.01200
C  24.56500 49.14600 33.46800
H  25.25600 49.95600 34.50900
N  28.42100 48.95500 26.78800
C  29.20900 48.71700 27.86500
C  30.47900 48.26600 27.41800
C  30.44300 48.21800 25.99600
C  29.10000 48.73500 25.60700
C  31.57800 47.98200 28.40500
C  31.48100 47.80000 24.97400
O  31.31100 47.85000 23.79500
C  32.80900 47.39000 25.48500
N  26.31200 49.92900 24.74900
C  27.23800 49.37700 23.94800
C  26.76700 49.43300 22.51600
C  25.32800 50.01000 22.53400
C  25.17300 50.26800 24.03200
C  27.75900 50.17000 21.65900
C  24.21600 49.12900 21.97400
C  24.17800 47.74000 22.62100
N  24.75300 50.94400 26.88000
C  23.79600 51.18600 25.88900
C  22.65900 51.94800 26.39700
C  22.83200 51.91400 27.77200
C  24.11800 51.24600 28.02100
C  21.53700 52.53100 25.56400
C  22.24400 52.12800 29.08300
O  21.13500 52.69600 29.38300
C  23.23600 51.53000 30.21700
C  23.40500 52.51600 31.30300
O  24.40800 53.07100 31.63600
O  22.23200 52.53200 32.04700
C  22.28800 53.41500 33.28800
H  29.57900 48.75500 29.97100
H  29.09400 48.43900 23.46400
H  23.29500 51.14900 23.81400
H  26.13000 51.07500 32.00800
H  27.69700 48.82900 31.71000
H  28.11100 51.80900 32.12000
H  29.54400 50.95600 31.45800
H  28.95500 50.34100 32.82500
H  25.73100 48.14600 32.05700
H  24.28900 49.13800 31.41100
H  24.49900 48.10700 33.79200
H  23.62900 49.68800 33.33400
H  31.67600 46.90500 28.53900
H  31.51900 48.54800 29.33400
H  32.42700 48.39600 27.86100
H  33.46800 46.93500 24.74500
H  32.59700 46.74500 26.33900
H  33.25300 48.32800 25.81600
H  26.87900 48.36600 22.32200
H  25.28800 50.89500 21.90000
H  28.36900 49.47900 21.07700
H  28.48800 50.70200 22.27000
H  27.26300 50.83600 20.95200
H  24.52300 49.20400 20.93100
H  23.28300 49.69200 21.95300
H  24.58600 47.77000 23.63100
H  24.81200 47.10400 22.00400
H  23.17700 47.31500 22.69500
H  20.64500 52.53600 26.18900
H  21.34100 51.75600 24.82200
H  21.70200 53.42300 24.95900
H  22.83700 50.61100 30.64600
H  21.35900 53.41800 33.85700
H  22.57200 54.45800 33.14400
H  22.89700 52.92900 34.05000

