158

Mg 44.16700 4.90500 46.78200
C  42.25200 7.93900 46.44600
C  41.13800 3.29300 45.96000
C  45.92400 2.24200 46.19400
C  47.01800 6.95700 46.48200
N  41.93300 5.56100 46.35900
C  41.45600 6.87000 46.36200
C  39.98100 6.91700 46.01700
C  39.55300 5.40800 45.89100
C  40.91300 4.69500 46.06800
C  38.51600 4.87900 46.91400
C  39.68600 7.73400 44.75600
C  40.59000 7.48700 43.52100
H  39.91900 7.79600 42.17500
N  43.56200 3.01300 46.33700
C  42.27900 2.48800 45.99300
C  42.44200 1.04700 45.63200
C  43.87200 0.78600 45.61500
C  44.54800 2.04100 46.13400
C  41.31900 0.13800 45.28100
C  44.49200 -0.54900 45.24500
O  43.84200 -1.55200 44.95800
C  45.96800 -0.74800 45.22000
N  46.16700 4.59000 46.38700
C  46.67000 3.37300 46.44500
C  48.18900 3.39700 46.28300
C  48.53100 4.86500 46.43800
C  47.16400 5.57400 46.47500
C  48.97200 2.37600 47.09300
C  49.56600 5.48500 45.42300
C  50.93200 5.78400 46.09600
N  44.58600 6.98500 46.70100
C  45.82200 7.70800 46.61100
C  45.61300 9.14800 46.55600
C  44.22100 9.27800 46.57500
C  43.67100 8.00100 46.57000
C  46.66300 10.24500 46.51500
C  43.10700 10.26500 46.54600
O  43.07600 11.46700 46.44600
C  41.85100 9.41600 46.40300
C  40.94700 9.69600 47.53400
O  41.14800 9.43700 48.69100
O  39.78600 10.32100 47.06200
C  38.66200 10.47300 48.06100
H  40.25700 2.73200 45.64200
H  46.53300 1.33700 46.13800
H  47.94400 7.53400 46.45700
H  39.43000 7.41100 46.81800
H  39.10400 5.07400 44.95500
H  38.25100 5.70700 47.57200
H  38.89100 4.06800 47.53900
H  37.64400 4.46000 46.41100
H  39.65100 8.78700 45.03500
H  38.71600 7.33800 44.45500
H  40.97300 6.46700 43.49600
H  41.46700 8.12400 43.63800
H  41.48900 -0.13300 44.23900
H  40.39300 0.71200 45.31700
H  41.25700 -0.69100 45.98600
H  46.15000 -1.75900 44.85500
H  46.37700 -0.77300 46.23000
H  46.48200 -0.02800 44.58400
H  48.36200 3.12100 45.24300
H  48.75000 4.91700 47.50400
H  48.33900 1.60700 47.53600
H  49.47000 2.94700 47.87600
H  49.73300 1.79000 46.57800
H  49.20900 6.42400 44.99900
H  49.75100 4.92000 44.51000
H  51.10800 5.53400 47.14200
H  51.46400 6.73500 46.06400
H  51.67200 5.23800 45.51200
H  47.57800 9.71400 46.25200
H  46.75300 10.70800 47.49700
H  46.40800 10.98200 45.75300
H  41.28900 9.82200 45.56200
H  38.04200 11.23300 47.58500
H  38.86700 10.65100 49.11700
H  38.04900 9.57800 47.95400
Mg 16.91400 51.83500 25.42500
C  19.02800 50.12900 27.80000
C  15.13200 53.00100 28.07700
C  15.21300 53.66300 23.26000
C  18.83900 50.56800 22.92000
N  16.96500 51.32200 27.69400
C  18.03100 50.82600 28.48500
C  17.84000 51.10700 29.99000
C  16.38500 51.86000 30.01700
C  16.09900 52.04300 28.48600
C  15.16700 51.12800 30.64000
C  18.96200 51.90600 30.71000
C  18.96800 51.82900 32.19800
H  18.00400 50.90100 33.02400
N  15.27300 53.09900 25.60700
C  14.64000 53.48900 26.80100
C  13.62500 54.42300 26.55700
C  13.66600 54.73000 25.10200
C  14.74800 53.80000 24.55800
C  12.59900 54.97600 27.57100
C  12.72000 55.51200 24.21500
O  12.85600 55.43700 23.06300
C  11.60300 56.33700 24.83000
N  16.83800 51.82200 23.35600
C  16.16100 52.83400 22.67200
C  16.52400 52.72100 21.11100
C  17.89800 52.05600 21.14400
C  17.84900 51.42200 22.57400
C  15.50900 52.02500 20.27100
C  19.14900 53.00300 20.90300
C  20.13700 52.45200 19.84200
N  18.59700 50.45100 25.32000
C  19.20700 50.03100 24.16700
C  20.21800 49.09100 24.50600
C  20.23200 49.06500 25.93400
C  19.19700 49.97500 26.38600
C  21.28800 48.51200 23.58000
C  20.80900 48.53100 27.13400
O  21.72000 47.72100 27.28700
C  20.15100 49.38600 28.31600
C  19.91300 48.43300 29.46900
O  19.18300 47.48600 29.47900
O  20.78300 48.66800 30.50200
C  20.78700 47.69400 31.59400
H  14.68900 53.56600 28.90000
H  14.71600 54.27600 22.50500
H  19.55600 50.23800 22.16500
H  17.65100 50.12800 30.42900
H  16.45000 52.88800 30.37400
H  15.32300 50.06400 30.81600
H  14.35200 51.15700 29.91700
H  14.94700 51.61900 31.58800
H  18.75800 52.93700 30.42000
H  19.89700 51.56700 30.26400
H  18.88100 52.75900 32.76000
H  19.93700 51.40100 32.45600
H  12.80600 54.44700 28.50200
H  11.57100 54.67900 27.36500
H  12.68800 56.04100 27.78800
H  11.96300 56.86500 25.71200
H  10.68400 55.79700 25.06000
H  11.39000 57.13800 24.12200
H  16.56100 53.71000 20.65500
H  17.90600 51.25400 20.40500
H  15.93400 51.62300 19.35200
H  14.68800 52.62000 19.87000
H  15.12800 51.11200 20.72900
H  19.82800 53.15600 21.74200
H  18.82700 54.00800 20.63100
H  19.96300 52.88200 18.85500
H  20.06200 51.39200 19.60100
H  21.17400 52.68900 20.08200
H  21.05300 49.00900 22.63800
H  21.05900 47.45000 23.49300
H  22.33100 48.78600 23.74200
H  20.94800 50.00600 28.72500
H  20.41100 48.36500 32.36700
H  21.80300 47.35000 31.78600
H  20.15500 46.81100 31.67900

