158

Mg 1.44100 8.17500 26.71200
C  1.88800 9.62800 29.83500
C  1.60100 5.15800 28.23800
C  1.23100 6.93700 23.61400
C  1.74500 11.36300 25.31800
N  1.81500 7.55300 28.80200
C  1.68900 8.26400 29.90500
C  1.61400 7.40600 31.17900
C  1.91000 6.00400 30.66000
C  1.75800 6.23700 29.10400
C  3.25200 5.30400 30.94500
C  0.26400 7.61100 31.91500
C  0.45400 8.08400 33.38600
H  1.59700 7.48800 34.22500
N  1.43700 6.31600 26.01900
C  1.41800 5.14400 26.80300
C  1.28500 4.02800 25.88700
C  1.21600 4.54400 24.56800
C  1.25600 5.97900 24.66100
C  1.22200 2.58700 26.46900
C  1.09600 3.75300 23.33000
O  0.87500 4.28700 22.21100
C  1.13300 2.28100 23.40600
N  1.35500 9.04800 24.73200
C  1.31500 8.30100 23.61800
C  1.53500 9.07600 22.36500
C  1.23900 10.47400 22.84100
C  1.48100 10.30300 24.38900
C  2.85500 8.96600 21.56400
C  -0.11600 11.03700 22.45000
C  -1.43500 10.57500 23.12200
N  1.79800 10.15000 27.34900
C  1.92000 11.33800 26.67700
C  2.08300 12.41700 27.59500
C  2.06400 11.77200 28.88700
C  1.94800 10.40300 28.67400
C  2.07700 13.90200 27.28500
C  2.23600 12.03900 30.29700
O  2.47800 13.04800 30.89600
C  2.01900 10.64300 31.01500
C  3.08600 10.41400 32.05600
O  4.17400 9.85100 31.88000
O  2.79300 11.22400 33.15500
C  3.81000 11.53300 34.19100
H  1.64500 4.15600 28.66900
H  1.43200 6.52900 22.62100
H  1.75100 12.35200 24.85500
H  2.48000 7.76100 31.73800
H  1.13400 5.29000 30.93700
H  4.15300 5.88600 31.13700
H  3.58300 4.77900 30.04900
H  3.12800 4.49000 31.65900
H  -0.31100 6.68800 31.84000
H  -0.24700 8.41000 31.37700
H  -0.50300 7.93500 33.88700
H  0.53900 9.17000 33.40800
H  0.42900 2.09500 25.90600
H  0.85500 2.56500 27.49500
H  2.14700 2.01500 26.38900
H  0.11800 1.89000 23.48200
H  1.76900 1.78800 24.14200
H  1.57600 2.10600 22.42600
H  0.61800 8.73400 21.88500
H  1.93500 11.23400 22.48600
H  3.37500 8.02700 21.75500
H  3.60200 9.73500 21.75900
H  2.55200 9.09600 20.52500
H  -0.26000 11.20600 21.38300
H  -0.02000 12.02200 22.90700
H  -1.88400 11.28300 23.81900
H  -1.19400 9.69600 23.72000
H  -2.17500 10.29400 22.37300
H  2.37400 14.05100 26.24700
H  2.87700 14.34300 27.88000
H  1.09400 14.20000 27.65000
H  1.07700 10.62500 31.56300
H  4.77000 11.07100 33.96100
H  3.47100 11.01200 35.08600
H  3.77600 12.62300 34.20700
Mg -2.21200 34.51100 27.03200
C  -4.24800 32.95300 29.46500
C  -0.93700 36.49000 29.50600
C  -0.73500 36.24700 24.64900
C  -3.78500 32.59600 24.53600
N  -2.71900 34.84000 29.19400
C  -3.39200 33.91900 30.01800
C  -3.18700 34.23600 31.49000
C  -2.41100 35.59700 31.35500
C  -2.03500 35.69200 29.89000
C  -3.08800 36.85300 31.89600
C  -2.41600 33.18100 32.33300
C  -3.27700 32.55400 33.41200
H  -3.86300 33.46700 34.48200
N  -0.86400 36.06500 27.06000
C  -0.39800 36.64500 28.23200
C  0.51200 37.71600 27.79600
C  0.59100 37.70100 26.36900
C  -0.35200 36.65800 25.96000
C  1.16300 38.69400 28.74100
C  1.46900 38.39700 25.48900
O  1.56700 38.06700 24.32700
C  2.39100 39.56500 25.91500
N  -2.32800 34.48800 24.91900
C  -1.56900 35.26900 24.13500
C  -1.57400 34.87500 22.66300
C  -2.58100 33.73200 22.65800
C  -2.88500 33.55200 24.16400
C  -1.87400 36.07000 21.72300
C  -1.88700 32.43700 21.96600
C  -0.61100 31.81800 22.71200
N  -3.68700 33.05900 26.95000
C  -4.24200 32.40900 25.86700
C  -5.23800 31.40900 26.31300
C  -5.27000 31.50400 27.78000
C  -4.35800 32.58300 28.08500
C  -5.91800 30.28900 25.47500
C  -5.81700 31.06300 29.02400
O  -6.64700 30.21100 29.30800
C  -5.15200 31.89400 30.16500
C  -6.23900 32.51500 30.92900
O  -6.62500 33.68100 30.73600
O  -6.61000 31.60700 31.90900
C  -7.66700 32.11400 32.84900
H  -0.36400 36.92700 30.32600
H  -0.26700 36.67700 23.76200
H  -4.37600 32.03200 23.81100
H  -4.16500 34.32600 31.96300
H  -1.52900 35.42700 31.97300
H  -3.58600 36.71200 32.85500
H  -3.84100 37.11000 31.15100
H  -2.27300 37.57000 31.99500
H  -1.57700 33.59100 32.89600
H  -1.96900 32.40600 31.71100
H  -2.63400 31.96800 34.06900
H  -4.04200 31.85600 33.07400
H  0.84200 39.67900 28.40300
H  2.24500 38.57500 28.68400
H  0.89500 38.51600 29.78200
H  1.86900 40.49000 26.16000
H  3.07900 39.73900 25.08700
H  2.97000 39.22600 26.77400
H  -0.57000 34.58000 22.35800
H  -3.48200 34.15000 22.21000
H  -2.84700 36.01000 21.23500
H  -1.18700 36.06400 20.87600
H  -1.86900 36.96200 22.35000
H  -1.48400 32.77000 21.00900
H  -2.74300 31.77600 21.82700
H  -1.06600 30.89200 23.06500
H  -0.48000 32.43200 23.60300
H  0.34900 31.77300 22.19900
H  -5.80600 29.36000 26.03400
H  -5.47100 30.20100 24.48400
H  -6.95700 30.58400 25.33100
H  -4.64300 31.21000 30.84500
H  -7.40600 33.12300 33.16900
H  -7.83200 31.41300 33.66600
H  -8.60500 32.28900 32.32300

