158

Mg 0.96500 7.60000 26.93600
C  1.26200 9.67500 29.67000
C  0.86100 4.87400 29.17800
C  0.27400 5.45800 24.30100
C  1.00200 10.16400 24.87800
N  1.13600 7.28000 29.18300
C  1.13600 8.36700 30.07500
C  1.11700 7.86400 31.48400
C  1.16200 6.31200 31.32100
C  1.03700 6.08200 29.80700
C  2.42600 5.57100 31.94300
C  -0.15300 8.30900 32.31700
C  -0.14300 8.36200 33.82600
H  1.11100 7.97400 34.61800
N  0.69300 5.52900 26.80200
C  0.64500 4.54600 27.79000
C  0.45700 3.25300 27.21100
C  0.26300 3.45400 25.84900
C  0.41400 4.86000 25.56800
C  0.54600 2.02800 28.16200
C  -0.11200 2.43300 24.76600
O  -0.24300 2.59100 23.60100
C  -0.43400 1.05400 25.24200
N  0.94900 7.71300 24.88800
C  0.53700 6.77500 23.99600
C  0.46200 7.31700 22.53300
C  0.35600 8.84400 22.86500
C  0.78200 8.94400 24.25700
C  1.70900 7.14000 21.58400
C  -1.07800 9.47300 22.89200
C  -1.50100 10.01300 21.51400
N  1.05400 9.53200 27.18200
C  1.08400 10.49100 26.21800
C  1.33000 11.75500 26.78700
C  1.40000 11.53200 28.17800
C  1.17000 10.15800 28.36500
C  1.46400 13.03000 25.95600
C  1.63000 12.12600 29.46700
O  1.95000 13.27900 29.78000
C  1.41300 10.89100 30.47900
C  2.55200 10.83100 31.47700
O  3.68300 10.64900 31.14300
O  2.08100 11.37900 32.67300
C  2.95600 11.84100 33.74100
H  0.52800 4.10200 29.87500
H  0.03800 4.88700 23.40000
H  1.07600 10.91600 24.09000
H  2.00700 8.13200 32.05400
H  0.31800 5.79800 31.78100
H  2.21000 5.36800 32.99200
H  3.26800 6.24700 31.79600
H  2.68200 4.65100 31.41800
H  -1.00300 7.68000 32.05100
H  -0.42500 9.31900 32.00900
H  -0.92800 7.69300 34.17900
H  -0.45800 9.39600 33.96600
H  -0.47900 1.78100 28.44000
H  1.01900 2.31900 29.10000
H  1.09700 1.19600 27.72300
H  0.48400 0.52000 25.48700
H  -0.76500 0.46200 24.38900
H  -1.17700 1.06300 26.04000
H  -0.50200 7.03200 22.11300
H  1.02800 9.46300 22.27000
H  2.22300 6.22400 21.87700
H  2.47900 7.90700 21.50000
H  1.19900 7.02800 20.62800
H  -1.13600 10.26900 23.63500
H  -1.89400 8.81800 23.19600
H  -2.42000 9.50600 21.22100
H  -0.73000 9.81600 20.76900
H  -1.63400 11.09400 21.48200
H  1.22300 13.78500 26.70500
H  0.75400 13.15200 25.13800
H  2.48000 13.14200 25.57800
H  0.50500 10.99700 31.07300
H  3.71200 12.45100 33.24700
H  3.33600 11.11900 34.46400
H  2.37500 12.62000 34.23500
Mg 35.79100 48.83600 25.05300
C  35.92900 46.83100 28.01700
C  34.10500 51.14300 26.81000
C  35.34500 50.54100 22.24100
C  37.38500 46.21900 23.27800
N  34.95200 48.88700 27.12100
C  35.23700 48.03100 28.17500
C  34.84600 48.64100 29.50000
C  34.12500 49.92700 29.07200
C  34.43100 50.00000 27.57800
C  32.55000 50.00300 29.24900
C  36.04700 49.03400 30.40700
C  35.82400 48.83000 31.90300
H  34.44800 48.56100 32.44100
N  34.87300 50.64400 24.61500
C  34.25300 51.47200 25.49300
C  33.77300 52.62800 24.75200
C  34.06900 52.44000 23.34900
C  34.84900 51.21300 23.36300
C  33.06500 53.82200 25.48300
C  33.79500 53.23300 22.19000
O  34.20100 53.03700 21.01500
C  33.01000 54.49500 22.38400
N  36.30200 48.40700 23.13000
C  35.99900 49.29200 22.16300
C  36.49900 48.82500 20.71400
C  37.34800 47.51100 21.10400
C  37.00800 47.36100 22.58500
C  35.50100 48.58200 19.66100
C  38.82900 47.50000 20.76200
C  39.84000 48.19800 21.80100
N  36.47200 46.93100 25.48100
C  37.10700 45.96200 24.66000
C  37.50000 44.79500 25.47100
C  37.08900 45.10500 26.77000
C  36.43700 46.33500 26.72300
C  38.17700 43.57100 24.91300
C  37.11000 44.59600 28.13900
O  37.48000 43.51700 28.61700
C  36.38300 45.73900 29.09300
C  35.24800 45.11700 29.78000
O  34.08100 45.05100 29.34800
O  35.60800 44.63300 30.94500
C  34.47900 44.20700 31.87100
H  33.61800 51.96000 27.34800
H  35.26000 50.98300 21.24600
H  37.96700 45.45600 22.75800
H  34.12600 48.07800 30.09400
H  34.64900 50.81800 29.41900
H  32.23200 48.97900 29.45000
H  32.00900 50.30300 28.35200
H  32.41900 50.71100 30.06700
H  36.30400 50.08300 30.25300
H  36.86100 48.34800 30.17200
H  36.12800 49.66400 32.53400
H  36.46700 48.02200 32.25000
H  33.63000 54.75400 25.46000
H  32.75600 53.64300 26.51300
H  32.08900 54.11300 25.09400
H  32.54500 54.99200 21.53300
H  33.58100 55.14000 23.05200
H  32.04100 54.28600 22.83800
H  37.21000 49.54100 20.30400
H  36.92200 46.65500 20.58200
H  36.02900 48.38200 18.72900
H  35.04800 49.55400 19.46900
H  34.78500 47.79400 19.89500
H  38.93500 48.12200 19.87300
H  38.99800 46.44500 20.54600
H  39.36200 49.00000 22.36300
H  40.54700 48.66700 21.11700
H  40.33200 47.46100 22.43500
H  37.66500 43.06600 24.09300
H  38.00600 42.87800 25.73700
H  39.21900 43.81400 24.70400
H  37.11300 46.09800 29.81900
H  34.39000 44.78500 32.79200
H  34.62100 43.17200 32.18100
H  33.50600 44.28100 31.38600

