158

Mg 7.18900 53.70500 41.63200
C  6.13200 50.36200 41.08700
C  10.30600 52.96600 40.46100
C  7.64300 56.97200 41.31800
C  3.76200 54.31500 42.32800
N  8.04200 51.88700 40.65300
C  7.50300 50.64000 40.67100
C  8.49100 49.61700 40.05600
C  9.81800 50.43800 40.24700
C  9.34400 51.88200 40.53400
C  10.82800 49.82900 41.24900
C  8.23300 49.21500 38.56800
C  8.14300 50.27900 37.48500
H  6.78300 50.36800 36.77400
N  8.82000 54.82000 41.07700
C  10.04300 54.36100 40.62300
C  10.93800 55.37700 40.34900
C  10.15000 56.54500 40.55300
C  8.81500 56.19800 41.02800
C  12.38600 55.23200 39.88000
C  10.75900 57.97200 40.44300
O  11.91200 58.18800 40.06300
C  9.83300 59.23000 40.67100
N  5.97600 55.41000 41.95400
C  6.41100 56.64100 41.89100
C  5.36300 57.72700 42.03300
C  4.06900 56.79800 42.21500
C  4.62500 55.41000 42.14900
C  5.58900 58.75300 43.19700
C  2.99800 57.05800 40.99900
C  1.71400 57.72200 41.47400
N  5.41100 52.57800 41.90100
C  4.13400 53.00100 42.29000
C  3.26700 51.87000 42.37000
C  3.99300 50.81800 41.90500
C  5.30500 51.28300 41.63300
C  1.83600 51.87000 42.78100
C  3.91000 49.39100 41.57700
O  3.07100 48.45800 41.69900
C  5.40200 49.10700 41.17800
C  5.25400 48.34500 39.86300
O  4.77800 48.77700 38.86000
O  5.86900 47.12800 39.93400
C  5.62000 46.24800 38.75800
H  11.36200 52.70600 40.36400
H  7.78100 58.05100 41.23000
H  2.77700 54.54300 42.74100
H  8.56300 48.73100 40.68800
H  10.42800 50.40800 39.34500
H  11.66700 49.29300 40.80500
H  10.34600 49.19600 41.99500
H  11.44200 50.56500 41.76800
H  7.26300 48.71800 38.57800
H  9.03900 48.50800 38.37000
H  8.93600 50.16000 36.74600
H  8.35500 51.16200 38.08900
H  12.60700 54.18100 39.69200
H  13.03500 55.59700 40.67600
H  12.46300 55.70200 38.90000
H  9.02400 59.17800 39.94200
H  10.38600 60.12100 40.37400
H  9.54100 59.22000 41.72100
H  5.25400 58.22800 41.07100
H  3.62800 56.88100 43.20800
H  4.87900 58.59900 44.01000
H  5.34500 59.72500 42.76800
H  6.61800 58.74100 43.55800
H  2.74700 56.13600 40.47500
H  3.36900 57.62500 40.14500
H  0.98900 56.90900 41.44100
H  1.41000 58.50000 40.77400
H  1.70500 58.18000 42.46300
H  1.20400 51.94300 41.89500
H  1.50800 52.57300 43.54700
H  1.57800 50.94400 43.29400
H  5.87500 48.37000 41.82800
H  4.54400 46.07400 38.72400
H  6.21000 45.34800 38.92800
H  5.94100 46.64700 37.79600
Mg 9.44500 47.97500 26.60400
C  7.57000 47.71900 29.51700
C  12.11600 49.28500 28.45700
C  11.20100 48.14800 23.80500
C  6.52900 47.44000 24.69700
N  9.73200 48.48500 28.76800
C  8.91300 48.16300 29.77300
C  9.47600 48.64200 31.21500
C  10.85400 49.32200 30.76500
C  10.89200 49.06600 29.20100
C  10.93800 50.84200 30.90900
C  9.64700 47.47700 32.31100
C  9.12300 47.67100 33.77900
H  9.37100 46.47100 34.80100
N  11.37000 48.57800 26.15700
C  12.33800 49.03300 27.06400
C  13.55900 49.13000 26.34000
C  13.36400 48.75100 24.98700
C  11.94500 48.48800 24.94400
C  14.83400 49.63100 27.09000
C  14.39900 48.57700 23.87300
O  14.04900 48.16100 22.74900
C  15.82600 48.71100 24.19200
N  8.90200 48.00000 24.54000
C  9.84300 47.93200 23.61600
C  9.29500 47.48400 22.24500
C  7.72400 47.41700 22.43400
C  7.68500 47.63600 23.96000
C  9.65000 48.35500 21.04300
C  7.01400 46.14900 21.82800
C  6.81600 44.90300 22.75500
N  7.44100 47.59800 26.97100
C  6.35600 47.49200 26.10500
C  5.16800 47.15500 26.90300
C  5.65200 47.24800 28.26200
C  6.97400 47.57600 28.21900
C  3.81400 46.91900 26.38500
C  5.26100 47.07100 29.62200
O  4.17700 46.86600 30.15400
C  6.48300 47.29000 30.51700
C  6.73900 45.99400 31.21900
O  7.25200 44.99500 30.78300
O  6.36000 46.15700 32.51400
C  6.22900 44.87500 33.17700
H  13.04600 49.58600 28.94400
H  11.81800 47.89600 22.93900
H  5.70000 47.12700 24.05900
H  8.92000 49.46700 31.66000
H  11.73600 48.89600 31.24300
H  11.95000 51.20500 30.72600
H  10.56500 51.08500 31.90400
H  10.12300 51.29900 30.34800
H  10.72500 47.31600 32.33400
H  9.21200 46.59900 31.83300
H  8.03400 47.63800 33.83300
H  9.42100 48.64100 34.17600
H  15.37100 48.73700 27.40800
H  14.63500 50.32300 27.90800
H  15.66000 50.07800 26.53600
H  16.30400 48.50000 23.23500
H  16.21400 47.94100 24.85800
H  16.01200 49.71400 24.57600
H  9.70200 46.48600 22.07800
H  7.20700 48.22500 21.91600
H  9.97600 49.33300 21.39700
H  8.73300 48.45700 20.46300
H  10.51200 47.92600 20.53300
H  7.56800 45.89300 20.92500
H  6.03500 46.54800 21.56200
H  7.45100 44.89000 23.64100
H  6.98600 43.90400 22.35200
H  5.75200 44.88900 22.98800
H  3.25800 47.85400 26.45600
H  3.29000 46.23000 27.04800
H  3.95200 46.65900 25.33500
H  6.24200 48.08200 31.22500
H  6.82800 44.01600 32.87400
H  5.19700 44.52700 33.12800
H  6.54700 45.12400 34.18900

