158

Mg -2.54000 17.46300 27.54200
C  -3.06700 15.22200 30.17600
C  -2.97200 20.10300 29.74500
C  -2.26900 19.43900 25.07200
C  -2.70800 14.73900 25.39700
N  -2.89100 17.62600 29.77900
C  -3.10600 16.58200 30.67100
C  -3.37100 17.14700 32.10500
C  -3.47200 18.70400 31.86500
C  -3.08900 18.83600 30.36100
C  -4.77800 19.40200 32.17400
C  -2.37500 16.55900 33.13500
C  -1.98900 17.42300 34.38900
H  -1.74900 16.68700 35.63900
N  -2.32000 19.47500 27.44400
C  -2.50100 20.42200 28.48100
C  -2.21400 21.70100 27.92600
C  -2.09700 21.59800 26.51700
C  -2.17200 20.17300 26.28400
C  -2.29900 22.88800 28.87700
C  -1.96300 22.71200 25.46700
O  -1.64300 22.44800 24.31700
C  -2.02800 24.18500 25.86000
N  -2.68800 17.14200 25.52700
C  -2.49900 18.09800 24.71100
C  -2.50600 17.62800 23.21000
C  -2.41600 16.06700 23.32600
C  -2.62700 15.98200 24.82900
C  -3.67000 18.13600 22.35100
C  -1.13600 15.29100 22.84800
C  0.17000 15.67100 23.58900
N  -2.92400 15.40700 27.67000
C  -2.94700 14.41200 26.72700
C  -3.03300 13.06500 27.34700
C  -3.07600 13.40000 28.73500
C  -3.01500 14.79500 28.83700
C  -3.02900 11.71900 26.79300
C  -3.29700 12.79600 30.07900
O  -3.55600 11.69800 30.37400
C  -3.24400 14.00200 31.11500
C  -2.02500 13.55200 31.89100
O  -0.88600 13.95600 31.65400
O  -2.36500 12.78900 32.99400
C  -1.22500 12.55800 33.91700
H  -3.12000 20.90700 30.46900
H  -2.08700 20.08200 24.20800
H  -2.58700 13.90900 24.69800
H  -4.29700 16.73900 32.51000
H  -2.65500 19.11600 32.45800
H  -5.03200 20.16700 31.44000
H  -4.70200 19.79100 33.18900
H  -5.63000 18.72300 32.21000
H  -1.45500 16.25100 32.63800
H  -2.85000 15.67300 33.55600
H  -2.91800 17.99000 34.46100
H  -1.06200 17.97300 34.22700
H  -1.65600 23.61200 28.37700
H  -1.79400 22.64100 29.81000
H  -3.25500 23.35000 29.12300
H  -2.26000 24.85400 25.03000
H  -1.08700 24.48700 26.31900
H  -2.73800 24.28200 26.68100
H  -1.54200 17.97700 22.84100
H  -3.27600 15.56200 22.88600
H  -4.16100 18.99400 22.81000
H  -4.40700 17.39900 22.03200
H  -3.20100 18.55600 21.46100
H  -1.03500 15.45800 21.77600
H  -1.29200 14.21400 22.91600
H  0.74800 16.33800 22.95000
H  0.76300 14.78600 23.82400
H  -0.05300 16.20800 24.51100
H  -2.81200 11.08800 27.65500
H  -2.35300 11.55000 25.95500
H  -4.03800 11.49100 26.45000
H  -4.20100 13.82600 31.60700
H  -1.46000 11.68800 34.53000
H  -0.93000 13.36000 34.59400
H  -0.28100 12.14900 33.55700
Mg 10.19100 47.51400 25.83000
C  8.30600 47.33600 28.63900
C  12.75500 48.96800 27.53700
C  11.94900 47.58700 22.93100
C  7.29400 46.69400 23.88900
N  10.61600 47.76200 27.93900
C  9.62400 47.68300 28.90800
C  10.20300 48.23400 30.24900
C  11.42300 49.10300 29.71500
C  11.62100 48.65800 28.30500
C  11.31600 50.66300 29.68100
C  10.64800 47.14800 31.26800
C  9.96900 47.44100 32.63900
H  9.78600 46.21200 33.55700
N  12.10500 48.16700 25.26500
C  13.03800 48.66700 26.12700
C  14.27300 48.89100 25.48300
C  14.05200 48.46700 24.09900
C  12.66400 48.04600 24.01900
C  15.60800 49.22100 26.22800
C  14.99400 48.34900 22.96200
O  14.67800 48.01000 21.84500
C  16.41500 48.74800 23.18200
N  9.70800 47.29500 23.80000
C  10.65000 47.23100 22.84500
C  10.09000 46.73900 21.53300
C  8.68500 46.32800 21.88100
C  8.52200 46.81200 23.29100
C  10.09800 47.71200 20.37700
C  8.37800 44.76300 21.68200
C  8.77400 43.76100 22.80200
N  8.15800 47.02500 26.14900
C  7.11200 46.86400 25.25400
C  5.89000 46.94000 26.05200
C  6.34600 47.00300 27.37400
C  7.69800 47.07400 27.36100
C  4.52600 46.69000 25.47300
C  5.86600 46.88700 28.71400
O  4.77200 46.62500 29.11000
C  7.14800 47.09500 29.63600
C  7.18700 45.82400 30.48300
O  7.70600 44.75300 30.23600
O  6.42400 46.02200 31.64100
C  6.14200 44.84700 32.54100
H  13.52400 49.53500 28.06400
H  12.55400 47.35600 22.05200
H  6.48300 46.42600 23.20900
H  9.43700 48.93200 30.58700
H  12.33800 48.75000 30.19200
H  10.44000 51.04900 30.20300
H  11.31200 51.04500 28.66000
H  12.19900 51.10200 30.14500
H  11.72200 47.32800 31.29200
H  10.47100 46.14600 30.87700
H  8.94300 47.78800 32.51300
H  10.54100 48.18800 33.19000
H  15.49500 49.11400 27.30700
H  16.20600 50.09400 25.96600
H  16.32100 48.40400 26.11200
H  16.95700 48.04300 23.81200
H  16.42400 49.69800 23.71800
H  16.92800 48.82200 22.22300
H  10.71400 45.86800 21.33300
H  7.94200 46.88100 21.30500
H  10.41700 48.74300 20.52700
H  9.24500 47.52200 19.72600
H  10.85700 47.34900 19.68500
H  9.02400 44.35800 20.90300
H  7.35900 44.73600 21.29400
H  8.73600 44.17800 23.80800
H  9.78000 43.38600 22.61300
H  8.24400 42.80800 22.78600
H  4.49900 47.44700 24.69000
H  3.69700 46.72700 26.17900
H  4.55900 45.68600 25.05200
H  6.90000 47.89600 30.33200
H  7.03600 44.72400 33.15200
H  5.94900 43.94200 31.96500
H  5.22500 45.04900 33.09600

