158

Mg 34.92500 3.19700 29.95300
C  32.78100 4.29800 32.51100
C  37.58400 3.45000 32.04700
C  36.91100 2.52900 27.32400
C  32.19900 3.45800 27.72400
N  35.17000 4.05300 31.92700
C  34.14500 4.21400 32.85000
C  34.66900 4.12600 34.28200
C  36.24400 4.17600 34.02700
C  36.35000 3.83800 32.58400
C  37.00000 5.46800 34.30700
C  34.19000 2.92200 35.10600
C  33.95200 3.04000 36.64100
H  34.66300 4.23500 37.28600
N  36.94400 2.92400 29.70400
C  37.88000 3.05100 30.70600
C  39.22600 2.62500 30.22100
C  39.03800 2.47300 28.80800
C  37.60400 2.69900 28.57300
C  40.44800 2.57400 31.15300
C  40.09900 2.08600 27.73700
O  39.83200 2.01300 26.51800
C  41.51500 1.81200 28.19300
N  34.61300 2.96300 27.85300
C  35.58000 2.58600 27.04600
C  35.09700 2.58800 25.57500
C  33.55100 2.52800 25.75100
C  33.43500 3.11800 27.21000
C  35.67800 3.94000 24.88600
C  32.86600 1.13800 25.50700
C  31.45100 1.10900 24.88300
N  32.83400 3.76400 30.03900
C  31.88700 3.75800 29.06400
C  30.57100 4.10300 29.68000
C  30.87600 4.28700 31.04600
C  32.31700 4.13900 31.20700
C  29.27500 4.15600 28.96300
C  30.31700 4.50600 32.34100
O  29.17200 4.69900 32.62500
C  31.51900 4.54900 33.38600
C  31.46700 5.85600 34.10000
O  31.22900 6.98200 33.57400
O  31.65500 5.65900 35.45100
C  31.40800 6.88900 36.24600
H  38.40800 3.46800 32.76400
H  37.57400 2.32500 26.48200
H  31.52100 3.52100 26.87100
H  34.38800 5.04600 34.79500
H  36.75300 3.35100 34.52600
H  37.58500 5.78300 33.44300
H  37.75700 5.45000 35.09100
H  36.20200 6.17100 34.54600
H  35.00400 2.21400 34.95500
H  33.27100 2.70800 34.56100
H  34.22000 2.13100 37.17900
H  32.90300 3.15400 36.91400
H  40.90000 1.58800 31.04800
H  40.14700 2.63600 32.19900
H  41.07000 3.37800 30.75800
H  42.06800 2.63800 28.64000
H  42.07600 1.44800 27.33200
H  41.45500 0.98400 28.89900
H  35.45400 1.72400 25.01400
H  33.07500 3.21100 25.04800
H  34.81400 4.53500 24.58800
H  36.22300 3.63400 23.99400
H  36.38600 4.46200 25.53000
H  33.01100 0.49400 26.37400
H  33.48100 0.67300 24.73700
H  31.60500 0.88800 23.82600
H  31.10300 2.14200 24.85800
H  30.72100 0.46000 25.36700
H  28.55200 4.58700 29.65500
H  28.92000 3.14500 28.76000
H  29.43700 4.75600 28.06700
H  31.41200 3.73600 34.10500
H  30.40200 7.22900 35.99700
H  32.27000 7.53300 36.07000
H  31.49100 6.72800 37.32100
Mg 47.64100 25.61500 27.72500
C  48.99800 27.61500 30.16700
C  46.64200 23.27200 30.07300
C  46.48700 23.69300 25.20500
C  49.02700 27.86400 25.22400
N  47.89500 25.43800 29.88300
C  48.28800 26.45600 30.71700
C  47.90100 26.20000 32.15400
C  47.40100 24.71000 32.07000
C  47.33100 24.42400 30.58100
C  48.30300 23.78300 32.93600
C  46.88000 27.20900 32.71400
C  47.15500 27.39700 34.27200
H  45.97600 28.01800 35.11000
N  46.68700 23.71700 27.65600
C  46.36100 22.97800 28.77600
C  45.81700 21.69400 28.30900
C  45.59500 21.84500 26.87000
C  46.27300 23.12100 26.46200
C  45.52400 20.56900 29.22900
C  44.80400 20.90700 25.98100
O  44.71200 21.08300 24.74500
C  44.12200 19.73300 26.55800
N  47.77500 25.78900 25.51200
C  47.23900 24.75600 24.76100
C  47.67100 24.89500 23.34800
C  48.43100 26.22700 23.32100
C  48.38200 26.68100 24.72600
C  48.57400 23.74300 22.86500
C  47.74500 27.33000 22.32500
C  48.27300 27.53700 20.85200
N  48.74500 27.38800 27.65300
C  49.25700 28.19200 26.62600
C  50.09800 29.21800 27.12400
C  49.92600 29.05300 28.51000
C  49.13000 27.94400 28.78000
C  50.86600 30.25700 26.44300
C  50.22400 29.66200 29.73900
O  50.93300 30.61700 29.93400
C  49.60600 28.82700 30.87200
C  50.49200 28.53300 31.96200
O  51.60900 27.95500 31.92200
O  49.91200 29.02700 33.09900
C  50.62600 28.91100 34.31400
H  46.34600 22.54700 30.83500
H  46.16000 23.03800 24.39400
H  49.58000 28.46100 24.49600
H  48.86200 26.19600 32.66800
H  46.41200 24.71200 32.52800
H  48.99000 23.01400 32.58200
H  47.59700 23.23500 33.56000
H  48.93900 24.35600 33.61000
H  45.84200 26.88300 32.64400
H  47.02600 28.15900 32.20000
H  48.02000 28.06000 34.30600
H  47.44900 26.47300 34.76900
H  44.48900 20.61300 29.56600
H  46.24200 20.65000 30.04600
H  45.73300 19.62300 28.73000
H  44.82800 18.90400 26.49400
H  43.32800 19.48600 25.85300
H  43.67500 20.13500 27.46700
H  46.78500 25.02100 22.72600
H  49.43900 26.16800 22.91200
H  48.67500 22.96200 23.61800
H  49.61600 24.05500 22.79100
H  48.19500 23.35600 21.91900
H  47.74300 28.30200 22.81700
H  46.71900 27.06400 22.06900
H  47.43700 27.19100 20.24300
H  49.17700 26.93100 20.80100
H  48.59200 28.57100 20.71600
H  51.40100 31.00500 27.02800
H  50.26000 30.66600 25.63400
H  51.63700 29.71200 25.89700
H  48.79800 29.50800 31.13800
H  50.45200 27.95500 34.80700
H  50.24100 29.64600 35.02100
H  51.64400 29.28800 34.22100

