158

Mg -1.09100 7.00300 27.00500
C  0.22200 9.34000 29.24300
C  -1.52900 4.69300 29.41000
C  -2.11300 4.81800 24.57600
C  -0.36600 9.39000 24.42000
N  -0.63300 7.01900 29.02400
C  -0.20500 8.11700 29.79700
C  -0.38500 7.73800 31.28100
C  -0.38000 6.23200 31.20700
C  -0.83100 5.94600 29.77700
C  0.84900 5.32500 31.49800
C  -1.71800 8.33000 31.89000
C  -1.75400 8.71600 33.30600
H  -0.66700 8.04100 34.21600
N  -1.87400 5.02800 27.01200
C  -2.00000 4.27400 28.13600
C  -2.69900 3.04200 27.78400
C  -2.73500 3.03900 26.33900
C  -2.26400 4.35300 25.90600
C  -2.99100 2.01000 28.80800
C  -3.30800 2.06700 25.34900
O  -3.40400 2.31400 24.16400
C  -3.75900 0.71300 25.86100
N  -1.02100 7.02500 24.80000
C  -1.50400 6.00700 24.06600
C  -1.60100 6.35900 22.57400
C  -1.05100 7.86300 22.51400
C  -0.79300 8.14400 24.03000
C  -0.69800 5.45600 21.57400
C  -2.00800 8.92200 21.81900
C  -1.47700 9.77400 20.69400
N  -0.29900 9.01000 26.80600
C  -0.11600 9.83500 25.73500
C  0.28900 11.12900 26.15800
C  0.51200 10.97000 27.53700
C  0.15400 9.65400 27.87100
C  0.69600 12.31500 25.30100
C  0.93700 11.61100 28.70700
O  1.37000 12.75000 28.81800
C  0.71800 10.63100 29.90800
C  1.93700 10.50400 30.78100
O  2.70000 9.56000 30.79100
O  2.07200 11.64200 31.56300
C  3.12000 11.67100 32.53700
H  -1.58800 4.04700 30.28900
H  -2.35400 4.14500 23.75000
H  -0.21700 10.12900 23.62900
H  0.46000 8.18700 31.80300
H  -1.13600 5.84300 31.88900
H  1.71600 5.93000 31.76300
H  1.13900 4.84000 30.56600
H  0.69700 4.55600 32.25500
H  -2.62700 7.74400 31.76000
H  -1.84100 9.31700 31.44400
H  -2.76000 8.66100 33.72000
H  -1.56200 9.78800 33.35600
H  -2.26500 1.20100 28.88900
H  -3.93100 1.49600 28.60500
H  -3.15800 2.44900 29.79100
H  -4.32500 0.12700 25.13700
H  -4.37500 0.85000 26.74900
H  -2.87600 0.17800 26.21100
H  -2.65100 6.27900 22.29400
H  -0.05100 7.99800 22.10200
H  0.01500 6.01500 20.96900
H  -1.38800 4.93000 20.91400
H  -0.14900 4.71900 22.16100
H  -2.31100 9.56400 22.64700
H  -2.91100 8.40600 21.49400
H  -2.21700 9.75900 19.89400
H  -0.47300 9.46400 20.40300
H  -1.47200 10.77600 21.12300
H  0.24200 12.12500 24.32800
H  1.78600 12.32200 25.28200
H  0.24200 13.17200 25.79800
H  -0.11400 11.02800 30.48900
H  4.12400 11.62500 32.11600
H  2.99400 10.87900 33.27500
H  2.96700 12.63600 33.01800
Mg 35.06900 2.99500 29.88000
C  32.86200 4.28400 32.36500
C  37.31300 2.58600 32.13800
C  37.04900 1.88400 27.40700
C  32.43700 3.45600 27.59100
N  34.99400 3.40800 32.04800
C  34.03500 3.92800 32.88600
C  34.55200 3.76500 34.35800
C  36.07100 3.45100 34.24000
C  36.14500 3.12200 32.73400
C  37.11000 4.55800 34.52600
C  33.73300 2.69100 35.10000
C  33.30800 3.05800 36.54500
H  33.87200 4.25600 37.19500
N  36.90700 2.29300 29.75200
C  37.74500 2.19600 30.85500
C  38.90800 1.56800 30.51500
C  38.89400 1.35700 29.09900
C  37.59400 1.83900 28.69000
C  40.08100 1.22600 31.43300
C  39.98200 0.68000 28.28900
O  39.87200 0.51400 27.08200
C  41.28700 0.03300 28.92800
N  34.83100 2.83700 27.71700
C  35.82600 2.40800 26.89600
C  35.25500 2.32400 25.41800
C  33.71300 2.39500 25.64800
C  33.63000 2.95400 27.04100
C  35.75700 3.46700 24.45400
C  32.91900 1.05600 25.39900
C  33.10400 0.57600 23.94700
N  33.04200 3.75600 29.90300
C  32.08900 3.87500 28.83600
C  30.88000 4.40200 29.37300
C  31.11600 4.53600 30.76800
C  32.45300 4.15200 31.02300
C  29.55800 4.63900 28.59100
C  30.43100 4.90500 31.98800
O  29.33400 5.31700 32.28400
C  31.60300 4.73800 33.16100
C  31.54500 6.13800 33.75700
O  32.27400 7.07200 33.40700
O  30.72800 6.12300 34.88500
C  30.79100 7.22500 35.84200
H  38.17300 2.63800 32.80900
H  37.69000 1.56900 26.58100
H  31.65900 3.42300 26.82600
H  34.31800 4.73200 34.80300
H  36.28800 2.57600 34.85200
H  37.86400 4.13900 35.19300
H  36.54900 5.35600 35.01200
H  37.49500 4.95500 33.58600
H  34.27300 1.75000 35.21000
H  32.88100 2.38200 34.49400
H  33.52600 2.28100 37.27800
H  32.22700 3.18200 36.47700
H  40.34200 0.16900 31.40300
H  39.94500 1.51700 32.47400
H  40.97300 1.80900 31.20300
H  41.92500 0.75700 29.43400
H  41.93500 -0.49100 28.22500
H  41.01200 -0.70600 29.68100
H  35.52800 1.33400 25.05500
H  33.25300 3.19100 25.06200
H  34.98900 4.07300 23.97400
H  36.36100 3.06300 23.64200
H  36.37600 4.16900 25.01400
H  31.85200 1.17900 25.58200
H  33.28400 0.35000 26.14400
H  33.66500 1.35700 23.43300
H  32.22000 0.51100 23.31200
H  33.69000 -0.34200 23.99000
H  29.02500 3.70600 28.41000
H  29.75300 5.12500 27.63500
H  28.93100 5.34300 29.13900
H  31.34900 3.95400 33.87400
H  31.00000 6.70000 36.77300
H  29.82500 7.71900 35.94700
H  31.57400 7.97500 35.73200

