158

Mg 27.38400 50.60500 27.06400
C  24.84100 51.22600 29.50600
C  29.44100 49.73800 29.50900
C  29.50700 49.57500 24.62000
C  25.10800 51.64800 24.73500
N  27.06200 50.33600 29.22700
C  26.01000 50.70700 30.01000
C  26.39400 50.47400 31.51900
C  27.91000 50.13100 31.46700
C  28.14100 50.00500 29.93900
C  28.85000 51.16300 32.16000
C  25.40200 49.38900 32.10500
C  24.56200 49.80700 33.37600
H  24.53900 48.90300 34.58200
N  29.28000 49.93100 27.04700
C  29.92600 49.64800 28.20500
C  31.30700 49.27100 27.88300
C  31.40800 49.19900 26.39700
C  30.06700 49.55600 25.92300
C  32.39300 48.94700 28.85300
C  32.48900 48.67900 25.55800
O  32.41300 48.83000 24.35400
C  33.80800 48.16400 26.01800
N  27.27800 50.55700 24.94000
C  28.30500 50.06300 24.11200
C  27.91400 50.05300 22.62600
C  26.59400 50.94700 22.66500
C  26.26500 51.08400 24.18100
C  28.95300 50.47400 21.50700
C  25.43300 50.52700 21.74100
C  24.29500 49.75600 22.32600
N  25.48700 51.40500 27.05900
C  24.68400 51.74000 26.03100
C  23.42700 52.32600 26.45600
C  23.46800 52.18500 27.84400
C  24.67300 51.55900 28.11600
C  22.33100 53.05600 25.60800
C  22.76000 52.41600 29.11500
O  21.75200 53.07500 29.42900
C  23.64900 51.75800 30.21300
C  23.82100 52.80100 31.30600
O  24.52700 53.81800 31.17200
O  22.96600 52.65000 32.32700
C  23.00700 53.58100 33.46800
H  30.11300 49.47500 30.32900
H  30.28800 49.29000 23.91200
H  24.46200 52.02700 23.94000
H  26.28900 51.42800 32.03600
H  27.94600 49.17000 31.98000
H  29.83200 51.05200 31.70100
H  28.83500 50.95500 33.23000
H  28.44100 52.16800 32.05900
H  25.87000 48.44900 32.39600
H  24.64000 49.03500 31.41100
H  23.52100 50.08800 33.21400
H  25.00000 50.73100 33.75300
H  32.33500 47.88000 29.07100
H  32.31800 49.57900 29.73800
H  33.35500 49.04200 28.34900
H  34.32700 48.92600 26.59800
H  34.48300 47.71800 25.28800
H  33.46300 47.37800 26.69000
H  27.62900 49.00400 22.54900
H  26.92400 51.92900 22.32800
H  29.51400 49.63900 21.08700
H  29.57700 51.34100 21.72300
H  28.43200 50.92400 20.66200
H  25.87300 49.89200 20.97200
H  25.07400 51.47700 21.34500
H  23.95700 49.03200 21.58500
H  23.55800 50.50600 22.61400
H  24.64300 49.22800 23.21300
H  22.21000 54.03700 26.06800
H  21.33200 52.63200 25.50700
H  22.66400 53.25500 24.58900
H  23.10800 50.92500 30.66200
H  23.72900 53.17500 34.17600
H  22.07200 53.64300 34.02500
H  23.36000 54.59200 33.26200
Mg -11.42600 16.26800 41.58800
C  -8.40200 14.31100 41.23300
C  -9.77400 18.79800 39.96000
C  -14.30200 17.61800 40.93400
C  -13.05400 13.30800 42.77700
N  -9.28900 16.45400 40.63400
C  -8.26500 15.56200 40.55900
C  -7.01000 16.12600 39.93500
C  -7.51300 17.62800 39.63100
C  -8.95800 17.67400 40.13200
C  -6.67200 18.70800 40.28500
C  -6.63200 15.37400 38.62200
C  -5.16800 15.74300 38.17300
H  -4.93100 16.70100 36.92600
N  -11.94800 18.06600 40.70600
C  -11.10100 18.98500 40.10600
C  -11.87000 20.12900 39.66100
C  -13.27800 19.73400 39.77600
C  -13.22700 18.41500 40.45600
C  -11.31100 21.38300 39.06000
C  -14.40700 20.55800 39.24400
O  -14.14500 21.65100 38.79800
C  -15.85400 20.12300 39.25500
N  -13.44200 15.59700 41.78200
C  -14.48200 16.43200 41.58000
C  -15.81900 15.79800 42.00000
C  -15.32300 14.37500 42.63900
C  -13.84600 14.42300 42.43900
C  -16.67700 16.71900 42.85300
C  -16.08100 13.22300 41.96300
C  -16.57300 12.06900 42.96800
N  -10.88300 14.28800 41.99500
C  -11.63900 13.19200 42.50700
C  -10.76800 12.11700 42.84100
C  -9.50500 12.51900 42.34500
C  -9.60600 13.84100 41.81400
C  -11.19000 10.80000 43.35100
C  -8.10400 12.11400 42.27500
O  -7.53400 11.05200 42.60600
C  -7.36600 13.25100 41.55000
C  -6.28900 13.76100 42.51000
O  -6.41800 14.26000 43.59600
O  -5.11200 13.49900 41.93500
C  -3.88000 14.05200 42.42400
H  -9.30600 19.73200 39.64100
H  -15.21500 18.19800 40.78600
H  -13.50700 12.37600 43.12200
H  -6.11700 16.10000 40.55800
H  -7.50300 17.82900 38.56000
H  -5.82800 18.26000 40.81000
H  -7.15700 19.41100 40.96200
H  -6.22900 19.24900 39.44900
H  -7.14100 15.57800 37.68000
H  -6.57500 14.29600 38.77300
H  -4.50100 14.88100 38.14100
H  -4.76200 16.34300 38.98700
H  -11.33400 21.32700 37.97200
H  -10.24500 21.44600 39.27900
H  -11.76000 22.32200 39.38400
H  -16.34100 20.78500 38.53900
H  -16.28900 20.23300 40.24900
H  -15.90400 19.06000 39.02300
H  -16.34100 15.64900 41.05500
H  -15.65500 14.31100 43.67500
H  -16.04700 17.41200 43.41100
H  -17.36200 16.14000 43.47400
H  -17.31500 17.33500 42.21900
H  -15.37700 12.75600 41.27400
H  -16.94200 13.50800 41.35900
H  -16.16800 12.23300 43.96700
H  -16.30800 11.03100 42.76500
H  -17.64500 12.17100 43.14000
H  -10.44100 10.36000 44.00800
H  -11.36600 10.08800 42.54500
H  -12.11900 10.91300 43.91100
H  -6.84600 12.81900 40.69500
H  -3.65300 13.65400 43.41400
H  -3.96700 15.13200 42.53500
H  -3.23600 13.82200 41.57500

