158

Mg -2.09500 17.36200 26.51200
C  -2.61700 14.96400 29.00600
C  -2.50500 19.84900 28.90800
C  -1.96300 19.58700 24.07900
C  -2.13200 14.65100 24.11700
N  -2.71800 17.32900 28.70300
C  -2.81500 16.22400 29.52300
C  -3.08400 16.78900 30.98700
C  -2.98600 18.30600 30.86200
C  -2.84300 18.52200 29.40400
C  -4.28500 19.09700 31.37700
C  -2.00300 16.25900 32.04300
C  -1.75800 16.83000 33.51100
H  -1.28300 15.94200 34.61500
N  -2.03000 19.40000 26.49000
C  -2.24500 20.26600 27.58500
C  -2.16200 21.65400 27.13300
C  -1.79900 21.57900 25.72600
C  -1.96000 20.14200 25.36700
C  -2.28600 22.86300 28.05000
C  -1.36400 22.61000 24.70600
O  -1.36800 22.42600 23.46400
C  -1.02800 23.93600 25.21000
N  -2.10500 17.12700 24.40100
C  -1.91900 18.22400 23.63900
C  -1.91900 17.84900 22.13100
C  -1.76400 16.33300 22.19900
C  -1.97600 16.01200 23.65200
C  -3.17100 18.37900 21.42500
C  -0.40600 15.76400 21.78200
C  0.77300 15.85500 22.84700
N  -2.45300 15.22600 26.45600
C  -2.35100 14.27300 25.43500
C  -2.56700 13.00000 26.00700
C  -2.62500 13.24000 27.37500
C  -2.54900 14.59500 27.59700
C  -2.75100 11.73500 25.28700
C  -2.75800 12.52400 28.65600
O  -3.03200 11.35000 28.90700
C  -2.58700 13.59500 29.78200
C  -1.31500 13.31400 30.58000
O  -0.24800 13.85200 30.36900
O  -1.54200 12.42400 31.53100
C  -0.42800 12.23000 32.52600
H  -2.57900 20.69900 29.59000
H  -2.00300 20.32000 23.27000
H  -2.12000 14.00800 23.23500
H  -4.12900 16.53300 31.16600
H  -2.15300 18.64600 31.47600
H  -4.96800 18.52300 32.00200
H  -4.75900 19.65100 30.56700
H  -3.96300 19.82600 32.12200
H  -1.06700 16.21700 31.48500
H  -2.19400 15.19200 32.16500
H  -2.67200 17.37400 33.74700
H  -0.92300 17.48700 33.26500
H  -2.64400 22.66000 29.05900
H  -2.89400 23.55700 27.47000
H  -1.28500 23.29000 28.11600
H  -0.90400 24.65300 24.39800
H  -0.13900 23.77500 25.81900
H  -1.77100 24.29000 25.92500
H  -1.07600 18.34200 21.64700
H  -2.51900 15.94800 21.51400
H  -3.84000 17.52900 21.29300
H  -3.08200 18.83500 20.43900
H  -3.73100 19.16000 21.94000
H  -0.01600 16.09500 20.82000
H  -0.61600 14.69800 21.69300
H  0.85000 14.87300 23.31400
H  0.65300 16.46300 23.74300
H  1.67200 16.24300 22.36900
H  -1.73300 11.42300 25.05200
H  -3.27700 12.01700 24.37500
H  -3.39000 11.06000 25.85600
H  -3.33200 13.56300 30.57700
H  -0.96300 11.89600 33.41500
H  0.09700 13.14800 32.79200
H  0.21900 11.39300 32.26600
Mg 34.75900 2.50600 29.29900
C  32.87400 3.50800 31.94500
C  37.46700 1.89800 31.48600
C  36.86800 1.88700 26.68000
C  32.33200 3.60200 27.06100
N  35.13800 2.76300 31.51200
C  34.17400 3.20900 32.42300
C  34.82000 3.11000 33.82900
C  36.33200 2.67200 33.57800
C  36.36800 2.44700 32.11900
C  37.40900 3.61800 34.14400
C  34.04600 2.20700 34.77700
C  33.93700 2.72400 36.21500
H  35.04600 3.76300 36.73100
N  36.87400 1.81600 29.14300
C  37.73800 1.70800 30.18800
C  38.98900 1.23800 29.57400
C  38.86200 1.21500 28.15800
C  37.48000 1.64500 27.94300
C  40.22300 1.18500 30.37500
C  39.89000 0.70600 27.10600
O  39.61900 0.63400 25.92300
C  41.25800 0.20900 27.54400
N  34.56900 2.57500 27.17400
C  35.57800 2.28500 26.33100
C  35.15900 2.74300 24.90100
C  33.65200 3.14000 24.99100
C  33.47200 3.14400 26.49000
C  36.05000 3.83700 24.34000
C  32.58300 2.19100 24.34700
C  32.10600 0.87500 25.04800
N  32.96700 3.33800 29.43900
C  31.99000 3.62500 28.43400
C  30.77800 4.07900 29.05800
C  31.04500 4.04900 30.42200
C  32.40400 3.63100 30.67100
C  29.51200 4.49400 28.41700
C  30.51600 4.29400 31.78800
O  29.36500 4.54700 32.15600
C  31.64800 4.00800 32.79900
C  31.97200 5.31000 33.46900
O  32.64800 6.22600 32.95100
O  31.45800 5.27100 34.73400
C  31.51200 6.55500 35.51100
H  38.19500 1.53600 32.21600
H  37.50900 1.64500 25.83000
H  31.47000 3.85900 26.44200
H  34.76200 4.16500 34.10000
H  36.51000 1.70300 34.04500
H  37.99400 4.03900 33.32600
H  38.02800 3.04400 34.83400
H  37.07400 4.52500 34.64700
H  34.48100 1.22900 34.57200
H  33.07700 2.01000 34.31900
H  34.05600 1.88800 36.90400
H  32.96800 3.19500 36.37800
H  40.95900 1.78900 29.84400
H  40.60500 0.16500 30.34100
H  40.07000 1.63300 31.35700
H  41.17500 -0.68300 28.16500
H  41.92100 0.95200 27.98700
H  41.76300 0.09400 26.58500
H  35.07900 1.89900 24.21600
H  33.40100 4.09700 24.53400
H  36.95800 4.00600 24.91900
H  35.56500 4.81000 24.25600
H  36.50700 3.58200 23.38400
H  32.95900 1.86700 23.37700
H  31.69000 2.71900 24.01300
H  32.89500 0.35400 25.59100
H  31.83900 0.16700 24.26400
H  31.27300 1.01800 25.73700
H  29.71300 5.03500 27.49200
H  29.08300 5.22300 29.10500
H  28.87100 3.63100 28.23700
H  31.45100 3.27300 33.57900
H  31.57900 6.20800 36.54200
H  30.56800 7.03000 35.24600
H  32.43600 7.10800 35.34200

