158

Mg 16.06700 -1.95700 27.46000
C  15.07600 0.36700 29.87900
C  18.14400 -3.51300 29.78800
C  17.65900 -3.45100 25.04500
C  14.36600 0.11400 25.15400
N  16.70400 -1.40600 29.50800
C  16.01000 -0.54400 30.37500
C  16.47800 -0.81000 31.78000
C  17.68600 -1.82000 31.61600
C  17.46200 -2.33900 30.23400
C  19.07500 -1.22400 31.89300
C  15.37000 -1.40500 32.76300
C  15.67600 -1.12100 34.27000
H  16.92800 -0.41300 34.78800
N  17.48600 -3.51300 27.46200
C  18.26700 -3.96300 28.48000
C  19.15100 -5.03700 27.97600
C  18.90800 -5.08300 26.53500
C  17.99800 -4.00500 26.31300
C  19.94300 -5.95100 28.86400
C  19.38600 -6.14200 25.42900
O  18.91200 -6.17200 24.33300
C  20.40000 -7.25800 25.77100
N  15.99300 -1.67600 25.41100
C  16.79400 -2.42100 24.63700
C  16.64700 -2.00200 23.18400
C  15.31100 -1.14500 23.15200
C  15.14100 -0.91500 24.65300
C  17.87100 -1.10900 22.66000
C  14.08900 -1.79000 22.39000
C  13.32600 -0.85600 21.32000
N  14.77100 -0.20000 27.43400
C  14.15600 0.46600 26.46400
C  13.37900 1.55300 27.02000
C  13.61300 1.53200 28.37700
C  14.54700 0.47200 28.55000
C  12.53700 2.45000 26.20400
C  13.39800 2.15400 29.69100
O  12.56700 3.01200 29.92900
C  14.22300 1.33300 30.72800
C  15.02300 2.34400 31.43200
O  16.07600 2.85700 31.12600
O  14.33000 2.52700 32.61600
C  14.82600 3.48900 33.54400
H  18.82300 -4.06600 30.44100
H  18.17400 -3.84500 24.16600
H  13.78500 0.80700 24.54200
H  16.85200 0.14300 32.15400
H  17.62400 -2.69200 32.26700
H  18.89200 -0.15000 31.94800
H  19.68000 -1.50100 31.03000
H  19.43900 -1.53800 32.87200
H  15.35000 -2.48300 32.60700
H  14.45500 -0.99100 32.34000
H  15.75100 -2.14000 34.65100
H  14.86300 -0.57100 34.74300
H  19.56300 -6.96000 28.70600
H  19.91600 -5.66400 29.91500
H  20.96200 -6.00100 28.48000
H  20.55500 -7.75800 24.81500
H  19.99900 -8.05200 26.40100
H  21.27600 -6.82600 26.25500
H  16.55700 -2.93600 22.62900
H  15.52800 -0.17500 22.70500
H  18.65300 -0.93700 23.40000
H  17.53700 -0.14000 22.29100
H  18.28600 -1.68100 21.83000
H  13.41700 -2.12300 23.18000
H  14.40600 -2.69600 21.87400
H  13.43300 -1.36400 20.36100
H  13.85000 0.09300 21.21000
H  12.26700 -0.67900 21.50500
H  13.24900 3.20000 25.86000
H  11.74000 2.83000 26.84300
H  12.11900 1.96600 25.32100
H  13.51100 0.80000 31.35800
H  13.98200 4.14800 33.74800
H  15.72300 3.99700 33.19100
H  15.09600 2.93700 34.44400
Mg 34.53400 2.89500 29.24000
C  32.29900 3.91600 31.79500
C  36.91400 2.53900 31.67100
C  36.67700 2.37700 26.68100
C  32.02200 3.53300 26.93800
N  34.62400 3.49400 31.47800
C  33.58100 3.75800 32.34700
C  34.03000 3.75100 33.81700
C  35.58600 3.33600 33.73000
C  35.71600 3.03300 32.20500
C  36.54500 4.45800 34.15300
C  33.17700 2.75300 34.61600
C  32.72500 3.11500 36.01100
H  33.39200 4.18200 36.92000
N  36.46500 2.36300 29.23900
C  37.28900 2.21900 30.33800
C  38.65600 1.82400 29.93500
C  38.58300 1.89000 28.50900
C  37.19500 2.17900 28.06200
C  39.70400 1.47900 30.97500
C  39.74400 1.55700 27.44900
O  39.49100 1.50600 26.28900
C  41.20800 1.32400 27.93700
N  34.35700 2.82400 27.09900
C  35.36900 2.60800 26.20100
C  34.92500 2.92400 24.72700
C  33.35900 2.79200 24.92600
C  33.22400 3.21900 26.40600
C  35.52900 4.23100 24.04100
C  32.70600 1.42700 24.59400
C  31.53200 1.49400 23.70100
N  32.59100 3.58900 29.30500
C  31.72000 3.76600 28.23800
C  30.44200 4.13300 28.75500
C  30.57000 4.24100 30.14000
C  31.94100 3.96100 30.43800
C  29.18300 4.38100 27.92600
C  29.87000 4.40600 31.45700
O  28.71900 4.77600 31.63000
C  30.92800 4.24900 32.54300
C  31.14600 5.59500 33.23300
O  31.75900 6.51800 32.73800
O  30.58600 5.47900 34.46300
C  30.51700 6.68900 35.27700
H  37.67500 2.48800 32.45200
H  37.41200 2.36500 25.87300
H  31.15100 3.50900 26.28000
H  33.95900 4.75500 34.23600
H  35.72700 2.45600 34.35700
H  37.11900 4.79800 33.29100
H  37.26600 4.13800 34.90500
H  36.02800 5.35900 34.48100
H  33.70500 1.79900 34.60600
H  32.24000 2.51100 34.11500
H  32.67300 2.19400 36.59200
H  31.70700 3.49600 35.93100
H  40.65700 1.93300 30.70300
H  39.87000 0.40900 30.85200
H  39.44900 1.73400 32.00300
H  41.19700 0.67500 28.81300
H  41.53600 2.35400 28.07700
H  41.78100 0.91700 27.10400
H  35.20000 2.06200 24.12000
H  32.90100 3.61500 24.37700
H  36.04300 4.82500 24.79700
H  34.75900 4.72600 23.44800
H  36.30200 4.00900 23.30700
H  32.42000 1.02000 25.56400
H  33.48700 0.88700 24.05700
H  30.66400 1.01200 24.15000
H  31.79600 1.01100 22.76000
H  31.25300 2.49700 23.38000
H  28.82900 3.36900 27.72900
H  29.51800 4.87500 27.01400
H  28.49600 5.02100 28.48000
H  30.61000 3.45700 33.22100
H  30.22500 7.54100 34.66400
H  31.49200 6.69100 35.76300
H  29.79300 6.45600 36.05800

