158

Mg 1.03700 8.28300 26.83400
C  1.80900 10.50900 29.35400
C  1.44500 5.70300 29.29700
C  0.72400 6.00900 24.44600
C  1.06800 10.88500 24.57000
N  1.52100 8.15600 29.05200
C  1.61900 9.23600 29.84000
C  1.38000 8.77100 31.32100
C  1.58400 7.26000 31.29000
C  1.47600 7.03200 29.81200
C  2.95700 6.77600 31.81700
C  -0.04400 9.31400 31.72600
C  -0.19100 9.31000 33.28500
H  0.98500 8.78300 34.18600
N  1.05600 6.16600 26.81500
C  1.17500 5.28900 27.87700
C  1.05300 3.91000 27.47100
C  1.01900 4.02700 26.01400
C  0.90900 5.46000 25.68500
C  1.09100 2.74600 28.41400
C  1.19000 2.93400 24.95900
O  1.26700 3.14100 23.76900
C  1.38400 1.50700 25.43700
N  1.10800 8.44500 24.74000
C  0.73900 7.34800 23.97500
C  0.39100 7.76500 22.52800
C  0.30800 9.36200 22.64300
C  0.86500 9.59600 24.05500
C  1.39000 7.31400 21.42400
C  -1.04400 10.03000 22.34000
C  -0.92500 11.16500 21.25800
N  1.48600 10.29500 26.92000
C  1.50600 11.19800 25.94900
C  1.93900 12.51600 26.47500
C  2.08200 12.32500 27.90400
C  1.79700 10.92100 28.03300
C  2.29200 13.78900 25.65900
C  2.49000 12.85700 29.16300
O  2.96300 13.93600 29.45400
C  2.16800 11.68400 30.18500
C  3.32300 11.51400 31.04900
O  4.35500 10.91700 30.80400
O  3.14700 12.24500 32.21300
C  4.18600 12.29600 33.28600
H  1.34600 4.91000 30.04100
H  0.39700 5.29500 23.68700
H  0.97000 11.67600 23.82300
H  2.10700 9.30600 31.93300
H  0.84800 6.70400 31.87100
H  2.80400 6.09500 32.65500
H  3.56800 7.65400 32.02900
H  3.47900 6.20300 31.05100
H  -0.72800 8.52300 31.41800
H  -0.41800 10.25900 31.33200
H  -1.03900 8.67900 33.55200
H  -0.42200 10.35900 33.47000
H  1.10100 3.08200 29.45100
H  2.03900 2.21900 28.31100
H  0.25900 2.06600 28.23200
H  0.43500 0.99400 25.59400
H  2.09200 1.58700 26.26100
H  1.92700 0.92700 24.69100
H  -0.58600 7.38600 22.22900
H  1.12700 9.74600 22.03500
H  2.34800 7.10400 21.89800
H  1.64500 8.00000 20.61700
H  0.90800 6.45900 20.95000
H  -1.25900 10.61400 23.23500
H  -1.85100 9.34900 22.06900
H  -0.88200 12.05900 21.88000
H  -1.71000 11.26200 20.50800
H  -0.02600 11.04200 20.65300
H  3.14000 14.33300 26.07700
H  1.51500 14.54900 25.57800
H  2.44000 13.51700 24.61400
H  1.31000 12.08200 30.72600
H  4.08400 13.20900 33.87200
H  5.17600 12.23600 32.83300
H  4.03600 11.49200 34.00600
Mg 41.66900 8.54100 29.62900
C  43.54500 9.68800 32.43300
C  39.15200 7.69100 31.76100
C  40.02900 7.21000 26.93900
C  44.36600 9.42800 27.66100
N  41.45800 8.38100 31.92000
C  42.31900 9.01900 32.87600
C  41.70700 8.89000 34.31300
C  40.34800 8.10300 34.08100
C  40.25600 8.11000 32.47200
C  40.18900 6.66400 34.68200
C  41.41400 10.27600 34.87200
C  40.44900 10.23600 36.06300
H  40.77600 11.22500 37.14700
N  39.89800 7.48000 29.40100
C  38.96500 7.36600 30.38500
C  37.79300 6.82600 29.75400
C  37.94200 6.78300 28.31800
C  39.29800 7.22100 28.15900
C  36.60100 6.35100 30.51500
C  36.98000 6.31700 27.21100
O  37.35100 6.15700 26.06500
C  35.55700 6.06400 27.51000
N  42.13800 8.27100 27.64000
C  41.30600 7.69100 26.64600
C  41.90500 7.74300 25.16800
C  43.16200 8.71600 25.50700
C  43.20200 8.89700 27.07300
C  42.23700 6.36200 24.48100
C  43.11900 10.03600 24.69900
C  42.51200 11.32700 25.37300
N  43.59700 9.34400 29.91000
C  44.57600 9.68800 29.03300
C  45.64600 10.23200 29.62600
C  45.28500 10.25000 30.96700
C  44.00800 9.73900 31.10600
C  46.94900 10.62000 28.92000
C  45.73000 10.74000 32.25700
O  46.74000 11.36400 32.57900
C  44.62900 10.24200 33.28900
C  45.17800 9.46700 34.45700
O  46.12400 8.65700 34.43700
O  44.43400 9.76000 35.59200
C  44.65700 8.87600 36.71100
H  38.34400 7.44800 32.45400
H  39.58100 6.69900 26.08400
H  45.09600 9.72800 26.90600
H  42.39200 8.35400 34.97000
H  39.52400 8.77200 34.32900
H  39.40100 6.62800 35.43400
H  41.03700 6.36000 35.29500
H  40.18200 5.90400 33.90100
H  40.94100 10.80600 34.04500
H  42.24000 10.92000 35.17200
H  40.33100 9.24300 36.49600
H  39.47400 10.61300 35.75500
H  36.70300 6.47500 31.59300
H  36.50900 5.30500 30.22200
H  35.70000 6.84000 30.14600
H  35.12900 5.83600 26.53400
H  35.18200 6.95600 28.01200
H  35.51200 5.17300 28.13600
H  41.18700 8.20100 24.48800
H  44.05300 8.11500 25.32000
H  43.30500 6.25900 24.28900
H  41.81100 6.28900 23.48000
H  41.99300 5.43000 24.99000
H  42.55000 9.95900 23.77300
H  44.13100 10.35400 24.44900
H  41.97100 10.94800 26.24100
H  41.78900 11.84600 24.74200
H  43.28200 12.07100 25.58000
H  47.85200 10.29800 29.43800
H  47.00600 11.69900 29.06100
H  47.09800 10.15500 27.94600
H  44.24300 11.17800 33.69300
H  44.18200 9.33600 37.57800
H  45.71600 8.70000 36.89400
H  44.23300 7.88400 36.55300

