158

Mg 35.41400 2.72400 30.04300
C  32.90600 3.89300 32.19700
C  37.55700 2.76700 32.71800
C  37.95500 1.95300 27.99500
C  33.26500 2.99000 27.29000
N  35.27500 3.50600 32.12200
C  34.10100 3.71500 32.83300
C  34.37100 3.64300 34.33900
C  35.90100 3.72000 34.39300
C  36.27900 3.25600 33.00400
C  36.46600 5.16500 34.75800
C  33.71900 2.46700 34.97000
C  33.07600 2.69700 36.37200
H  33.66700 3.79900 37.29800
N  37.47100 2.50600 30.27400
C  38.09000 2.49400 31.46500
C  39.48300 2.13800 31.27100
C  39.68400 1.97800 29.88700
C  38.35700 2.14000 29.28500
C  40.49400 1.92300 32.41800
C  40.99200 1.56700 29.19300
O  41.11200 1.44700 27.97700
C  42.20500 1.23300 29.98800
N  35.62900 2.43600 27.99000
C  36.74500 1.95500 27.38100
C  36.46900 1.72000 25.89500
C  34.99600 2.10600 25.68600
C  34.59900 2.61200 27.10300
C  37.48000 2.41100 24.92500
C  34.14200 1.01900 24.93000
C  33.84600 -0.28600 25.72900
N  33.49100 3.31900 29.73400
C  32.74900 3.36200 28.54100
C  31.37400 3.82700 28.94200
C  31.35600 3.94600 30.35900
C  32.66700 3.77000 30.78800
C  30.13300 4.03100 28.02000
C  30.57400 4.24000 31.49800
O  29.41700 4.59900 31.51900
C  31.51700 4.21100 32.75000
C  31.56400 5.54400 33.47500
O  31.90700 6.61300 32.96300
O  31.16700 5.33200 34.75700
C  31.08400 6.49600 35.64300
H  38.24200 2.73100 33.56800
H  38.77900 1.72400 27.31600
H  32.62000 3.10700 26.41700
H  33.90800 4.57900 34.65100
H  36.36100 2.96900 35.03600
H  35.63300 5.85600 34.88200
H  36.94500 5.46200 33.82600
H  37.03800 5.15000 35.68600
H  34.48300 1.69700 35.07300
H  32.95200 2.16100 34.25900
H  33.01900 1.80500 36.99600
H  32.03300 3.00800 36.30600
H  41.53400 2.06600 32.12300
H  40.41500 0.87300 32.70000
H  40.34000 2.58800 33.26700
H  42.56300 2.22600 30.26000
H  42.95000 0.71900 29.38100
H  41.90500 0.55600 30.78800
H  36.58000 0.66400 25.64700
H  34.94900 2.96700 25.02000
H  37.03400 3.05200 24.16400
H  38.04800 1.59900 24.47200
H  38.21400 3.03200 25.43900
H  34.76900 0.71300 24.09200
H  33.20700 1.40900 24.52800
H  34.49500 -0.46500 26.58600
H  34.21200 -1.09300 25.09500
H  32.78100 -0.33600 25.95700
H  30.26200 4.89900 27.37400
H  29.29800 4.16300 28.70800
H  29.86900 3.13900 27.45200
H  31.27100 3.38700 33.42000
H  31.83500 7.21700 35.32100
H  31.29200 6.07500 36.62700
H  30.08800 6.92400 35.53800
Mg -10.40000 38.80600 40.61300
C  -8.77300 35.71200 39.90400
C  -7.60800 40.35700 39.27400
C  -11.98100 41.74400 40.59000
C  -13.23000 37.12400 41.49700
N  -8.47000 38.13100 39.73300
C  -8.06800 36.81300 39.54100
C  -6.67700 36.71500 38.74600
C  -6.18200 38.20900 39.02600
C  -7.50900 38.94500 39.37000
C  -5.09300 38.44600 40.08800
C  -6.88200 36.23400 37.25300
C  -6.18300 36.88300 36.00500
H  -7.12500 37.60700 35.00100
N  -9.86000 40.75400 40.02900
C  -8.68300 41.22100 39.54800
C  -8.67200 42.69500 39.58200
C  -9.98200 43.08800 39.83600
C  -10.66700 41.85400 40.13100
C  -7.41900 43.54800 39.13000
C  -10.44000 44.50000 39.99600
O  -9.57400 45.36400 39.88100
C  -11.82800 44.91000 40.43100
N  -12.40100 39.28200 40.89600
C  -12.78300 40.60500 40.90400
C  -14.33900 40.62900 41.10900
C  -14.68100 39.20100 41.49200
C  -13.35200 38.46500 41.36300
C  -14.94800 41.62200 42.16400
C  -15.87300 38.56600 40.69700
C  -16.72800 37.51100 41.41400
N  -10.91500 36.87100 40.68000
C  -12.10800 36.36000 41.10000
C  -11.96400 34.86100 41.15800
C  -10.73400 34.59000 40.57900
C  -10.10200 35.86400 40.38900
C  -12.87000 33.87700 41.86000
C  -9.82000 33.52400 40.23000
O  -10.01400 32.32600 40.25900
C  -8.56800 34.19800 39.69300
C  -7.43700 33.67900 40.39700
O  -7.15000 33.87300 41.57400
O  -6.59900 32.98400 39.52100
C  -5.22200 32.69000 39.92600
H  -6.64200 40.80100 39.02300
H  -12.58600 42.65300 40.59500
H  -14.04100 36.51900 41.90700
H  -6.14100 35.92600 39.27200
H  -5.83100 38.72000 38.12900
H  -4.33400 39.10400 39.66500
H  -4.71800 37.48000 40.42600
H  -5.55600 38.86100 40.98200
H  -7.92900 36.31900 36.96400
H  -6.60300 35.18100 37.27100
H  -5.63400 36.02700 35.61100
H  -5.47600 37.64700 36.33100
H  -7.63200 44.19700 38.28000
H  -6.62400 42.87000 38.82000
H  -7.04300 44.15400 39.95400
H  -12.45100 44.73100 39.55500
H  -11.89100 45.98200 40.61700
H  -12.00400 44.40400 41.38000
H  -14.83800 40.94800 40.19400
H  -14.83800 39.13100 42.56800
H  -14.94500 41.13900 43.14100
H  -15.95600 41.94200 41.90100
H  -14.37000 42.54500 42.16600
H  -15.46800 38.14800 39.77500
H  -16.58700 39.31500 40.35600
H  -16.72900 36.55600 40.88900
H  -17.75000 37.88600 41.36700
H  -16.43000 37.38000 42.45500
H  -12.90800 33.88900 42.94900
H  -12.59200 32.89200 41.48600
H  -13.88600 34.04900 41.50300
H  -8.37400 33.95400 38.64900
H  -4.72900 33.65500 39.81200
H  -4.85600 31.88700 39.28600
H  -5.10800 32.40600 40.97200

