158

Mg 48.17600 34.31400 26.58100
C  46.31300 32.90100 29.09700
C  48.77400 37.13800 28.56200
C  49.32900 35.94700 23.92900
C  47.31000 31.63400 24.50800
N  47.62600 34.87400 28.52500
C  47.00700 34.07600 29.44900
C  47.22700 34.63600 30.91100
C  47.56900 36.14600 30.65000
C  47.98300 36.05400 29.14200
C  46.43800 37.20100 30.84800
C  48.32400 33.81400 31.57700
C  48.21500 33.82200 33.11300
H  47.04200 34.38400 33.95800
N  48.94600 36.26800 26.34000
C  49.15600 37.22000 27.20200
C  49.95200 38.26900 26.65900
C  50.12800 37.98100 25.29700
C  49.44200 36.67700 25.13000
C  50.31700 39.41200 27.48300
C  50.81200 38.78000 24.22600
O  50.93300 38.41700 23.06100
C  51.50200 40.05200 24.60100
N  48.15700 33.98900 24.44900
C  48.81200 34.71900 23.53300
C  48.97500 34.04500 22.17900
C  48.67400 32.52900 22.53400
C  48.01400 32.69500 23.91200
C  48.17300 34.59000 20.93700
C  49.89500 31.57900 22.50600
C  50.14400 30.78000 21.20400
N  47.08700 32.63100 26.73600
C  46.73400 31.67500 25.74500
C  45.89900 30.69300 26.38900
C  45.66200 31.18200 27.68000
C  46.39600 32.36700 27.76300
C  45.22100 29.55500 25.80000
C  44.95500 30.87400 28.87900
O  44.15000 29.95000 29.18400
C  45.26600 32.07000 29.87000
C  45.84000 31.36000 31.05100
O  46.87300 30.68700 31.04400
O  44.96600 31.41600 32.12400
C  45.31300 30.73400 33.37800
H  49.01200 37.82100 29.37900
H  49.77900 36.47600 23.08700
H  47.18000 30.77300 23.84900
H  46.26400 34.60900 31.42200
H  48.36100 36.41100 31.35000
H  45.65600 36.98200 31.57600
H  45.86000 37.26200 29.92600
H  46.92500 38.15200 31.06300
H  49.33200 34.22200 31.50600
H  48.45900 32.78100 31.25500
H  49.04900 34.30700 33.62000
H  48.12800 32.79800 33.47600
H  49.85000 40.22200 26.92300
H  51.37100 39.60800 27.29100
H  50.06800 39.42700 28.54400
H  51.96300 40.60800 23.78500
H  52.27500 39.92000 25.35800
H  50.71300 40.73500 24.91500
H  50.01200 34.15800 21.86300
H  47.87400 32.16300 21.89000
H  47.12300 34.75800 21.17700
H  48.20200 33.86900 20.12100
H  48.72600 35.48200 20.64400
H  49.73200 30.91000 23.35100
H  50.72800 32.25800 22.68700
H  50.30300 31.41900 20.33600
H  49.30100 30.11100 21.03100
H  51.08300 30.28800 21.45700
H  45.90500 28.73800 26.02900
H  45.09100 29.63100 24.72100
H  44.23800 29.43200 26.25700
H  44.33100 32.61400 30.01000
H  46.30500 30.99400 33.74700
H  45.23400 29.65000 33.29500
H  44.50400 30.93500 34.08000
Mg 42.00500 40.68500 27.32900
C  41.44000 43.30000 29.75600
C  42.67800 38.54000 30.04800
C  42.64900 38.21800 25.27400
C  41.59900 43.02400 24.90600
N  41.88200 40.87500 29.65400
C  41.61800 42.01100 30.35500
C  41.72300 41.71100 31.80000
C  42.32700 40.24700 31.92000
C  42.29100 39.81800 30.45600
C  43.81200 40.28600 32.56200
C  40.38500 41.92500 32.56200
C  40.29800 42.82500 33.75900
H  39.45800 42.15700 35.00000
N  42.59800 38.68700 27.59200
C  42.84200 38.01500 28.77400
C  43.21100 36.65000 28.44500
C  43.18300 36.50100 27.07200
C  42.78300 37.83700 26.60600
C  43.54300 35.60100 29.52200
C  43.34500 35.22600 26.24700
O  43.22900 35.18300 25.02700
C  43.48400 33.97300 26.91800
N  42.08600 40.65600 25.41100
C  42.39100 39.51900 24.69100
C  42.33500 39.68400 23.22400
C  41.67500 41.12500 23.13300
C  41.85900 41.67600 24.55200
C  43.73100 39.55600 22.62600
C  40.26900 41.27000 22.42900
C  39.03500 40.99200 23.31000
N  41.63400 42.73300 27.27300
C  41.43200 43.57600 26.16600
C  41.13800 44.92500 26.55100
C  41.10400 44.85600 27.97900
C  41.42700 43.49700 28.31000
C  40.78700 45.98500 25.60500
C  40.98000 45.60400 29.23600
O  40.79800 46.78600 29.27900
C  41.04700 44.63700 30.42300
C  42.10200 45.09600 31.35600
O  43.30900 44.98200 31.38100
O  41.31200 45.68800 32.33300
C  41.99700 46.19700 33.45500
H  42.84800 37.86500 30.89000
H  42.75000 37.30500 24.68400
H  41.69900 43.72000 24.07000
H  42.41300 42.45700 32.19500
H  41.70800 39.53800 32.46900
H  43.99700 41.21600 33.10000
H  44.42600 40.37600 31.66600
H  44.05000 39.42900 33.19200
H  39.97800 40.99400 32.95600
H  39.67600 42.17000 31.77100
H  39.78500 43.73800 33.45600
H  41.31700 43.07500 34.05500
H  44.62000 35.44200 29.47000
H  43.03600 34.65000 29.36000
H  43.32300 35.95000 30.53100
H  42.63300 33.74500 27.55900
H  44.45500 33.97100 27.41200
H  43.45700 33.27000 26.08500
H  41.61000 38.97000 22.83100
H  42.38300 41.69900 22.53600
H  44.38600 38.97900 23.27900
H  44.13200 40.51800 22.30600
H  43.53200 39.07700 21.66800
H  40.20700 40.70200 21.50000
H  40.22800 42.31100 22.10900
H  38.32000 40.23800 22.98200
H  38.46400 41.91100 23.44600
H  39.35400 40.78700 24.33200
H  40.52800 45.58500 24.62500
H  41.72600 46.53800 25.60300
H  40.07700 46.66600 26.07300
H  40.08900 44.40900 30.89100
H  41.47000 46.99400 33.97900
H  43.05600 46.38700 33.27900
H  41.85900 45.37300 34.15500

