158

Mg 23.64300 -4.95500 45.27400
C  25.84000 -2.56500 44.01500
C  21.20300 -3.84700 43.13000
C  21.97300 -7.92000 45.76600
C  26.21700 -6.18400 47.22200
N  23.57800 -3.37000 43.78500
C  24.60100 -2.60400 43.37200
C  24.08200 -1.64200 42.24000
C  22.48200 -1.75700 42.28200
C  22.36000 -3.04100 43.12400
C  21.66900 -0.54700 42.89700
C  24.64600 -2.05900 40.79300
C  25.18700 -0.87600 39.96100
H  25.48600 -1.14900 38.49900
N  21.77100 -5.73300 44.62700
C  20.94900 -5.12100 43.76800
C  19.70600 -5.85700 43.63300
C  19.84200 -6.96900 44.46200
C  21.26300 -6.96700 45.00300
C  18.52300 -5.30800 42.85100
C  18.79900 -8.05900 44.72100
O  17.72500 -8.00500 44.16500
C  19.06200 -9.22800 45.64000
N  24.11300 -6.80700 46.28900
C  23.17600 -7.76000 46.47700
C  23.73300 -8.93600 47.36800
C  25.11800 -8.48200 47.75300
C  25.18300 -7.11800 47.06500
C  22.81000 -9.55900 48.42300
C  26.29500 -9.43900 47.31400
C  27.34600 -9.58700 48.38000
N  25.58500 -4.35600 45.70800
C  26.51800 -4.97300 46.47700
C  27.74400 -4.22300 46.47500
C  27.54100 -3.22600 45.45600
C  26.23100 -3.40500 44.99100
C  29.01000 -4.64200 47.10300
C  28.06700 -2.11000 44.66300
O  29.14200 -1.54400 44.70200
C  26.99400 -1.63600 43.61300
C  26.85700 -0.21000 43.96900
O  26.45200 0.24900 45.01500
O  27.23700 0.58500 42.86500
C  27.23700 2.00300 43.16500
H  20.37300 -3.44200 42.54800
H  21.54100 -8.92200 45.78700
H  27.10700 -6.49600 47.77300
H  24.32400 -0.59800 42.43700
H  22.12800 -1.98600 41.27600
H  20.77200 -0.44000 42.28700
H  22.12300 0.44400 42.88400
H  21.50500 -0.81500 43.94000
H  23.93700 -2.77700 40.38100
H  25.49600 -2.70500 41.01200
H  26.16800 -0.75500 40.42100
H  24.66900 0.04800 40.21600
H  18.36600 -4.25300 43.07700
H  17.56000 -5.74600 43.11200
H  18.63600 -5.33700 41.76700
H  19.76000 -9.94100 45.20200
H  18.13700 -9.75400 45.87900
H  19.50100 -8.93300 46.59300
H  23.81900 -9.77900 46.68200
H  25.19100 -8.36100 48.83400
H  23.37100 -9.45100 49.35100
H  22.60000 -10.61500 48.25200
H  21.86800 -9.01100 48.43900
H  26.75400 -8.86900 46.50700
H  25.96900 -10.44200 47.03800
H  27.57200 -10.63700 48.56400
H  27.12900 -9.02900 49.29100
H  28.27800 -9.33200 47.87600
H  29.24700 -5.55000 46.54800
H  28.93000 -4.93400 48.15100
H  29.76100 -3.86100 46.98800
H  27.35100 -1.73100 42.58700
H  28.07500 2.20400 43.83200
H  26.32700 2.39900 43.61500
H  27.37000 2.63800 42.28900
Mg 54.46500 23.41800 45.01500
C  51.96200 25.72000 44.12700
C  52.15500 20.85700 44.44100
C  56.98100 21.06400 45.33700
C  56.62900 26.04100 45.47000
N  52.35000 23.33400 44.27700
C  51.51500 24.43000 43.97000
C  50.13100 23.86800 43.44200
C  50.20600 22.31700 43.71700
C  51.64500 22.15200 44.18300
C  49.21700 21.72100 44.63800
C  50.01400 24.22700 41.87200
C  48.61600 24.79200 41.62900
H  48.17300 24.73700 40.15500
N  54.50300 21.23900 44.92400
C  53.39300 20.41700 44.82700
C  53.89900 19.06400 44.88100
C  55.24900 19.11900 45.27500
C  55.65800 20.51200 45.19100
C  52.98300 17.86800 44.63000
C  56.11900 17.85700 45.80800
O  55.48500 16.80300 45.85500
C  57.60600 17.87700 46.35700
N  56.59400 23.55100 45.08200
C  57.36000 22.44800 45.33700
C  58.80500 22.93600 45.46700
C  58.75000 24.47800 45.65600
C  57.22300 24.74100 45.44100
C  59.53200 22.29100 46.71700
C  59.68600 25.31200 44.75000
C  60.76600 26.15500 45.58600
N  54.42000 25.59500 44.78900
C  55.32700 26.49600 45.24000
C  54.71500 27.83500 45.17200
C  53.37500 27.57900 44.74100
C  53.25100 26.20900 44.48100
C  55.38300 29.16300 45.45000
C  52.07200 28.14300 44.47300
O  51.72900 29.30200 44.45500
C  51.18800 26.98400 43.83700
C  50.92500 27.39300 42.40400
O  51.68300 27.12100 41.46100
O  49.88200 28.31900 42.38600
C  49.69000 28.98100 41.07200
H  51.42200 20.05100 44.36800
H  57.79300 20.36100 45.53300
H  57.35500 26.80800 45.74700
H  49.30500 24.29600 44.01000
H  50.12200 21.77000 42.77900
H  49.61000 21.13300 45.46600
H  48.59100 21.14200 43.95900
H  48.44000 22.39900 44.99100
H  50.07400 23.35800 41.21700
H  50.82200 24.92600 41.65400
H  48.56000 25.87200 41.76100
H  47.83800 24.36900 42.26400
H  53.50400 17.09400 44.06800
H  52.11300 18.07200 44.00500
H  52.67400 17.52800 45.61900
H  57.87400 16.83700 46.54700
H  57.64600 18.52900 47.22900
H  58.26000 18.31000 45.60100
H  59.41700 22.70700 44.59400
H  58.91200 24.77800 46.69100
H  58.89000 22.18000 47.59100
H  60.32300 23.01400 46.91500
H  59.98700 21.41500 46.25500
H  59.23900 26.00400 44.03600
H  60.35400 24.64000 44.21200
H  61.18000 25.55900 46.40000
H  60.24100 27.00300 46.02600
H  61.52400 26.47700 44.87300
H  56.31000 29.11500 44.87800
H  55.35900 29.33100 46.52600
H  54.86100 29.97500 44.94500
H  50.20300 26.94800 44.30200
H  49.49100 28.18200 40.35800
H  50.57200 29.59800 40.89500
H  48.77100 29.56300 41.01200

