158

Mg 35.73000 47.89200 25.87100
C  36.21600 46.00200 28.77800
C  34.61100 50.47100 27.68900
C  34.84600 49.30800 22.88100
C  36.74900 44.96000 24.09600
N  35.41600 48.14300 27.97300
C  35.83200 47.32600 29.01700
C  35.62000 47.98600 30.34300
C  34.84700 49.30300 29.99300
C  34.92900 49.31400 28.45000
C  33.41000 49.36100 30.63600
C  37.02500 48.24600 31.00700
C  37.03000 48.69100 32.48400
H  35.66900 48.65100 33.17600
N  34.71600 49.60000 25.36300
C  34.48800 50.58400 26.29500
C  34.11100 51.73200 25.55800
C  33.99500 51.43300 24.19200
C  34.43200 50.01400 24.06400
C  33.86000 53.10800 26.21100
C  33.53600 52.26800 23.00200
O  33.52600 51.83900 21.88000
C  33.27200 53.68400 23.20200
N  35.90600 47.27900 23.85000
C  35.49600 48.07800 22.78800
C  35.63500 47.38200 21.49000
C  36.38900 46.06000 21.84600
C  36.40800 46.10200 23.36000
C  34.28100 47.21600 20.67500
C  37.86100 46.13600 21.36000
C  38.58900 44.83300 21.04500
N  36.27700 45.79900 26.25800
C  36.67800 44.76700 25.45800
C  37.14400 43.64700 26.22600
C  36.86300 44.05600 27.51400
C  36.42400 45.43800 27.48500
C  37.80800 42.28600 25.80500
C  36.86000 43.64200 28.91100
O  37.25600 42.63400 29.46900
C  36.45000 44.94300 29.69500
C  35.24600 44.63200 30.44400
O  34.17500 44.39500 29.97300
O  35.52700 44.67100 31.77000
C  34.51300 44.44400 32.76600
H  34.32500 51.35500 28.26300
H  34.62200 49.69800 21.88600
H  37.18400 44.06100 23.65400
H  35.03000 47.21100 30.83300
H  35.38900 50.16500 30.38200
H  33.12700 48.41200 31.09200
H  32.63700 49.60000 29.90600
H  33.44500 50.08900 31.44600
H  37.44400 49.10500 30.48300
H  37.66900 47.37800 30.86300
H  37.53300 49.64800 32.62000
H  37.58900 47.91100 33.00200
H  33.01600 53.53000 25.66500
H  34.71100 53.78000 26.09300
H  33.60700 53.00100 27.26500
H  34.07000 54.12900 23.79600
H  32.25900 53.77000 23.59500
H  33.09900 54.16200 22.23800
H  36.18000 48.08400 20.85900
H  35.91500 45.14200 21.50000
H  33.59800 47.94000 21.11900
H  33.95700 46.17700 20.61900
H  34.30600 47.62200 19.66400
H  38.54900 46.50000 22.12300
H  38.00800 46.75400 20.47400
H  37.93500 44.02100 20.72900
H  39.14000 44.56700 21.94700
H  39.18900 45.24200 20.23200
H  38.14500 42.25500 24.76900
H  37.11400 41.44700 25.85700
H  38.69800 42.20300 26.42700
H  37.23400 45.12000 30.43100
H  33.55700 44.81800 32.39800
H  34.72600 45.06100 33.63800
H  34.52700 43.38000 33.00200
Mg 9.78600 47.95700 24.49300
C  7.43200 48.23900 27.20800
C  12.22700 49.15600 26.54200
C  11.88400 47.50500 22.05000
C  7.01200 47.56500 22.29600
N  9.72800 48.65500 26.61900
C  8.78200 48.48900 27.60700
C  9.32600 48.98500 29.01000
C  10.77600 49.43800 28.63000
C  10.94700 49.02600 27.14800
C  11.07600 50.95700 28.82000
C  9.24500 48.01100 30.19500
C  8.51700 48.36000 31.49400
H  8.51200 47.28400 32.56300
N  11.84400 48.22200 24.38400
C  12.68700 48.72800 25.30600
C  14.03800 48.64800 24.74400
C  14.00300 48.03800 23.44200
C  12.54100 47.84500 23.22700
C  15.19500 49.03700 25.51400
C  15.01800 47.55800 22.51300
O  14.71100 46.86600 21.54400
C  16.47200 47.94400 22.73400
N  9.43100 47.67400 22.43900
C  10.53100 47.51700 21.64600
C  10.08600 47.08800 20.26400
C  8.46300 47.13300 20.28100
C  8.30000 47.54100 21.74700
C  10.70700 47.94800 19.05500
C  7.84400 45.83700 19.80900
C  8.18100 44.51400 20.61400
N  7.69400 47.84200 24.65500
C  6.71400 47.68800 23.69300
C  5.45800 47.68200 24.32400
C  5.64000 47.95700 25.67400
C  7.05200 48.05900 25.82800
C  4.13600 47.43300 23.64300
C  5.04700 48.08500 27.00500
O  3.86000 47.92000 27.27100
C  6.11700 48.32800 28.02600
C  5.97200 47.27500 29.12300
O  6.38000 46.12900 28.99500
O  5.07600 47.77700 30.02200
C  5.00800 46.84000 31.20900
H  12.93900 49.61600 27.23100
H  12.52300 47.19500 21.22100
H  6.24800 47.39800 21.53400
H  8.74400 49.85500 29.31400
H  11.49400 48.82500 29.17500
H  11.12200 51.48600 27.86800
H  12.06300 51.19500 29.21500
H  10.39600 51.45000 29.51500
H  10.26700 47.65600 30.32700
H  8.65500 47.14700 29.88700
H  7.48300 48.56100 31.21500
H  8.99700 49.20900 31.98000
H  15.09200 49.59700 26.44300
H  15.76000 49.78300 24.95500
H  15.87000 48.20900 25.73300
H  16.49400 49.03100 22.65200
H  17.07300 47.43500 21.98100
H  16.93100 47.58300 23.65500
H  10.52600 46.10600 20.09000
H  8.05000 47.93000 19.66200
H  11.26400 48.79800 19.44800
H  9.84900 48.20700 18.43500
H  11.50300 47.36600 18.59100
H  8.16800 45.89500 18.76900
H  6.77300 46.03400 19.84800
H  7.26100 44.09400 21.02200
H  8.75700 44.81900 21.48800
H  8.81600 43.78200 20.11600
H  3.76500 48.39200 23.28100
H  3.52000 47.08600 24.47300
H  4.14200 46.70200 22.83400
H  6.10300 49.33100 28.45400
H  5.64500 45.96300 31.09600
H  3.96600 46.56600 31.37400
H  5.41600 47.35100 32.08100

