158

Mg -2.33600 17.72200 26.26400
C  -2.70400 15.42200 28.89600
C  -2.31200 20.17700 28.60100
C  -2.26300 20.01800 23.69200
C  -2.09100 15.16700 23.96600
N  -2.45100 17.80800 28.51700
C  -2.65000 16.72400 29.34100
C  -2.66800 17.21200 30.88500
C  -2.62200 18.77400 30.72300
C  -2.45400 18.95900 29.21400
C  -3.89900 19.52500 31.28000
C  -1.49400 16.55800 31.73300
C  -1.07600 17.24100 33.00500
H  -0.96300 16.50300 34.35200
N  -2.30000 19.76000 26.11700
C  -2.29000 20.59000 27.18200
C  -2.31300 21.98900 26.75900
C  -2.23300 21.97600 25.35500
C  -2.25400 20.54900 24.98900
C  -2.52900 23.11600 27.67100
C  -2.00600 23.16200 24.35300
O  -1.87600 22.93900 23.15100
C  -1.92500 24.59100 24.85900
N  -2.32400 17.61400 24.16000
C  -2.40700 18.68200 23.34900
C  -2.45200 18.25600 21.89800
C  -2.19400 16.76000 21.94900
C  -2.12900 16.46900 23.43200
C  -3.88300 18.53700 21.33100
C  -0.93800 16.35000 21.23700
C  0.42200 16.69400 21.79100
N  -2.56300 15.67000 26.30600
C  -2.41000 14.73800 25.26500
C  -2.42700 13.46400 25.84000
C  -2.59800 13.65000 27.23000
C  -2.56600 15.03000 27.50800
C  -2.34800 12.13300 25.02200
C  -2.73800 12.92300 28.44900
O  -2.78600 11.68800 28.54500
C  -2.79100 14.07500 29.57100
C  -1.57600 13.73100 30.32800
O  -0.44200 13.95400 30.00400
O  -1.82700 13.03200 31.47000
C  -0.72300 12.71100 32.37900
H  -2.13200 20.98800 29.30900
H  -2.22100 20.67500 22.82000
H  -2.08400 14.41000 23.17900
H  -3.64000 16.92200 31.28400
H  -1.79300 19.32600 31.16600
H  -3.56800 20.43400 31.78300
H  -4.47500 18.81000 31.86700
H  -4.48400 19.93700 30.45700
H  -0.61500 16.25500 31.16400
H  -2.02800 15.72400 32.18800
H  -1.72200 18.05900 33.32500
H  -0.15200 17.77900 32.79500
H  -1.65800 23.77100 27.65900
H  -2.74100 22.77900 28.68500
H  -3.37100 23.71200 27.31700
H  -1.07900 24.60800 25.54600
H  -2.88900 24.80900 25.31800
H  -1.66800 25.28900 24.06100
H  -1.70600 18.88200 21.40900
H  -3.00500 16.10800 21.62300
H  -4.31700 17.65300 20.86300
H  -3.88200 19.30400 20.55700
H  -4.66400 18.92600 21.98500
H  -0.94900 16.69100 20.20100
H  -1.07500 15.26900 21.19100
H  1.00700 17.00500 20.92400
H  0.91200 15.76800 22.09000
H  0.47500 17.54900 22.46500
H  -2.61100 12.30200 23.97800
H  -2.97900 11.36200 25.46500
H  -1.32100 11.79700 24.87800
H  -3.68500 13.87700 30.16300
H  -1.12900 12.24800 33.27800
H  -0.35800 13.69100 32.68700
H  -0.00800 11.98800 31.98600
Mg 17.30200 -2.02700 28.60400
C  16.40100 0.25100 30.98900
C  19.29900 -3.60700 30.91800
C  18.48500 -4.09200 26.09400
C  15.80900 -0.09700 26.17900
N  17.94600 -1.66600 30.65600
C  17.22700 -0.76100 31.49900
C  17.69100 -0.86700 32.94400
C  18.90200 -1.85400 32.81600
C  18.70500 -2.41400 31.37500
C  20.32700 -1.35500 33.10100
C  16.45600 -1.33900 33.78100
C  16.24100 -0.68200 35.11900
H  17.54300 -0.29700 35.85500
N  18.54300 -3.72500 28.59600
C  19.27800 -4.24600 29.65800
C  20.02100 -5.48000 29.23800
C  19.66600 -5.58200 27.81900
C  18.88600 -4.42600 27.46000
C  20.79400 -6.38800 30.10000
C  20.08000 -6.68100 26.80700
O  19.65800 -6.71300 25.68000
C  20.96000 -7.82900 27.41700
N  16.90500 -2.27800 26.46400
C  17.64800 -3.09200 25.65300
C  17.35500 -2.65600 24.20800
C  16.40100 -1.44900 24.26300
C  16.39900 -1.27300 25.73100
C  18.71600 -2.14800 23.49900
C  14.92400 -1.79400 23.64000
C  13.88500 -2.38900 24.63600
N  16.32200 -0.29100 28.53300
C  15.69500 0.29800 27.48700
C  14.97700 1.51700 27.95100
C  15.23500 1.53600 29.30600
C  16.05000 0.38900 29.61200
C  14.21300 2.42700 27.08900
C  14.99500 2.22300 30.59400
O  14.32600 3.20000 30.85400
C  15.80500 1.45800 31.69500
C  16.54100 2.44000 32.61800
O  17.38500 3.17100 32.19600
O  16.01200 2.46200 33.87700
C  16.59100 3.58200 34.64500
H  19.96300 -4.16500 31.58200
H  18.93700 -4.61600 25.24900
H  15.35100 0.48400 25.37600
H  18.01400 0.11200 33.30000
H  18.76300 -2.63700 33.56100
H  20.60100 -2.01400 33.92500
H  20.22900 -0.33000 33.45700
H  21.00500 -1.38500 32.24800
H  16.69800 -2.38800 33.95100
H  15.49300 -1.32400 33.27100
H  15.81900 -1.47300 35.73900
H  15.49100 0.10800 35.08500
H  21.76200 -6.47200 29.60500
H  20.19400 -7.27800 30.29000
H  21.08900 -6.03200 31.08700
H  21.90800 -7.33900 27.63900
H  21.07900 -8.57700 26.63200
H  20.70900 -8.26900 28.38200
H  17.05600 -3.49300 23.57800
H  16.82100 -0.59300 23.73500
H  19.49000 -1.94200 24.23800
H  18.53800 -1.22100 22.95500
H  19.25600 -2.91300 22.94100
H  14.94700 -2.63500 22.94800
H  14.40000 -0.96200 23.16900
H  13.13200 -1.61000 24.75700
H  14.34500 -2.65200 25.58900
H  13.41000 -3.31500 24.31100
H  13.78900 1.86100 26.26000
H  14.80900 3.18200 26.57600
H  13.49000 2.99900 27.67100
H  15.05400 1.06800 32.38200
H  16.78500 4.47900 34.05600
H  17.48300 3.22800 35.16200
H  15.87200 3.75800 35.44400

