158

Mg 35.58100 2.40700 30.14900
C  33.04900 3.14800 32.34100
C  37.86200 2.73700 32.65900
C  37.95100 1.83100 27.80300
C  33.22600 2.55600 27.45000
N  35.46600 2.93500 32.22800
C  34.32600 2.96200 32.94300
C  34.50700 2.93100 34.47700
C  36.06700 3.22500 34.49700
C  36.55700 2.94600 33.06500
C  36.39200 4.65600 34.87200
C  33.98400 1.66700 35.26500
C  33.60700 1.89200 36.79800
H  34.40700 2.93300 37.66400
N  37.59200 2.24900 30.29500
C  38.35100 2.45400 31.43300
C  39.77100 2.21300 31.06200
C  39.79200 1.80900 29.70900
C  38.40200 1.96100 29.22900
C  40.91400 2.19000 32.06900
C  40.94300 1.43700 28.74200
O  40.77400 0.90800 27.59400
C  42.38100 1.49200 29.18400
N  35.62400 2.39500 27.86700
C  36.76600 1.99800 27.23000
C  36.44900 1.69000 25.74700
C  34.96400 2.01700 25.65300
C  34.53800 2.42600 27.06300
C  37.35600 2.38300 24.74300
C  34.08500 0.88900 24.96500
C  33.58700 -0.27400 25.83600
N  33.50000 2.67900 29.91100
C  32.70100 2.73700 28.72600
C  31.31500 3.01600 29.15800
C  31.39800 3.25500 30.56100
C  32.73600 2.98800 30.94800
C  30.09400 3.23000 28.29700
C  30.73100 3.64800 31.79300
O  29.58100 4.06800 31.95200
C  31.74900 3.38400 33.01700
C  31.73500 4.62200 33.84700
O  32.35800 5.70900 33.69600
O  30.85100 4.40400 34.87200
C  31.06400 5.15900 36.13700
H  38.65900 2.93100 33.37900
H  38.67600 1.61300 27.01600
H  32.44400 2.48500 26.69100
H  33.98600 3.79800 34.88300
H  36.70500 2.61100 35.13300
H  37.16500 4.80900 35.62500
H  35.49600 5.17000 35.22100
H  36.61600 5.26000 33.99300
H  34.73000 0.87500 35.32500
H  33.14200 1.28300 34.68800
H  33.83300 0.94700 37.29300
H  32.53600 2.09500 36.79600
H  40.53400 2.17400 33.09100
H  41.57900 3.04100 31.92200
H  41.63100 1.37200 32.00500
H  42.97100 1.63300 28.27800
H  42.55800 0.52300 29.65100
H  42.55100 2.33800 29.85000
H  36.59300 0.61600 25.63600
H  34.87000 2.95700 25.11000
H  36.83500 2.94100 23.96400
H  37.98800 1.66300 24.22400
H  37.97500 3.03100 25.36300
H  34.67100 0.50100 24.13100
H  33.21000 1.32900 24.48500
H  34.05500 -1.15100 25.39000
H  32.49800 -0.31200 25.84600
H  33.91300 -0.14300 26.86800
H  29.17400 2.76800 28.65500
H  30.18000 2.72800 27.33400
H  30.01200 4.28900 28.05000
H  31.38300 2.59300 33.67200
H  30.82200 6.21900 36.06000
H  32.04400 4.92500 36.55400
H  30.38400 4.76000 36.89000
Mg -9.23900 39.87800 39.89300
C  -8.24300 36.77400 38.67700
C  -6.20100 41.07000 38.98700
C  -10.60900 42.88400 40.00600
C  -12.50000 38.42300 40.30700
N  -7.50700 38.95700 38.66600
C  -7.19600 37.66200 38.62300
C  -5.78200 37.38100 38.03900
C  -5.12800 38.70100 38.55000
C  -6.35800 39.69700 38.78000
C  -4.11200 38.60800 39.66200
C  -5.96800 37.25700 36.43300
C  -5.41300 36.01700 35.62200
H  -6.37100 35.51700 34.55000
N  -8.46800 41.75300 39.66700
C  -7.19000 42.01600 39.32200
C  -7.04700 43.50700 39.19200
C  -8.27000 44.06800 39.62500
C  -9.24200 42.87600 39.79700
C  -5.85700 44.13200 38.60000
C  -8.48800 45.51100 39.74800
O  -7.56100 46.27800 39.51000
C  -9.80300 46.19400 40.26500
N  -11.31600 40.61700 40.04900
C  -11.61500 41.89500 40.08200
C  -13.16800 42.03900 40.24200
C  -13.70400 40.60300 40.45600
C  -12.38600 39.80600 40.25400
C  -13.73000 42.93000 41.36700
C  -14.92800 40.18400 39.61200
C  -16.06100 39.50200 40.41900
N  -10.17600 38.06300 39.68500
C  -11.46100 37.64000 39.90100
C  -11.52800 36.21900 39.71100
C  -10.31300 35.82700 39.22800
C  -9.60300 36.97800 39.12700
C  -12.77100 35.33400 39.89600
C  -9.53800 34.74300 38.78100
O  -9.78900 33.53000 38.70900
C  -8.17100 35.34000 38.45800
C  -7.20900 34.75700 39.40000
O  -6.91600 35.32200 40.41600
O  -6.57000 33.60700 38.95300
C  -5.38300 33.25300 39.72100
H  -5.19900 41.45400 38.79000
H  -11.07600 43.86300 40.13100
H  -13.54500 38.12500 40.41900
H  -5.57800 36.41900 38.50900
H  -4.64600 39.20000 37.71000
H  -4.51500 38.93200 40.62100
H  -3.24900 39.22600 39.41100
H  -3.73900 37.59200 39.79100
H  -5.63800 38.19300 35.98100
H  -7.04100 37.21800 36.24600
H  -5.04700 35.15300 36.17600
H  -4.51000 36.36300 35.11800
H  -6.01100 44.67600 37.66800
H  -5.12800 43.32300 38.55600
H  -5.45600 44.80000 39.36200
H  -10.70600 45.87100 39.74700
H  -9.65200 47.26400 40.12100
H  -9.81900 45.92800 41.32200
H  -13.53000 42.32600 39.25500
H  -13.92200 40.37600 41.49900
H  -12.96400 43.67200 41.59100
H  -14.09200 42.42700 42.26400
H  -14.56100 43.48100 40.92600
H  -14.57200 39.44000 38.89900
H  -15.23300 41.07000 39.05500
H  -16.26100 38.52800 39.97300
H  -16.98700 39.98400 40.10500
H  -16.06700 39.47400 41.50900
H  -13.09500 35.35700 40.93700
H  -12.53000 34.30200 39.64200
H  -13.68600 35.70500 39.43300
H  -7.90100 35.04400 37.44400
H  -5.65800 32.81500 40.68000
H  -4.70900 34.10200 39.83800
H  -4.72000 32.55400 39.21000

