158

Mg 48.06600 24.90500 28.36800
C  48.74800 27.18500 30.98500
C  47.26500 22.71400 30.88300
C  47.56900 22.81200 26.00100
C  48.95700 27.41900 26.08900
N  47.94400 24.98400 30.68700
C  48.11100 26.03500 31.49900
C  47.80200 25.73200 32.95500
C  47.50800 24.19000 32.97900
C  47.61500 23.93100 31.41400
C  48.47800 23.26900 33.86600
C  46.61600 26.67700 33.30500
C  46.01600 26.61000 34.73100
H  46.21200 27.81300 35.70900
N  47.46600 23.02000 28.41100
C  47.13900 22.25600 29.51100
C  46.67900 20.97600 29.04200
C  46.56400 21.09800 27.65100
C  47.20300 22.33600 27.27400
C  46.27700 19.86000 30.04700
C  46.06400 20.10200 26.60200
O  46.09600 20.34700 25.39900
C  45.31000 18.82900 26.89000
N  48.18300 25.15500 26.34300
C  47.89200 24.09600 25.56500
C  48.17600 24.39500 24.08200
C  48.51900 25.93800 24.06700
C  48.54700 26.15000 25.60000
C  49.39100 23.63300 23.47300
C  47.58700 26.88100 23.26300
C  48.06700 27.20100 21.87500
N  48.80100 26.85500 28.47600
C  49.05200 27.75800 27.42900
C  49.55500 28.94800 27.93500
C  49.39700 28.78500 29.33600
C  48.91800 27.48400 29.60100
C  50.22000 30.10400 27.16800
C  49.76500 29.47200 30.55400
O  50.35500 30.47400 30.75600
C  49.26700 28.43900 31.67600
C  50.40200 28.19600 32.57000
O  51.18900 27.27400 32.47100
O  50.38600 29.13400 33.54000
C  51.19200 28.77800 34.74400
H  46.92300 21.98300 31.61900
H  47.55300 22.12600 25.15100
H  49.20900 28.26000 25.43900
H  48.65400 25.86200 33.62200
H  46.49300 23.96200 33.30500
H  49.34900 23.83800 34.19300
H  48.75300 22.31400 33.41800
H  47.87400 23.07000 34.75200
H  45.75000 26.48600 32.67300
H  47.00300 27.69600 33.27700
H  46.34400 25.68200 35.19900
H  44.93500 26.48400 34.67100
H  46.49300 18.87400 29.63500
H  45.22600 19.89000 30.33500
H  46.96300 19.86400 30.89400
H  46.06500 18.25000 27.42200
H  45.04600 18.35300 25.94600
H  44.52100 19.03000 27.61500
H  47.27900 24.29600 23.47100
H  49.56500 26.17300 23.87000
H  50.17600 24.16400 22.93400
H  48.98100 22.82700 22.86400
H  49.91300 23.20100 24.32700
H  47.33900 27.78700 23.81500
H  46.64500 26.34700 23.13900
H  49.09600 26.84500 21.81700
H  48.01100 28.25100 21.59000
H  47.47600 26.67600 21.12500
H  51.16300 30.32200 27.66900
H  49.64500 31.02400 27.27400
H  50.40400 29.89600 26.11400
H  48.44400 28.98000 32.14300
H  51.38300 29.60300 35.43100
H  52.17900 28.39100 34.49200
H  50.66000 27.98500 35.27100
Mg -1.37800 34.69900 27.24100
C  -3.10300 32.58500 29.54300
C  0.06100 36.25900 29.91600
C  -0.13400 36.77800 25.09700
C  -3.08700 33.00600 24.66600
N  -1.45100 34.42900 29.45100
C  -2.29600 33.54500 30.14100
C  -2.02600 33.73100 31.67600
C  -1.38400 35.12800 31.73600
C  -0.88700 35.29800 30.31200
C  -2.33300 36.23800 32.25700
C  -1.21900 32.58900 32.43700
C  -2.02400 31.74200 33.48200
H  -1.33100 31.61600 34.87400
N  -0.15800 36.26000 27.48300
C  0.40500 36.80500 28.63300
C  1.35000 37.77100 28.31300
C  1.30300 37.93000 26.88800
C  0.23600 36.99600 26.42100
C  2.12300 38.53500 29.39600
C  2.14900 38.88400 25.95000
O  2.07900 39.02300 24.72000
C  3.24800 39.65300 26.64500
N  -1.62200 34.93000 25.20500
C  -0.94600 35.89500 24.50700
C  -1.14300 35.80500 23.00000
C  -2.20400 34.60500 22.87600
C  -2.28300 34.10200 24.35600
C  -1.41700 37.14800 22.32400
C  -1.70800 33.41300 21.95000
C  -2.65600 33.13800 20.77200
N  -2.83400 33.18000 27.08800
C  -3.38400 32.55800 25.96200
C  -4.12500 31.35100 26.39100
C  -4.05200 31.33500 27.80700
C  -3.28700 32.52900 28.17000
C  -4.72900 30.36800 25.49200
C  -4.45600 30.64200 28.95400
O  -5.17000 29.66200 29.05300
C  -3.83700 31.44700 30.17100
C  -4.93900 31.87500 31.06300
O  -5.52800 32.97300 31.01500
O  -5.27500 30.96600 32.00800
C  -6.30000 31.31800 33.02200
H  0.60900 36.62500 30.78700
H  0.38800 37.37000 24.34200
H  -3.63400 32.46300 23.89300
H  -3.02300 33.67500 32.11400
H  -0.47000 35.28900 32.30800
H  -3.22100 36.24000 31.62400
H  -1.82200 37.20100 32.25000
H  -2.67000 36.00100 33.26600
H  -0.28800 32.92900 32.89100
H  -0.91800 31.81200 31.73400
H  -2.28700 30.72100 33.20300
H  -2.96900 32.23800 33.70600
H  1.62000 39.48700 29.56700
H  3.18700 38.69200 29.22200
H  1.97000 37.97600 30.31900
H  4.01700 39.19300 27.26600
H  2.76600 40.42200 27.24800
H  3.71500 40.30800 25.90900
H  -0.22400 35.42900 22.55000
H  -3.19200 34.93100 22.55100
H  -1.75000 37.82000 23.11500
H  -2.25500 37.12100 21.62800
H  -0.46000 37.49800 21.93800
H  -1.53100 32.46200 22.45100
H  -0.72100 33.72800 21.61100
H  -2.07900 33.51100 19.92500
H  -3.58300 33.70200 20.87000
H  -2.73000 32.07300 20.55600
H  -5.65200 30.69600 25.01400
H  -4.77600 29.34300 25.86100
H  -3.93100 30.30500 24.75200
H  -3.15900 30.79900 30.72600
H  -5.93300 32.11200 33.67100
H  -6.47800 30.46400 33.67600
H  -7.30600 31.58000 32.69500

