158

Mg 8.20300 3.08700 27.05800
C  9.37300 1.56800 29.96800
C  5.77100 4.65900 28.93600
C  7.03200 4.54900 24.23600
C  10.42000 1.15400 25.09200
N  7.46900 2.83800 29.19900
C  8.23600 2.32400 30.20300
C  7.73200 2.85500 31.55200
C  6.32800 3.50600 31.14700
C  6.48800 3.66500 29.67100
C  5.01900 2.78500 31.52800
C  8.82600 3.87200 32.12400
C  8.67500 4.37100 33.59400
H  9.79500 3.92400 34.53700
N  6.61600 4.40700 26.63800
C  5.78700 4.96800 27.54500
C  4.95300 6.05700 26.88100
C  5.36100 6.04000 25.52400
C  6.33800 4.92600 25.39800
C  3.99800 6.98200 27.63700
C  4.86900 6.81800 24.39100
O  5.02100 6.61900 23.19000
C  3.99500 8.08500 24.66600
N  8.60600 2.77700 24.94300
C  8.02500 3.58600 23.99800
C  8.79700 3.41400 22.62800
C  9.79900 2.33200 22.99400
C  9.67900 2.15100 24.45300
C  7.75900 3.14500 21.54100
C  11.30600 2.76100 22.68900
C  11.98100 3.69100 23.68300
N  9.58500 1.57900 27.37500
C  10.42800 0.93700 26.46100
C  11.30900 0.06700 27.22700
C  10.96700 0.34000 28.58500
C  9.85800 1.20800 28.65100
C  12.44700 -0.89300 26.62800
C  11.34200 -0.02500 29.95400
O  12.07200 -0.85400 30.45900
C  10.38500 0.90000 30.90400
C  9.76900 0.16500 32.05900
O  8.77500 -0.56700 32.07200
O  10.66600 0.25400 33.09200
C  10.14600 -0.14700 34.37900
H  5.05200 5.24100 29.51700
H  6.91000 5.21500 23.37900
H  11.06000 0.53400 24.46000
H  7.63800 1.97200 32.18500
H  6.24200 4.53500 31.49500
H  5.27300 1.82700 31.98200
H  4.36900 2.58600 30.67600
H  4.38700 3.24700 32.28600
H  8.67800 4.71800 31.45300
H  9.85000 3.60000 31.87200
H  7.66000 4.12100 33.90100
H  8.68400 5.45900 33.65800
H  4.44800 7.96500 27.77400
H  3.75200 6.47100 28.56800
H  3.10600 7.16700 27.03900
H  2.95900 7.83700 24.89700
H  4.07200 8.58700 23.70100
H  4.40500 8.56100 25.55700
H  9.33000 4.31400 22.32300
H  9.47700 1.45200 22.43600
H  8.22000 2.49200 20.80000
H  7.36800 4.09500 21.17500
H  6.93900 2.55900 21.95700
H  11.41300 3.15400 21.67900
H  11.82300 1.80500 22.60300
H  11.37200 4.06000 24.50900
H  12.15300 4.60100 23.10800
H  12.95000 3.30500 24.00100
H  13.29700 -0.88500 27.31100
H  12.73000 -0.44300 25.67600
H  12.00900 -1.86700 26.41100
H  11.10500 1.66600 31.19000
H  9.66000 -1.11200 34.23700
H  9.45800 0.60300 34.76700
H  10.94800 -0.24300 35.11200
Mg 41.54200 40.65600 27.68500
C  40.87200 43.28800 29.84200
C  42.72200 38.71700 30.36300
C  42.31300 38.20200 25.50400
C  40.74000 42.70800 24.98900
N  41.78900 41.02500 29.80900
C  41.36600 42.16700 30.51600
C  41.40700 41.90500 32.01900
C  42.34000 40.61400 32.15800
C  42.29000 40.02700 30.66400
C  43.75900 40.82200 32.54900
C  39.93400 41.84100 32.57100
C  39.39600 42.88600 33.64800
H  38.97900 42.29200 35.00800
N  42.30900 38.74200 27.86500
C  42.73600 38.14600 29.07300
C  43.32200 36.83400 28.70900
C  43.06300 36.58000 27.31300
C  42.59900 37.89400 26.80400
C  43.90300 35.94900 29.75100
C  43.35700 35.35000 26.57800
O  42.99100 35.07600 25.40000
C  43.98000 34.15300 27.24400
N  41.48400 40.51300 25.55300
C  41.81700 39.33100 24.88700
C  41.60100 39.45400 23.31200
C  41.02600 40.82100 23.22100
C  41.05000 41.38400 24.65000
C  42.92100 39.23500 22.54000
C  39.62000 40.89100 22.55000
C  38.48000 40.33500 23.42500
N  41.00300 42.58400 27.39200
C  40.77200 43.33500 26.25500
C  40.40300 44.74000 26.58100
C  40.41900 44.72800 28.01700
C  40.79500 43.37000 28.44100
C  40.09200 45.77900 25.55000
C  40.23000 45.54400 29.17300
O  39.89300 46.72800 29.30500
C  40.47700 44.58700 30.42900
C  41.51800 45.21600 31.22000
O  42.70000 45.17000 30.93500
O  40.98400 45.69700 32.38600
C  41.99800 46.18700 33.34900
H  43.17500 38.15600 31.18300
H  42.52000 37.36300 24.83600
H  40.43900 43.39800 24.19800
H  41.85000 42.74700 32.55100
H  41.89300 39.79100 32.71700
H  44.04000 41.84900 32.31900
H  44.34400 40.07300 32.01500
H  43.90900 40.60300 33.60600
H  39.75600 40.86300 33.01800
H  39.34100 41.77700 31.65900
H  38.50900 43.38400 33.25800
H  40.18000 43.62800 33.79700
H  43.36900 35.04900 30.05700
H  44.35400 36.40200 30.63300
H  44.72700 35.38300 29.31600
H  43.38300 33.82700 28.09600
H  44.99800 34.41800 27.52900
H  44.03700 33.38100 26.47700
H  40.83800 38.71000 23.08100
H  41.66100 41.48500 22.63400
H  43.68900 39.86100 22.99400
H  42.76100 39.54300 21.50600
H  43.23900 38.19300 22.49200
H  39.69500 40.28500 21.64700
H  39.37200 41.92600 22.31900
H  37.69900 41.06000 23.65300
H  38.74200 39.78500 24.32800
H  37.98300 39.59400 22.79800
H  40.15900 46.78300 25.96800
H  39.06600 45.76700 25.18000
H  40.75500 45.59200 24.70500
H  39.58900 44.42800 31.04100
H  42.45100 45.34400 33.87200
H  41.64500 46.85700 34.13200
H  42.77900 46.78100 32.87500

