158

Mg 7.75600 2.17600 28.13800
C  9.42600 0.97700 30.99400
C  5.89100 4.13300 30.12500
C  5.98600 2.97300 25.45100
C  9.66500 0.03900 26.21000
N  7.62500 2.37700 30.37600
C  8.50600 1.97800 31.30600
C  8.25500 2.78100 32.66400
C  7.03700 3.66500 32.29000
C  6.79000 3.35900 30.84400
C  5.76400 3.29700 33.17300
C  9.53100 3.62500 33.12500
C  10.14400 3.41800 34.52400
H  9.80900 4.50600 35.58200
N  6.26600 3.53300 27.86400
C  5.62100 4.26800 28.76300
C  4.51000 5.08000 28.12900
C  4.52900 4.64400 26.75100
C  5.61700 3.67900 26.65600
C  3.65100 6.03500 28.96000
C  3.66200 5.17000 25.59100
O  3.69800 4.79700 24.41500
C  2.75200 6.27700 26.00800
N  7.79100 1.59000 26.09000
C  7.00200 2.08800 25.13600
C  7.14800 1.43900 23.78300
C  8.45900 0.61200 24.00900
C  8.69100 0.73900 25.57700
C  6.00600 0.57000 23.34400
C  9.69200 1.26500 23.24300
C  9.99700 0.80900 21.81700
N  9.18800 0.72600 28.46800
C  9.89900 -0.02500 27.60000
C  10.75800 -0.96400 28.24200
C  10.62200 -0.48900 29.57900
C  9.65200 0.47400 29.66100
C  11.48400 -2.02400 27.54900
C  11.09200 -0.80200 30.86900
O  11.85300 -1.70100 31.25300
C  10.47300 0.23100 31.81400
C  10.01800 -0.41800 33.09900
O  8.88900 -0.82000 33.33200
O  10.98700 -0.15200 34.11100
C  10.49000 -0.42800 35.47800
H  5.37700 4.79400 30.82600
H  5.25600 3.03700 24.64100
H  10.11300 -0.61900 25.46300
H  8.03400 1.95800 33.34400
H  7.27800 4.70500 32.51200
H  6.10300 2.63400 33.96800
H  4.89600 2.88600 32.65600
H  5.39600 4.21900 33.62200
H  9.40900 4.68400 32.90100
H  10.21500 3.29800 32.34200
H  11.23200 3.35200 34.52400
H  9.82800 2.45600 34.92700
H  3.80300 5.91700 30.03300
H  2.60800 5.80400 28.73900
H  3.84500 7.08000 28.72000
H  3.22300 7.04100 26.62600
H  1.88900 5.85700 26.52400
H  2.34300 6.67400 25.07900
H  7.28200 2.31500 23.14700
H  8.27000 -0.42900 23.74700
H  5.73100 0.98100 22.37200
H  5.17700 0.62600 24.04900
H  6.16600 -0.50200 23.22900
H  10.55900 1.13400 23.88900
H  9.56000 2.34300 23.16100
H  9.34700 0.06600 21.35500
H  11.04100 0.49600 21.81200
H  9.82500 1.67700 21.18100
H  10.77400 -2.84700 27.45900
H  12.46100 -2.24400 27.97800
H  11.61400 -1.76400 26.49800
H  11.25300 0.92600 32.12500
H  9.83500 0.38700 35.78500
H  11.36400 -0.51000 36.12400
H  9.92500 -1.36100 35.47700
Mg 43.08700 42.36900 27.18900
C  42.19000 44.58900 29.66200
C  43.92200 40.01200 29.48200
C  44.54500 40.49900 24.80600
C  42.75500 45.05600 24.89500
N  43.13900 42.38100 29.25300
C  42.51100 43.29000 30.06200
C  42.49100 42.85500 31.58500
C  43.17600 41.46100 31.49600
C  43.39400 41.22000 29.97900
C  44.47800 41.22200 32.31400
C  41.02700 42.81600 32.12200
C  40.74900 43.72800 33.34200
H  40.48000 43.06200 34.71500
N  43.93500 40.50500 27.17300
C  44.21800 39.67000 28.21800
C  44.95900 38.48700 27.76900
C  45.05800 38.59500 26.31200
C  44.49200 39.89800 26.03900
C  45.47900 37.40900 28.64900
C  45.63500 37.59500 25.36100
O  45.87100 37.79300 24.19100
C  45.80900 36.20600 25.86500
N  43.45400 42.69500 25.16600
C  44.13000 41.76900 24.41600
C  44.02600 42.17000 22.93400
C  43.50700 43.63500 22.99800
C  43.15400 43.84300 24.40100
C  45.39100 42.02800 22.10100
C  42.55000 44.10400 21.93800
C  41.07100 44.31100 22.30800
N  42.55800 44.44600 27.19500
C  42.44800 45.37800 26.23200
C  41.91100 46.60100 26.77200
C  41.83300 46.32800 28.14700
C  42.25100 44.96700 28.32700
C  41.46100 47.88000 26.01900
C  41.64200 46.95700 29.43800
O  41.38800 48.09400 29.78300
C  41.73400 45.75300 30.52200
C  42.70000 46.13000 31.56900
O  43.93900 46.17700 31.51200
O  42.02600 46.48600 32.66300
C  42.79500 47.05200 33.78200
H  44.15800 39.20600 30.18000
H  45.11700 39.98400 24.03100
H  42.60500 45.86500 24.17600
H  42.99300 43.65400 32.13200
H  42.50200 40.68500 31.86000
H  44.64200 42.18000 32.80800
H  45.30600 40.94200 31.66300
H  44.42800 40.32200 32.92700
H  40.77900 41.78300 32.36700
H  40.39300 43.01500 31.25800
H  39.93600 44.41000 33.09400
H  41.61400 44.33100 33.61700
H  45.46400 37.58700 29.72400
H  46.51100 37.39100 28.29900
H  45.09000 36.40000 28.51400
H  46.06000 35.49200 25.08000
H  44.83700 35.87900 26.23400
H  46.58400 36.26300 26.63000
H  43.31500 41.61000 22.32600
H  44.36400 44.29800 22.88700
H  46.14700 41.89700 22.87600
H  45.66900 42.87500 21.47400
H  45.55100 41.21500 21.39200
H  42.54100 43.38700 21.11600
H  42.95600 45.02300 21.51500
H  40.92500 43.96400 23.33000
H  40.36500 43.83300 21.62900
H  40.78700 45.36200 22.24800
H  41.48100 47.80200 24.93200
H  42.05500 48.76700 26.23900
H  40.44100 48.08600 26.34500
H  40.75400 45.60300 30.97300
H  43.12600 48.05900 33.52500
H  43.66400 46.45700 34.06000
H  42.21100 47.04400 34.70200

