158

Mg 17.26700 -1.29400 27.76900
C  16.12100 0.66500 30.46400
C  19.42200 -2.75000 29.82700
C  18.66600 -2.71100 24.98000
C  15.20600 0.70400 25.66600
N  17.75300 -1.01100 29.93500
C  17.04000 -0.27300 30.86400
C  17.38200 -0.73000 32.27200
C  18.55400 -1.71300 32.01600
C  18.59700 -1.83900 30.47800
C  19.91700 -1.34000 32.75900
C  16.15300 -1.34100 33.09200
C  16.14300 -0.73100 34.54600
H  17.45700 -0.28600 35.26400
N  18.88300 -2.65800 27.47400
C  19.57600 -3.21300 28.51300
C  20.32700 -4.33300 27.94800
C  20.17000 -4.31400 26.56300
C  19.20100 -3.17300 26.28500
C  21.16200 -5.24900 28.88700
C  20.78000 -5.22400 25.50300
O  20.52800 -5.12800 24.29600
C  21.76200 -6.29200 25.86000
N  16.96500 -1.07400 25.67800
C  17.66200 -1.77100 24.69700
C  17.24300 -1.29700 23.29600
C  16.14700 -0.30300 23.53300
C  15.99100 -0.26400 25.05900
C  18.54000 -0.94600 22.45100
C  14.75300 -0.45200 22.81300
C  14.68400 0.26600 21.46000
N  15.87700 0.31200 27.93100
C  15.14900 0.98900 27.03500
C  14.28700 1.92800 27.69600
C  14.66100 1.86200 29.00600
C  15.66100 0.88800 29.14300
C  13.29000 2.83200 27.01400
C  14.41700 2.38400 30.33500
O  13.61500 3.20300 30.71000
C  15.31300 1.57700 31.33900
C  16.18400 2.55000 32.17300
O  17.15300 3.14800 31.84900
O  15.61400 2.56900 33.41600
C  16.27300 3.38300 34.40300
H  20.11400 -3.35400 30.41700
H  19.18900 -3.09500 24.10200
H  14.59200 1.29500 24.98400
H  17.72500 0.11700 32.86600
H  18.27900 -2.73000 32.29500
H  20.12000 -2.19800 33.39900
H  19.93200 -0.45600 33.39600
H  20.69200 -1.14000 32.01900
H  16.30100 -2.42000 33.03900
H  15.25500 -0.96600 32.60100
H  15.61100 -1.49600 35.11100
H  15.41400 0.07700 34.48600
H  20.90100 -6.27700 28.63400
H  21.03200 -5.14500 29.96400
H  22.24400 -5.14900 28.79700
H  21.26900 -7.07600 26.43500
H  22.39200 -5.81900 26.61200
H  22.26000 -6.56500 24.92900
H  16.85000 -2.12700 22.70900
H  16.58700 0.67100 23.32000
H  19.47400 -1.14400 22.97600
H  18.40900 0.11700 22.24400
H  18.64300 -1.47500 21.50400
H  13.98100 -0.18100 23.53300
H  14.65000 -1.52500 22.65500
H  15.67300 0.70700 21.33900
H  13.99300 1.10900 21.45100
H  14.49500 -0.59600 20.82000
H  12.35700 2.28400 26.88300
H  13.65400 3.10100 26.02200
H  13.18600 3.84800 27.39400
H  14.63800 1.00700 31.97800
H  15.99600 4.39300 34.10100
H  17.32100 3.10300 34.29700
H  15.84900 3.00300 35.33300
Mg 26.49600 49.54800 25.80200
C  24.51900 51.00800 28.27900
C  28.80200 48.60000 28.19500
C  28.72800 48.41200 23.38800
C  24.31300 50.66900 23.45100
N  26.56000 49.75900 27.94300
C  25.64000 50.32800 28.82100
C  26.00800 50.25400 30.37300
C  27.44400 49.69400 30.14000
C  27.61900 49.28800 28.65700
C  28.52700 50.62000 30.70600
C  25.07000 49.22700 31.07100
C  24.39100 49.63300 32.37700
H  25.28900 50.09400 33.58100
N  28.45200 48.55800 25.75200
C  29.24900 48.38200 26.86900
C  30.51700 47.85400 26.45600
C  30.51200 47.78100 25.02800
C  29.18000 48.25600 24.67200
C  31.66900 47.47300 27.47600
C  31.60400 47.35100 24.00600
O  31.54200 47.50000 22.80800
C  32.87400 46.80200 24.55600
N  26.59300 49.65300 23.65200
C  27.58300 49.02900 22.90800
C  27.16600 48.88200 21.45400
C  25.62100 49.53300 21.46500
C  25.45100 49.93200 22.95000
C  28.10200 49.51900 20.43200
C  24.54000 48.62900 20.94900
C  24.13900 47.58000 21.92700
N  24.81100 50.71000 25.77600
C  23.96400 51.12700 24.75800
C  22.84500 51.83700 25.26800
C  23.05100 51.87600 26.66800
C  24.21400 51.16000 26.94500
C  21.72600 52.42800 24.49100
C  22.49800 52.28700 27.98200
O  21.46000 52.92100 28.27000
C  23.49400 51.71000 29.08900
C  23.85300 53.05200 29.80500
O  24.15500 54.08500 29.24200
O  23.69000 52.82300 31.13300
C  23.81400 54.07200 31.87400
H  29.43900 48.21400 28.99300
H  29.23400 48.03400 22.49700
H  23.68600 51.01400 22.62600
H  26.02700 51.19200 30.92800
H  27.63700 48.71900 30.58900
H  28.44200 51.61200 30.26300
H  29.49100 50.17700 30.45700
H  28.43500 50.51200 31.78700
H  25.60500 48.30900 31.31000
H  24.23200 48.96000 30.42700
H  23.58400 48.99900 32.74300
H  23.86600 50.52600 32.03800
H  32.61300 47.91500 27.15900
H  31.94600 46.42800 27.33800
H  31.56800 47.63300 28.54900
H  33.48300 46.28400 23.81500
H  32.69700 46.01400 25.28800
H  33.51900 47.59800 24.92900
H  26.98600 47.83100 21.22800
H  25.62400 50.44500 20.86900
H  29.04800 49.77400 20.91100
H  27.66600 50.33800 19.86000
H  28.42300 48.71100 19.77500
H  24.66000 48.29000 19.92000
H  23.64000 49.23700 20.86900
H  24.96000 47.48000 22.63700
H  23.88200 46.65000 21.42000
H  23.23000 47.97200 22.38500
H  21.69600 51.92500 23.52500
H  21.99600 53.45600 24.24900
H  20.73400 52.34200 24.93500
H  22.86900 51.03300 29.67100
H  24.44000 54.90400 31.55000
H  24.39800 53.75700 32.73900
H  22.90300 54.43900 32.34700

