158

Mg 47.37000 16.43600 27.63100
C  45.60700 16.46300 30.70900
C  50.01300 18.17400 29.27500
C  49.20800 16.34600 24.85600
C  44.84700 14.71300 26.18500
N  47.68000 17.31700 29.71600
C  46.85600 17.06600 30.75900
C  47.50100 17.62400 31.97400
C  48.85500 18.44500 31.54100
C  48.85800 17.99500 30.05200
C  48.80700 19.99400 31.61600
C  47.76500 16.51000 33.01400
C  47.34300 16.68000 34.52500
H  46.87200 18.12500 35.02000
N  49.26700 17.14500 27.19800
C  50.23600 17.72900 27.96500
C  51.47400 18.04300 27.25400
C  51.27100 17.49800 25.93700
C  49.88500 16.97500 25.94600
C  52.55900 18.94500 27.80500
C  52.18600 17.56300 24.70900
O  51.77900 17.17800 23.64600
C  53.53800 18.13200 24.85500
N  47.10800 15.70000 25.82700
C  47.98900 15.77000 24.77300
C  47.37900 15.33600 23.46400
C  46.02400 14.73600 23.88000
C  45.94700 15.11300 25.41300
C  47.40300 16.58500 22.44400
C  46.00600 13.19400 23.56000
C  45.16700 12.75000 22.30800
N  45.64700 15.65600 28.27300
C  44.62200 14.98900 27.58700
C  43.54900 14.66900 28.44900
C  43.91400 15.20800 29.65600
C  45.21000 15.82100 29.54700
C  42.35200 13.87300 28.14900
C  43.40400 15.36100 31.06500
O  42.34400 14.99700 31.54400
C  44.62200 16.12000 31.79900
C  44.15200 17.23800 32.53500
O  43.73700 18.26600 32.07200
O  43.85800 16.80900 33.75700
C  42.73700 17.52500 34.41100
H  50.74500 18.77400 29.81900
H  49.75000 16.20000 23.91900
H  43.95300 14.32900 25.68900
H  46.83100 18.39800 32.34700
H  49.64800 18.08300 32.19600
H  48.05000 20.23100 32.36400
H  48.64900 20.39000 30.61300
H  49.72700 20.40500 32.03100
H  48.83100 16.30000 33.10200
H  47.28600 15.59000 32.67800
H  48.20800 16.36200 35.10700
H  46.56900 15.94800 34.75500
H  53.28100 19.37400 27.11100
H  53.14400 18.36700 28.52100
H  52.08500 19.76400 28.34600
H  53.44700 19.20800 25.00400
H  54.25700 17.97100 24.05200
H  54.03900 17.67900 25.71000
H  48.08600 14.60300 23.07600
H  45.20400 15.09000 23.25600
H  46.56800 16.74900 21.76300
H  48.32200 16.45600 21.87100
H  47.40400 17.51800 23.00700
H  45.47400 12.76900 24.41100
H  47.05600 12.90200 23.57000
H  45.87900 12.86500 21.49100
H  44.27400 13.29200 21.99600
H  44.82000 11.74000 22.53100
H  42.67000 13.02800 27.53800
H  41.79700 14.55200 27.50100
H  41.88900 13.67000 29.11400
H  45.05600 15.41800 32.51100
H  41.83800 17.54000 33.79600
H  42.86400 18.52100 34.83600
H  42.32000 16.86900 35.17500
Mg -10.62700 38.75600 41.46500
C  -8.56100 35.92400 40.74100
C  -8.40700 40.59000 39.59800
C  -12.91600 41.22600 41.39800
C  -13.05700 36.58600 42.62200
N  -8.62300 38.28600 40.49500
C  -8.02800 37.10000 40.20600
C  -6.79900 37.26000 39.34100
C  -6.72600 38.76300 39.15400
C  -7.98000 39.26300 39.77900
C  -5.50100 39.49400 39.72500
C  -6.96700 36.48700 37.92200
C  -5.75800 35.76600 37.47600
H  -5.10500 36.14000 36.14900
N  -10.64800 40.67400 40.71600
C  -9.61100 41.26400 40.01700
C  -10.04600 42.66900 39.75800
C  -11.32400 42.87100 40.20100
C  -11.68800 41.55900 40.79900
C  -9.15100 43.61100 38.93000
C  -12.19400 44.13100 39.91000
O  -11.72900 45.14000 39.43400
C  -13.72500 44.21100 40.26600
N  -12.65800 38.91200 41.89200
C  -13.46400 39.99600 41.82600
C  -14.87600 39.79400 42.39000
C  -14.82100 38.26300 42.78700
C  -13.39900 37.91300 42.45500
C  -15.09600 40.77600 43.55600
C  -15.86400 37.26400 42.09700
C  -16.67100 36.33000 42.99700
N  -10.74100 36.67600 41.72900
C  -11.75800 35.96700 42.27600
C  -11.38900 34.61000 42.33200
C  -10.13500 34.56900 41.79100
C  -9.77300 35.84600 41.34800
C  -12.17200 33.48000 42.94000
C  -9.09900 33.64400 41.40400
O  -8.98800 32.40600 41.53500
C  -7.99000 34.54200 40.69100
C  -6.69900 34.44100 41.50700
O  -5.88200 33.54600 41.30600
O  -6.63200 35.40700 42.47700
C  -5.50700 35.28300 43.38600
H  -7.69100 41.23700 39.08700
H  -13.66200 42.01200 41.53600
H  -13.86600 35.95500 42.99500
H  -6.04200 36.85500 40.01200
H  -6.72200 39.07100 38.10900
H  -5.72900 40.25500 40.47100
H  -4.87900 39.88400 38.91900
H  -4.83600 38.74100 40.14900
H  -7.39800 37.20100 37.21900
H  -7.81000 35.79500 37.91400
H  -5.89500 34.69700 37.63400
H  -4.96100 36.02400 38.17300
H  -8.88500 44.35200 39.68300
H  -9.60900 44.03900 38.03700
H  -8.34200 43.01200 38.51200
H  -13.71400 44.38800 41.34100
H  -14.23300 43.29200 39.97200
H  -14.26400 45.02000 39.77100
H  -15.61600 40.02700 41.62400
H  -15.07300 38.12900 43.83900
H  -14.11600 40.95900 43.99700
H  -15.75800 40.52200 44.38300
H  -15.41200 41.75900 43.20700
H  -15.41000 36.65300 41.31700
H  -16.63700 37.91000 41.67900
H  -16.88600 36.86000 43.92500
H  -16.10200 35.42900 43.22300
H  -17.62200 36.22300 42.47500
H  -12.24500 33.57300 44.02400
H  -11.70300 32.53600 42.66300
H  -13.16700 33.41800 42.50100
H  -7.67500 34.07900 39.75600
H  -5.28200 36.22300 43.88900
H  -4.61800 34.92000 42.86900
H  -5.82300 34.55000 44.12900

