158

Mg -0.02400 7.19600 26.29400
C  0.88900 9.15100 29.02800
C  0.11600 4.33200 28.22300
C  -0.32700 5.41400 23.47200
C  0.49600 10.03400 24.31700
N  0.49700 6.84100 28.32200
C  0.64600 7.77800 29.32500
C  0.59800 7.14900 30.66100
C  0.28200 5.65400 30.42500
C  0.25100 5.61000 28.89000
C  1.25100 4.54100 31.06200
C  -0.56300 7.84900 31.54500
C  -0.19200 8.13200 33.01700
H  1.01500 7.27500 33.53700
N  -0.05000 5.10400 25.91500
C  0.05400 4.10200 26.82500
C  -0.15400 2.87400 26.10500
C  -0.35000 3.19100 24.74500
C  -0.21700 4.60100 24.63500
C  -0.32700 1.52900 26.80800
C  -0.58100 2.23100 23.55600
O  -0.71300 2.55600 22.36300
C  -0.87300 0.79400 23.86300
N  0.02200 7.68600 24.27500
C  -0.20500 6.78600 23.30100
C  -0.17300 7.39600 21.88800
C  -0.24700 8.91700 22.21600
C  0.17800 8.89100 23.65300
C  0.99400 7.05500 20.93900
C  -1.59800 9.66800 21.86300
C  -2.92900 9.08800 22.40100
N  0.46900 9.25100 26.62400
C  0.63500 10.22900 25.71900
C  1.12400 11.49300 26.31700
C  1.12600 11.11100 27.68600
C  0.83400 9.71600 27.77600
C  1.45600 12.76600 25.72500
C  1.39600 11.70700 28.96600
O  1.73500 12.82000 29.35700
C  1.22200 10.41000 29.92300
C  2.35700 10.22400 30.85900
O  3.38400 9.71000 30.41300
O  2.09400 10.75600 32.11200
C  3.36100 11.10400 32.77800
H  -0.01200 3.39000 28.76100
H  -0.29700 4.96800 22.47600
H  0.61800 10.95700 23.74700
H  1.49800 7.51300 31.15700
H  -0.72200 5.45200 30.79800
H  1.83400 3.99200 30.32200
H  0.82200 3.70600 31.61600
H  2.03000 5.03300 31.64400
H  -1.45800 7.23200 31.61400
H  -0.87300 8.78500 31.08000
H  -1.10300 8.02300 33.60600
H  0.05500 9.18600 33.15200
H  -1.27400 1.22200 26.36200
H  -0.52300 1.61500 27.87700
H  0.52100 0.90400 26.53000
H  -1.71900 0.58700 24.51900
H  -0.00100 0.26900 24.25200
H  -1.05400 0.26700 22.92600
H  -1.16100 7.13700 21.50800
H  0.53500 9.45500 21.68100
H  1.44600 7.92900 20.47000
H  0.73500 6.35100 20.14800
H  1.76500 6.65700 21.59900
H  -1.77000 9.93000 20.81900
H  -1.63900 10.53900 22.51800
H  -3.60800 9.11900 21.55000
H  -3.41900 9.62600 23.21300
H  -2.95200 8.04200 22.70800
H  2.05300 12.52200 24.84700
H  1.99400 13.47100 26.35800
H  0.53200 13.25200 25.41200
H  0.44800 10.67500 30.64400
H  3.51200 10.46200 33.64500
H  3.16100 12.12600 33.10000
H  4.29000 11.07400 32.20900
Mg 25.33100 1.60100 30.10100
C  27.52500 1.28600 32.99100
C  22.87900 2.34000 32.42500
C  23.08100 1.34300 27.68200
C  27.81700 0.61800 28.09100
N  25.23300 1.58100 32.48400
C  26.25200 1.70500 33.30400
C  25.83500 2.16900 34.69500
C  24.35200 2.37000 34.56500
C  24.07800 2.01500 33.05800
C  23.48400 1.45300 35.42500
C  26.67500 3.43600 35.07100
C  27.40200 3.23500 36.44800
H  26.82600 4.03000 37.62500
N  23.28600 1.84400 30.00500
C  22.49600 2.25300 31.01600
C  21.11600 2.35200 30.52400
C  21.13600 1.99200 29.16300
C  22.50100 1.71900 28.88400
C  19.96200 2.70800 31.43300
C  19.94200 1.97200 28.13500
O  20.07000 1.44100 27.01300
C  18.63900 2.42200 28.57600
N  25.40700 1.02400 28.12400
C  24.35500 1.07500 27.29200
C  24.79200 0.86200 25.87300
C  26.39300 0.86200 25.93900
C  26.60400 0.87300 27.51100
C  24.18100 -0.32400 25.10900
C  27.06000 2.09100 25.24300
C  27.38800 3.34700 26.06600
N  27.30800 1.06300 30.34200
C  28.22200 0.67400 29.48200
C  29.54100 0.51000 30.08400
C  29.24800 0.75300 31.49500
C  27.87100 1.01800 31.58200
C  30.79300 0.24200 29.28400
C  29.89000 0.84100 32.81300
O  31.07600 0.69000 33.13900
C  28.74200 1.11900 33.85300
C  28.66100 -0.04000 34.75800
O  28.47800 -1.18900 34.49900
O  28.92900 0.37800 36.01600
C  29.13100 -0.64700 37.08300
H  22.13500 2.67900 33.14800
H  22.44000 1.23000 26.80500
H  28.70900 0.42100 27.49400
H  26.13900 1.29000 35.26300
H  24.07000 3.41100 34.72600
H  22.94900 2.14400 36.07700
H  24.13300 0.83000 36.04100
H  22.87100 0.72300 34.89700
H  26.06300 4.29000 35.36000
H  27.31700 3.61800 34.20800
H  28.38300 3.66100 36.24100
H  27.51200 2.20500 36.78600
H  20.24800 3.17800 32.37400
H  19.43200 1.76600 31.57100
H  19.31900 3.35500 30.83700
H  17.86200 2.07400 27.89400
H  18.61800 3.48500 28.81600
H  18.47900 1.86900 29.50200
H  24.43200 1.78300 25.41300
H  26.82000 -0.05800 25.54100
H  23.39500 -0.68800 25.77000
H  24.91800 -1.11600 24.97800
H  23.75300 0.02700 24.16900
H  26.46200 2.49700 24.42700
H  27.98100 1.71700 24.79700
H  27.52400 3.15900 27.13100
H  26.54900 4.03800 25.98600
H  28.26800 3.81500 25.62500
H  31.70400 0.44500 29.84600
H  30.84200 0.84000 28.37300
H  30.81700 -0.81600 29.02200
H  29.05400 1.97500 34.45100
H  28.74500 -0.37300 38.06400
H  30.20900 -0.67800 37.24000
H  28.67500 -1.61500 36.87500

