158

Mg -2.17500 17.40500 26.33500
C  -2.14100 15.04900 28.83500
C  -3.40900 19.73300 28.64700
C  -2.19000 19.59700 23.85500
C  -1.55300 14.76300 24.00900
N  -2.67900 17.45600 28.47100
C  -2.36500 16.39200 29.29900
C  -2.52300 16.77000 30.79300
C  -3.18900 18.18900 30.70000
C  -3.07800 18.50100 29.20700
C  -4.66800 18.14000 31.08800
C  -1.13800 16.73600 31.43200
C  -0.77800 17.44400 32.70800
H  -0.89700 16.61400 34.05700
N  -2.74500 19.38000 26.26200
C  -3.26500 20.18500 27.26200
C  -3.59900 21.42700 26.75600
C  -3.27200 21.44300 25.35800
C  -2.69300 20.07700 25.11600
C  -4.35300 22.49000 27.49600
C  -3.40700 22.55300 24.29700
O  -3.00200 22.50200 23.11300
C  -3.81700 23.89900 24.82400
N  -1.87700 17.14300 24.19000
C  -1.78400 18.30200 23.43500
C  -1.31700 18.01000 21.97900
C  -0.87500 16.50000 22.14800
C  -1.49700 16.09800 23.48100
C  -2.38700 18.23800 20.77800
C  0.67700 16.20100 22.01100
C  0.89200 14.92100 21.09800
N  -1.90800 15.34600 26.38500
C  -1.75300 14.43100 25.37200
C  -1.79300 13.07400 25.89500
C  -1.93600 13.26500 27.26100
C  -2.01400 14.64400 27.52700
C  -1.84900 11.84700 25.05100
C  -2.26100 12.60700 28.48600
O  -2.51000 11.43200 28.65400
C  -2.43800 13.72200 29.56000
C  -1.56700 13.45100 30.67300
O  -0.32200 13.51000 30.67200
O  -2.32000 13.14800 31.76900
C  -1.59500 12.64800 32.90800
H  -3.85000 20.44200 29.35100
H  -2.23800 20.27400 23.00000
H  -1.34600 13.92400 23.34200
H  -3.02400 15.89600 31.21100
H  -2.66700 18.93400 31.30200
H  -5.21300 17.86300 30.18500
H  -4.94900 19.12700 31.45500
H  -4.86800 17.41100 31.87200
H  -0.28100 16.78700 30.76000
H  -1.21200 15.77200 31.93500
H  -1.43500 18.29000 32.90800
H  0.19700 17.93000 32.67200
H  -4.46900 22.21300 28.54400
H  -5.36100 22.64200 27.11100
H  -3.77700 23.41500 27.51700
H  -4.85800 23.96100 25.14200
H  -3.58000 24.60200 24.02500
H  -3.21400 24.11900 25.70500
H  -0.41900 18.59500 21.78300
H  -1.41500 15.88400 21.42800
H  -3.22500 18.63400 21.35300
H  -2.65600 17.37600 20.16800
H  -1.84100 18.94700 20.15700
H  1.18800 16.00000 22.95300
H  1.21900 16.95200 21.43700
H  1.62100 14.23200 21.52400
H  1.18100 14.99300 20.05000
H  -0.03500 14.35000 21.16200
H  -1.94100 10.97500 25.69900
H  -0.84200 11.82700 24.63300
H  -2.58100 11.94100 24.24900
H  -3.48100 13.65400 29.87000
H  -1.61800 13.42500 33.67200
H  -0.57000 12.34700 32.69400
H  -2.04200 11.75100 33.33700
Mg 2.98300 -1.16300 44.52500
C  6.45700 -0.70500 44.24600
C  2.61100 1.43400 42.15600
C  -0.17200 -2.16000 43.84200
C  3.50600 -4.12300 46.24200
N  4.35900 0.18400 43.33100
C  5.77200 0.14700 43.39300
C  6.35400 1.22000 42.33700
C  5.11500 2.15300 42.02600
C  3.97500 1.22300 42.54400
C  5.18700 3.49300 42.69500
C  7.02300 0.46300 41.16400
C  8.53700 0.67300 40.93800
H  8.98300 1.22200 39.54800
N  1.46100 -0.40500 43.34900
C  1.47700 0.69600 42.54400
C  0.09600 0.97500 42.06500
C  -0.75400 -0.08900 42.54500
C  0.21200 -0.98200 43.28800
C  -0.22700 2.20900 41.28100
C  -2.31800 -0.19200 42.34400
O  -2.94300 0.68700 41.69700
C  -3.19500 -1.23300 42.96900
N  1.85600 -3.11100 44.69700
C  0.59100 -3.09700 44.55300
C  -0.05900 -4.21800 45.36800
C  1.15100 -4.96000 46.07300
C  2.28700 -4.03200 45.63700
C  -1.17400 -3.67000 46.26800
C  1.41700 -6.41700 45.61600
C  1.50900 -7.50500 46.67400
N  4.62200 -2.16700 45.19900
C  4.67800 -3.35200 45.92800
C  6.04700 -3.71000 46.27900
C  6.81300 -2.59100 45.69900
C  5.84100 -1.78700 44.97500
C  6.44900 -4.90200 47.16900
C  8.08400 -1.96600 45.50100
O  9.17500 -2.25900 45.83500
C  7.87500 -0.68500 44.66800
C  8.16500 0.58400 45.33500
O  7.47700 1.26000 46.11500
O  9.35900 1.06800 44.81600
C  9.41400 2.53900 44.94600
H  2.51300 2.21300 41.39600
H  -1.22200 -2.45800 43.82100
H  3.66900 -5.04500 46.80400
H  7.05000 1.85100 42.88900
H  4.94300 2.27000 40.95600
H  6.23400 3.79600 42.70300
H  4.63100 3.46800 43.63300
H  4.69200 4.27900 42.12400
H  6.54100 0.82800 40.25700
H  6.86900 -0.61300 41.07900
H  9.08900 -0.26500 40.99900
H  8.88200 1.34800 41.72100
H  0.39800 2.31900 40.39500
H  0.06600 3.06900 41.88300
H  -1.28200 2.42500 41.10900
H  -4.24600 -1.00800 42.79100
H  -2.85400 -1.19300 44.00400
H  -2.95800 -2.22400 42.58300
H  -0.52000 -4.90000 44.65300
H  1.11700 -4.95400 47.16200
H  -1.31600 -2.59200 46.18900
H  -1.08200 -4.02600 47.29400
H  -2.07900 -4.08100 45.82100
H  2.41300 -6.45300 45.17500
H  0.72100 -6.92300 44.94700
H  2.43900 -8.06500 46.57700
H  0.65100 -8.11800 46.39500
H  1.32200 -7.21200 47.70700
H  5.83300 -5.13800 48.03600
H  7.44600 -4.63400 47.51900
H  6.53300 -5.82900 46.60100
H  8.52500 -0.84700 43.80700
H  8.48000 2.98600 44.60400
H  10.16400 2.87100 44.22900
H  9.78800 2.88800 45.90800

