158

Mg 8.00300 3.07100 27.77000
C  9.34500 1.50000 30.62600
C  5.71100 4.80100 29.71300
C  6.61700 4.23300 24.95000
C  9.64300 0.56300 25.86800
N  7.45500 2.95900 29.91500
C  8.42100 2.56100 30.90400
C  8.02900 3.09600 32.30800
C  6.87300 3.98000 31.93300
C  6.66100 3.98100 30.40800
C  5.46500 3.80600 32.67300
C  9.26200 3.59900 33.10700
C  8.95000 4.66300 34.25900
H  9.53700 4.56700 35.63900
N  6.31800 4.33000 27.38300
C  5.64500 5.01400 28.29700
C  4.78200 5.91800 27.60900
C  5.08900 5.88500 26.24200
C  6.02800 4.80400 26.12900
C  3.89100 6.89000 28.27400
C  4.55200 6.74300 24.98900
O  5.02600 6.61000 23.84200
C  3.54800 7.74200 25.17500
N  8.29700 2.53400 25.70500
C  7.56900 3.20100 24.77900
C  7.69500 2.60600 23.37100
C  8.88400 1.62700 23.67100
C  8.98400 1.55500 25.19900
C  6.39400 1.96000 22.93000
C  10.23800 1.94900 23.02600
C  10.52500 1.50500 21.60800
N  9.40100 1.49100 28.18100
C  9.91700 0.55900 27.26300
C  10.73000 -0.36900 28.04800
C  10.62200 -0.00400 29.34000
C  9.69300 1.08000 29.41200
C  11.37500 -1.58400 27.44700
C  10.94000 -0.33500 30.67600
O  11.68300 -1.14800 31.17600
C  10.27600 0.72000 31.57100
C  9.64500 0.06300 32.71100
O  8.61100 -0.62100 32.73400
O  10.30500 0.42600 33.86400
C  9.69300 -0.22700 35.03900
H  5.17700 5.53300 30.32300
H  6.22300 4.62800 24.01100
H  10.11900 -0.14500 25.18600
H  7.55900 2.25400 32.81600
H  7.24700 4.98000 32.15400
H  4.71500 3.72300 31.88700
H  5.26200 4.60800 33.38300
H  5.51300 2.90500 33.28400
H  10.01100 4.10100 32.49600
H  9.73400 2.74700 33.59700
H  7.87800 4.53700 34.41200
H  9.17900 5.64100 33.83800
H  2.82900 6.67500 28.15700
H  4.07100 7.86900 27.82900
H  4.18100 6.95400 29.32300
H  3.15900 8.21700 24.27400
H  3.89600 8.56100 25.80300
H  2.73100 7.20300 25.65500
H  7.94900 3.35500 22.62100
H  8.57700 0.62800 23.35900
H  5.73500 1.91000 23.79700
H  6.46600 0.90600 22.66300
H  5.99400 2.57300 22.12200
H  11.09400 1.59600 23.60100
H  10.18300 3.03700 23.06100
H  9.80300 0.72100 21.37900
H  11.44700 0.92500 21.65200
H  10.50400 2.35200 20.92300
H  10.56000 -2.19900 27.06700
H  11.87800 -2.17400 28.21300
H  12.10300 -1.32200 26.67900
H  11.10600 1.36000 31.87300
H  10.44700 -0.23600 35.82600
H  9.58200 -1.30200 34.89800
H  8.71400 0.13900 35.34800
Mg 24.00900 -4.83300 46.50500
C  26.22700 -2.54100 45.07800
C  21.63700 -3.69900 44.37500
C  22.29700 -7.59700 47.28800
C  26.93100 -6.21000 48.11100
N  23.98700 -3.29900 44.83500
C  24.96600 -2.44700 44.44300
C  24.49900 -1.61000 43.23600
C  22.91000 -1.75900 43.40400
C  22.80500 -2.96100 44.33800
C  22.14100 -0.54300 43.92000
C  25.09100 -2.12600 41.85800
C  26.15100 -1.23900 41.10300
H  26.05000 -1.43800 39.63200
N  22.12500 -5.50100 45.99700
C  21.33700 -4.92500 45.03200
C  20.15000 -5.70500 44.94400
C  20.25900 -6.86600 45.81800
C  21.59600 -6.74600 46.47800
C  18.98000 -5.36800 44.03400
C  19.26400 -7.98900 45.92700
O  18.15800 -7.93500 45.36500
C  19.65500 -9.34300 46.55900
N  24.61200 -6.55400 47.54400
C  23.66900 -7.53500 47.80100
C  24.16900 -8.76600 48.62100
C  25.66000 -8.36400 48.78500
C  25.77200 -6.94900 48.08200
C  23.38600 -9.08600 49.95100
C  26.52900 -9.47000 48.18700
C  27.69100 -9.83900 49.11200
N  26.18600 -4.36200 46.77500
C  27.13200 -4.90600 47.53100
C  28.40800 -4.22000 47.38800
C  28.08100 -3.22500 46.46200
C  26.71200 -3.36200 46.13700
C  29.74800 -4.42900 48.05300
C  28.62200 -2.16500 45.69600
O  29.72500 -1.71900 45.58500
C  27.53900 -1.69000 44.71200
C  27.44300 -0.24000 44.83100
O  26.96300 0.37800 45.75500
O  28.02900 0.36700 43.79500
C  28.04400 1.86400 43.94500
H  20.96600 -3.24700 43.64100
H  21.66900 -8.39200 47.69700
H  27.80000 -6.55800 48.67400
H  24.73100 -0.54600 43.27200
H  22.46400 -2.05800 42.45600
H  22.72200 0.24900 44.39200
H  21.38400 -0.89800 44.61900
H  21.61900 -0.00200 43.13100
H  24.33400 -2.33400 41.10300
H  25.52200 -3.10600 42.06100
H  27.17100 -1.48200 41.40300
H  26.06800 -0.21800 41.47700
H  19.12800 -4.43100 43.49600
H  18.05900 -5.30500 44.61400
H  18.80200 -6.20700 43.36200
H  20.65900 -9.52500 46.17400
H  19.01100 -10.14800 46.20700
H  19.67700 -9.23300 47.64300
H  24.09600 -9.65700 47.99800
H  25.73900 -8.04400 49.82400
H  23.08000 -10.12900 50.03300
H  22.49900 -8.45300 49.92500
H  24.07700 -8.84400 50.75900
H  26.96900 -9.12200 47.25200
H  25.89200 -10.31200 47.91700
H  27.46900 -9.35300 50.06200
H  28.60700 -9.48200 48.63900
H  27.84600 -10.90000 49.30700
H  30.10600 -5.41300 47.75200
H  29.82400 -4.20500 49.11700
H  30.43100 -3.85400 47.42800
H  27.80900 -1.96600 43.69200
H  28.35300 2.31000 43.00000
H  28.86700 2.27500 44.53000
H  27.06600 2.28400 44.18300

