158

Mg 35.38000 2.76400 29.38500
C  33.08400 3.96100 32.02300
C  37.82800 2.54200 31.97800
C  37.34400 1.73900 27.16600
C  32.64100 2.98900 27.24400
N  35.40800 3.19500 31.73600
C  34.33500 3.53600 32.54500
C  34.78100 3.59900 33.97200
C  36.30500 3.27400 33.96300
C  36.58200 3.04000 32.46900
C  37.25200 4.44600 34.54300
C  33.88800 2.62800 34.86700
C  33.98200 2.83600 36.38200
H  34.74000 4.01800 37.01400
N  37.29500 2.34600 29.52500
C  38.12200 2.21000 30.62800
C  39.42200 1.79500 30.16500
C  39.31500 1.36300 28.81500
C  37.97100 1.85700 28.43400
C  40.61200 1.59300 31.04500
C  40.31300 0.67500 27.98300
O  40.07600 0.36100 26.87500
C  41.56900 0.17700 28.53100
N  35.09000 2.57300 27.39800
C  36.08000 2.00500 26.74400
C  35.63300 1.86100 25.25500
C  34.05400 1.95400 25.30500
C  33.93400 2.57000 26.69000
C  36.34300 2.78000 24.23200
C  33.31900 0.56500 25.17600
C  32.18300 0.64300 24.18800
N  33.39800 3.39100 29.52200
C  32.39100 3.52800 28.51500
C  31.20700 4.14300 28.99600
C  31.44200 4.32500 30.32500
C  32.74700 3.81000 30.59700
C  29.98400 4.33600 28.22300
C  30.86600 4.94600 31.51900
O  29.90600 5.62600 31.74800
C  31.91800 4.65100 32.64800
C  32.21700 5.94800 33.37800
O  32.76500 6.90400 32.80200
O  31.56600 5.98100 34.58400
C  31.32000 7.34000 35.10600
H  38.55000 2.41400 32.78800
H  37.91500 1.24600 26.37700
H  31.81900 2.99400 26.52400
H  34.67600 4.60000 34.39100
H  36.40000 2.36400 34.55600
H  38.17400 4.40100 33.96400
H  37.64300 4.15800 35.51900
H  36.77800 5.42300 34.63900
H  34.35100 1.65800 34.68700
H  32.84700 2.63900 34.54400
H  34.25200 1.90700 36.88500
H  32.98900 3.05700 36.77300
H  40.34900 1.80000 32.08200
H  41.50700 2.18300 30.85000
H  40.98800 0.57400 30.94600
H  41.39400 -0.55300 29.32100
H  42.25500 1.00900 28.69100
H  41.92300 -0.44500 27.70900
H  35.88600 0.84800 24.94200
H  33.66300 2.66000 24.57200
H  35.71200 3.27300 23.49200
H  37.08600 2.20500 23.68100
H  36.67700 3.73600 24.63600
H  32.86600 0.32200 26.13700
H  34.02800 -0.23200 24.94900
H  32.29300 -0.08300 23.38200
H  32.06000 1.55500 23.60400
H  31.33600 0.27500 24.76700
H  29.09600 4.44500 28.84500
H  29.76000 3.34800 27.82100
H  30.03000 5.14300 27.49200
H  31.55500 3.88600 33.33500
H  32.17700 7.59400 35.72900
H  30.37200 7.24700 35.63600
H  31.27200 8.14300 34.37000
Mg 0.87500 42.10600 26.28700
C  2.96900 42.13700 29.15200
C  -1.84400 41.65300 28.41100
C  -1.04200 41.88400 23.57800
C  3.74500 41.94500 24.25200
N  0.58400 42.01800 28.58900
C  1.62200 41.92100 29.53200
C  1.00900 41.93400 30.88800
C  -0.54500 41.73100 30.68600
C  -0.65200 41.77600 29.09200
C  -1.19100 40.51200 31.45700
C  1.38100 43.29200 31.65400
C  1.83300 43.14800 33.13700
H  1.37700 42.00800 34.03100
N  -1.18900 41.94600 25.99300
C  -2.11700 41.71200 26.99300
C  -3.41600 41.52900 26.40000
C  -3.22300 41.53300 24.94700
C  -1.78700 41.76300 24.75400
C  -4.71100 41.44800 27.16300
C  -4.28100 41.31500 23.89100
O  -3.99800 41.40300 22.68800
C  -5.66100 40.89400 24.29600
N  1.28400 41.87300 24.24400
C  0.30100 41.93300 23.27600
C  0.84100 41.85700 21.86900
C  2.36200 41.89000 22.08500
C  2.49300 41.89600 23.62800
C  0.40000 40.56300 21.04200
C  3.00800 43.07600 21.45300
C  2.41600 44.47300 21.62500
N  2.91500 42.18900 26.55900
C  3.99200 42.10700 25.64700
C  5.23800 42.32500 26.41500
C  4.87000 42.32500 27.72900
C  3.45100 42.25200 27.81100
C  6.69100 42.51300 25.88000
C  5.45300 42.55000 29.06600
O  6.64000 42.79600 29.47700
C  4.22900 42.29200 30.02100
C  4.61600 41.20400 30.88200
O  4.74100 40.02100 30.54400
O  4.89300 41.69300 32.22800
C  5.25500 40.68200 33.20500
H  -2.67700 41.40200 29.07100
H  -1.53600 41.92700 22.60500
H  4.63400 41.91700 23.61800
H  1.43700 41.07200 31.39900
H  -1.06500 42.62000 31.04100
H  -1.68800 39.74900 30.85800
H  -1.95400 41.02800 32.04000
H  -0.48000 40.07400 32.15800
H  0.57200 44.02000 31.72100
H  2.18300 43.86800 31.19300
H  1.50200 44.03800 33.67300
H  2.91800 43.21600 33.20900
H  -4.67500 41.59200 28.24300
H  -5.14900 40.46300 27.00200
H  -5.40500 42.15600 26.71100
H  -6.20600 41.70400 24.77900
H  -5.49200 40.04700 24.96000
H  -6.25400 40.62000 23.42300
H  0.37800 42.70600 21.36700
H  2.88600 41.04000 21.65000
H  -0.00300 39.74400 21.63800
H  1.25500 40.21700 20.46300
H  -0.42200 40.85800 20.39000
H  3.12500 42.79900 20.40600
H  4.02800 43.13200 21.83400
H  2.23100 44.89100 20.63600
H  3.23100 45.12800 21.93300
H  1.55000 44.49700 22.28600
H  6.76000 43.46400 25.35300
H  6.82100 41.71000 25.15400
H  7.38400 42.40800 26.71500
H  4.15200 43.14300 30.69800
H  6.17200 40.15500 32.93900
H  4.55400 39.84800 33.22400
H  5.31500 41.13900 34.19300

