158

Mg 1.60300 8.27800 25.17400
C  2.15600 10.04200 28.24500
C  1.84200 5.28100 27.05100
C  1.46000 6.47000 22.47800
C  1.71400 11.19700 23.38100
N  2.02500 7.68900 27.48400
C  2.05700 8.64600 28.49800
C  1.99500 7.90100 29.86000
C  1.94100 6.43500 29.42900
C  1.92600 6.39900 27.87400
C  2.96400 5.58300 30.10600
C  0.95000 8.45600 30.90000
C  1.36500 8.71200 32.38200
H  2.59300 7.97500 33.08100
N  1.58300 6.16800 24.86500
C  1.67900 5.11300 25.71200
C  1.37300 3.89500 25.04500
C  1.23900 4.20100 23.66900
C  1.45400 5.68200 23.63300
C  1.39400 2.53500 25.76900
C  1.13800 3.24900 22.49500
O  1.00000 3.62900 21.33400
C  1.18700 1.71700 22.73700
N  1.83100 8.81400 23.24700
C  1.56900 7.86600 22.30900
C  1.62700 8.49700 20.94300
C  1.24800 9.99500 21.24600
C  1.60600 9.99300 22.71900
C  2.96700 8.34100 20.10600
C  -0.30500 10.30100 21.12600
C  -0.68200 11.40000 20.04400
N  1.91000 10.21300 25.65800
C  1.84700 11.30800 24.82100
C  2.03700 12.48100 25.60500
C  2.17100 12.08300 26.94800
C  2.06200 10.64100 26.93200
C  2.01600 13.81700 24.97600
C  2.26600 12.52400 28.34100
O  2.20200 13.64400 28.84400
C  2.25800 11.24400 29.18600
C  3.44300 11.19100 30.12000
O  4.49900 10.69400 29.88200
O  3.07800 11.81400 31.31400
C  4.05600 11.71900 32.42100
H  1.82500 4.33600 27.59700
H  1.30400 5.98700 21.51100
H  1.53900 12.15200 22.88100
H  2.95800 8.06100 30.34500
H  1.00700 5.94600 29.70700
H  2.59600 5.21300 31.06300
H  3.91100 6.08300 30.30700
H  3.15400 4.68600 29.51800
H  0.10500 7.77300 30.81900
H  0.69800 9.44500 30.51800
H  0.50600 8.36900 32.95900
H  1.54400 9.76900 32.57900
H  0.57900 1.86600 25.49300
H  1.32800 2.60100 26.85500
H  2.34100 2.02700 25.58800
H  0.38400 1.46400 23.42900
H  2.19900 1.49800 23.07900
H  1.02200 1.24900 21.76700
H  0.85300 8.06000 20.31300
H  1.84500 10.72400 20.69800
H  2.94300 7.46100 19.46400
H  3.79000 8.30800 20.82000
H  3.12300 9.28100 19.57700
H  -0.66300 10.64300 22.09700
H  -0.89400 9.40900 20.91300
H  0.22400 11.78900 19.57900
H  -1.33100 12.11200 20.55500
H  -1.34800 10.93400 19.31800
H  2.69700 13.91200 24.13000
H  2.44600 14.53800 25.67100
H  0.97700 13.94200 24.67300
H  1.33200 11.37100 29.74700
H  5.04100 12.05600 32.09900
H  4.17400 10.66700 32.68200
H  3.79600 12.30300 33.30300
Mg 17.18200 -2.16400 27.16200
C  16.32400 0.19900 29.67500
C  19.01200 -3.88000 29.47200
C  18.32800 -3.97400 24.66100
C  16.00500 0.31600 24.80200
N  17.51700 -1.94200 29.29400
C  17.12500 -0.86600 30.11700
C  17.58800 -1.15000 31.54300
C  18.54000 -2.37700 31.39500
C  18.32900 -2.75800 29.91300
C  20.04100 -2.22400 31.78200
C  16.40500 -1.50100 32.55700
C  16.50800 -0.94000 34.03400
H  17.93800 -0.59700 34.50900
N  18.32900 -3.79700 27.04000
C  19.00900 -4.36400 28.13300
C  19.58900 -5.67500 27.79600
C  19.53800 -5.60200 26.31600
C  18.71500 -4.46100 25.94800
C  20.27600 -6.52800 28.76500
C  20.31600 -6.45400 25.38200
O  20.30100 -6.33800 24.17500
C  21.12600 -7.65700 25.93000
N  17.21200 -1.85700 25.05100
C  17.71400 -2.79200 24.22200
C  17.65800 -2.26600 22.73800
C  16.82400 -0.99900 22.86700
C  16.67900 -0.82000 24.35500
C  19.09100 -1.99200 22.19000
C  15.47400 -1.19600 22.09900
C  15.21600 -0.15500 20.96700
N  16.21900 -0.25400 27.22300
C  15.75000 0.56200 26.16800
C  15.12600 1.71700 26.73000
C  15.23900 1.59100 28.16200
C  15.92100 0.37300 28.39600
C  14.35700 2.75800 26.02700
C  15.06300 2.24800 29.46900
O  14.56100 3.32500 29.73500
C  15.72500 1.32900 30.54500
C  16.69500 2.08500 31.41100
O  17.78100 2.55100 31.09500
O  16.12400 2.25800 32.63900
C  16.84000 3.18300 33.53000
H  19.53400 -4.44600 30.24600
H  18.66100 -4.66900 23.88800
H  15.67800 1.06600 24.07800
H  18.23700 -0.30500 31.77200
H  18.14500 -3.15500 32.04800
H  20.34100 -3.15500 32.26300
H  20.15400 -1.38300 32.46700
H  20.70900 -2.05000 30.93900
H  16.24700 -2.56500 32.73200
H  15.49600 -1.09600 32.11100
H  16.13400 -1.57100 34.84100
H  15.93500 -0.01300 34.04400
H  20.58400 -7.52600 28.45200
H  19.62200 -6.69800 29.62000
H  21.19100 -6.06300 29.13200
H  21.53800 -8.13300 25.04000
H  20.48000 -8.36400 26.45100
H  21.90900 -7.27900 26.58700
H  17.18500 -2.99900 22.08500
H  17.14800 -0.01900 22.51800
H  19.93800 -1.99200 22.87600
H  19.12400 -0.96800 21.81700
H  19.41300 -2.69500 21.42100
H  14.60600 -1.12500 22.75500
H  15.43600 -2.11700 21.51600
H  16.19000 0.06300 20.53000
H  14.70500 0.76300 21.25700
H  14.55400 -0.54700 20.19500
H  13.98900 2.39700 25.06700
H  14.89500 3.69900 25.90900
H  13.43100 2.96700 26.56400
H  14.88300 0.94700 31.12100
H  16.25100 3.49800 34.39100
H  17.33300 4.03400 33.05900
H  17.66200 2.77700 34.12000

