158

Mg 6.91100 54.49800 40.73100
C  6.49600 50.96000 41.20200
C  10.17700 54.00400 40.02500
C  6.92400 57.61700 39.83000
C  3.36400 54.65100 41.43300
N  8.08400 52.65300 40.42100
C  7.75300 51.34300 40.72100
C  8.87600 50.39200 40.53400
C  10.12400 51.40000 40.43700
C  9.44200 52.76700 40.26000
C  11.20700 51.33200 41.53500
C  8.76100 49.35200 39.33300
C  8.81300 49.83900 37.93900
H  7.41200 49.79100 37.24200
N  8.36600 55.67400 39.89700
C  9.69100 55.30300 39.77800
C  10.41500 56.44200 39.43000
C  9.54200 57.57200 39.32400
C  8.19000 56.98100 39.58000
C  11.91600 56.35200 39.21600
C  9.99400 59.00900 38.99000
O  11.17800 59.31600 38.88300
C  9.06000 60.10300 38.81700
N  5.37500 55.89700 40.47700
C  5.65500 57.14700 40.17200
C  4.49000 58.06700 40.55600
C  3.35200 57.02400 40.81900
C  4.09200 55.72000 40.95900
C  4.77600 58.94500 41.82800
C  2.27000 57.02800 39.65400
C  1.15200 58.00100 39.75000
N  5.18700 53.13100 41.16300
C  3.85900 53.33300 41.52900
C  3.24200 52.20900 42.06900
C  4.28800 51.20400 41.96300
C  5.38100 51.82500 41.39500
C  1.83800 51.98300 42.61300
C  4.58300 49.86700 42.42100
O  3.87500 48.97600 42.94100
C  5.96600 49.57200 41.67900
C  5.68600 48.58100 40.51200
O  5.11600 48.82900 39.46200
O  6.14700 47.36200 40.87400
C  5.90200 46.30600 39.89900
H  11.25700 53.84300 40.04600
H  6.86700 58.70100 39.71300
H  2.33400 54.69500 41.79400
H  8.94200 49.87300 41.49100
H  10.71400 51.24300 39.53500
H  11.19200 52.23400 42.14600
H  12.19900 51.06900 41.16800
H  10.90700 50.49000 42.15900
H  7.93200 48.64700 39.39000
H  9.71300 48.82600 39.40600
H  9.44800 49.27400 37.25700
H  9.11300 50.88700 37.93600
H  12.45000 56.63100 40.12400
H  12.09600 56.89500 38.28800
H  12.22900 55.33800 38.97000
H  8.68000 60.43500 39.78300
H  8.19700 59.75100 38.25100
H  9.47200 60.95600 38.27900
H  4.26300 58.71000 39.70500
H  2.87900 57.22300 41.78100
H  4.27100 58.60300 42.73100
H  4.51400 59.97800 41.60000
H  5.85000 58.89800 42.00700
H  1.84500 56.03500 39.50800
H  2.80100 57.16800 38.71200
H  1.21300 58.71300 38.92700
H  1.08800 58.34300 40.78300
H  0.15500 57.58000 39.61500
H  1.41800 51.06400 42.20500
H  1.25100 52.75000 42.10900
H  1.75500 51.95700 43.70000
H  6.65300 49.04900 42.34300
H  4.91300 46.34300 39.44100
H  6.12700 45.33900 40.34700
H  6.60900 46.46000 39.08400
Mg -1.49300 34.49600 26.47400
C  -3.27800 32.59800 29.00600
C  -0.93500 36.82400 28.93300
C  -0.63300 36.65600 24.06900
C  -3.20900 32.47500 24.06400
N  -2.12200 34.68500 28.72200
C  -2.60200 33.65300 29.58900
C  -2.37200 33.95700 31.06700
C  -1.75200 35.44200 31.02100
C  -1.64200 35.70800 29.47100
C  -2.47400 36.55700 31.79100
C  -1.56200 32.81900 31.83500
C  -2.19500 32.20900 33.09900
H  -1.32100 32.26000 34.36900
N  -0.67000 36.33700 26.52000
C  -0.50400 37.13400 27.61000
C  0.37700 38.14200 27.19700
C  0.50100 38.25500 25.80900
C  -0.30800 37.06900 25.38300
C  1.06900 39.10400 28.23500
C  1.24600 39.20000 24.88400
O  1.17700 39.08400 23.64900
C  2.06700 40.27100 25.51600
N  -1.83700 34.45300 24.37700
C  -1.30900 35.50000 23.60300
C  -1.49000 35.19300 22.07300
C  -2.17000 33.80900 22.06000
C  -2.40300 33.49400 23.58500
C  -2.32800 36.31900 21.25800
C  -1.28400 32.73300 21.39600
C  0.04800 32.33900 22.02000
N  -2.93600 32.84800 26.47100
C  -3.50200 32.15500 25.44500
C  -4.40800 31.08800 25.88100
C  -4.32000 31.24800 27.27200
C  -3.43700 32.35200 27.59500
C  -5.09000 30.20400 24.93900
C  -4.79600 30.69900 28.53900
O  -5.60200 29.81900 28.93800
C  -3.96600 31.51000 29.66300
C  -5.00400 31.99200 30.68300
O  -5.92200 32.84700 30.59700
O  -4.95800 31.24900 31.85000
C  -5.89300 31.61300 32.93400
H  -0.60900 37.54200 29.68800
H  -0.09300 37.24300 23.32400
H  -3.58400 31.80100 23.29100
H  -3.38800 34.06800 31.44600
H  -0.75700 35.38900 31.46200
H  -3.00000 37.18600 31.07300
H  -1.65700 37.06700 32.30200
H  -3.21200 36.14500 32.48000
H  -0.55900 33.17900 32.06500
H  -1.30500 32.01800 31.14100
H  -2.57400 31.21200 32.87600
H  -3.05200 32.85600 33.28800
H  1.11300 40.16100 27.97400
H  2.14800 38.96500 28.15800
H  0.71600 39.06600 29.26600
H  2.82100 39.90800 26.21400
H  1.46800 41.08100 25.93100
H  2.61000 40.65200 24.65100
H  -0.44600 35.20500 21.76000
H  -3.17400 33.89100 21.64300
H  -3.33900 35.98800 21.02000
H  -1.83400 36.67200 20.35300
H  -2.30900 37.16800 21.94100
H  -1.14600 32.91600 20.33000
H  -1.92800 31.85400 21.42200
H  0.15700 33.03700 22.85000
H  0.84200 32.41200 21.27700
H  0.15400 31.34200 22.44900
H  -4.51300 29.92700 24.05700
H  -6.09900 30.49500 24.64500
H  -5.26800 29.31000 25.53600
H  -3.43800 30.74600 30.23400
H  -5.38900 32.27600 33.63700
H  -6.14500 30.67000 33.42100
H  -6.86800 31.91700 32.55300

