158

Mg -1.93800 17.82300 26.89600
C  -2.55900 15.72100 29.77200
C  -2.52200 20.54600 28.81200
C  -1.66400 19.54500 24.17300
C  -2.31700 14.85200 25.00700
N  -2.48000 18.07400 29.00900
C  -2.53800 17.12100 30.03700
C  -2.62200 17.96800 31.31400
C  -3.31000 19.30600 30.89400
C  -2.76200 19.37400 29.44500
C  -4.86200 19.09300 30.81900
C  -1.32000 18.02900 32.15900
C  -1.48300 18.27600 33.66400
H  -0.91900 17.29000 34.65800
N  -1.85800 19.79800 26.57000
C  -2.03600 20.81900 27.50000
C  -1.85900 22.06500 26.96000
C  -1.57700 21.82900 25.56200
C  -1.63400 20.28400 25.38000
C  -2.14500 23.34700 27.63200
C  -1.22700 22.73900 24.45200
O  -1.06200 22.35400 23.29600
C  -1.10000 24.23600 24.76300
N  -2.00800 17.25300 24.90800
C  -1.86700 18.17900 23.93000
C  -2.16300 17.70300 22.47700
C  -2.11500 16.19900 22.75500
C  -2.14600 16.06100 24.30600
C  -3.56200 18.30300 21.97200
C  -0.87400 15.40100 22.23600
C  0.46900 15.50700 22.99300
N  -2.29800 15.69200 27.27300
C  -2.32700 14.64200 26.40300
C  -2.55500 13.39500 27.14200
C  -2.63800 13.81000 28.43000
C  -2.46800 15.20200 28.48700
C  -2.62800 11.97000 26.59600
C  -2.75700 13.32100 29.80800
O  -2.87700 12.18700 30.25000
C  -2.74500 14.55500 30.70900
C  -1.58900 14.37700 31.67200
O  -0.42100 14.54100 31.45100
O  -2.11400 13.91100 32.83700
C  -1.17500 13.40200 33.87400
H  -2.76400 21.36300 29.49500
H  -1.68400 20.10300 23.23500
H  -2.28900 13.93500 24.41400
H  -3.26500 17.49700 32.05800
H  -3.01400 20.10800 31.57000
H  -5.24600 19.33600 29.82800
H  -5.25900 19.87700 31.46400
H  -5.29000 18.13400 31.11200
H  -0.73400 18.80300 31.66400
H  -0.72500 17.15100 31.90500
H  -2.49900 18.42600 34.02800
H  -1.01400 19.25200 33.79300
H  -2.23000 23.28200 28.71700
H  -3.07100 23.69600 27.17600
H  -1.37300 24.05500 27.32900
H  -0.48200 24.54000 25.60800
H  -2.14300 24.39600 25.03600
H  -0.70400 24.76300 23.89500
H  -1.36400 17.84300 21.74900
H  -3.01600 15.71600 22.37800
H  -3.38600 18.97000 21.12900
H  -4.04400 18.87700 22.76400
H  -4.22800 17.54600 21.55500
H  -0.63400 15.91200 21.30400
H  -0.97500 14.34400 21.98900
H  0.85100 14.49000 23.09100
H  0.38100 15.85400 24.02200
H  1.15800 16.15600 22.45300
H  -2.81300 12.12400 25.53200
H  -3.49300 11.52100 27.08400
H  -1.71200 11.38100 26.65200
H  -3.63600 14.58300 31.33600
H  -0.80400 12.40100 33.65300
H  -1.62100 13.38600 34.86800
H  -0.29100 14.03600 33.92800
Mg 0.13300 7.95300 26.74300
C  0.82300 10.03900 29.50500
C  -0.25500 5.36300 28.76500
C  -0.60800 6.11700 24.04300
C  0.67000 10.78300 24.66600
N  0.35500 7.74200 28.79800
C  0.49000 8.68700 29.82500
C  0.40500 8.09100 31.20900
C  0.48600 6.56300 30.84700
C  0.18100 6.52100 29.35800
C  1.78700 5.89300 31.16700
C  -0.90700 8.55800 31.93500
C  -0.77600 8.68300 33.50700
H  0.38100 8.13500 34.22700
N  -0.34300 6.02900 26.46900
C  -0.54800 5.07400 27.41500
C  -0.89100 3.84500 26.89100
C  -0.89000 4.01200 25.47300
C  -0.62900 5.46000 25.28000
C  -1.30200 2.60600 27.70500
C  -1.23900 3.02500 24.42100
O  -1.34900 3.44000 23.24500
C  -1.33600 1.60600 24.65600
N  0.06900 8.47100 24.60900
C  -0.30500 7.44400 23.76700
C  -0.34900 8.00400 22.32200
C  -0.02500 9.58800 22.51800
C  0.18400 9.67100 24.01300
C  0.65400 7.30400 21.26600
C  -1.08700 10.52800 21.88900
C  -2.30200 10.89100 22.77500
N  0.78400 9.92000 26.95000
C  0.97200 10.94500 26.03700
C  1.33900 12.20200 26.74100
C  1.34300 11.83600 28.12800
C  0.94900 10.50900 28.18100
C  1.49600 13.56700 26.08800
C  1.53300 12.25200 29.42500
O  1.94500 13.28800 29.81600
C  1.11900 11.18300 30.43500
C  2.28500 10.87600 31.42200
O  3.30100 10.18300 31.20500
O  2.06000 11.50100 32.63500
C  3.07500 11.49700 33.63700
H  -0.26200 4.57200 29.51800
H  -0.68200 5.61000 23.07800
H  0.82900 11.64300 24.01100
H  1.25400 8.23200 31.87800
H  -0.20500 5.95800 31.43500
H  2.59800 6.52700 31.52300
H  2.08400 5.24800 30.33900
H  1.49600 5.14200 31.90100
H  -1.58800 7.70700 31.94100
H  -1.26300 9.49300 31.50400
H  -1.69300 8.19100 33.83200
H  -0.97200 9.70100 33.84300
H  -1.62200 2.85700 28.71600
H  -0.56400 1.80600 27.63800
H  -2.19300 2.19900 27.22700
H  -0.43300 1.40800 25.23300
H  -1.14000 1.08600 23.71800
H  -2.23700 1.30200 25.18800
H  -1.41100 7.81400 22.16300
H  0.95600 9.85400 22.12300
H  0.02100 7.04200 20.41800
H  1.08500 6.42800 21.75000
H  1.48100 7.90800 20.89300
H  -1.58400 10.18700 20.98100
H  -0.61700 11.49500 21.71000
H  -3.23600 10.44700 22.42900
H  -2.35000 11.97700 22.86300
H  -2.20500 10.58700 23.81700
H  1.28800 14.38200 26.78200
H  0.77300 13.66300 25.27800
H  2.51500 13.71700 25.73300
H  0.25100 11.53100 30.99600
H  3.01000 12.41200 34.22700
H  4.09100 11.29300 33.30000
H  2.76100 10.77300 34.38900

