158

Mg -1.56100 18.10700 26.87300
C  -2.34700 15.90600 29.61400
C  -2.10500 20.80000 28.99300
C  -1.53600 20.18400 24.26000
C  -2.14600 15.43200 24.79400
N  -2.20200 18.25500 29.04300
C  -2.34600 17.31400 29.96800
C  -2.30300 17.86800 31.41200
C  -2.64600 19.37700 31.14200
C  -2.22300 19.50800 29.66200
C  -4.19600 19.68300 31.16600
C  -1.05600 17.65500 32.35700
C  -1.39500 17.11700 33.70200
H  -0.29700 16.91700 34.73800
N  -1.73100 20.18800 26.67400
C  -1.77300 21.15200 27.68900
C  -1.43600 22.44100 27.15400
C  -1.30400 22.35300 25.75000
C  -1.42500 20.84000 25.53000
C  -1.46900 23.57900 28.02200
C  -0.94200 23.37200 24.68800
O  -0.87700 23.08400 23.48200
C  -0.63800 24.71600 25.12300
N  -1.86700 17.77600 24.81500
C  -1.81700 18.86200 23.91500
C  -1.97300 18.34900 22.48000
C  -2.05100 16.77400 22.67400
C  -2.19300 16.66900 24.16100
C  -3.25400 18.82900 21.67100
C  -0.72600 16.03000 22.16800
C  -0.89700 14.53600 21.59100
N  -1.88500 16.01200 27.11500
C  -2.04900 15.09500 26.13400
C  -2.33500 13.80200 26.88900
C  -2.37700 14.09800 28.24800
C  -2.14500 15.48400 28.30200
C  -2.68100 12.51100 26.12100
C  -2.62800 13.47500 29.48000
O  -2.69500 12.30800 29.86800
C  -2.47900 14.69000 30.46200
C  -1.28100 14.44700 31.33200
O  -0.08800 14.75900 31.01000
O  -1.54600 13.68600 32.37700
C  -0.33500 13.19700 33.12200
H  -2.13800 21.61000 29.72500
H  -1.50600 20.80300 23.36100
H  -2.46200 14.59900 24.16300
H  -3.11200 17.46900 32.02400
H  -2.03000 20.09500 31.68400
H  -4.57700 19.77400 30.14900
H  -4.33800 20.68000 31.58300
H  -4.77400 18.94500 31.72300
H  -0.72700 18.65000 32.65500
H  -0.23700 17.09500 31.90500
H  -1.94600 16.18800 33.55400
H  -2.09800 17.84200 34.11100
H  -1.49400 23.31800 29.08000
H  -2.39700 24.07300 27.73700
H  -0.56000 24.16500 27.88700
H  -0.59000 25.47300 24.34000
H  0.30900 24.57300 25.64300
H  -1.35100 25.08400 25.86000
H  -1.18400 18.72200 21.82700
H  -2.92600 16.31500 22.21300
H  -3.50600 19.75600 22.18500
H  -3.98500 18.03300 21.81400
H  -3.06900 19.09500 20.63100
H  0.01200 15.86700 22.95300
H  -0.29100 16.62700 21.36700
H  -0.27000 13.84600 22.15500
H  -0.57300 14.35000 20.56700
H  -1.96300 14.31000 21.61100
H  -3.44600 12.69300 25.36500
H  -3.02400 11.74400 26.81600
H  -1.79000 12.22400 25.56300
H  -3.29600 14.72200 31.18300
H  -0.61900 13.29700 34.16900
H  0.55900 13.76900 32.87700
H  -0.21600 12.14700 32.85600
Mg 1.44900 -2.11900 44.10600
C  4.92500 -1.58000 43.92300
C  1.01000 0.66700 42.28300
C  -1.74800 -3.04000 43.88500
C  2.13400 -5.26800 45.72900
N  2.89400 -0.58700 43.26000
C  4.21600 -0.58500 43.22300
C  4.79200 0.58600 42.28200
C  3.44500 1.35900 41.99100
C  2.33800 0.43800 42.55100
C  3.42800 2.78500 42.47900
C  5.54100 0.06100 41.06800
C  7.03700 0.59500 41.03900
H  7.42800 1.49600 39.91000
N  -0.10400 -1.24500 43.30200
C  -0.10700 -0.06700 42.63700
C  -1.45100 0.24700 42.33200
C  -2.31400 -0.86900 42.57900
C  -1.42300 -1.81400 43.23600
C  -1.94900 1.47200 41.70000
C  -3.76600 -0.99200 42.34700
O  -4.43300 0.02900 42.13400
C  -4.40800 -2.35800 42.40100
N  0.33200 -3.88000 44.78300
C  -1.01300 -4.00400 44.60300
C  -1.57200 -5.35000 45.02600
C  -0.33600 -5.91400 45.86200
C  0.80300 -5.02100 45.39700
C  -2.95000 -5.25300 45.73900
C  -0.10000 -7.44500 45.75000
C  0.49100 -8.19700 47.03400
N  3.13900 -3.25700 44.67600
C  3.21800 -4.47700 45.41700
C  4.59400 -4.80800 45.53600
C  5.30800 -3.67000 45.03500
C  4.38700 -2.73300 44.54200
C  5.03700 -6.10100 46.18500
C  6.66500 -3.08700 44.88200
O  7.71300 -3.43300 45.31200
C  6.43100 -1.73800 44.10200
C  6.80000 -0.52400 44.91200
O  6.20200 -0.02300 45.83700
O  7.91300 0.06600 44.33400
C  8.13600 1.41100 44.71500
H  0.95600 1.57500 41.68000
H  -2.80100 -3.32400 43.93600
H  2.30600 -6.25100 46.17100
H  5.36600 1.31700 42.85000
H  3.27800 1.38700 40.91400
H  2.68400 2.80500 43.27500
H  3.27400 3.49600 41.66700
H  4.37000 3.06200 42.95200
H  5.06900 0.44900 40.16500
H  5.50300 -1.02300 40.96500
H  7.66000 -0.29800 40.97500
H  7.25000 1.07600 41.99400
H  -2.59400 1.25900 40.84800
H  -1.09800 2.12400 41.50300
H  -2.53700 2.01500 42.44000
H  -5.22100 -2.38100 41.67600
H  -4.93500 -2.51200 43.34200
H  -3.75200 -3.12200 41.98500
H  -1.74000 -5.93200 44.11900
H  -0.28900 -5.66400 46.92200
H  -2.76200 -5.86700 46.62000
H  -3.78500 -5.69100 45.19300
H  -3.14100 -4.18900 45.88400
H  0.61200 -7.76200 44.98900
H  -1.05400 -7.91900 45.51900
H  1.43200 -8.72500 46.88100
H  -0.19800 -8.85000 47.57000
H  0.71800 -7.42500 47.76900
H  4.61800 -6.98500 45.70600
H  4.63600 -6.11800 47.19900
H  6.12700 -6.08800 46.18000
H  6.99200 -1.93900 43.19000
H  8.82500 1.82400 43.97900
H  8.57400 1.70800 45.66800
H  7.21700 1.96600 44.52600

