158

Mg 4.81300 55.01900 42.05700
C  2.87900 52.11100 41.90700
C  7.26500 53.25300 40.29600
C  6.34700 57.86600 41.16200
C  2.03100 56.72200 42.94000
N  4.96300 52.96300 41.18500
C  4.01300 51.97600 41.10800
C  4.38500 50.83300 40.20900
C  5.91400 51.05600 40.02200
C  6.08500 52.53300 40.52400
C  6.94900 50.11600 40.69400
C  3.54500 50.73700 38.85600
C  2.93000 49.33100 38.49500
H  3.48200 48.61000 37.28200
N  6.69400 55.49900 41.15400
C  7.53200 54.61400 40.52100
C  8.70400 55.34400 40.11100
C  8.46700 56.70300 40.43900
C  7.11900 56.71200 40.91700
C  9.94700 54.65600 39.46000
C  9.48000 57.84800 40.15100
O  10.54500 57.58600 39.51900
C  9.33700 59.28100 40.62200
N  4.27800 57.04300 41.89100
C  5.03300 58.04300 41.51900
C  4.25900 59.37200 41.62500
C  2.87300 59.02300 42.22000
C  3.01400 57.52400 42.36400
C  5.08000 60.47700 42.34900
C  1.54900 59.50500 41.49900
C  0.17900 59.55700 42.23700
N  2.84900 54.59000 42.52000
C  1.84000 55.32500 42.97400
C  0.75000 54.58300 43.36200
C  1.12000 53.29900 43.07800
C  2.41300 53.34000 42.47700
C  -0.45700 54.98400 44.08800
C  0.80500 51.84100 43.09300
O  -0.16700 51.21600 43.46500
C  1.86500 51.02100 42.27900
C  1.18400 50.27200 41.13400
O  0.70800 50.73300 40.10700
O  1.22500 48.90600 41.46900
C  0.48400 47.90800 40.70500
H  7.81400 52.60200 39.61300
H  6.87400 58.78200 40.88600
H  1.11200 57.19700 43.28900
H  4.23700 49.87900 40.71600
H  6.12800 50.86200 38.97100
H  6.56900 49.64600 41.60200
H  7.76900 50.67200 41.14800
H  7.31800 49.38400 39.97600
H  4.19300 51.06600 38.04400
H  2.75500 51.48400 38.78800
H  1.84500 49.27400 38.40800
H  3.06300 48.56900 39.26300
H  10.09600 53.59400 39.65500
H  10.84500 55.11900 39.86900
H  10.17500 54.79300 38.40300
H  10.28100 59.82500 40.59400
H  9.01000 59.26000 41.66200
H  8.62700 59.85100 40.02400
H  4.05600 59.64700 40.59000
H  2.90100 59.69000 43.08300
H  4.80800 60.50300 43.40400
H  4.74000 61.43800 41.96300
H  6.12600 60.48900 42.04100
H  1.38000 58.83600 40.65500
H  1.70700 60.50800 41.10200
H  -0.18300 60.58400 42.29200
H  0.21200 59.28700 43.29300
H  -0.59900 58.88700 41.87100
H  -0.49500 56.02700 44.40200
H  -0.37000 54.34500 44.96600
H  -1.26000 54.76900 43.38300
H  2.21800 50.20600 42.91100
H  -0.22000 48.51000 40.13000
H  0.24800 47.11300 41.41200
H  1.15700 47.44700 39.98200
Mg 1.18200 42.62500 25.49800
C  2.09700 42.56500 29.06200
C  -1.61300 40.85200 26.46900
C  0.77100 41.77500 22.26900
C  4.27700 43.85200 24.82900
N  0.31300 41.96100 27.57900
C  0.80000 42.02600 28.82800
C  -0.19200 41.51700 29.90600
C  -1.22600 40.83200 28.94700
C  -0.77200 41.14000 27.55800
C  -1.34900 39.23600 29.13000
C  -0.76900 42.71900 30.74300
C  -0.85300 42.51700 32.25800
H  -1.42500 41.19400 32.83500
N  -0.35000 41.72500 24.45200
C  -1.45300 41.05000 25.03100
C  -2.32800 40.59700 23.97600
C  -1.65700 40.89300 22.70000
C  -0.31700 41.49800 23.06000
C  -3.68900 39.95400 24.31100
C  -2.05300 40.63300 21.26300
O  -1.35700 40.85300 20.27900
C  -3.48700 40.17300 20.98700
N  2.36500 42.69000 23.83200
C  1.98800 42.30300 22.61100
C  3.13500 42.50700 21.63300
C  4.04800 43.56200 22.33400
C  3.49900 43.46900 23.72800
C  3.82100 41.11300 21.27600
C  3.92400 45.05000 21.87200
C  2.50200 45.58400 21.77800
N  2.81100 43.26000 26.65400
C  4.06800 43.74600 26.22200
C  4.88800 44.00800 27.34200
C  4.15000 43.54200 28.45100
C  2.92000 43.08200 28.01200
C  6.28600 44.60700 27.30400
C  4.15700 43.36000 29.94500
O  5.02500 43.67400 30.76700
C  2.82400 42.70400 30.31500
C  3.03800 41.52400 31.08500
O  3.74800 40.57300 30.72800
O  2.28600 41.56800 32.22000
C  2.21700 40.38200 33.04700
H  -2.51200 40.36700 26.85500
H  0.75400 41.53000 21.20500
H  5.26800 44.16100 24.48900
H  0.26100 40.77700 30.56500
H  -2.21100 41.28500 29.06200
H  -2.39300 39.05700 29.38900
H  -0.72000 38.85100 29.93200
H  -1.14700 38.70400 28.20000
H  -1.74600 43.01200 30.35700
H  -0.15700 43.61000 30.60300
H  -1.53700 43.25900 32.67100
H  0.14800 42.74100 32.62600
H  -3.80800 39.35800 25.21600
H  -3.80600 39.22600 23.50900
H  -4.52100 40.65700 24.27100
H  -4.27400 40.60700 21.60400
H  -3.60600 39.09300 21.07400
H  -3.74200 40.39100 19.94900
H  2.79200 42.95200 20.69900
H  5.07400 43.19600 22.28800
H  3.15000 40.27200 21.44700
H  4.68800 41.01400 21.92900
H  4.11400 41.05800 20.22700
H  4.20100 44.91100 20.82700
H  4.78900 45.56500 22.28900
H  2.40700 45.78900 20.71100
H  2.42800 46.48600 22.38600
H  1.67400 44.96500 22.12200
H  6.33800 45.64800 26.98300
H  7.01300 44.01700 26.74600
H  6.69400 44.59200 28.31500
H  2.30700 43.38000 30.99600
H  2.10600 39.43000 32.52900
H  1.43800 40.47000 33.80500
H  3.14800 40.25700 33.60000

