158

Mg 47.96200 16.41900 29.42100
C  45.48100 15.64400 31.70300
C  49.78000 17.84200 31.75800
C  49.88600 17.26800 26.95100
C  45.66800 15.08200 26.89400
N  47.55700 16.77500 31.45600
C  46.59100 16.20500 32.23000
C  46.82600 16.45300 33.76100
C  48.21700 17.18200 33.75600
C  48.52200 17.29600 32.20800
C  48.17200 18.61000 34.46400
C  46.75200 15.23000 34.73700
C  47.53500 15.31100 36.07000
H  47.45100 16.65200 36.76800
N  49.58500 17.48900 29.30800
C  50.20000 18.00700 30.42400
C  51.48800 18.67000 29.96100
C  51.51000 18.56800 28.55000
C  50.31000 17.73100 28.19900
C  52.47600 19.37900 30.97600
C  52.57800 18.96600 27.63000
O  52.56900 18.55700 26.43600
C  53.70700 19.82600 28.01500
N  47.70600 16.22600 27.20400
C  48.78600 16.59300 26.47600
C  48.62000 16.19700 25.03400
C  47.30700 15.34300 24.99000
C  46.89100 15.42100 26.46900
C  48.62000 17.27600 23.88600
C  47.40600 13.84400 24.47600
C  47.11800 13.71700 22.91200
N  45.91800 15.55900 29.24600
C  45.11300 15.15200 28.22600
C  43.85300 14.59200 28.78200
C  43.90300 14.86800 30.18500
C  45.18000 15.46200 30.31700
C  42.72400 13.96400 27.97800
C  43.20600 14.77100 31.45800
O  42.13000 14.33200 31.81700
C  44.24800 15.25400 32.48300
C  43.68900 16.36400 33.36000
O  43.53300 17.55800 33.07900
O  43.27100 15.73800 34.57000
C  42.57400 16.68500 35.46600
H  50.47500 18.11800 32.55500
H  50.60400 17.38200 26.13600
H  45.02100 14.65000 26.12800
H  46.05800 17.17700 34.03200
H  49.04400 16.59200 34.15200
H  47.21300 18.79700 34.94700
H  48.32000 19.26200 33.60300
H  49.04000 18.76600 35.10400
H  47.20900 14.39700 34.20300
H  45.68500 15.08700 34.91300
H  48.59900 15.12400 35.92400
H  47.10800 14.50800 36.67000
H  53.11600 18.69500 31.53400
H  51.78900 19.73800 31.74200
H  53.03300 20.29200 30.76200
H  53.32600 20.78600 28.36100
H  54.43300 19.85500 27.20200
H  54.20500 19.35300 28.86100
H  49.44800 15.51300 24.84900
H  46.43600 15.72500 24.45900
H  48.52900 18.21300 24.43500
H  47.78600 17.15700 23.19500
H  49.54900 17.16200 23.32700
H  46.70900 13.29500 25.11000
H  48.38000 13.47300 24.79500
H  46.97500 14.66200 22.38800
H  46.23100 13.08700 22.83800
H  47.94800 13.23900 22.39200
H  42.70600 12.87600 28.03200
H  42.93300 14.30600 26.96400
H  41.72400 14.37300 28.12100
H  44.51800 14.32900 32.99200
H  41.69100 17.10600 34.98400
H  43.31400 17.40900 35.80600
H  42.31200 16.15600 36.38300
Mg 30.79500 57.97300 38.42900
C  28.07100 55.97100 37.40100
C  32.68500 55.19700 38.17000
C  33.28400 59.94200 39.38300
C  28.72800 60.73700 38.25000
N  30.41300 55.84900 37.65200
C  29.23000 55.29000 37.35500
C  29.41700 53.78700 37.00000
C  30.92400 53.59500 37.24300
C  31.36600 54.93700 37.78800
C  31.39800 52.43000 38.19500
C  29.00600 53.39000 35.55400
C  29.48500 54.43700 34.46500
H  28.36600 54.79600 33.46000
N  32.75700 57.59500 38.79400
C  33.39300 56.39300 38.62100
C  34.73600 56.52800 38.98600
C  34.99900 57.88200 39.27500
C  33.68100 58.57900 39.16800
C  35.75100 55.39500 38.88600
C  36.33900 58.42800 39.51600
O  37.35400 57.76700 39.25100
C  36.61600 59.81500 40.20000
N  30.95700 60.05900 38.87800
C  32.08900 60.66800 39.31100
C  31.98900 62.24800 39.33700
C  30.55100 62.44900 39.02300
C  30.03600 61.03200 38.60100
C  32.67000 63.00800 40.50300
C  30.15300 63.69300 38.19500
C  29.06300 64.66800 38.71900
N  28.79800 58.32700 38.00500
C  28.08000 59.54100 37.98200
C  26.67700 59.25600 37.64400
C  26.58500 57.86500 37.51800
C  27.90900 57.34700 37.71300
C  25.54400 60.30000 37.55300
C  25.70500 56.80000 37.28100
O  24.47800 56.90700 37.26000
C  26.53200 55.58800 37.18600
C  25.99800 54.48200 38.12400
O  26.51000 54.15100 39.14000
O  24.91400 53.91700 37.46000
C  24.36800 52.73500 38.05700
H  33.24900 54.26200 38.19000
H  34.08000 60.62300 39.69200
H  28.00700 61.55100 38.34000
H  28.68900 53.22000 37.57800
H  31.33600 53.44200 36.24600
H  32.15200 51.78100 37.75000
H  30.57200 51.76200 38.44000
H  31.72900 52.79600 39.16700
H  27.93400 53.20000 35.60100
H  29.41600 52.39400 35.38900
H  30.26800 53.85200 33.98100
H  29.99100 55.31200 34.87400
H  36.38200 55.36200 39.77500
H  36.45700 55.73200 38.12700
H  35.35200 54.41600 38.62200
H  37.53100 59.80000 40.79300
H  35.84100 60.09200 40.91400
H  36.71500 60.49400 39.35300
H  32.53700 62.59300 38.46100
H  30.02800 62.61000 39.96600
H  33.21100 62.27700 41.10400
H  31.84300 63.37800 41.10900
H  33.38400 63.79400 40.26100
H  29.84400 63.33900 37.21100
H  31.05500 64.29700 38.09800
H  29.56800 65.29000 39.45700
H  28.17000 64.13300 39.04300
H  28.59600 65.22700 37.90800
H  24.65900 59.81100 37.14600
H  25.81500 61.02300 36.78400
H  25.40000 60.83800 38.49100
H  26.48100 55.14600 36.19100
H  25.17200 52.16700 38.52500
H  23.88800 52.19600 37.24000
H  23.62100 52.93600 38.82500

