158

Mg 41.52600 40.51200 26.61600
C  40.62100 43.02100 28.83300
C  42.14700 38.37800 29.26400
C  42.56400 38.24000 24.34000
C  41.06100 42.82400 24.00300
N  41.38800 40.68000 28.74300
C  41.00100 41.80100 29.48100
C  40.98900 41.54700 30.98000
C  41.50900 40.07900 31.08700
C  41.80000 39.70100 29.62800
C  42.81300 39.77300 31.93600
C  39.54600 41.62200 31.66500
C  39.44200 42.77100 32.74200
H  38.81000 42.34400 34.04300
N  42.35500 38.57000 26.80000
C  42.36200 37.85800 27.96000
C  42.69300 36.47500 27.65000
C  43.00600 36.42500 26.20700
C  42.69700 37.79000 25.74400
C  42.69600 35.31900 28.64000
C  43.48700 35.33700 25.34400
O  43.88800 35.58600 24.23300
C  43.56700 33.90400 25.98300
N  41.81000 40.52200 24.51400
C  42.13500 39.46700 23.79400
C  42.18200 39.74000 22.27200
C  41.51000 41.12700 22.19800
C  41.49000 41.56100 23.67300
C  43.57800 39.43400 21.54000
C  40.04500 41.26000 21.54000
C  38.80600 40.70900 22.33600
N  40.96500 42.55900 26.41200
C  40.77500 43.32600 25.24800
C  40.27600 44.65100 25.61000
C  40.22500 44.58100 27.02400
C  40.61300 43.29900 27.41500
C  39.93000 45.82400 24.68900
C  39.95200 45.29800 28.23600
O  39.52800 46.41800 28.40300
C  40.16100 44.31800 29.44900
C  41.21600 44.94100 30.27000
O  42.39900 45.13600 29.98200
O  40.60100 45.52000 31.27900
C  41.49700 45.98100 32.37200
H  42.03100 37.74700 30.14900
H  42.96900 37.49100 23.65600
H  40.79500 43.51800 23.20200
H  41.70300 42.25600 31.40100
H  40.72100 39.44800 31.49800
H  42.91400 40.72200 32.46400
H  43.69300 39.59700 31.31800
H  42.56700 38.91100 32.55600
H  39.17400 40.67300 32.05100
H  38.81700 41.95600 30.92600
H  38.82700 43.60800 32.41000
H  40.36300 43.27300 33.03800
H  41.97900 34.60500 28.23300
H  42.23000 35.48700 29.61100
H  43.64300 34.81100 28.82100
H  44.17000 33.90800 26.89100
H  44.05100 33.24300 25.26400
H  42.54300 33.57800 26.16300
H  41.39400 39.02900 22.02200
H  42.17300 41.82700 21.68800
H  43.97600 40.43800 21.38900
H  43.55000 38.99900 20.54100
H  44.18700 38.83300 22.21500
H  40.24000 40.78400 20.57900
H  39.89300 42.32900 21.39200
H  39.12000 40.30000 23.29700
H  38.33800 39.91800 21.75100
H  38.15200 41.56000 22.52500
H  38.85900 45.78700 24.49100
H  40.59000 45.73700 23.82600
H  40.13900 46.75700 25.21200
H  39.18700 44.31000 29.93900
H  40.84100 46.46800 33.09300
H  42.25600 46.71200 32.09500
H  41.98100 45.10900 32.81200
Mg -11.00200 17.51200 43.13700
C  -7.56000 18.38000 42.99100
C  -11.72000 20.78300 42.55900
C  -14.35000 16.62500 42.85000
C  -10.17300 14.15600 43.18600
N  -9.74000 19.32800 42.72900
C  -8.36200 19.49400 42.77400
C  -7.87600 20.95300 42.74400
C  -9.29000 21.61400 42.98000
C  -10.29500 20.47900 42.71800
C  -9.34500 22.09100 44.45500
C  -7.33300 21.34400 41.25100
C  -5.86000 21.55400 41.20700
H  -5.11600 20.87500 40.08400
N  -12.81400 18.58400 42.87800
C  -12.87500 19.89600 42.71300
C  -14.23100 20.30400 42.80100
C  -15.07900 19.14900 42.80900
C  -14.10000 18.02100 42.91000
C  -14.60400 21.79000 42.81600
C  -16.62100 19.13600 42.77100
O  -17.21000 20.21300 42.57800
C  -17.49800 17.87000 42.81300
N  -12.17100 15.70400 42.99700
C  -13.50500 15.56200 42.98400
C  -13.94700 14.18000 43.40100
C  -12.60600 13.34100 43.06100
C  -11.58900 14.43800 43.06400
C  -14.43900 14.01100 44.92900
C  -12.57900 12.58700 41.73500
C  -12.53500 11.01200 41.80900
N  -9.22700 16.40000 43.17900
C  -8.99100 15.05200 43.23400
C  -7.56000 14.75500 43.15900
C  -6.97900 16.06400 43.19900
C  -8.02100 17.01500 43.12500
C  -6.79900 13.45000 43.22900
C  -5.74000 16.81300 43.27500
O  -4.56600 16.48100 43.31500
C  -6.09700 18.34700 43.22800
C  -5.81900 18.93400 44.48100
O  -6.23000 18.48800 45.57900
O  -5.06200 20.08600 44.34100
C  -4.96300 20.96500 45.61000
H  -11.91300 21.84800 42.70400
H  -15.42700 16.45000 42.80800
H  -9.94900 13.09000 43.27000
H  -7.18500 21.08100 43.57800
H  -9.61000 22.42100 42.32200
H  -8.42300 22.16100 45.03300
H  -10.08100 21.38900 44.84800
H  -9.85600 23.05000 44.53500
H  -7.73700 22.30400 40.93000
H  -7.58900 20.53400 40.56800
H  -5.56200 21.32500 42.23000
H  -5.72900 22.62300 41.04100
H  -14.88300 22.14400 41.82300
H  -13.78400 22.38100 43.22300
H  -15.51800 21.88200 43.40300
H  -17.41400 17.10000 42.04600
H  -18.52000 18.17700 42.59000
H  -17.58500 17.37900 43.78200
H  -14.70600 13.64500 42.83000
H  -12.33900 12.66800 43.87600
H  -14.30300 14.98700 45.39600
H  -13.82800 13.28800 45.46900
H  -15.50700 13.83600 45.06000
H  -11.62900 12.80500 41.24800
H  -13.41900 12.86700 41.09900
H  -13.27100 10.66900 41.08200
H  -12.83300 10.68200 42.80400
H  -11.51800 10.68500 41.59600
H  -6.24800 13.52000 44.16700
H  -6.14100 13.48000 42.36100
H  -7.42500 12.55800 43.26800
H  -5.50200 18.94200 42.53500
H  -4.46800 20.37000 46.37700
H  -5.95300 21.28700 45.93100
H  -4.37800 21.85600 45.38100

