158

Mg -3.35900 16.96400 26.79100
C  -3.38800 14.96800 29.59000
C  -3.72000 19.83400 28.62500
C  -3.30900 18.73500 23.91000
C  -3.57400 13.94900 24.86300
N  -3.46900 17.26800 28.84300
C  -3.51300 16.34300 29.90200
C  -3.48300 16.99100 31.29600
C  -3.63200 18.49600 30.87100
C  -3.66300 18.56500 29.34700
C  -4.59100 19.37000 31.69700
C  -2.28300 16.59000 32.22600
C  -1.67700 17.45100 33.32700
H  -1.41400 16.87600 34.72000
N  -3.35200 19.02000 26.35900
C  -3.48300 20.05900 27.29600
C  -3.35400 21.37000 26.63400
C  -3.12300 21.05200 25.22200
C  -3.26200 19.57300 25.12100
C  -3.52500 22.75600 27.32300
C  -2.93400 22.02800 24.06500
O  -3.07000 21.61600 22.89200
C  -2.68300 23.43100 24.35700
N  -3.54300 16.35500 24.65000
C  -3.41900 17.36600 23.72600
C  -3.43200 16.78000 22.30400
C  -3.33300 15.21800 22.59700
C  -3.50600 15.10400 24.09500
C  -4.76400 17.30600 21.73300
C  -1.90400 14.84100 21.99400
C  -0.77000 15.33000 22.93000
N  -3.53100 14.93800 27.05200
C  -3.54700 13.83000 26.20800
C  -3.46600 12.52700 26.95800
C  -3.47400 12.97700 28.29200
C  -3.46500 14.39600 28.29000
C  -3.49000 11.14500 26.43400
C  -3.38300 12.56100 29.69100
O  -3.32000 11.45600 30.14000
C  -3.30900 13.75600 30.48400
C  -2.02500 13.60300 31.21400
O  -0.89300 14.05700 30.87500
O  -2.30700 13.11400 32.45200
C  -1.15000 12.96900 33.34500
H  -3.79300 20.67600 29.31700
H  -3.30000 19.22900 22.93600
H  -3.53000 13.06400 24.22300
H  -4.41700 16.71400 31.78500
H  -2.66700 18.94300 31.11100
H  -5.36200 19.90900 31.14600
H  -4.06600 20.21700 32.13700
H  -5.05900 18.84900 32.53300
H  -1.49100 16.44300 31.49100
H  -2.64700 15.68800 32.71800
H  -2.09500 18.45700 33.37200
H  -0.68100 17.69300 32.95900
H  -2.63900 23.36800 27.15100
H  -3.56800 22.56900 28.39600
H  -4.36700 23.31900 26.91800
H  -3.58100 23.86900 24.79000
H  -2.43800 23.95200 23.43100
H  -1.84500 23.57800 25.03800
H  -2.65800 17.20200 21.66300
H  -4.15200 14.66300 22.14000
H  -5.41400 16.49000 21.41600
H  -4.42100 17.83700 20.84400
H  -5.19700 18.07500 22.37200
H  -1.73000 15.37700 21.06100
H  -1.86600 13.77700 21.76000
H  -0.06000 14.51900 23.09300
H  -1.01200 15.60000 23.95800
H  -0.25500 16.17100 22.46700
H  -3.56800 11.08200 25.34800
H  -4.29500 10.55300 26.86900
H  -2.56000 10.59500 26.57900
H  -4.09300 13.67600 31.23600
H  -0.99400 13.81600 34.01300
H  -0.22800 12.73700 32.81200
H  -1.54100 12.15800 33.96000
Mg 49.63300 34.98700 28.03100
C  47.44700 33.80000 30.34800
C  49.83800 37.89500 29.98700
C  51.65200 36.37200 25.66100
C  48.68800 32.67400 25.68500
N  48.91400 35.67500 30.01100
C  48.13800 34.89900 30.84100
C  47.99800 35.55300 32.22900
C  48.36000 37.07700 31.87600
C  49.15000 36.91700 30.54300
C  47.23000 38.14800 31.72100
C  49.07700 34.92400 33.19900
C  48.64500 34.62900 34.65700
H  49.17500 35.57900 35.72800
N  50.83000 36.80000 27.93000
C  50.72800 37.82400 28.80100
C  51.62700 38.91400 28.33900
C  52.23300 38.44100 27.12100
C  51.60500 37.10800 26.85400
C  51.70300 40.23400 29.03400
C  53.22800 39.14000 26.18400
O  53.75100 38.51900 25.26800
C  53.67600 40.57800 26.46200
N  50.05800 34.59000 25.89500
C  50.99900 35.26000 25.20100
C  51.08700 34.70600 23.69400
C  50.32700 33.35600 23.83100
C  49.68900 33.49600 25.25800
C  50.48900 35.71900 22.69400
C  51.27000 32.22800 23.72100
C  51.84800 32.01900 22.29400
N  48.36200 33.46400 28.02000
C  48.06200 32.55200 26.99600
C  47.02700 31.68900 27.45100
C  46.68000 32.20100 28.71000
C  47.62200 33.20700 29.07900
C  46.27400 30.62600 26.67600
C  45.80100 31.96400 29.85200
O  44.86700 31.15900 30.06700
C  46.30200 32.92500 31.00300
C  46.82400 31.98800 32.06100
O  47.94800 31.62000 32.28000
O  45.85800 31.66000 32.86600
C  46.12300 30.80500 34.00200
H  50.03700 38.86500 30.44800
H  52.29500 36.73800 24.85800
H  48.46300 31.85000 25.00400
H  46.99900 35.48800 32.65900
H  49.09900 37.25500 32.65700
H  46.23100 37.71100 31.75000
H  47.18900 38.57500 30.71900
H  47.23500 38.96600 32.44100
H  50.04100 35.43400 33.19200
H  49.27100 33.94200 32.76900
H  48.72800 33.65000 35.12900
H  47.55800 34.69500 34.61400
H  52.33800 40.98900 28.57100
H  52.04400 39.99800 30.04200
H  50.68800 40.62100 29.11800
H  52.84400 41.27800 26.53400
H  54.29200 40.86000 25.60800
H  54.35100 40.56300 27.31800
H  52.14100 34.54500 23.46600
H  49.47900 33.31400 23.14700
H  50.39400 36.73200 23.08700
H  49.51900 35.30700 22.41500
H  51.21100 35.77100 21.87900
H  50.79700 31.30900 24.06600
H  52.09500 32.39700 24.41400
H  51.35400 32.70200 21.60400
H  51.59800 31.01500 21.95100
H  52.91400 32.24600 22.32200
H  45.33100 30.38000 27.16400
H  46.81700 29.68500 26.58200
H  45.93200 30.82900 25.66100
H  45.48000 33.49800 31.43200
H  47.10900 30.95500 34.44300
H  46.03800 29.75600 33.71600
H  45.40000 30.92300 34.80900

