158

Mg 16.39000 -2.29100 27.67000
C  15.33600 -0.13500 30.28100
C  18.53700 -3.80100 29.81100
C  17.82700 -3.63800 25.07700
C  14.58700 -0.08000 25.52700
N  16.78000 -2.03300 29.87900
C  16.21500 -1.18000 30.69200
C  16.66900 -1.41500 32.14100
C  17.74800 -2.49300 32.00400
C  17.66100 -2.83700 30.50200
C  19.16200 -2.19000 32.46500
C  15.52900 -1.82500 33.10300
C  15.49600 -0.88100 34.37900
H  16.84900 -0.36700 35.05800
N  17.90100 -3.69300 27.46300
C  18.62500 -4.22600 28.46600
C  19.52900 -5.31600 27.92700
C  19.32300 -5.33400 26.46300
C  18.28400 -4.22400 26.23800
C  20.42700 -6.19800 28.75100
C  19.86900 -6.14400 25.32100
O  19.55500 -5.94800 24.14800
C  20.73900 -7.35100 25.77900
N  16.10400 -2.02900 25.56600
C  16.93400 -2.65400 24.72400
C  16.93900 -2.01200 23.31500
C  15.80100 -1.02300 23.44300
C  15.43500 -1.04700 24.90900
C  18.30300 -1.32800 22.90600
C  14.51300 -1.12300 22.54100
C  14.14900 0.01500 21.55700
N  15.06800 -0.52000 27.81500
C  14.33600 0.15200 26.82900
C  13.56400 1.19200 27.44400
C  14.01400 1.16600 28.79400
C  14.91200 0.10600 28.96000
C  12.51700 2.04500 26.82200
C  13.75900 1.75100 30.10300
O  12.92100 2.54300 30.48500
C  14.71700 0.96100 31.10600
C  15.72800 1.92700 31.59300
O  16.56300 2.51500 30.89400
O  15.44900 2.32900 32.89900
C  16.22400 3.50600 33.31200
H  19.30300 -4.17700 30.49300
H  18.31100 -4.14200 24.23800
H  13.99200 0.44300 24.77500
H  17.09600 -0.47000 32.47700
H  17.35600 -3.42600 32.40900
H  19.98400 -2.04900 31.76400
H  19.28700 -2.96000 33.22700
H  19.18900 -1.25500 33.02500
H  15.60700 -2.87300 33.39200
H  14.54300 -1.66500 32.66700
H  14.91200 -1.43000 35.11700
H  14.80200 -0.07200 34.15400
H  20.07200 -7.22600 28.82700
H  20.61400 -5.78500 29.74200
H  21.40300 -6.15400 28.26800
H  20.15300 -7.86200 26.54300
H  21.61500 -6.77500 26.07800
H  20.93200 -7.92700 24.87400
H  16.65900 -2.73700 22.55000
H  16.20000 -0.00900 23.40800
H  18.94400 -1.54500 23.76100
H  18.27400 -0.24200 22.80800
H  18.68000 -1.90400 22.06100
H  13.55700 -1.26200 23.04600
H  14.62100 -2.01000 21.91700
H  13.84100 -0.41100 20.60100
H  15.12400 0.47400 21.39300
H  13.47500 0.76800 21.96400
H  12.07800 2.83200 27.43600
H  11.66400 1.42400 26.54800
H  12.89800 2.58900 25.95800
H  14.19900 0.42900 31.90400
H  16.14200 4.39400 32.68500
H  17.28400 3.25500 33.34200
H  15.89100 3.86700 34.28500
Mg -11.97600 15.17700 41.87600
C  -8.77900 14.05700 41.35800
C  -11.21900 18.23800 40.34700
C  -15.25700 15.94900 42.09400
C  -12.87000 11.71300 42.36100
N  -10.19900 16.03800 40.86600
C  -8.97300 15.35700 40.91200
C  -7.90100 16.24500 40.15800
C  -8.73400 17.66800 40.01400
C  -10.14800 17.32400 40.38600
C  -8.16300 18.99700 40.67400
C  -7.61100 15.62700 38.70800
C  -6.08600 15.55400 38.38800
H  -5.51900 16.40500 37.26100
N  -13.09200 16.80200 41.33900
C  -12.58200 18.00500 40.80900
C  -13.65900 18.97600 40.71000
C  -14.81000 18.37800 41.35900
C  -14.40500 17.01600 41.70400
C  -13.47400 20.38600 40.05100
C  -16.25800 19.02400 41.48800
O  -16.44200 20.14400 40.97900
C  -17.38600 18.36900 42.13100
N  -13.77300 14.05300 42.06000
C  -14.94000 14.60800 42.25500
C  -16.03900 13.56100 42.57700
C  -15.34200 12.23800 42.05600
C  -13.91300 12.68600 42.29600
C  -16.35300 13.53100 44.11000
C  -15.56900 11.93800 40.57500
C  -16.25400 10.57600 40.21100
N  -11.04800 13.20000 42.15700
C  -11.51200 11.99100 42.26800
C  -10.44200 11.01900 42.33700
C  -9.30300 11.73200 41.97700
C  -9.72200 13.08400 41.86200
C  -10.66300 9.53700 42.73300
C  -7.90500 11.67500 41.65000
O  -7.18700 10.65700 41.58900
C  -7.52600 13.13600 41.28000
C  -6.57600 13.64800 42.27100
O  -6.73200 13.60400 43.46200
O  -5.62000 14.34000 41.56500
C  -4.42300 14.74500 42.36900
H  -10.98800 19.24100 39.98100
H  -16.32200 16.17200 42.18400
H  -13.19400 10.67500 42.46200
H  -7.02800 16.46400 40.77300
H  -8.74700 17.85800 38.94000
H  -8.34600 19.76900 39.92700
H  -7.08300 18.84900 40.66200
H  -8.63200 19.28100 41.61600
H  -8.11700 16.17500 37.91200
H  -8.00000 14.61600 38.58800
H  -5.75700 14.51900 38.30100
H  -5.54600 15.80600 39.30100
H  -14.23200 21.07800 40.41700
H  -13.64800 20.28900 38.97900
H  -12.51000 20.78300 40.37100
H  -18.27400 18.98100 41.97600
H  -17.20400 18.16300 43.18600
H  -17.66600 17.54000 41.48100
H  -16.88100 13.66200 41.89200
H  -15.50300 11.38700 42.71800
H  -15.85100 14.27200 44.73200
H  -16.21400 12.53200 44.52100
H  -17.42600 13.61800 44.27800
H  -14.65100 12.04400 39.99700
H  -16.23900 12.66500 40.11700
H  -15.77600 9.74600 40.73100
H  -16.21400 10.44100 39.13000
H  -17.31300 10.56100 40.46600
H  -11.30300 9.02000 42.01800
H  -11.25200 9.40100 43.64000
H  -9.67100 9.08800 42.78400
H  -7.04500 13.15900 40.30200
H  -4.60100 15.67900 42.90400
H  -3.54900 14.94300 41.75000
H  -4.16700 13.94900 43.06800

