158

Mg 40.30900 9.77800 29.99000
C  42.24100 11.20500 32.43600
C  38.15300 8.52700 32.30500
C  38.45400 8.49500 27.47700
C  42.99700 10.31600 27.75100
N  40.26100 9.82300 32.09200
C  41.04700 10.57500 32.82900
C  40.54200 10.64500 34.30000
C  39.39800 9.48900 34.31000
C  39.22100 9.26200 32.83500
C  39.77700 8.20100 35.09000
C  40.07600 12.04300 34.85800
C  39.63900 12.08400 36.33900
H  40.27200 13.04500 37.35700
N  38.59800 8.62600 29.88300
C  37.78800 8.24000 30.93500
C  36.59100 7.48000 30.46500
C  36.59100 7.58400 29.00200
C  37.91100 8.32800 28.73000
C  35.50300 6.86300 31.36200
C  35.55000 7.03900 28.04000
O  35.67200 7.14700 26.80400
C  34.18400 6.53000 28.46600
N  40.59100 9.45800 27.88800
C  39.61900 8.95900 27.07300
C  40.14000 8.91000 25.55000
C  41.59300 9.44800 25.72000
C  41.78600 9.79200 27.17000
C  40.00600 7.66000 24.68800
C  41.87900 10.69900 24.76600
C  41.70600 12.10900 25.17900
N  42.22800 10.56500 29.98100
C  43.20200 10.73100 28.99400
C  44.37400 11.36000 29.61000
C  43.99400 11.67100 30.95100
C  42.71100 11.06500 31.14500
C  45.77800 11.58700 29.05100
C  44.44600 12.34000 32.21000
O  45.41500 13.07200 32.45500
C  43.29100 12.02500 33.20800
C  43.88700 11.44500 34.43800
O  44.34200 10.31700 34.48300
O  43.90900 12.36900 35.47200
C  44.44800 12.00400 36.77600
H  37.40300 8.17400 33.01500
H  37.87500 8.14200 26.62100
H  43.82200 10.41400 27.04200
H  41.38800 10.40500 34.94300
H  38.43500 9.83800 34.68400
H  40.86400 8.14200 35.03500
H  39.42100 7.32600 34.54800
H  39.38800 8.25300 36.10700
H  39.26300 12.46000 34.26400
H  40.90300 12.74100 34.72800
H  39.58400 11.06300 36.71800
H  38.61000 12.43400 36.26800
H  35.89000 6.93200 32.37800
H  35.31800 5.89300 30.90000
H  34.60500 7.47800 31.31800
H  34.38700 5.57700 28.95500
H  33.67800 6.28100 27.53300
H  33.63300 7.22000 29.10600
H  39.60900 9.76400 25.12700
H  42.31500 8.68700 25.42500
H  39.91500 6.81600 25.37200
H  40.91900 7.50500 24.11200
H  39.21200 7.66400 23.94100
H  41.22400 10.68200 23.89500
H  42.77700 10.59600 24.15700
H  41.39300 12.75300 24.35800
H  42.65400 12.51700 25.53100
H  40.94900 12.11400 25.96400
H  46.18500 10.58100 29.14900
H  46.40000 12.21500 29.68900
H  45.69400 12.00700 28.04800
H  42.81500 12.95800 33.50900
H  43.66400 11.86100 37.52000
H  45.23000 12.65700 37.16400
H  45.01700 11.07400 36.77300
Mg -5.26200 25.12400 26.24500
C  -3.64100 26.39300 29.01200
C  -7.04500 23.00500 28.15600
C  -6.33800 23.55700 23.42400
C  -3.19000 27.03600 24.32800
N  -5.13500 24.54300 28.31700
C  -4.52700 25.32900 29.35300
C  -5.10000 24.86300 30.69900
C  -5.98500 23.60700 30.34900
C  -6.18700 23.76300 28.83300
C  -5.30400 22.22500 30.66200
C  -5.88300 25.96600 31.50800
C  -5.82900 25.94100 33.05200
H  -5.30400 24.67300 33.80900
N  -6.67500 23.63700 25.82700
C  -7.34800 23.01100 26.80400
C  -8.27300 22.03500 26.17700
C  -8.07500 22.13900 24.72100
C  -6.98500 23.08400 24.57600
C  -9.22800 21.11300 26.86200
C  -8.74500 21.41800 23.53100
O  -8.37400 21.68800 22.40200
C  -9.90400 20.35100 23.73200
N  -4.99200 25.39800 24.20800
C  -5.43100 24.57900 23.23200
C  -4.73800 24.89100 21.86500
C  -3.95600 26.21200 22.15900
C  -4.08400 26.29500 23.65200
C  -3.80600 23.69800 21.50500
C  -4.27700 27.59400 21.30800
C  -3.10400 28.60300 20.91300
N  -3.74600 26.50800 26.54100
C  -3.06100 27.26800 25.70800
C  -2.18100 28.15800 26.41000
C  -2.39300 27.87100 27.77200
C  -3.37500 26.89600 27.78700
C  -1.16300 29.12800 25.79900
C  -2.00700 28.21100 29.10100
O  -1.38300 29.20100 29.48800
C  -2.86500 27.28800 30.06400
C  -1.92700 26.59100 30.99200
O  -0.78800 26.25000 30.74500
O  -2.50000 26.53800 32.28400
C  -1.64700 26.23500 33.40500
H  -7.58400 22.25200 28.73400
H  -6.56200 23.01400 22.50300
H  -2.53500 27.54700 23.61900
H  -4.18600 24.56000 31.20900
H  -7.00200 23.60600 30.74100
H  -4.86800 21.84700 29.73700
H  -6.03300 21.61500 31.19500
H  -4.53500 22.28900 31.43200
H  -6.91900 25.86600 31.18500
H  -5.62200 26.96300 31.15300
H  -6.84300 26.14900 33.39500
H  -5.17500 26.76800 33.32900
H  -10.24000 21.50800 26.94200
H  -8.85300 20.90700 27.86500
H  -9.24100 20.19500 26.27300
H  -9.59400 19.52800 24.37600
H  -10.08700 19.96800 22.72800
H  -10.77500 20.80400 24.20600
H  -5.50900 25.09000 21.12100
H  -2.89100 26.03600 22.01100
H  -2.76300 23.99000 21.38300
H  -4.11200 23.30700 20.53500
H  -3.90800 22.84000 22.16900
H  -4.84600 28.25200 21.96500
H  -4.95900 27.28300 20.51700
H  -3.43100 29.63100 21.06800
H  -2.76000 28.52600 19.88200
H  -2.17300 28.34100 21.41700
H  -1.42400 29.45000 24.79100
H  -0.16000 28.70300 25.80300
H  -1.22400 30.00500 26.44200
H  -3.64700 27.78700 30.63600
H  -0.86100 26.98700 33.46700
H  -1.21000 25.24800 33.25300
H  -2.20300 26.11700 34.33600

