158

Mg 36.68200 48.95100 24.63400
C  36.59400 47.43400 27.80300
C  36.08400 51.92800 26.22300
C  36.42200 50.23700 21.63300
C  37.07900 45.76000 23.26900
N  36.25100 49.54700 26.82900
C  36.36700 48.82800 27.92400
C  36.05200 49.62000 29.23700
C  35.81200 51.05300 28.69000
C  36.05500 50.85400 27.14900
C  34.46100 51.69400 29.07700
C  37.32800 49.52200 30.13000
C  37.03600 49.13700 31.61200
H  35.84500 49.77700 32.24800
N  36.24000 50.80300 23.96800
C  36.17500 51.92200 24.76000
C  36.10600 53.08100 23.92500
C  36.26000 52.66900 22.63400
C  36.26500 51.15400 22.67600
C  35.88100 54.47100 24.51800
C  36.28600 53.44700 21.38000
O  36.29000 52.88900 20.21300
C  36.33400 55.04600 21.30600
N  36.52900 48.08100 22.60800
C  36.55900 48.85700 21.60400
C  36.68100 48.02200 20.25000
C  37.05900 46.58500 20.79800
C  36.83200 46.77800 22.29000
C  35.40300 48.12000 19.34800
C  38.49600 46.18000 20.29800
C  39.64400 46.58400 21.25400
N  36.94500 47.07700 25.34000
C  37.10900 45.82100 24.70200
C  37.44600 44.76800 25.64400
C  37.12500 45.30100 26.86000
C  36.83700 46.69200 26.60800
C  37.82800 43.37600 25.27600
C  37.08400 44.97800 28.27400
O  37.29700 43.95200 28.90500
C  36.68200 46.42900 28.94700
C  35.42400 46.21900 29.72100
O  34.26400 46.29000 29.27500
O  35.71100 45.93500 31.05300
C  34.58700 45.81800 32.00000
H  35.99700 52.87000 26.76800
H  36.20400 50.53800 20.60700
H  37.24400 44.79500 22.78400
H  35.23600 49.10000 29.74000
H  36.54600 51.78900 29.01700
H  33.86400 51.95400 28.20300
H  34.57600 52.63700 29.61200
H  33.88200 51.14200 29.81800
H  37.80800 50.49600 30.22200
H  38.08900 48.84700 29.73700
H  37.89900 49.55900 32.12700
H  37.07900 48.04900 31.55900
H  36.89700 54.83400 24.66900
H  35.30700 54.46500 25.44500
H  35.44400 55.14500 23.78100
H  37.09400 55.50300 21.94000
H  35.33100 55.36100 21.59300
H  36.50600 55.23200 20.24600
H  37.57300 48.38800 19.74200
H  36.28100 45.84900 20.59400
H  34.58000 48.40600 20.00400
H  35.17200 47.12700 18.96300
H  35.41000 48.82300 18.51500
H  38.54400 46.52000 19.26400
H  38.50300 45.09400 20.20600
H  39.35000 47.16100 22.13100
H  40.35200 47.16800 20.66600
H  40.16400 45.66700 21.53100
H  38.40800 43.34400 24.35300
H  36.91900 42.78100 25.19500
H  38.52000 42.91600 25.98200
H  37.50300 46.66100 29.62500
H  34.74300 46.24200 32.99200
H  34.46300 44.81200 32.40100
H  33.61900 46.16800 31.64000
Mg -5.46100 24.81600 26.06400
C  -3.79900 26.20500 28.81000
C  -6.64300 22.38200 28.22100
C  -7.24300 23.62500 23.46800
C  -3.75400 26.93800 23.94000
N  -5.22100 24.44900 28.27700
C  -4.70300 25.23700 29.20700
C  -5.08800 24.83900 30.60700
C  -5.54500 23.39100 30.42000
C  -5.82400 23.33700 28.85200
C  -4.56400 22.30900 30.91400
C  -6.13700 25.67100 31.23700
C  -6.22100 25.94200 32.73100
H  -5.53500 25.00600 33.70600
N  -6.75500 23.29300 25.88200
C  -7.04500 22.34100 26.82300
C  -7.81900 21.24000 26.22600
C  -8.14200 21.71900 24.92000
C  -7.41700 22.98400 24.68300
C  -8.34600 20.08000 27.08300
C  -9.17600 21.12000 23.94800
O  -9.35900 21.55900 22.83800
C  -10.00000 19.91800 24.32300
N  -5.49300 25.32800 23.95200
C  -6.44800 24.74800 23.13900
C  -6.42900 25.31800 21.73200
C  -5.21000 26.31300 21.82300
C  -4.76800 26.24100 23.32500
C  -6.33400 24.31000 20.49300
C  -5.50400 27.76800 21.34900
C  -4.25800 28.48400 20.85100
N  -4.03500 26.21100 26.22800
C  -3.33200 26.96700 25.30000
C  -2.46000 27.89700 26.00400
C  -2.50700 27.53000 27.35000
C  -3.50200 26.59800 27.48200
C  -1.58500 28.94200 25.43200
C  -1.94200 27.76700 28.64200
O  -0.97200 28.43700 29.05100
C  -2.85100 27.08500 29.66800
C  -2.00900 26.26500 30.53600
O  -1.40900 25.24500 30.17300
O  -1.99500 26.79700 31.81900
C  -1.19800 26.17300 32.86300
H  -6.90700 21.52200 28.84000
H  -7.91900 23.32700 22.66400
H  -3.24700 27.64500 23.28100
H  -4.10500 24.88600 31.07600
H  -6.53200 23.31500 30.87600
H  -4.50500 22.44000 31.99400
H  -3.63500 22.46900 30.36500
H  -4.94200 21.31200 30.68700
H  -7.13700 25.48800 30.84400
H  -5.80600 26.61000 30.79300
H  -7.25600 26.04600 33.05800
H  -5.72700 26.90800 32.83400
H  -9.42700 19.98400 27.18400
H  -7.94700 19.95700 28.09000
H  -8.11400 19.16000 26.54700
H  -9.16800 19.21900 24.40700
H  -10.61500 19.47900 23.53700
H  -10.60500 19.96900 25.22900
H  -7.33300 25.92400 21.67800
H  -4.40800 25.84800 21.25000
H  -6.01200 23.35100 20.89800
H  -5.58900 24.63800 19.76700
H  -7.31600 24.24500 20.02500
H  -5.77600 28.25700 22.28400
H  -6.40400 27.81500 20.73500
H  -3.38500 27.84400 20.72500
H  -3.92100 29.12800 21.66400
H  -4.46000 28.96000 19.89100
H  -1.54400 28.93500 24.34300
H  -0.57900 28.85000 25.84000
H  -2.00900 29.93400 25.58700
H  -3.41500 27.76000 30.31200
H  -1.27900 25.08700 32.83800
H  -1.52600 26.67400 33.77400
H  -0.14400 26.43500 32.76500

