158

Mg 45.40200 3.46500 48.25400
C  43.14400 6.02200 47.16900
C  42.71300 1.18700 47.57400
C  47.56000 0.90600 48.54200
C  48.05900 5.77700 47.96600
N  43.28400 3.64200 47.32200
C  42.52200 4.76300 47.02600
C  41.03900 4.46700 46.65700
C  40.92900 2.92300 47.06900
C  42.44600 2.56900 47.34000
C  39.95400 2.77400 48.29000
C  40.59600 4.81000 45.21500
C  39.13800 5.33900 44.87800
H  38.59400 4.93700 43.52900
N  45.17100 1.28700 48.24900
C  44.01600 0.60800 47.95000
C  44.29100 -0.81800 48.19200
C  45.69900 -0.91400 48.47000
C  46.24100 0.47300 48.47300
C  43.29900 -1.93500 48.09100
C  46.42700 -2.20900 48.63200
O  45.82000 -3.27900 48.74000
C  47.89800 -2.26700 48.72900
N  47.49500 3.35700 48.04800
C  48.15300 2.17700 48.26900
C  49.60800 2.43000 48.70400
C  49.87700 3.94500 48.34200
C  48.42500 4.42800 48.18700
C  49.89500 1.99300 50.19100
C  50.68600 4.26200 47.03200
C  52.04800 4.97400 47.24900
N  45.61600 5.55500 47.78700
C  46.75900 6.31600 47.68200
C  46.34500 7.73600 47.41800
C  44.90200 7.64600 47.26600
C  44.52600 6.29400 47.46900
C  47.19400 8.93700 47.21000
C  43.73600 8.43100 46.92300
O  43.68200 9.61300 46.61800
C  42.50900 7.38700 46.84100
C  41.44100 7.77900 47.75600
O  41.27300 7.36300 48.93600
O  40.67600 8.79600 47.22100
C  39.75400 9.37900 48.19300
H  41.87700 0.48300 47.58200
H  48.34800 0.18800 48.77900
H  48.89700 6.47100 48.06400
H  40.43600 5.08800 47.32000
H  40.45000 2.37800 46.25600
H  38.93100 2.96400 47.96600
H  40.13700 3.51700 49.06500
H  40.01700 1.76700 48.70300
H  40.73300 3.87500 44.67100
H  41.38300 5.43400 44.79400
H  39.07600 6.42500 44.80400
H  38.43800 5.06400 45.66700
H  42.36500 -1.51600 47.71600
H  43.21000 -2.35000 49.09500
H  43.53700 -2.68600 47.33800
H  48.11900 -1.85600 47.74400
H  48.15100 -3.32700 48.73200
H  48.29100 -1.79900 49.63100
H  50.21800 1.83800 48.02200
H  50.36100 4.38500 49.21300
H  50.80400 1.41900 50.37300
H  49.06100 1.37500 50.52400
H  49.88500 2.78800 50.93700
H  50.10400 4.94900 46.41700
H  50.89000 3.36000 46.45500
H  52.83000 4.29500 46.90900
H  52.30900 5.19500 48.28400
H  52.26700 5.86700 46.66300
H  47.76200 8.83100 46.28500
H  47.92700 9.05300 48.00800
H  46.55600 9.81700 47.28900
H  42.04300 7.36500 45.85600
H  39.09300 8.66500 48.68600
H  39.00900 10.03300 47.73900
H  40.30500 10.00700 48.89200
Mg -9.95300 40.03700 42.59200
C  -8.68500 36.84000 41.67200
C  -7.24000 41.47600 41.08200
C  -11.52600 42.98100 42.88500
C  -12.95600 38.37000 43.46900
N  -8.16000 39.19700 41.55000
C  -7.82500 37.88700 41.21600
C  -6.59700 37.78700 40.41000
C  -6.11100 39.27500 40.47700
C  -7.16400 40.05400 41.22500
C  -4.69000 39.54600 41.08700
C  -6.97500 37.29500 38.99200
C  -6.02100 36.27600 38.37200
H  -5.09200 36.72700 37.26400
N  -9.42500 41.95200 42.00600
C  -8.24100 42.35400 41.51700
C  -8.17300 43.77900 41.62200
C  -9.43100 44.26400 42.16600
C  -10.23300 43.05900 42.37600
C  -6.93900 44.46600 41.19100
C  -9.87700 45.73000 42.36100
O  -9.10500 46.61600 41.88400
C  -11.19200 46.16300 43.05100
N  -12.00100 40.59600 42.99200
C  -12.36700 41.85500 43.18400
C  -13.88300 41.94200 43.68600
C  -14.21300 40.45600 43.81100
C  -13.02300 39.73000 43.32200
C  -14.13900 42.89500 44.90600
C  -15.54900 40.02900 43.13800
C  -16.76000 39.87600 43.92400
N  -10.64100 37.96900 42.79500
C  -11.84700 37.49100 43.14100
C  -11.83800 36.03000 43.05500
C  -10.57900 35.73700 42.48000
C  -9.94800 36.91900 42.22400
C  -12.96600 35.19600 43.50000
C  -9.76700 34.64400 42.00300
O  -10.04000 33.45100 41.93500
C  -8.49400 35.35800 41.37400
C  -7.23800 34.79500 41.94900
O  -6.98600 34.60300 43.08500
O  -6.39100 34.53500 40.92800
C  -5.04800 33.96700 41.15600
H  -6.36700 41.85500 40.54700
H  -12.04000 43.92900 43.05600
H  -13.89500 37.94500 43.83200
H  -5.89300 37.08000 40.85000
H  -6.05100 39.76600 39.50500
H  -3.99300 38.72900 40.89800
H  -4.67300 39.71000 42.16400
H  -4.24900 40.42600 40.62000
H  -7.10200 38.11000 38.27900
H  -7.97000 36.85100 38.96400
H  -6.62400 35.48600 37.92500
H  -5.45100 35.69000 39.09300
H  -6.84400 44.48300 40.10500
H  -6.10600 43.92600 41.64100
H  -7.03500 45.49800 41.52800
H  -12.09100 45.90700 42.49100
H  -11.23100 47.25200 43.08000
H  -11.11300 45.91900 44.11000
H  -14.53200 42.34100 42.90700
H  -14.33800 40.24700 44.87400
H  -14.48900 42.45500 45.83900
H  -14.72500 43.74900 44.56500
H  -13.13900 43.26900 45.12300
H  -15.39800 39.15700 42.50200
H  -15.73700 40.75900 42.35100
H  -17.01000 38.84700 44.18500
H  -17.59200 40.33200 43.38800
H  -16.67700 40.38400 44.88500
H  -12.71400 34.14800 43.34000
H  -13.89300 35.45300 42.98600
H  -13.15800 35.40000 44.55300
H  -8.57600 35.07500 40.32500
H  -4.25100 34.70200 41.04500
H  -4.87200 33.31700 40.29900
H  -5.02900 33.41700 42.09700

