158

Mg 0.93200 -2.50700 43.57500
C  4.13400 -1.74900 42.93000
C  -0.04700 0.47000 42.16400
C  -2.29200 -3.55900 43.40200
C  1.86600 -5.82000 44.52000
N  1.95000 -0.94000 42.41600
C  3.28300 -0.78700 42.41700
C  3.65000 0.47600 41.66100
C  2.38200 1.40800 41.82400
C  1.30500 0.26900 42.14500
C  2.58300 2.42500 42.99500
C  3.89500 0.04300 40.12400
C  5.28900 0.30800 39.49600
H  5.99000 -0.79000 38.75200
N  -0.90200 -1.63400 43.08200
C  -1.02200 -0.39700 42.53300
C  -2.45600 -0.07600 42.32800
C  -3.14700 -1.22800 42.62900
C  -2.12800 -2.22400 43.05500
C  -2.83400 1.20900 41.68000
C  -4.57200 -1.43500 42.43300
O  -5.26200 -0.60100 41.94500
C  -5.31900 -2.61200 42.86500
N  -0.08400 -4.32700 44.01000
C  -1.37100 -4.55000 43.76700
C  -1.84200 -5.92000 44.39000
C  -0.50600 -6.58900 44.71600
C  0.50200 -5.50000 44.37600
C  -2.77900 -5.62200 45.56200
C  -0.26100 -7.94900 44.07800
C  -1.12400 -9.10400 44.60600
N  2.62300 -3.62700 43.68600
C  2.93600 -4.92200 44.16100
C  4.36100 -5.09800 44.21200
C  4.88800 -3.89600 43.69600
C  3.77300 -2.97400 43.43800
C  5.04700 -6.35100 44.75800
C  6.13900 -3.14800 43.48200
O  7.26900 -3.36400 43.74600
C  5.64500 -1.87300 42.76600
C  6.46500 -0.61700 43.23700
O  7.18000 0.10200 42.60200
O  5.89000 -0.19700 44.43500
C  6.57200 1.03700 44.97600
H  -0.26000 1.52000 41.95100
H  -3.27900 -4.01300 43.30000
H  2.24100 -6.79800 44.82800
H  4.49700 0.99600 42.10700
H  2.21200 1.92300 40.87900
H  3.61500 2.24400 43.29600
H  2.04500 2.12200 43.89300
H  2.36900 3.46400 42.74300
H  3.27200 0.65900 39.47600
H  3.64300 -1.01600 40.07400
H  5.98500 0.84300 40.14300
H  5.16900 1.08800 38.74400
H  -3.87400 1.53400 41.73000
H  -2.46300 1.27600 40.65700
H  -2.28100 2.04500 42.10800
H  -6.35000 -2.48500 42.53400
H  -5.19500 -2.79100 43.93300
H  -4.90800 -3.44900 42.30000
H  -2.29800 -6.60300 43.67400
H  -0.40400 -6.86400 45.76600
H  -2.45800 -5.98000 46.54100
H  -3.77400 -5.97500 45.28800
H  -3.03600 -4.57800 45.74100
H  0.76500 -8.30800 44.00300
H  -0.51600 -7.76900 43.03300
H  -1.69200 -8.88000 45.50900
H  -0.53200 -9.99600 44.80900
H  -1.91400 -9.40400 43.91700
H  5.99900 -6.08500 45.21900
H  5.20800 -7.09800 43.98100
H  4.50200 -6.74600 45.61600
H  5.96200 -1.94700 41.72600
H  7.65000 0.89900 45.06300
H  6.13900 1.35300 45.92500
H  6.43700 1.88700 44.30800
Mg 37.01400 49.76400 24.96800
C  36.95000 48.02800 27.88000
C  35.69300 52.55100 26.43400
C  36.50300 51.18200 21.92700
C  38.05800 46.83100 23.28700
N  36.25400 50.16500 26.86500
C  36.52500 49.33200 28.04500
C  36.29700 50.07800 29.36500
C  35.64900 51.50600 28.80600
C  35.79900 51.45000 27.23200
C  34.23800 51.86400 29.37900
C  37.61600 50.19700 30.12200
C  37.52100 49.70200 31.62700
H  36.33600 49.99600 32.55000
N  36.49100 51.69500 24.27300
C  35.96000 52.66700 25.07600
C  35.61400 53.83400 24.29300
C  35.97600 53.53000 22.90300
C  36.31400 52.09200 22.99100
C  34.85300 55.06200 24.82300
C  36.10200 54.37900 21.66600
O  36.41000 53.86800 20.56200
C  35.73600 55.76400 21.67500
N  37.12800 49.02200 22.86200
C  36.94900 49.83400 21.80700
C  37.42500 49.23600 20.47700
C  38.26500 48.06100 20.99100
C  37.86100 47.96000 22.51100
C  36.26800 48.88100 19.48100
C  39.74900 48.38200 20.88800
C  40.76800 47.31700 20.88400
N  37.24600 47.73400 25.38500
C  37.69900 46.68800 24.56500
C  37.88500 45.55400 25.46700
C  37.59000 46.02700 26.79700
C  37.29100 47.38000 26.65700
C  38.50900 44.24300 25.05200
C  37.54900 45.58400 28.18700
O  37.88900 44.54500 28.71000
C  37.14000 46.90300 28.95900
C  35.95400 46.46300 29.65100
O  34.74000 46.37700 29.29000
O  36.30300 46.31700 30.95000
C  35.19400 45.97300 31.87000
H  35.21700 53.37000 26.97800
H  36.43400 51.70200 20.96900
H  38.57300 45.96600 22.86300
H  35.62800 49.44700 29.95100
H  36.31700 52.28200 29.18000
H  34.23400 52.76700 29.99000
H  33.86900 51.08100 30.04100
H  33.49700 52.08900 28.61200
H  38.03700 51.20200 30.15200
H  38.36900 49.62000 29.58500
H  38.45600 50.02600 32.08400
H  37.58100 48.61400 31.59800
H  35.57500 55.85900 25.00200
H  34.39500 54.89500 25.79800
H  34.12000 55.42600 24.10400
H  35.96200 56.35700 20.78900
H  36.30500 56.23800 22.47600
H  34.68200 55.88200 21.92700
H  38.08500 50.00800 20.08100
H  38.02300 47.10700 20.52200
H  35.95400 47.85100 19.65200
H  36.62300 48.98800 18.45600
H  35.43100 49.57100 19.58900
H  39.89500 48.99200 21.77900
H  39.90900 49.12500 20.10700
H  41.65100 47.63100 21.44100
H  41.03600 47.25400 19.82900
H  40.42300 46.31800 21.15000
H  38.98000 43.70600 25.87500
H  39.30000 44.24800 24.30100
H  37.66900 43.64800 24.69500
H  37.88200 47.21100 29.69600
H  34.92600 44.91700 31.91000
H  34.38900 46.67100 31.64200
H  35.41800 46.20300 32.91100

