158

Mg 42.67600 42.29100 25.88900
C  41.54200 44.46800 28.45200
C  43.87100 40.15500 28.18300
C  44.15300 40.69200 23.32300
C  41.66800 44.81400 23.54900
N  42.91900 42.44500 28.16100
C  42.21400 43.29800 28.99900
C  42.30900 42.83700 30.46300
C  43.15800 41.52800 30.33200
C  43.30000 41.34300 28.78900
C  44.49400 41.58700 31.09200
C  41.05800 42.67600 31.21600
C  41.28700 42.06600 32.62100
H  40.92500 43.00600 33.88200
N  43.71500 40.55600 25.73000
C  44.11700 39.77700 26.77200
C  44.62600 38.58300 26.32900
C  44.97900 38.80000 24.92900
C  44.33100 40.08300 24.59100
C  45.04100 37.45000 27.21500
C  45.66400 37.87200 23.87400
O  46.11800 38.32700 22.81400
C  46.00500 36.38400 24.28400
N  42.97700 42.75800 23.78900
C  43.56600 41.87100 22.96700
C  43.47300 42.28700 21.50600
C  42.25000 43.32300 21.60900
C  42.33300 43.69900 23.04700
C  44.73300 42.91300 20.88800
C  40.85100 42.85400 21.07100
C  40.13800 41.82100 21.99700
N  41.93000 44.25900 25.95000
C  41.45400 45.10800 24.95100
C  40.85900 46.25500 25.52000
C  40.80600 46.01300 26.87500
C  41.48300 44.78600 27.09500
C  40.39300 47.44800 24.68900
C  40.40000 46.53900 28.18100
O  39.86800 47.57900 28.59300
C  40.73800 45.44700 29.22600
C  41.61400 46.11700 30.33600
O  42.77700 46.24100 30.28500
O  40.88600 46.40000 31.39600
C  41.58500 46.83200 32.59500
H  44.19700 39.37300 28.87200
H  44.56100 40.24200 22.41600
H  41.16700 45.49600 22.85800
H  43.03900 43.52600 30.88800
H  42.54300 40.72200 30.73300
H  44.62500 42.49800 31.67600
H  45.35000 41.58900 30.41700
H  44.63300 40.77100 31.80100
H  40.35100 42.17600 30.55400
H  40.89900 43.73400 31.42300
H  42.26900 41.62600 32.79500
H  40.60700 41.21500 32.60400
H  46.11900 37.31800 27.11600
H  44.61000 36.57400 26.73100
H  44.60800 37.52700 28.21200
H  46.40500 35.73900 23.50100
H  45.11400 35.91400 24.70000
H  46.62800 36.50300 25.17000
H  43.07300 41.49700 20.87000
H  42.45600 44.24900 21.07300
H  44.41200 43.80300 20.34600
H  45.30300 42.27500 20.21300
H  45.35400 43.08400 21.76800
H  41.08400 42.51600 20.06100
H  40.26000 43.77000 21.06500
H  39.41100 42.41600 22.55000
H  40.83800 41.30300 22.65200
H  39.68500 40.97500 21.47900
H  39.86300 48.12900 25.35500
H  39.61800 47.18300 23.97000
H  41.21500 47.83700 24.08900
H  39.74500 45.15100 29.56400
H  41.49200 46.02200 33.31800
H  41.01400 47.70800 32.90100
H  42.62000 47.12300 32.41600
Mg 6.36200 54.09500 41.68400
C  5.90100 50.54100 41.38800
C  9.44100 53.63200 40.27200
C  6.66200 57.53500 41.50100
C  3.04600 54.49200 42.36600
N  7.47700 52.31200 40.78400
C  7.12500 50.96800 40.87700
C  8.29400 50.15400 40.30900
C  9.54300 51.10500 40.57100
C  8.76200 52.44800 40.46300
C  10.30800 50.81500 41.87500
C  8.06600 49.87600 38.80400
C  7.03800 50.66400 38.06100
H  6.70600 50.18800 36.55200
N  7.85400 55.41900 41.01300
C  9.07200 54.99100 40.43900
C  9.93600 56.14500 40.30300
C  9.21400 57.26100 40.79900
C  7.87300 56.80100 41.15800
C  11.35500 56.04700 39.82700
C  9.85800 58.65200 41.20300
O  11.00700 58.90500 40.86600
C  9.10000 59.64000 42.08200
N  4.95000 55.85700 41.89000
C  5.31900 57.14400 41.82100
C  4.16000 58.08200 42.06600
C  2.91000 57.08600 42.27600
C  3.65100 55.72800 42.09700
C  4.39000 59.01500 43.21700
C  1.76600 57.14600 41.30800
C  0.67900 58.21700 41.71200
N  4.79600 52.83700 41.97500
C  3.52000 53.15200 42.30500
C  2.79900 51.95000 42.58200
C  3.65600 50.89900 42.21400
C  4.84200 51.51500 41.82400
C  1.40600 51.77600 43.03000
C  3.79700 49.46000 42.14200
O  3.04000 48.55500 42.40600
C  5.26000 49.18400 41.48000
C  5.12800 48.41700 40.21100
O  4.39900 48.77800 39.24200
O  5.91700 47.31300 40.22100
C  5.55100 46.35400 39.16300
H  10.45400 53.42300 39.92100
H  6.79200 58.61700 41.43000
H  2.02500 54.59800 42.74000
H  8.29900 49.19400 40.82700
H  10.35600 51.08700 39.84600
H  11.34300 51.15400 41.83400
H  10.12700 49.82700 42.29900
H  9.96800 51.55900 42.59500
H  7.88100 48.80700 38.69700
H  8.97700 50.06400 38.23600
H  7.37800 51.69500 37.96300
H  6.11200 50.66100 38.63500
H  11.22200 56.18800 38.75400
H  11.73400 55.02500 39.84500
H  12.04400 56.77500 40.25400
H  8.43600 59.05600 42.71900
H  8.61200 60.14100 41.24600
H  9.68800 60.21900 42.79400
H  4.00100 58.68200 41.17000
H  2.55400 57.28900 43.28600
H  3.83200 58.64400 44.07700
H  4.12500 60.01800 42.88500
H  5.45000 59.16100 43.42200
H  1.19000 56.22100 41.33000
H  2.08800 57.40700 40.30000
H  -0.28600 57.77600 41.96200
H  0.60900 59.08400 41.05400
H  1.05400 58.80800 42.54700
H  1.25700 52.62300 43.69900
H  1.23800 50.82200 43.52800
H  0.79600 51.84700 42.12900
H  5.88300 48.53400 42.09300
H  5.97100 45.38400 39.42900
H  5.83200 46.77600 38.19800
H  4.46700 46.24700 39.18000

