158

Mg 47.25100 25.48000 27.84100
C  47.98100 27.62900 30.32900
C  46.73100 23.12900 30.34600
C  46.43600 23.13700 25.45700
C  48.45200 27.58500 25.46300
N  47.01000 25.52700 30.16800
C  47.30000 26.58800 30.91800
C  47.19800 26.20200 32.46400
C  46.98000 24.62700 32.46800
C  46.84600 24.40700 30.90900
C  48.21400 23.77000 32.96200
C  46.24300 27.08300 33.26000
C  46.04400 26.38600 34.73700
H  46.23600 27.33600 35.87200
N  46.51000 23.41900 27.91300
C  46.43500 22.66500 29.03100
C  45.89800 21.34100 28.63100
C  45.59800 21.46000 27.22400
C  46.15500 22.73500 26.81300
C  45.67800 20.19500 29.64800
C  44.93700 20.46600 26.32000
O  44.73200 20.77000 25.15000
C  44.72500 19.03000 26.75200
N  47.46700 25.36000 25.72800
C  47.11600 24.29000 24.98600
C  47.34600 24.56800 23.51400
C  47.94300 26.03300 23.52900
C  47.87500 26.39000 24.98300
C  48.18400 23.55600 22.76800
C  47.10500 27.08800 22.67400
C  47.73600 27.61300 21.38000
N  48.15800 27.20200 27.81500
C  48.53300 28.00500 26.77400
C  49.16300 29.20400 27.27600
C  49.02400 29.06100 28.69900
C  48.37400 27.82700 28.97600
C  49.84500 30.18200 26.36000
C  49.26400 29.67500 29.96800
O  49.78000 30.69300 30.30700
C  48.48300 28.87200 31.07600
C  49.39200 28.59200 32.31100
O  50.43500 27.86300 32.16600
O  48.90600 29.34100 33.39900
C  49.60700 29.29100 34.70200
H  46.80700 22.30400 31.05800
H  46.21900 22.37800 24.70200
H  48.92300 28.15700 24.66100
H  48.13900 26.37000 32.98800
H  46.07900 24.31900 32.99900
H  48.05500 22.73800 33.27600
H  48.70000 24.32800 33.76300
H  49.00100 23.68100 32.21300
H  45.30700 27.02200 32.70400
H  46.57500 28.12000 33.21100
H  46.84800 25.65900 34.85500
H  45.03700 25.97100 34.77200
H  46.03400 19.24400 29.25300
H  44.61800 20.00500 29.81500
H  46.17100 20.28800 30.61500
H  44.23200 18.96400 27.72200
H  45.66800 18.48600 26.81000
H  44.06200 18.56100 26.02500
H  46.38700 24.51300 22.99900
H  48.98600 26.18800 23.25300
H  48.71900 22.81900 23.36700
H  48.95100 24.04700 22.16800
H  47.54100 22.98300 22.10000
H  46.78300 27.84900 23.38500
H  46.19300 26.62600 22.29700
H  47.26500 27.02700 20.59100
H  48.74700 27.20600 21.39000
H  47.57000 28.68000 21.23100
H  49.83500 29.99000 25.28700
H  50.90000 30.14900 26.63300
H  49.58200 31.22900 26.51300
H  47.66800 29.52600 31.38700
H  49.26200 30.07100 35.38000
H  50.69300 29.28800 34.61400
H  49.24000 28.33200 35.06900
Mg 5.04300 54.56000 39.90800
C  5.46700 51.02800 39.26000
C  8.21900 54.98300 38.63400
C  4.45300 57.86800 39.84500
C  1.75000 53.99100 40.74700
N  6.64000 53.08200 38.86400
C  6.61700 51.74200 38.83600
C  7.98200 51.17400 38.42400
C  8.93000 52.48700 38.54400
C  7.83300 53.63700 38.57800
C  10.01600 52.40600 39.70100
C  7.99100 50.31000 37.07200
C  8.69300 50.86700 35.79800
H  7.85100 50.75700 34.50600
N  6.16700 56.13900 39.35300
C  7.49800 56.13000 38.93800
C  8.03900 57.47600 38.80400
C  6.91900 58.34400 38.97100
C  5.75300 57.45400 39.39300
C  9.49700 57.75400 38.41100
C  6.96200 59.75400 38.72000
O  7.97200 60.30600 38.29000
C  5.69400 60.74100 38.66900
N  3.36500 55.68800 40.23800
C  3.36900 57.05000 40.21600
C  2.04400 57.58300 40.61500
C  1.06800 56.45300 40.62700
C  2.09900 55.27100 40.57200
C  2.07500 58.36300 41.92200
C  0.06700 56.35700 39.50400
C  -0.75600 57.60100 39.38400
N  3.81500 52.94900 40.06500
C  2.58600 52.85700 40.51700
C  2.28700 51.45200 40.72900
C  3.41200 50.70100 40.24600
C  4.31800 51.65900 39.84700
C  0.96300 50.97300 41.21500
C  3.97800 49.38400 40.05800
O  3.44500 48.30500 40.29100
C  5.35200 49.52900 39.41600
C  5.22700 48.84300 38.07800
O  4.47300 49.24000 37.20500
O  5.90000 47.61600 37.96800
C  5.52800 46.76400 36.89100
H  9.26300 55.15900 38.36200
H  4.32400 58.95200 39.86100
H  0.70500 53.85400 41.03400
H  8.31900 50.47000 39.18500
H  9.48500 52.62200 37.61600
H  10.01000 51.44600 40.21800
H  9.89100 53.09700 40.53500
H  11.05200 52.55300 39.39800
H  6.95300 50.10100 36.81300
H  8.36000 49.29300 37.19700
H  9.58300 50.24600 35.69800
H  8.90500 51.93500 35.73700
H  10.21600 56.98900 38.70200
H  9.75800 58.61700 39.02300
H  9.71300 57.93700 37.35800
H  6.14400 61.66700 38.31000
H  5.35500 60.74200 39.70500
H  5.02000 60.30800 37.93000
H  1.74700 58.25500 39.81000
H  0.62000 56.24100 41.59800
H  1.62800 59.31900 41.65000
H  3.13000 58.57000 42.10200
H  1.64200 57.82600 42.76600
H  -0.52700 55.50300 39.83200
H  0.68900 56.20400 38.62200
H  -0.38000 58.51700 39.83900
H  -1.79400 57.42500 39.66600
H  -0.78200 57.74100 38.30300
H  0.14700 51.64800 40.95800
H  1.04000 50.66100 42.25600
H  0.88600 50.07200 40.60700
H  6.15500 49.03200 39.96100
H  4.78000 46.14100 37.38100
H  6.45100 46.23200 36.66300
H  5.29900 47.28200 35.96000

