158

Mg 1.33400 -1.56000 43.81300
C  4.58800 -0.75300 42.97600
C  0.17300 1.20600 42.21800
C  -1.91500 -2.78300 44.15600
C  2.50600 -4.60800 45.07000
N  2.32800 -0.08800 42.43000
C  3.70700 0.18700 42.45300
C  4.07600 1.52600 41.86900
C  2.62600 2.25300 41.89600
C  1.58300 1.07200 42.22300
C  2.32800 3.45600 42.81200
C  4.65800 1.23100 40.42700
C  6.00300 1.85200 40.16400
H  6.07900 2.58300 38.80700
N  -0.66600 -0.81000 43.34800
C  -0.85800 0.34900 42.65300
C  -2.30600 0.42700 42.45200
C  -2.97600 -0.60200 43.23500
C  -1.86700 -1.46800 43.62800
C  -2.94200 1.44100 41.62100
C  -4.41700 -0.77600 43.38000
O  -5.22100 0.08600 42.94200
C  -4.97500 -2.04500 44.02400
N  0.43700 -3.48200 44.38600
C  -0.90700 -3.69200 44.46000
C  -1.12200 -5.12500 44.96300
C  0.24600 -5.63900 45.33400
C  1.15200 -4.51400 44.91500
C  -2.16600 -5.18500 46.20000
C  0.66400 -7.07900 44.80700
C  1.16100 -8.15700 45.68500
N  3.18000 -2.51300 44.00300
C  3.44500 -3.68600 44.61900
C  4.90700 -3.84000 44.71100
C  5.42200 -2.71800 44.12300
C  4.30300 -1.91900 43.65400
C  5.70200 -4.88600 45.41300
C  6.59000 -1.95100 43.74800
O  7.72400 -2.30200 43.85100
C  6.12700 -0.73500 42.95000
C  6.72500 0.40900 43.59600
O  6.21000 1.01200 44.55900
O  7.89700 0.78600 42.91200
C  8.49400 2.08700 43.17000
H  -0.24700 2.17800 41.95100
H  -2.87700 -3.29900 44.12900
H  2.89100 -5.56100 45.44000
H  4.68100 2.14000 42.53600
H  2.33400 2.66200 40.92800
H  1.82000 4.31900 42.38000
H  3.36000 3.71600 43.04600
H  1.78900 3.11500 43.69600
H  3.96700 1.48300 39.62300
H  4.82300 0.16200 40.29400
H  6.80500 1.11700 40.09800
H  6.15900 2.62200 40.91900
H  -3.72200 1.05300 40.96600
H  -2.35600 1.89500 40.82200
H  -3.33800 2.22200 42.26900
H  -6.05600 -1.92000 44.08400
H  -4.59700 -2.39200 44.98600
H  -4.83200 -2.85300 43.30600
H  -1.56000 -5.70100 44.14800
H  0.36500 -5.64100 46.41800
H  -3.10600 -5.64400 45.89400
H  -2.39000 -4.13200 46.37600
H  -1.69500 -5.67400 47.05300
H  1.44100 -7.00400 44.04600
H  -0.17500 -7.49500 44.25000
H  0.31100 -8.78100 45.96100
H  1.65500 -7.71300 46.55000
H  1.94300 -8.72800 45.18400
H  6.68600 -5.01000 44.96100
H  5.06500 -5.77100 45.42700
H  5.90400 -4.46500 46.39800
H  6.44500 -0.85200 41.91400
H  9.20600 1.99100 43.99000
H  7.76800 2.76800 43.61300
H  8.90900 2.58800 42.29500
Mg 23.60300 -5.32400 45.51000
C  25.91200 -3.27100 43.70500
C  21.12400 -4.18300 43.47200
C  21.78100 -8.07800 46.39800
C  26.51900 -7.03100 46.86600
N  23.62400 -3.93100 43.81500
C  24.65200 -3.24600 43.12400
C  24.08700 -2.45400 41.90500
C  22.56900 -2.44100 42.17000
C  22.40100 -3.63800 43.17500
C  22.06600 -1.05000 42.65800
C  24.65500 -2.88200 40.57200
C  25.76400 -1.95100 39.98400
H  25.73200 -1.77200 38.48700
N  21.70600 -5.97700 45.06500
C  20.88300 -5.33500 44.22200
C  19.64100 -6.08600 44.10300
C  19.76400 -7.15200 45.04400
C  21.10000 -7.16200 45.56700
C  18.40900 -5.60000 43.24700
C  18.66500 -8.08000 45.54100
O  17.49600 -7.96200 45.05700
C  18.86900 -8.94600 46.74700
N  24.03300 -7.27400 46.51200
C  23.09700 -8.20500 46.84900
C  23.67000 -9.39200 47.60400
C  25.13000 -8.97200 47.84800
C  25.27600 -7.67000 47.00900
C  22.95000 -9.82100 48.92400
C  26.22300 -10.06600 47.57600
C  26.82200 -10.72900 48.82700
N  25.71300 -5.05400 45.66100
C  26.74000 -5.81600 46.23200
C  27.97400 -5.22100 45.96200
C  27.74800 -4.23900 45.01400
C  26.32500 -4.19100 44.76900
C  29.27100 -5.63300 46.54000
C  28.39200 -3.28100 44.13900
O  29.63900 -3.06900 43.91900
C  27.20600 -2.51800 43.45800
C  27.22900 -1.08500 43.96700
O  26.38500 -0.46100 44.61700
O  28.34400 -0.50400 43.40300
C  28.58000 0.91300 43.60200
H  20.33000 -3.61600 42.98100
H  21.32900 -9.06400 46.51700
H  27.40300 -7.53400 47.26400
H  24.40500 -1.42700 42.08500
H  21.97100 -2.63700 41.28000
H  21.92300 -0.55700 41.69600
H  22.89800 -0.56900 43.17300
H  21.20600 -1.13700 43.32100
H  23.94800 -2.87400 39.74300
H  25.15900 -3.84800 40.54900
H  26.68700 -2.40700 40.34400
H  25.58300 -1.00500 40.49400
H  18.49300 -4.54400 42.99000
H  17.51800 -5.59000 43.87400
H  18.22200 -6.19100 42.35000
H  19.27400 -8.26700 47.49800
H  19.43100 -9.85300 46.52500
H  17.99500 -9.51800 47.05800
H  23.70000 -10.23900 46.91900
H  25.31000 -8.51800 48.82300
H  22.92600 -10.91100 48.91800
H  21.94600 -9.40500 48.84400
H  23.53400 -9.46800 49.77400
H  26.86900 -9.58400 46.84300
H  25.86500 -10.96800 47.07900
H  26.12300 -10.45800 49.61700
H  27.78500 -10.32000 49.13300
H  26.91500 -11.81300 48.75600
H  29.87000 -6.30100 45.92100
H  29.21400 -5.99600 47.56700
H  29.81400 -4.70700 46.72700
H  27.36000 -2.59300 42.38200
H  27.67200 1.51600 43.59600
H  29.25900 1.19600 42.79800
H  29.10700 1.09800 44.53800

