158

Mg -1.85900 17.11000 25.96100
C  -1.86500 14.97200 28.63200
C  -3.17900 19.52400 28.00000
C  -1.76800 19.30700 23.35900
C  -1.34000 14.48900 23.77400
N  -2.36800 17.24900 28.16900
C  -2.17700 16.24000 29.05300
C  -2.63700 16.65500 30.44500
C  -3.36000 18.04200 30.16000
C  -2.97900 18.34100 28.66400
C  -4.84600 18.15900 30.53700
C  -1.46000 16.82700 31.54900
C  -1.44600 15.85200 32.73600
H  -1.97300 16.20000 34.16200
N  -2.23400 19.10400 25.71700
C  -2.86600 19.94000 26.67300
C  -2.98200 21.29100 26.14400
C  -2.36600 21.32000 24.85500
C  -2.08700 19.85400 24.61500
C  -3.69900 22.40300 26.94600
C  -2.09100 22.44500 23.90200
O  -1.62500 22.27400 22.77900
C  -2.32900 23.83300 24.30300
N  -1.72000 16.92900 23.77700
C  -1.59100 17.95500 22.94600
C  -1.25600 17.46800 21.57300
C  -1.01700 15.97600 21.73200
C  -1.39400 15.76000 23.17600
C  -2.20700 17.93900 20.47500
C  0.35400 15.37300 21.36600
C  0.48800 14.21700 20.52900
N  -1.71600 15.14400 26.08600
C  -1.47500 14.22900 25.14600
C  -1.36000 12.93600 25.78900
C  -1.52700 13.19600 27.14900
C  -1.70100 14.57600 27.32000
C  -1.08900 11.55900 25.11100
C  -1.51800 12.54800 28.41400
O  -1.52800 11.34900 28.73400
C  -1.54700 13.76800 29.45900
C  -0.20900 13.82800 30.03900
O  0.72700 14.34500 29.44200
O  -0.14700 13.31900 31.34100
C  1.10600 13.34500 32.03500
H  -3.62100 20.39500 28.48800
H  -1.47800 19.86800 22.46800
H  -0.84400 13.74600 23.14600
H  -3.44000 15.98600 30.75300
H  -2.90400 18.86400 30.71200
H  -5.35600 18.13800 29.57400
H  -4.90600 19.15400 30.97700
H  -5.20200 17.48100 31.31200
H  -1.51200 17.79600 32.04400
H  -0.54000 16.73400 30.97200
H  -0.38200 15.72200 32.93400
H  -1.91000 14.90000 32.47800
H  -2.98600 22.70600 27.71400
H  -4.57400 22.08500 27.51300
H  -3.75200 23.30600 26.33800
H  -3.38300 24.07500 24.17100
H  -1.78500 24.62900 23.79200
H  -1.97300 23.79200 25.33200
H  -0.35700 17.95300 21.19300
H  -1.64900 15.47300 21.00000
H  -1.85800 18.86000 20.00700
H  -3.17400 18.13000 20.94000
H  -2.31500 17.21900 19.66400
H  0.79600 15.09800 22.32300
H  1.05000 16.17400 21.11800
H  0.84900 14.62200 19.58400
H  -0.43700 13.67900 20.31600
H  1.19200 13.56400 21.04500
H  -0.25300 11.16400 25.68900
H  -0.76600 11.51400 24.07000
H  -1.92100 10.88200 25.30100
H  -2.29700 13.59600 30.23100
H  1.32600 14.30500 32.50100
H  1.87600 13.22200 31.27400
H  1.18100 12.65200 32.87400
Mg -11.88300 16.62300 42.38500
C  -8.52800 17.68600 42.67500
C  -12.83400 19.95800 42.19700
C  -14.87200 15.67800 41.46100
C  -10.68500 13.29800 42.17500
N  -10.85000 18.53400 42.40200
C  -9.41600 18.72400 42.49700
C  -9.13500 20.14800 42.26700
C  -10.39000 20.90500 42.60400
C  -11.46800 19.72800 42.46300
C  -10.46600 21.59000 44.03600
C  -8.59300 20.36300 40.77300
C  -7.20900 21.10100 40.58000
H  -6.13600 20.35200 39.84000
N  -13.65500 17.67700 42.01700
C  -13.82000 19.00300 41.94600
C  -15.17600 19.30200 41.39500
C  -15.82900 18.05300 41.17900
C  -14.74900 17.06300 41.50600
C  -15.71900 20.73300 41.26200
C  -17.29800 17.77100 40.84600
O  -18.04100 18.65400 40.51700
C  -17.84400 16.36300 40.85300
N  -12.60800 14.72300 41.52900
C  -13.99000 14.67300 41.66100
C  -14.44200 13.23500 41.83400
C  -13.07900 12.48300 41.81500
C  -12.04300 13.55000 41.89100
C  -15.24100 12.96800 43.08800
C  -12.84500 11.72300 40.48800
C  -13.48600 10.37100 40.51200
N  -10.07100 15.64800 42.56200
C  -9.71500 14.30000 42.44000
C  -8.26400 14.15800 42.60500
C  -7.81700 15.51800 42.71900
C  -8.94800 16.30900 42.74900
C  -7.51000 12.95600 42.47100
C  -6.57600 16.34600 42.73800
O  -5.42500 16.04800 42.66400
C  -7.03500 17.76400 42.76200
C  -6.57400 18.45200 43.91800
O  -6.53600 17.94500 45.02500
O  -6.16500 19.70900 43.61900
C  -5.61300 20.52100 44.76300
H  -13.18100 20.99400 42.18500
H  -15.81500 15.18200 41.22100
H  -10.44300 12.23800 42.27000
H  -8.31300 20.45500 42.91400
H  -10.53700 21.63700 41.81000
H  -10.68900 22.64500 43.87600
H  -9.49000 21.51700 44.51700
H  -11.17900 21.08800 44.69000
H  -9.25500 20.94800 40.13400
H  -8.50600 19.36500 40.34400
H  -6.88000 21.39800 41.57500
H  -7.48900 22.00500 40.03800
H  -16.21800 21.02100 42.18700
H  -16.53100 20.80000 40.53800
H  -14.96400 21.41600 40.87000
H  -18.91500 16.52400 40.72600
H  -17.82700 15.94300 41.85800
H  -17.34600 15.75500 40.09700
H  -14.99800 12.97900 40.93200
H  -12.74000 11.78000 42.57600
H  -16.30800 12.83200 42.91100
H  -15.09300 13.70600 43.87700
H  -14.91800 12.05500 43.58700
H  -11.78000 11.57200 40.30800
H  -13.28100 12.27900 39.65900
H  -14.09800 10.05900 41.35900
H  -12.67800 9.63900 40.52300
H  -13.98700 10.10100 39.58300
H  -6.49900 13.03400 42.86800
H  -7.36900 12.85500 41.39400
H  -7.98300 12.04400 42.83500
H  -6.55700 18.19200 41.88200
H  -6.04300 20.36300 45.75200
H  -5.87400 21.52200 44.42100
H  -4.52700 20.50200 44.67600

