158

Mg 40.79100 9.64400 29.43000
C  42.80000 10.76600 32.18700
C  38.61300 8.23500 31.47900
C  39.16400 8.50500 26.69200
C  43.46600 10.54500 27.37900
N  40.87300 9.37200 31.64300
C  41.66900 10.01500 32.54800
C  41.01600 9.92400 33.93900
C  39.81400 8.90200 33.68600
C  39.70000 8.85300 32.15700
C  39.90400 7.52200 34.36500
C  40.48000 11.28900 34.54800
C  40.07500 11.30100 36.05800
H  40.99200 12.09300 37.07200
N  39.14700 8.51900 29.09800
C  38.27800 8.05600 30.12700
C  37.11700 7.44800 29.57900
C  37.25500 7.67600 28.20700
C  38.53000 8.21800 27.95200
C  36.05700 6.70800 30.46000
C  36.17300 7.40200 27.12900
O  36.35100 7.47200 25.86800
C  34.85100 7.08900 27.58600
N  41.31600 9.41400 27.42500
C  40.40500 9.07900 26.45400
C  41.05200 9.03300 25.04500
C  42.25700 10.03900 25.27300
C  42.41000 9.91300 26.80600
C  41.33400 7.59400 24.60100
C  42.07100 11.56100 24.80700
C  40.68200 12.21100 25.18500
N  42.62500 10.66400 29.67500
C  43.60500 10.99200 28.69500
C  44.70000 11.79800 29.33600
C  44.40700 11.61700 30.73900
C  43.19100 10.93300 30.86900
C  45.98100 12.24200 28.70800
C  44.90300 11.92400 32.09300
O  45.97100 12.47800 32.37600
C  43.81800 11.41600 33.09400
C  44.31900 10.61900 34.20900
O  44.78000 9.50800 34.06000
O  43.97400 11.22200 35.41900
C  44.26500 10.27600 36.54100
H  37.74200 7.99200 32.09000
H  38.58600 8.41600 25.77000
H  44.10300 11.02000 26.63100
H  41.78700 9.47200 34.56200
H  38.86700 9.28800 34.06100
H  39.94200 6.82100 33.53100
H  39.00200 7.27600 34.92600
H  40.77200 7.47300 35.02100
H  39.69300 11.79900 33.99200
H  41.39400 11.88000 34.48700
H  40.02000 10.29700 36.47900
H  39.10200 11.78700 35.99000
H  36.51300 6.30400 31.36400
H  35.66100 5.84500 29.92400
H  35.28500 7.41000 30.77300
H  34.63900 7.78500 28.39800
H  34.89000 6.09400 28.02800
H  34.15800 7.17200 26.74900
H  40.48100 9.51200 24.25000
H  43.18200 9.59400 24.90600
H  40.90300 6.91200 25.33300
H  42.42100 7.51400 24.59800
H  40.93900 7.30000 23.62800
H  42.45000 11.66100 23.79000
H  42.82500 12.12500 25.35600
H  40.38400 12.67800 24.24600
H  40.90800 13.01300 25.88700
H  39.95000 11.49000 25.55000
H  45.96100 13.24700 28.28600
H  46.24900 11.48000 27.97600
H  46.66900 12.12300 29.54400
H  43.43500 12.29800 33.60700
H  43.85000 10.61400 37.49000
H  45.33400 10.17300 36.72600
H  43.78000 9.32300 36.32700
Mg 6.49900 55.01500 40.72300
C  5.15700 51.65600 40.15300
C  9.37100 54.02300 39.20300
C  7.15500 58.34200 40.24400
C  3.16800 55.81900 41.61200
N  7.12600 53.04100 39.85700
C  6.45400 51.85000 39.61500
C  7.33700 50.91300 38.74400
C  8.77000 51.48900 38.98200
C  8.46700 52.91500 39.41400
C  9.65200 50.71700 40.01600
C  6.91600 50.90300 37.25700
C  6.85500 49.48800 36.56200
H  7.60600 49.45000 35.25800
N  8.07200 56.02600 39.85800
C  9.21900 55.42800 39.43200
C  10.22000 56.47600 39.23900
C  9.58300 57.70500 39.46600
C  8.19600 57.39600 39.93400
C  11.67200 56.24300 38.90600
C  10.30600 58.94900 39.29400
O  11.41500 59.04400 38.77500
C  9.80700 60.22500 40.05600
N  5.25300 56.82200 40.72100
C  5.80700 58.09900 40.70800
C  4.81300 59.17500 41.19400
C  3.57100 58.30900 41.47200
C  4.05900 56.90400 41.37300
C  5.21300 60.17800 42.41600
C  2.35900 58.53000 40.59700
C  1.17800 59.16800 41.34100
N  4.67500 53.92200 41.17000
C  3.46200 54.45400 41.61000
C  2.60300 53.33800 41.89800
C  3.16100 52.20700 41.22500
C  4.42600 52.66200 40.81400
C  1.22700 53.38100 42.57200
C  2.99200 50.79100 40.92000
O  2.09300 50.01100 41.12700
C  4.35100 50.40400 40.30400
C  4.15100 49.60200 39.05200
O  4.02000 50.02200 37.93500
O  4.21700 48.26900 39.29800
C  3.87700 47.36000 38.11800
H  10.37900 53.67900 38.96000
H  7.43500 59.38500 40.08300
H  2.12700 56.09700 41.79300
H  7.34700 49.90900 39.16600
H  9.31900 51.50400 38.04000
H  9.42800 49.66000 39.87100
H  9.47600 50.98000 41.06000
H  10.69600 50.94300 39.80200
H  7.53400 51.59900 36.69100
H  5.95200 51.41200 37.26700
H  5.84200 49.08700 36.52200
H  7.35600 48.82800 37.27000
H  12.00200 56.85300 38.06500
H  11.99000 55.22000 38.70500
H  12.24200 56.58600 39.76900
H  10.63000 60.89500 40.30900
H  9.41200 59.72400 40.94000
H  9.07800 60.64900 39.36600
H  4.62800 59.78500 40.31000
H  3.24500 58.48300 42.49800
H  6.17800 59.89000 42.83100
H  4.53600 60.13900 43.27000
H  5.39200 61.19300 42.06200
H  1.92800 57.72900 39.99600
H  2.66400 59.24700 39.83500
H  1.37500 60.23600 41.43800
H  1.01700 58.93900 42.39500
H  0.29400 58.98100 40.73000
H  0.49400 53.34000 41.76600
H  1.12500 54.32000 43.11500
H  1.08600 52.53200 43.24200
H  4.88100 49.64600 40.88200
H  2.80100 47.22700 38.22600
H  4.40900 46.41800 38.24900
H  4.11400 47.61900 37.08600

