158

Mg 36.79600 49.66500 25.67300
C  37.21200 47.48200 28.37700
C  35.41000 51.97700 27.87300
C  35.78700 51.52400 23.13800
C  38.07100 47.35900 23.52100
N  36.26900 49.58500 27.88000
C  36.67000 48.66300 28.81000
C  36.32300 49.14900 30.23400
C  35.65100 50.53800 30.00300
C  35.63300 50.71900 28.45600
C  34.18600 50.64700 30.61300
C  37.61800 49.23100 31.08300
C  37.57200 48.68700 32.51000
H  36.29200 49.13500 33.25700
N  35.79200 51.55000 25.50200
C  35.48900 52.38500 26.52000
C  35.15000 53.80100 25.97800
C  35.33700 53.64900 24.55800
C  35.63100 52.20600 24.32800
C  34.68400 54.92400 26.87400
C  35.13200 54.65600 23.49500
O  35.21600 54.47700 22.30400
C  34.78900 56.04800 23.81700
N  36.90400 49.43200 23.64800
C  36.21400 50.24000 22.79200
C  36.33200 49.77000 21.37500
C  37.39600 48.65400 21.42200
C  37.49800 48.47500 22.92500
C  34.97900 49.44700 20.61900
C  38.72100 48.94400 20.80700
C  39.55500 47.77100 20.07500
N  37.53100 47.81000 25.82500
C  38.01600 46.99600 24.85800
C  38.53200 45.82200 25.46100
C  38.25900 45.97000 26.82200
C  37.52900 47.15100 27.03100
C  39.14400 44.59400 24.82800
C  38.39200 45.32700 28.08600
O  38.96800 44.33100 28.53900
C  37.73200 46.31800 29.14500
C  36.65700 45.64900 29.90900
O  35.49300 45.51300 29.59400
O  37.19300 45.37300 31.13900
C  36.31100 45.07100 32.24100
H  34.98500 52.80000 28.45100
H  35.42300 52.13100 22.30600
H  38.51500 46.63200 22.83700
H  35.50700 48.53000 30.60700
H  36.28800 51.29200 30.46600
H  33.55500 50.18300 29.85500
H  33.97900 51.71400 30.70000
H  34.04900 50.20000 31.59700
H  38.06300 50.22400 31.02700
H  38.33400 48.68500 30.46800
H  38.43700 49.18900 32.94300
H  37.74500 47.61300 32.57500
H  35.46300 55.64400 27.12300
H  34.40800 54.61900 27.88400
H  33.90200 55.49900 26.37800
H  33.71200 56.18800 23.91200
H  35.06900 56.71000 22.99700
H  35.25500 56.42800 24.72600
H  36.80900 50.61400 20.87700
H  36.93100 47.78200 20.96200
H  34.90400 50.10900 19.75600
H  34.12500 49.66900 21.25900
H  34.93500 48.42700 20.23600
H  39.40800 49.23100 21.60300
H  38.69800 49.68700 20.00900
H  40.06500 47.13600 20.79800
H  40.38200 48.13900 19.46700
H  38.83600 47.14800 19.54200
H  38.53900 44.47500 23.92900
H  39.25900 43.74100 25.49700
H  40.14000 44.83400 24.45500
H  38.63200 46.61700 29.68300
H  35.46000 44.50600 31.85700
H  35.79600 45.94900 32.62900
H  36.80200 44.52500 33.04700
Mg -12.94200 16.36600 42.87700
C  -9.95500 14.60500 42.36600
C  -11.55400 19.14200 41.46800
C  -16.12100 17.64800 42.67600
C  -14.47800 13.15100 43.55400
N  -10.89900 16.71500 41.79200
C  -9.78900 15.98000 41.95200
C  -8.55400 16.70500 41.52500
C  -9.12100 18.19200 41.31500
C  -10.64600 18.09200 41.63500
C  -8.37700 19.26800 42.14500
C  -8.06900 16.10400 40.19700
C  -6.52300 16.08300 39.91500
H  -5.86100 15.07900 38.98500
N  -13.78400 18.20500 42.13400
C  -12.98100 19.19900 41.70700
C  -13.79200 20.36400 41.55100
C  -15.13700 20.02600 41.93500
C  -15.07600 18.62500 42.28700
C  -13.16100 21.72400 41.12400
C  -16.37500 20.97000 41.86200
O  -16.27400 22.07800 41.32400
C  -17.71000 20.52100 42.38900
N  -15.01400 15.51000 43.12700
C  -16.12300 16.25100 42.99500
C  -17.43200 15.45300 43.17000
C  -16.84400 14.04100 43.50200
C  -15.37100 14.26000 43.44400
C  -18.59300 15.98100 44.06000
C  -17.51000 12.86700 42.72900
C  -18.05700 11.78300 43.69200
N  -12.37900 14.29400 43.08500
C  -13.10800 13.15900 43.35200
C  -12.23500 11.96100 43.44800
C  -10.99400 12.50400 43.03700
C  -11.11600 13.92100 42.85000
C  -12.57300 10.57700 43.94400
C  -9.57000 12.26500 42.78400
O  -8.92200 11.21000 42.81500
C  -8.89500 13.50200 42.28800
C  -7.67800 13.82700 43.08800
O  -7.57800 14.07300 44.28100
O  -6.61900 13.85200 42.20200
C  -5.35500 14.18900 42.82100
H  -11.14600 20.12200 41.21200
H  -17.13300 18.05400 42.62100
H  -15.01800 12.21400 43.70500
H  -7.81400 16.58600 42.31700
H  -9.01100 18.54600 40.29000
H  -7.55200 18.87400 42.73800
H  -9.08500 19.79900 42.78200
H  -7.91600 19.98800 41.46800
H  -8.48600 16.66000 39.35700
H  -8.51700 15.11700 40.07300
H  -6.00100 16.11400 40.87200
H  -6.22700 17.04900 39.50600
H  -12.57400 22.12800 41.94900
H  -13.95500 22.41400 40.83800
H  -12.53400 21.61100 40.23900
H  -18.13500 19.64000 41.90700
H  -18.38600 21.37600 42.41600
H  -17.55700 20.33200 43.45200
H  -17.88600 15.47500 42.18000
H  -16.89400 13.83200 44.57100
H  -18.67900 17.06700 44.01700
H  -18.57700 15.52200 45.04800
H  -19.52700 15.65200 43.60600
H  -16.85500 12.49000 41.94400
H  -18.34300 13.31200 42.18400
H  -17.75300 10.82900 43.26000
H  -19.12900 11.63900 43.82600
H  -17.49000 11.81300 44.62200
H  -13.23700 9.91700 43.38600
H  -12.94600 10.69900 44.96100
H  -11.62700 10.03700 43.91200
H  -8.48900 13.31100 41.29400
H  -5.09400 13.42900 43.55700
H  -5.45100 15.21700 43.17000
H  -4.67400 14.23000 41.97100

