158

Mg -2.12000 16.92700 26.33800
C  -2.64200 15.01700 29.07900
C  -2.66900 19.74600 28.38500
C  -2.20000 18.94700 23.54600
C  -2.34800 14.19400 24.25900
N  -2.67700 17.39200 28.45500
C  -2.60200 16.38700 29.41000
C  -2.82600 16.96000 30.75200
C  -3.12000 18.45700 30.58200
C  -2.78000 18.61000 29.08000
C  -4.51500 19.05400 30.92800
C  -1.61500 16.81300 31.71600
C  -2.07800 16.47000 33.23900
H  -0.98800 16.41900 34.30600
N  -2.33500 19.02400 26.02800
C  -2.51600 19.99000 26.98900
C  -2.37700 21.30000 26.45500
C  -2.20800 21.08600 25.04200
C  -2.27300 19.61600 24.80700
C  -2.54600 22.62100 27.10700
C  -1.99500 22.09300 23.90600
O  -1.85100 21.80500 22.72400
C  -1.77000 23.51700 24.21500
N  -2.26500 16.61200 24.26400
C  -2.23100 17.53400 23.33900
C  -2.32100 17.02000 21.88300
C  -2.11600 15.49900 22.16800
C  -2.29200 15.39100 23.65100
C  -3.69700 17.37900 21.14600
C  -0.75600 14.91500 21.58700
C  -0.76800 14.14200 20.24900
N  -2.36100 14.97300 26.59900
C  -2.40200 13.96800 25.67700
C  -2.70800 12.66300 26.29700
C  -2.71400 12.99600 27.68600
C  -2.55800 14.41200 27.77600
C  -2.93600 11.29000 25.77500
C  -2.83900 12.54100 29.03400
O  -2.97500 11.38000 29.40100
C  -2.86500 13.85000 29.99300
C  -1.73800 13.58800 30.90500
O  -0.59000 13.63000 30.61800
O  -2.18100 13.05200 32.06600
C  -1.12800 12.33600 32.85500
H  -2.67400 20.68400 28.94300
H  -2.17200 19.50700 22.60800
H  -2.36300 13.30600 23.62400
H  -3.65900 16.45000 31.23500
H  -2.37900 19.06300 31.10300
H  -5.21600 18.27200 31.22000
H  -4.91000 19.66900 30.12000
H  -4.41700 19.68800 31.81000
H  -1.13200 17.77000 31.91200
H  -0.89900 16.20200 31.16500
H  -2.64400 15.53900 33.26100
H  -2.81800 17.22900 33.49400
H  -1.67600 23.27400 27.04800
H  -2.85200 22.52500 28.14900
H  -3.32400 23.17100 26.57700
H  -2.73200 24.02600 24.27200
H  -1.23000 23.81000 23.31500
H  -1.10400 23.73600 25.05000
H  -1.45400 17.40600 21.34600
H  -2.93700 14.87200 21.82100
H  -3.56500 16.92900 20.16300
H  -3.84800 18.45800 21.17700
H  -4.48400 16.90400 21.73200
H  -0.39300 14.21700 22.34200
H  -0.03700 15.71400 21.40900
H  0.07100 14.52700 19.66800
H  -1.71100 14.28300 19.72100
H  -0.78600 13.05300 20.30000
H  -3.53900 11.27400 24.86700
H  -3.61800 10.78200 26.45700
H  -2.01100 10.72000 25.68400
H  -3.78000 13.89100 30.58300
H  -1.25800 12.66900 33.88500
H  -0.08300 12.49400 32.58700
H  -1.36800 11.27400 32.90500
Mg 16.76700 51.59600 26.76200
C  18.65100 50.32300 29.33900
C  14.29500 52.45500 28.91700
C  14.98100 52.67400 24.11200
C  19.33300 50.57100 24.43400
N  16.43400 51.24500 28.80400
C  17.36500 50.72400 29.72400
C  16.86500 50.91600 31.16700
C  15.37200 51.33100 30.99200
C  15.34300 51.74600 29.49600
C  14.32100 50.17800 31.29200
C  17.66500 52.07700 31.79000
C  18.12600 51.80700 33.28000
H  17.24500 52.31300 34.37000
N  14.85100 52.52500 26.55200
C  14.01500 52.83200 27.55800
C  12.86600 53.54500 27.05100
C  13.12600 53.69300 25.64000
C  14.33600 52.90600 25.39400
C  11.70700 53.99100 27.91000
C  12.28300 54.36400 24.55500
O  12.56800 54.23900 23.35200
C  11.00800 55.14800 24.86600
N  17.21400 51.79000 24.53700
C  16.18500 52.10600 23.75900
C  16.62900 51.95400 22.27100
C  18.04900 51.44400 22.34600
C  18.22600 51.18400 23.80300
C  15.60700 51.01400 21.48900
C  19.11200 52.35800 21.68300
C  19.60800 51.94200 20.28100
N  18.60200 50.65500 26.79600
C  19.53900 50.30400 25.80800
C  20.65200 49.75300 26.39900
C  20.42600 49.75300 27.86200
C  19.13000 50.30700 27.98900
C  21.88000 49.27500 25.71000
C  20.81800 49.32000 29.16400
O  21.84900 48.83500 29.55600
C  19.68800 49.72800 30.21500
C  19.24400 48.55600 31.05500
O  18.51300 47.66700 30.66900
O  19.78500 48.63400 32.28100
C  19.43000 47.60300 33.27600
H  13.53300 52.59300 29.68800
H  14.46300 52.84900 23.16600
H  19.94300 50.06700 23.68200
H  16.93400 50.00200 31.75700
H  14.99900 52.19300 31.54400
H  13.32100 50.42500 30.93600
H  14.25100 50.07900 32.37600
H  14.66200 49.24100 30.85200
H  17.04200 52.97000 31.83800
H  18.59000 52.24500 31.23800
H  19.11600 52.25400 33.37200
H  18.33300 50.73900 33.34300
H  10.74300 53.59900 27.58700
H  11.69100 55.07700 28.00400
H  11.81400 53.68600 28.95100
H  11.30000 56.00700 25.47100
H  10.42600 54.46400 25.48400
H  10.55000 55.31100 23.89100
H  16.53500 52.93700 21.80900
H  18.14400 50.59500 21.66900
H  15.20300 51.62200 20.68000
H  14.81500 50.56400 22.08800
H  16.18300 50.34500 20.85100
H  19.96700 52.54800 22.33100
H  18.69700 53.36600 21.67200
H  19.47900 52.66600 19.47600
H  19.26200 50.96000 19.95600
H  20.65500 51.97000 20.58200
H  21.59000 48.36800 25.18000
H  22.53900 48.94700 26.51400
H  22.50300 49.91700 25.08800
H  20.02200 50.48200 30.92700
H  18.41300 47.21300 33.31600
H  19.60100 48.02700 34.26500
H  20.10800 46.76500 33.11200

