158

Mg 48.60000 44.84600 44.43300
C  45.09300 44.99000 43.74900
C  48.53800 41.47000 43.32900
C  51.90500 44.90800 44.06200
C  48.43300 48.28700 44.82800
N  46.96400 43.46200 43.55300
C  45.64600 43.70300 43.40900
C  44.88700 42.48400 42.83800
C  45.89800 41.33300 43.03400
C  47.22600 42.09300 43.34100
C  45.60200 40.23200 44.05200
C  44.49300 42.67500 41.37000
C  43.38000 41.69700 40.81900
H  43.24500 41.42300 39.33500
N  50.04900 43.31800 43.93000
C  49.75500 42.03200 43.46900
C  50.97500 41.37400 43.30600
C  52.06300 42.31500 43.64200
C  51.37100 43.55200 43.94500
C  51.03300 39.96800 42.83200
C  53.54000 42.08000 43.67600
O  54.03400 40.97100 43.32900
C  54.51100 43.02200 44.32400
N  49.97400 46.38700 44.14500
C  51.34200 46.17700 44.28300
C  52.14300 47.42000 44.62300
C  51.00400 48.46800 44.75400
C  49.73500 47.66600 44.61000
C  52.97400 47.25700 45.91300
C  51.10400 49.62700 43.77500
C  51.13100 50.98200 44.39600
N  47.08800 46.40800 44.40100
C  47.17400 47.77600 44.51100
C  45.85700 48.38000 44.45700
C  44.98100 47.32100 44.25200
C  45.78000 46.12900 44.15100
C  45.51400 49.79200 44.78300
C  43.56700 46.93200 44.04000
O  42.55400 47.62700 43.99800
C  43.59700 45.38800 43.66800
C  42.81700 44.71100 44.71800
O  42.15000 43.71900 44.44700
O  43.13400 45.13300 46.01600
C  42.50700 44.45700 47.17000
H  48.51400 40.41900 43.03600
H  52.99100 45.02600 44.09400
H  48.49500 49.32000 45.17600
H  44.10100 42.11200 43.49400
H  46.09400 40.78900 42.11000
H  44.60500 40.35500 44.47400
H  46.41800 40.11600 44.76500
H  45.36200 39.31800 43.50900
H  45.30100 42.41100 40.68800
H  44.17000 43.69700 41.17400
H  42.46200 42.21200 41.10200
H  43.35000 40.78500 41.41500
H  52.05900 39.59900 42.80900
H  50.60100 39.87000 41.83600
H  50.53400 39.37100 43.59500
H  54.85300 43.85800 43.71500
H  55.43200 42.50400 44.59100
H  54.02100 43.49200 45.17700
H  52.93200 47.54800 43.88100
H  50.95300 48.87900 45.76200
H  52.70300 46.32100 46.40300
H  52.87600 48.10100 46.59500
H  54.03700 47.13100 45.70500
H  50.25400 49.64100 43.09200
H  51.99700 49.50100 43.16300
H  51.25400 51.70800 43.59300
H  52.00800 50.89300 45.03700
H  50.14800 51.15400 44.83600
H  45.99800 50.28100 45.62900
H  44.44700 49.80100 45.00100
H  45.73800 50.31900 43.85500
H  43.15400 45.22700 42.68500
H  42.92800 43.45200 47.14400
H  41.42100 44.50300 47.09800
H  42.72000 44.84100 48.16700
Mg 47.08200 35.55800 28.45200
C  45.47300 33.70500 30.92400
C  47.30500 38.13100 30.73200
C  48.00600 37.59700 25.99500
C  46.32800 33.02100 26.15400
N  46.55400 35.83800 30.56400
C  45.97100 34.90300 31.41200
C  46.03800 35.42800 32.88500
C  46.12800 36.94800 32.71700
C  46.65000 36.99600 31.25700
C  44.84500 37.76700 33.01600
C  47.32100 34.80400 33.58200
C  46.99700 34.40700 35.03700
H  47.45500 35.47600 36.09300
N  47.80300 37.50800 28.45100
C  47.86800 38.37500 29.49600
C  48.50000 39.59900 28.92900
C  48.74200 39.39600 27.52600
C  48.18900 38.14000 27.27300
C  48.77400 40.73700 29.82100
C  49.45400 40.33300 26.50600
O  49.79600 40.04200 25.35600
C  49.79300 41.68300 26.89600
N  47.20500 35.38700 26.41700
C  47.55700 36.37300 25.57200
C  47.46300 35.82000 24.08600
C  47.00500 34.37800 24.18500
C  46.73800 34.25100 25.71400
C  46.69700 36.79800 23.08100
C  47.97100 33.36000 23.55600
C  47.35900 32.44600 22.54000
N  46.15500 33.68200 28.47200
C  46.01000 32.65800 27.51800
C  45.53000 31.44900 28.08800
C  45.24700 31.83700 29.40300
C  45.66500 33.19100 29.58000
C  45.20600 30.13600 27.42500
C  44.64200 31.37900 30.65600
O  44.16900 30.23900 30.92300
C  44.59700 32.66200 31.56800
C  45.03800 32.29500 32.98700
O  46.17900 31.82800 33.22300
O  43.92700 32.50200 33.81600
C  43.96800 31.90100 35.11800
H  47.39600 38.93500 31.46600
H  48.38100 38.23800 25.19300
H  46.23100 32.17400 25.47200
H  45.10800 35.15800 33.38500
H  46.79100 37.31400 33.50100
H  44.73400 38.51500 32.23100
H  44.97600 38.28100 33.96800
H  43.98300 37.10700 33.11700
H  48.00200 35.65200 33.50600
H  47.78400 33.96700 33.06000
H  47.56000 33.50300 35.26800
H  45.95000 34.14400 35.18900
H  49.86200 40.67900 29.85000
H  48.41500 40.59400 30.84000
H  48.56800 41.70000 29.35400
H  48.91600 42.14000 27.35500
H  50.11400 42.25700 26.02700
H  50.66200 41.73400 27.55100
H  48.47800 35.66200 23.72000
H  46.03700 34.26900 23.69700
H  46.08500 37.57300 23.54200
H  45.97400 36.23100 22.49400
H  47.40300 37.28900 22.41200
H  48.45600 32.75000 24.31800
H  48.75200 33.83500 22.96200
H  48.18000 32.25200 21.85000
H  46.45200 32.80300 22.05100
H  47.01900 31.53400 23.03000
H  44.33100 30.36400 26.81600
H  45.14500 29.35300 28.18000
H  46.04100 29.98600 26.74100
H  43.57200 33.00900 31.70400
H  43.68700 32.66500 35.84400
H  44.94500 31.46300 35.31900
H  43.18700 31.14100 35.10200

