158

Mg 28.35500 56.43200 40.87800
C  25.76300 54.18000 40.34000
C  30.56300 54.12600 39.60200
C  30.66600 58.92100 40.63600
C  25.74100 58.90900 41.28500
N  28.13300 54.39000 39.99300
C  27.02600 53.64600 39.89300
C  27.27900 52.29200 39.18000
C  28.80100 52.27700 39.19000
C  29.19500 53.71800 39.59800
C  29.38000 51.07900 39.98300
C  26.44400 52.11600 37.91300
C  26.21000 53.42400 37.02600
H  26.77300 53.42600 35.64800
N  30.41500 56.49100 40.41700
C  31.11000 55.45300 39.88500
C  32.50200 55.87200 39.73100
C  32.55000 57.24300 40.16100
C  31.20000 57.62400 40.45000
C  33.65800 54.94500 39.20000
C  33.79800 58.13500 40.18200
O  34.94800 57.72000 39.90200
C  33.83700 59.60800 40.61300
N  28.15100 58.63900 40.53100
C  29.31500 59.40800 40.78300
C  28.90600 60.79600 41.01100
C  27.32200 60.84800 41.16200
C  27.01000 59.40400 40.85600
C  29.70200 61.56700 42.15400
C  26.43100 61.94700 40.50000
C  25.40200 62.68400 41.40100
N  26.22200 56.57800 40.84300
C  25.32600 57.59700 41.10000
C  24.02100 57.07800 41.35800
C  24.13200 55.69800 41.03600
C  25.47500 55.50500 40.69800
C  22.78100 57.75800 41.73100
C  23.45800 54.45000 41.08700
O  22.30800 54.04800 41.29800
C  24.38600 53.45600 40.38200
C  24.48500 52.09400 41.05000
O  23.74000 51.19800 40.71600
O  25.48200 52.08000 42.02900
C  25.53900 50.75800 42.60300
H  31.21200 53.34700 39.19500
H  31.31700 59.79000 40.52000
H  24.99100 59.65000 41.56700
H  26.83000 51.48700 39.76300
H  29.06500 52.21100 38.13500
H  29.01200 50.29200 39.32500
H  29.08600 51.11400 41.03200
H  30.46500 51.03000 39.89400
H  25.56100 51.52200 38.14600
H  26.96900 51.32200 37.38200
H  26.52200 54.34300 37.52200
H  25.13200 53.51400 36.89000
H  33.35800 54.60400 38.20900
H  33.66400 54.06400 39.84200
H  34.60000 55.49300 39.20800
H  33.24300 59.46900 41.51700
H  33.38300 60.19800 39.81800
H  34.84300 59.95500 40.84900
H  29.28200 61.36100 40.15900
H  27.31500 60.83100 42.25200
H  30.16700 60.82900 42.80700
H  28.96500 62.17100 42.68200
H  30.48000 62.16300 41.67700
H  25.92700 61.57300 39.60900
H  27.10300 62.73400 40.15800
H  25.55600 62.39800 42.44200
H  24.40200 62.40800 41.06600
H  25.43600 63.76900 41.30100
H  22.84900 58.68600 42.29900
H  22.21300 57.06600 42.35200
H  22.28200 57.95500 40.78200
H  23.95900 53.28400 39.39400
H  25.98300 50.14400 41.82000
H  24.59200 50.44900 43.04600
H  26.30100 50.75600 43.38300
Mg -3.00000 34.22700 26.42800
C  -4.76900 32.73800 29.11900
C  -2.18500 36.79700 28.67500
C  -1.20300 35.45700 24.10300
C  -4.23200 31.75900 24.30100
N  -3.55200 34.71500 28.64700
C  -4.15600 33.92000 29.53000
C  -4.13600 34.54900 30.92800
C  -3.43200 35.92900 30.69300
C  -3.07800 35.88300 29.21700
C  -4.16400 37.24900 31.17500
C  -3.35600 33.65800 32.04700
C  -3.18300 34.34800 33.35300
H  -3.49300 33.67900 34.69600
N  -1.79000 35.86700 26.43700
C  -1.61800 36.78400 27.36300
C  -0.71400 37.71000 26.89000
C  -0.30800 37.33500 25.61400
C  -1.15500 36.16600 25.33600
C  -0.26800 38.84300 27.71100
C  0.77600 38.04000 24.73700
O  1.03500 37.63700 23.65300
C  1.51700 39.24400 25.26700
N  -2.63600 33.66400 24.56300
C  -1.82000 34.25900 23.74400
C  -1.65200 33.60300 22.33600
C  -2.71600 32.53100 22.34700
C  -3.21400 32.61800 23.88800
C  -1.65400 34.63200 21.14800
C  -2.24000 31.18600 21.82400
C  -3.13600 30.56800 20.73200
N  -4.23200 32.64300 26.64500
C  -4.71600 31.71300 25.63700
C  -5.63600 30.76800 26.26000
C  -5.63800 31.15000 27.61300
C  -4.78500 32.29900 27.75800
C  -6.48200 29.68800 25.61100
C  -6.20200 30.74100 28.93300
O  -6.99300 29.88000 29.26100
C  -5.58400 31.75500 29.94400
C  -6.70400 32.36200 30.66400
O  -7.57600 32.99400 30.14100
O  -6.47900 32.34100 32.01800
C  -7.36800 33.05100 32.96100
H  -1.73800 37.38700 29.47800
H  -0.48000 35.86700 23.39500
H  -4.73300 31.08000 23.60900
H  -5.15800 34.80500 31.20700
H  -2.47500 35.95800 31.21300
H  -5.17100 37.01000 31.51600
H  -4.31000 37.93900 30.34400
H  -3.55800 37.77300 31.91400
H  -2.39400 33.34400 31.64200
H  -3.86600 32.71000 32.21900
H  -3.68100 35.31700 33.38900
H  -2.12100 34.57900 33.44300
H  -0.48600 39.73200 27.11800
H  0.77600 38.77900 28.01800
H  -0.75600 39.03100 28.66700
H  2.27100 39.49900 24.52300
H  1.94800 39.00800 26.24000
H  0.85300 40.10900 25.25200
H  -0.66600 33.15900 22.47400
H  -3.53900 32.80400 21.68700
H  -2.19000 35.49100 21.55000
H  -2.22100 34.24300 20.30100
H  -0.63400 34.95200 20.93200
H  -2.26600 30.45300 22.63000
H  -1.19300 31.20500 21.52400
H  -3.20300 29.48700 20.85500
H  -2.83600 30.76500 19.70300
H  -4.12300 31.01200 20.86200
H  -5.98400 29.25100 24.74600
H  -7.41000 30.13500 25.25700
H  -6.71900 28.90700 26.33400
H  -4.90300 31.16500 30.55500
H  -6.99600 34.06400 33.11200
H  -7.38200 32.46000 33.87700
H  -8.41900 33.06700 32.67300

