158

Mg 48.90300 46.46200 44.11800
C  45.66400 46.63000 42.84500
C  49.36100 43.54100 42.58500
C  52.11500 46.56100 45.09700
C  48.73900 49.99400 44.69400
N  47.60400 45.30500 42.82100
C  46.34800 45.46900 42.40900
C  45.86600 44.24800 41.64900
C  47.02600 43.29500 41.62700
C  48.07600 44.10300 42.31400
C  46.66800 41.92100 42.32300
C  45.27700 44.57500 40.25300
C  43.72400 44.54200 40.02800
H  43.17000 43.80400 38.80300
N  50.45200 45.21800 43.91600
C  50.44700 44.02200 43.27000
C  51.76900 43.37500 43.34500
C  52.48100 44.09800 44.31000
C  51.72000 45.39200 44.49500
C  52.13400 42.14400 42.65300
C  53.90000 43.85900 44.74600
O  54.56800 42.90800 44.35400
C  54.59200 44.64900 45.81200
N  50.29400 48.12900 44.61800
C  51.52200 47.85500 45.10000
C  52.26700 49.12700 45.66300
C  51.19400 50.25400 45.30600
C  50.01900 49.40600 44.88400
C  52.45500 49.00800 47.22700
C  51.57000 51.19200 44.10400
C  50.78100 52.47000 43.72000
N  47.52300 47.92900 43.81000
C  47.57300 49.32500 44.09000
C  46.26400 49.88700 43.89500
C  45.45800 48.81300 43.45600
C  46.30800 47.71600 43.31900
C  45.80700 51.28400 44.18400
C  44.14200 48.40700 43.04200
O  43.05300 48.99800 42.94800
C  44.14000 46.92100 42.63500
C  43.16800 46.17200 43.47800
O  43.43700 45.63400 44.52900
O  41.90800 46.23600 42.88300
C  40.72900 45.63300 43.55300
H  49.35100 42.51600 42.20800
H  53.05100 46.61300 45.65600
H  48.59600 51.03800 44.98000
H  45.05800 43.78700 42.21700
H  47.38200 42.99200 40.64200
H  45.60700 41.81200 42.54500
H  47.21500 41.81600 43.26100
H  47.00100 41.24100 41.54000
H  45.83300 44.01700 39.49900
H  45.54300 45.60700 40.02500
H  43.47700 45.58900 39.85200
H  43.16200 44.32100 40.93400
H  52.87100 42.47400 41.92200
H  51.33100 41.54000 42.23000
H  52.61900 41.47500 43.36400
H  54.01900 44.87900 46.71000
H  54.90800 45.60200 45.38700
H  55.34900 43.95000 46.16700
H  53.22100 49.11800 45.13600
H  50.91900 50.93600 46.11200
H  52.97600 48.08300 47.47200
H  51.46400 49.08700 47.67300
H  52.98800 49.88000 47.60500
H  51.61500 50.49500 43.26700
H  52.61300 51.47000 44.25500
H  49.95200 52.67900 44.39600
H  50.21500 52.31600 42.80100
H  51.46300 53.30500 43.56000
H  46.06000 51.52200 45.21700
H  44.77000 51.56800 44.00300
H  46.33300 51.95200 43.50100
H  43.96600 46.84700 41.56200
H  40.02500 45.42600 42.74800
H  40.24700 46.25800 44.30500
H  41.12900 44.69100 43.92900
Mg -4.89400 26.31900 26.32000
C  -3.70000 27.75100 29.37800
C  -6.80700 24.23200 28.31500
C  -5.65600 24.65300 23.54500
C  -2.52900 28.19900 24.54700
N  -5.07000 25.93600 28.64500
C  -4.60900 26.75800 29.66400
C  -5.03700 26.22400 31.05600
C  -5.89700 24.97400 30.67400
C  -5.98700 25.04700 29.13000
C  -5.28400 23.62300 31.19500
C  -5.85900 27.35200 31.77000
C  -5.88400 27.33600 33.29300
H  -5.50400 26.13100 34.06700
N  -6.08300 24.64500 26.01300
C  -6.90100 24.04500 26.89500
C  -7.68200 23.12000 26.17000
C  -7.40200 23.17100 24.73600
C  -6.35300 24.20700 24.72900
C  -8.77500 22.40900 26.78200
C  -7.98400 22.45800 23.48600
O  -7.41200 22.51700 22.39500
C  -9.21000 21.58700 23.66700
N  -4.29000 26.48400 24.34700
C  -4.82500 25.74300 23.35900
C  -4.35200 26.24600 21.95200
C  -3.36700 27.40300 22.30000
C  -3.45000 27.41100 23.85700
C  -3.63100 25.18300 21.06400
C  -3.69600 28.80600 21.70100
C  -2.87000 29.31800 20.50000
N  -3.40700 27.72800 26.80100
C  -2.49500 28.33300 25.96500
C  -1.58100 29.20700 26.79500
C  -2.09200 29.04100 28.15000
C  -3.15200 28.12000 28.08000
C  -0.40200 29.98100 26.29200
C  -1.81100 29.40200 29.55200
O  -1.03200 30.15800 30.04600
C  -2.85700 28.53900 30.42200
C  -2.00300 27.73200 31.25400
O  -1.39900 26.72500 30.78600
O  -2.02000 28.11000 32.55800
C  -0.96000 27.53300 33.39900
H  -7.55300 23.64600 28.85500
H  -5.88500 24.14500 22.60600
H  -1.82900 28.74700 23.91300
H  -4.21000 25.83800 31.65200
H  -6.94900 25.02900 30.95300
H  -4.82500 23.12800 30.33900
H  -6.08700 22.98400 31.56000
H  -4.57900 23.69900 32.02300
H  -6.92000 27.39000 31.52100
H  -5.42000 28.30100 31.46200
H  -6.94500 27.53000 33.45000
H  -5.31100 28.16400 33.71100
H  -8.79700 22.32400 27.86800
H  -8.78600 21.37100 26.44900
H  -9.67300 22.88300 26.38700
H  -9.89600 22.01400 24.39800
H  -8.79600 20.63200 23.98900
H  -9.82600 21.53400 22.77000
H  -5.17700 26.65400 21.36700
H  -2.39300 27.08300 21.92800
H  -4.19700 25.07000 20.13900
H  -3.64200 24.23800 21.60700
H  -2.58700 25.38300 20.82600
H  -3.70000 29.56800 22.48000
H  -4.72300 28.89700 21.34900
H  -3.47500 29.35800 19.59400
H  -1.89400 28.84200 20.40500
H  -2.71300 30.35500 20.79600
H  -0.74300 30.92800 25.87300
H  0.13500 29.37900 25.55900
H  0.16300 30.20900 27.19600
H  -3.38000 29.27400 31.03500
H  -0.06800 27.48400 32.77400
H  -1.18400 26.48800 33.61400
H  -0.75000 28.18200 34.24800

