158

Mg 42.96800 42.80400 26.19900
C  41.88600 45.01400 28.68300
C  44.11500 40.65200 28.74600
C  44.31900 40.92100 23.84800
C  42.34300 45.33400 23.83600
N  42.98900 42.85200 28.44300
C  42.43100 43.80900 29.27900
C  42.41900 43.34100 30.79000
C  43.46200 42.18100 30.78900
C  43.63600 41.90400 29.24000
C  44.81000 42.36800 31.57900
C  40.97500 43.07400 31.27700
C  40.42300 43.69500 32.56200
H  41.38500 43.92800 33.69100
N  43.86100 40.97700 26.31400
C  44.31300 40.29100 27.40500
C  44.99500 39.11800 26.93500
C  44.91800 39.10700 25.56200
C  44.33000 40.35900 25.20300
C  45.64100 38.08800 27.88200
C  45.39500 38.02600 24.58400
O  44.94100 37.96100 23.48600
C  46.37400 37.01300 24.94700
N  43.38000 43.20100 24.13100
C  43.84800 42.18200 23.37500
C  43.72900 42.49200 21.93700
C  43.04700 43.89400 21.85100
C  42.84600 44.17000 23.33700
C  45.08200 42.28200 21.17200
C  41.74000 43.99300 20.96300
C  40.54100 43.20700 21.52900
N  42.23500 44.72500 26.21300
C  42.03100 45.61500 25.15900
C  41.56200 46.89600 25.68900
C  41.38100 46.67600 27.06500
C  41.88900 45.34200 27.36500
C  41.39700 48.13600 24.86500
C  40.94900 47.22900 28.31900
O  40.44200 48.30300 28.58400
C  41.20500 46.14100 29.43400
C  42.14200 46.75300 30.44700
O  43.19500 47.35400 30.20700
O  41.55800 46.71600 31.66400
C  42.00000 47.94300 32.43200
H  44.35300 39.99900 29.58800
H  44.65700 40.15600 23.14600
H  41.88500 46.01500 23.11500
H  42.84200 44.08000 31.47000
H  42.84600 41.32200 31.05400
H  45.60900 42.29700 30.84100
H  44.88900 41.69300 32.43100
H  44.76900 43.33300 32.08400
H  40.93100 41.98700 31.35300
H  40.25400 43.27300 30.48400
H  39.73000 42.92700 32.90700
H  39.84600 44.59700 32.35900
H  45.55900 38.49600 28.89000
H  46.66900 37.77200 27.70800
H  45.11700 37.13300 27.85200
H  47.17200 37.60700 25.39300
H  46.66200 36.61300 23.97500
H  46.00400 36.24000 25.61900
H  43.06200 41.76900 21.46800
H  43.73900 44.61400 21.41600
H  46.05700 42.39700 21.64500
H  45.27200 43.04500 20.41700
H  45.07200 41.30300 20.69400
H  41.97200 43.88700 19.90300
H  41.38900 45.00500 21.16600
H  39.79600 43.96800 21.76200
H  40.92700 42.69200 22.40900
H  40.11600 42.48600 20.83100
H  42.40300 48.52900 24.71300
H  40.77800 48.77700 25.49200
H  40.84100 47.85500 23.97100
H  40.25100 45.93200 29.91600
H  41.53800 47.91800 33.41900
H  41.71900 48.90700 32.01000
H  43.08800 47.99300 32.46600
Mg 29.92900 57.74100 41.07500
C  27.09500 55.77300 40.14300
C  31.89000 55.26600 39.55200
C  32.46100 59.84700 41.38000
C  27.66300 60.34500 41.93100
N  29.57000 55.69400 40.05500
C  28.31200 55.09100 39.81400
C  28.45500 53.71400 39.21300
C  29.96800 53.63100 38.93300
C  30.52700 54.87200 39.60300
C  30.60400 52.21900 39.23200
C  27.53200 53.52900 37.90100
C  27.40900 54.79200 36.95200
H  27.73700 54.68300 35.47600
N  31.88300 57.52500 40.70200
C  32.50500 56.47600 40.07100
C  33.97300 56.75600 40.03300
C  34.14700 58.01000 40.59800
C  32.76500 58.55200 40.87900
C  34.91700 55.68800 39.60300
C  35.48700 58.68700 40.83100
O  36.51900 58.06800 40.57600
C  35.68800 60.13700 41.23800
N  30.03900 59.81800 41.56800
C  31.20600 60.40100 41.70700
C  31.04000 61.89700 41.82900
C  29.57300 62.05500 42.26100
C  29.02100 60.64300 41.87400
C  32.02100 62.70200 42.69800
C  28.88000 63.36700 41.63600
C  27.97600 64.22100 42.58800
N  27.82700 58.01600 41.07700
C  27.06100 59.12200 41.49900
C  25.66600 58.80900 41.25400
C  25.66500 57.45900 40.89000
C  26.98800 57.06000 40.72700
C  24.47900 59.71200 41.36700
C  24.76200 56.46600 40.46100
O  23.52100 56.45000 40.44400
C  25.64900 55.25900 39.94400
C  25.38200 54.15700 40.84600
O  25.73000 54.15500 42.03900
O  24.82000 53.08800 40.23300
C  24.57900 51.88100 41.07800
H  32.59800 54.57700 39.08600
H  33.30800 60.53600 41.34900
H  27.00700 61.20200 42.09700
H  28.19200 53.02000 40.01100
H  30.07000 53.71200 37.85100
H  30.19800 51.56600 38.45900
H  30.22800 51.80400 40.16800
H  31.68900 52.30100 39.18000
H  26.52000 53.29200 38.22700
H  27.87000 52.72400 37.24900
H  28.22300 55.42500 37.30400
H  26.49200 55.38200 36.93700
H  35.96900 55.97500 39.58500
H  34.66800 55.25800 38.63200
H  34.81800 54.87600 40.32300
H  35.36700 60.73600 40.38600
H  36.75200 60.37000 41.27800
H  35.17200 60.35600 42.17200
H  31.21600 62.31000 40.83600
H  29.67600 62.07800 43.34600
H  32.29100 63.65800 42.24900
H  32.97100 62.18100 42.81400
H  31.72600 62.86000 43.73500
H  28.21500 63.12200 40.80800
H  29.69200 63.97300 41.23400
H  27.02100 64.42800 42.10400
H  28.51200 65.14300 42.81000
H  27.70900 63.69500 43.50400
H  24.23500 60.13300 40.39200
H  24.66100 60.48300 42.11600
H  23.65700 59.05100 41.64200
H  25.46400 55.07700 38.88500
H  25.29200 51.07100 40.92300
H  23.58800 51.47000 40.88500
H  24.61900 52.01600 42.15900

