158

Mg 40.46400 8.76100 29.02400
C  42.39900 10.04300 31.71400
C  38.63000 6.97300 31.24700
C  38.84600 7.45800 26.42100
C  42.88600 10.07800 26.88000
N  40.48300 8.62000 31.17300
C  41.29400 9.25800 32.05400
C  40.84900 9.03200 33.52800
C  39.81200 7.87800 33.35900
C  39.57300 7.85000 31.80500
C  40.16900 6.48900 34.05800
C  40.33100 10.30700 34.25800
C  39.80600 10.07300 35.68000
H  40.67700 10.50200 36.88500
N  38.93600 7.41300 28.88500
C  38.22200 6.79000 29.89800
C  37.14500 6.05800 29.30700
C  37.19600 6.19400 27.85300
C  38.29200 7.07900 27.68800
C  36.17100 5.31300 30.16900
C  36.22300 5.63600 26.70400
O  36.34600 5.93400 25.52300
C  35.27200 4.68000 27.10400
N  40.83800 8.78600 26.98700
C  40.01800 8.18900 26.08500
C  40.49100 8.28500 24.60100
C  41.79600 9.11900 24.79800
C  41.85500 9.39200 26.29700
C  40.78700 6.90700 23.91000
C  41.95500 10.34600 23.93100
C  41.23200 11.63000 24.33800
N  42.24900 9.82800 29.21000
C  43.07800 10.37600 28.26600
C  44.23000 10.97300 28.83100
C  43.95400 10.95600 30.17400
C  42.75600 10.22400 30.34900
C  45.41900 11.42200 28.02600
C  44.44900 11.38000 31.46500
O  45.40800 12.10600 31.79200
C  43.40500 10.90600 32.52600
C  44.12100 10.12600 33.53900
O  44.47100 8.94000 33.47700
O  44.35200 10.89700 34.64300
C  44.94500 10.13300 35.76000
H  37.96900 6.46000 31.94900
H  38.31000 7.00500 25.58400
H  43.67100 10.35000 26.17200
H  41.75800 8.76800 34.06800
H  38.84600 8.15800 33.78000
H  39.52500 6.54700 34.93500
H  41.22200 6.52900 34.33700
H  40.00400 5.64700 33.38500
H  39.49800 10.77000 33.72900
H  41.17600 10.99100 34.34400
H  39.69500 8.99800 35.81800
H  38.82000 10.52200 35.80000
H  35.13800 5.49300 29.87200
H  36.22800 5.63700 31.20800
H  36.28300 4.24900 29.95600
H  34.43400 5.14500 27.62400
H  35.75100 3.83700 27.60100
H  34.88300 4.32200 26.15100
H  39.71600 8.86400 24.09800
H  42.65400 8.47900 24.59100
H  40.55000 6.71700 22.86300
H  40.12900 6.11800 24.27200
H  41.82700 6.60200 24.03100
H  41.37600 10.11600 23.03700
H  43.01400 10.54300 23.76000
H  40.50500 11.98100 23.60600
H  41.83700 12.48200 24.64700
H  40.65100 11.38300 25.22700
H  45.21600 12.31900 27.44200
H  45.76500 10.61400 27.38200
H  46.33300 11.61600 28.58900
H  43.05900 11.78800 33.06600
H  45.75700 9.43200 35.56500
H  44.13100 9.47600 36.06600
H  45.20100 10.71400 36.64600
Mg 36.12600 49.12900 24.98800
C  36.43100 47.57600 28.02900
C  35.20800 52.08200 26.64300
C  35.65100 50.65300 22.09900
C  37.25200 46.19500 23.42200
N  35.96100 49.77200 27.09500
C  36.12100 48.94800 28.16400
C  36.21700 49.82200 29.45800
C  35.71500 51.22600 29.00600
C  35.63600 51.01600 27.46600
C  34.35100 51.63400 29.67500
C  37.56000 49.77300 30.16900
C  37.39400 49.31500 31.63500
H  36.03200 49.43000 32.51100
N  35.51700 51.08300 24.48700
C  35.11900 52.13000 25.27800
C  34.75000 53.30000 24.42600
C  34.80400 52.87400 23.11000
C  35.34000 51.47500 23.16600
C  34.51600 54.64100 25.01600
C  34.51700 53.69200 21.85200
O  34.62100 53.25200 20.72200
C  33.94200 55.00600 22.00400
N  36.33400 48.52300 23.08500
C  36.14600 49.35500 22.00900
C  36.61600 48.80300 20.68500
C  37.23900 47.46000 21.08700
C  36.96500 47.34300 22.65600
C  35.52100 48.59800 19.57100
C  38.72000 47.20500 20.86800
C  38.99900 45.98200 19.95700
N  36.60800 47.25500 25.51600
C  37.02500 46.12700 24.83000
C  37.20900 45.00200 25.67600
C  37.05600 45.59400 26.98400
C  36.64400 46.93100 26.83700
C  37.56500 43.65700 25.20800
C  37.13700 45.26000 28.39900
O  37.47000 44.17900 28.90500
C  36.83200 46.56800 29.17600
C  35.67600 46.31400 30.08400
O  34.52700 46.10100 29.66600
O  35.99800 46.00600 31.37900
C  35.08600 45.25400 32.22900
H  34.81900 52.96300 27.15800
H  35.60700 51.13100 21.11900
H  37.77300 45.35500 22.95800
H  35.48800 49.30300 30.08100
H  36.42800 52.03000 29.18800
H  33.40900 51.35700 29.20100
H  34.27300 52.70300 29.87000
H  34.40200 51.18000 30.66400
H  38.02500 50.75800 30.17500
H  38.27500 49.18300 29.59600
H  38.20500 49.87200 32.10300
H  37.54800 48.23600 31.67100
H  33.45700 54.89800 24.99200
H  35.11200 55.34000 24.42900
H  34.89300 54.72400 26.03500
H  33.00500 54.89500 22.55100
H  33.67200 55.43500 21.04000
H  34.70600 55.65800 22.42800
H  37.31300 49.59600 20.41500
H  36.60500 46.67600 20.67400
H  34.59600 48.22700 20.01200
H  35.84100 47.82000 18.87700
H  35.42200 49.54700 19.04300
H  39.21300 47.10700 21.83500
H  39.09200 48.12000 20.40600
H  39.76600 45.39400 20.46100
H  39.33500 46.54400 19.08600
H  38.10700 45.44200 19.64100
H  38.60500 43.51000 24.91600
H  36.93500 43.26700 24.40900
H  37.31700 43.06500 26.08900
H  37.71000 46.92000 29.71800
H  34.85600 44.34800 31.66800
H  34.20200 45.87600 32.37000
H  35.60400 45.00900 33.15600

