158

Mg 44.72400 3.75300 47.97600
C  42.44800 6.53600 47.81900
C  41.86400 1.79100 47.35800
C  46.76300 1.10200 47.21300
C  47.35700 5.90900 47.50400
N  42.35900 4.16300 47.57100
C  41.69300 5.33300 47.72100
C  40.19300 5.17600 47.57600
C  40.02100 3.63500 47.63600
C  41.50600 3.16600 47.46800
C  39.33700 3.13600 48.86500
C  39.56200 5.94300 46.34300
C  39.58600 5.17800 45.00000
H  39.82800 6.07900 43.80500
N  44.38000 1.69100 47.44900
C  43.12600 1.06300 47.29100
C  43.31800 -0.27800 47.00300
C  44.75500 -0.57800 47.05700
C  45.37100 0.77900 47.24900
C  42.23200 -1.27300 47.08700
C  45.38500 -1.90500 46.86200
O  44.73400 -2.94700 46.64800
C  46.90400 -2.12000 46.86100
N  46.76700 3.55400 47.36500
C  47.37500 2.32200 47.26100
C  48.82800 2.50200 46.69400
C  49.05400 4.00300 47.21300
C  47.62700 4.52400 47.34700
C  49.98400 1.62800 47.26000
C  50.06600 4.76000 46.23100
C  51.50800 4.99700 46.69600
N  44.96700 5.80800 47.90900
C  46.09900 6.52600 47.70800
C  45.78500 8.00600 47.82300
C  44.36900 8.02600 47.79100
C  43.87900 6.64000 47.88100
C  46.70100 9.17300 47.88000
C  43.22400 8.87500 47.79500
O  43.17600 10.08800 47.89800
C  41.97500 7.94000 47.68800
C  41.01600 8.40000 48.75800
O  41.16900 8.24100 49.94300
O  39.86300 8.71900 48.15100
C  38.62600 8.85000 48.87400
H  41.02900 1.09600 47.24400
H  47.45400 0.30100 46.94200
H  48.21500 6.57800 47.41200
H  39.92900 5.54500 48.56700
H  39.59400 3.19900 46.73300
H  38.92500 2.17000 48.57400
H  38.47900 3.73300 49.17500
H  40.01600 2.91500 49.68900
H  40.22800 6.76400 46.07600
H  38.67200 6.52400 46.58800
H  38.59100 4.73600 44.95100
H  40.43000 4.49000 45.04800
H  41.27800 -0.81500 47.35000
H  42.50800 -2.03900 47.81200
H  42.12500 -1.89000 46.19600
H  47.32400 -1.50200 47.65400
H  47.35300 -1.70900 45.95600
H  47.12600 -3.16800 47.05900
H  48.80200 2.28800 45.62600
H  49.51800 3.91500 48.19500
H  50.79400 2.22700 47.67700
H  50.35700 0.87700 46.56400
H  49.79900 0.98200 48.11800
H  49.74500 5.70900 45.80300
H  50.17400 4.16900 45.32200
H  52.11200 4.59600 45.88300
H  51.81400 4.56600 47.64900
H  51.78300 6.05100 46.65200
H  47.65100 8.96900 47.38700
H  46.79600 9.48600 48.92000
H  46.10200 9.97300 47.44500
H  41.58900 8.20600 46.70300
H  37.76100 8.65100 48.24300
H  38.49500 9.88100 49.20400
H  38.52200 8.12200 49.67800
Mg 0.62900 43.10100 24.95000
C  2.60300 42.77900 27.91200
C  -1.97800 41.99300 26.61900
C  -0.89900 42.91400 21.98100
C  3.67300 43.85200 23.25700
N  0.35300 42.65100 27.04100
C  1.23500 42.72000 28.11500
C  0.47200 42.60300 29.43400
C  -0.94800 42.14700 28.96600
C  -0.89200 42.25300 27.45900
C  -1.35600 40.73500 29.55200
C  0.57500 43.90400 30.33200
C  0.95500 43.54700 31.82600
H  0.58000 42.18000 32.40100
N  -1.27200 42.44300 24.38200
C  -2.21800 42.06800 25.21500
C  -3.40400 41.80700 24.42800
C  -3.12200 42.22400 23.09200
C  -1.70700 42.55600 23.09800
C  -4.61000 41.12100 24.97900
C  -4.00500 42.31400 21.86200
O  -3.64800 42.76800 20.79400
C  -5.46800 41.84000 22.00100
N  1.30200 43.31500 22.97900
C  0.44500 43.23100 21.95100
C  1.05600 43.79100 20.60600
C  2.47300 44.16000 21.08800
C  2.48600 43.76600 22.52200
C  0.96000 42.70800 19.48900
C  2.88900 45.66500 20.82600
C  4.37200 45.94100 20.47200
N  2.77400 43.23900 25.48500
C  3.85400 43.49700 24.64600
C  5.08300 43.43200 25.43200
C  4.63400 43.06800 26.74800
C  3.22000 42.98700 26.68800
C  6.47300 43.76000 25.05000
C  5.07200 42.79600 28.08600
O  6.24500 42.75200 28.53200
C  3.72600 42.76400 28.89000
C  3.87200 41.50700 29.68500
O  3.60900 40.36400 29.28300
O  4.23800 41.85800 30.95400
C  4.41700 40.68500 31.83600
H  -2.87100 41.69300 27.17200
H  -1.28000 43.00000 20.96100
H  4.57400 43.94000 22.64600
H  1.01200 41.80000 29.93500
H  -1.60800 42.90600 29.38600
H  -2.03100 40.96300 30.37700
H  -0.42600 40.30500 29.92300
H  -1.86300 40.10400 28.82200
H  -0.31300 44.53100 30.25600
H  1.44900 44.43500 29.95400
H  0.61500 44.29900 32.53800
H  2.03900 43.45700 31.89400
H  -5.55600 41.66000 25.01100
H  -4.47900 40.93600 26.04600
H  -4.72400 40.14800 24.50200
H  -5.43200 40.75000 22.02500
H  -6.02200 42.18700 21.12900
H  -5.93400 42.24600 22.89900
H  0.63100 44.75400 20.32300
H  3.22500 43.51400 20.63500
H  1.90000 42.18500 19.31200
H  0.78800 43.22200 18.54300
H  0.22800 41.93100 19.70600
H  2.72400 46.10600 21.80900
H  2.24800 46.08800 20.05100
H  4.83300 46.46900 21.30700
H  4.50300 46.53200 19.56500
H  4.88200 44.98600 20.34100
H  6.52200 44.27700 24.09200
H  7.12300 42.88600 25.07300
H  6.80700 44.43000 25.84300
H  3.64200 43.59600 29.58900
H  3.65200 39.90900 31.83700
H  4.42400 41.07800 32.85300
H  5.32600 40.09700 31.71000

