158

Mg 7.91600 3.23600 27.25900
C  8.94900 1.50500 30.10800
C  5.74900 4.93900 29.18100
C  6.61000 4.50500 24.37100
C  10.01400 1.12500 25.37700
N  7.31600 3.07900 29.47800
C  7.89900 2.37800 30.45200
C  7.52400 2.97300 31.85800
C  6.37700 3.92000 31.50000
C  6.45800 4.00400 29.96900
C  4.92100 3.57600 31.98700
C  8.70000 3.69500 32.62300
C  8.36700 4.12900 34.03800
H  9.40100 4.02100 35.15700
N  6.48100 4.67400 26.88300
C  5.70400 5.27700 27.85200
C  4.92800 6.23900 27.15900
C  5.09200 6.09400 25.73900
C  6.04400 4.99700 25.55900
C  4.02700 7.24700 27.89800
C  4.47300 6.84700 24.57300
O  4.63200 6.59700 23.38400
C  3.73500 8.09200 24.91100
N  8.29400 2.87300 25.20500
C  7.68000 3.58000 24.23900
C  8.22700 3.18700 22.86000
C  9.42700 2.30400 23.18500
C  9.31600 2.08600 24.66400
C  7.13800 2.58200 22.01200
C  10.85400 2.94000 22.86900
C  11.35600 2.34600 21.54800
N  9.17300 1.52200 27.59800
C  10.01500 0.85600 26.73000
C  10.84400 -0.04400 27.53300
C  10.55800 0.21500 28.88200
C  9.45000 1.14000 28.84500
C  11.73200 -1.17000 27.04400
C  10.82900 -0.11700 30.24600
O  11.65500 -0.88100 30.69800
C  9.83400 0.79200 31.07500
C  9.12500 -0.02600 32.03200
O  8.28300 -0.88000 31.80700
O  9.64000 0.30300 33.27100
C  9.28000 -0.57900 34.42800
H  5.10200 5.52300 29.83900
H  6.17400 4.76800 23.40500
H  10.53800 0.51800 24.63600
H  7.08500 2.15700 32.43200
H  6.59300 4.85400 32.01800
H  4.14900 3.78500 31.24600
H  4.71800 4.26700 32.80600
H  4.82200 2.57300 32.40200
H  9.05100 4.57400 32.08200
H  9.58100 3.05400 32.59600
H  7.54700 3.50200 34.38800
H  8.13900 5.19500 34.01000
H  2.99000 6.91200 27.89400
H  4.07600 8.26500 27.51000
H  4.33800 7.30000 28.94100
H  2.85300 7.85800 25.50800
H  3.45000 8.62100 24.00200
H  4.48500 8.72900 25.38000
H  8.58600 4.13900 22.47000
H  9.41700 1.28100 22.80900
H  6.12700 2.67500 22.41000
H  7.33300 1.52800 21.81300
H  7.03400 3.04100 21.02900
H  11.56300 2.61900 23.63100
H  10.83500 4.02900 22.82200
H  12.03600 1.53400 21.80600
H  11.86100 3.05600 20.89200
H  10.52600 2.04500 20.90900
H  11.12400 -1.67100 26.29100
H  11.97500 -1.88500 27.83000
H  12.68900 -0.86200 26.62200
H  10.57500 1.42000 31.56900
H  8.54400 -0.08300 35.06100
H  10.20700 -0.72700 34.98200
H  8.95300 -1.59300 34.19900
Mg 34.41500 3.59000 30.30200
C  32.20700 4.53000 32.72800
C  36.99000 3.69400 32.68800
C  36.68100 2.90100 27.87900
C  31.93100 3.82400 27.84700
N  34.59700 4.05300 32.37800
C  33.49000 4.17700 33.21700
C  33.84800 4.25800 34.74600
C  35.46300 4.29800 34.63600
C  35.69600 3.92500 33.13400
C  36.12200 5.74200 34.94900
C  33.23200 3.10600 35.63800
C  32.81300 3.70100 36.99400
H  33.68500 4.76800 37.67300
N  36.51100 3.38100 30.30600
C  37.38400 3.43800 31.37400
C  38.72300 3.10200 30.95600
C  38.62800 2.80300 29.55300
C  37.22700 3.01700 29.18300
C  39.91500 3.23500 31.79800
C  39.65300 2.23400 28.61600
O  39.53700 2.08000 27.37500
C  40.91400 1.55200 29.12500
N  34.26100 3.36400 28.13100
C  35.34600 2.98300 27.36200
C  34.99300 2.77900 25.90300
C  33.44700 3.13600 25.99700
C  33.20900 3.49200 27.42700
C  35.77100 3.77800 24.96000
C  32.61600 2.00100 25.33900
C  32.10900 0.94400 26.29800
N  32.45300 4.08100 30.23000
C  31.55800 4.04500 29.21300
C  30.25200 4.37000 29.73300
C  30.40300 4.51300 31.13100
C  31.76100 4.37000 31.35500
C  28.95700 4.50900 28.98900
C  29.75800 4.77300 32.40900
O  28.60700 5.03000 32.69700
C  30.97100 4.90400 33.50200
C  31.06700 6.21100 34.13700
O  31.56600 7.27000 33.65300
O  30.51900 6.11800 35.33200
C  30.54100 7.27000 36.22500
H  37.85000 3.83900 33.34500
H  37.30700 2.61900 27.02900
H  31.16200 3.87300 27.07300
H  33.42800 5.20400 35.08900
H  35.95600 3.52000 35.22000
H  35.44500 6.39700 35.49900
H  36.47600 6.10600 33.98400
H  37.01500 5.71300 35.57300
H  33.99600 2.33900 35.76500
H  32.47400 2.65700 34.99500
H  32.74300 2.89900 37.72900
H  31.82400 4.14200 36.86500
H  39.88800 3.89300 32.66600
H  40.79700 3.53200 31.23000
H  40.32000 2.26700 32.09300
H  40.61700 0.62000 29.60500
H  41.32400 2.30500 29.79900
H  41.55700 1.44600 28.25200
H  35.16100 1.74400 25.60400
H  33.25800 4.03300 25.40700
H  35.16000 4.46700 24.37800
H  36.37500 3.24200 24.22700
H  36.28800 4.52200 25.56600
H  33.17000 1.48800 24.55200
H  31.82800 2.50700 24.78100
H  32.71800 1.05300 27.19600
H  32.12100 -0.09500 25.96800
H  31.08300 1.10500 26.62600
H  28.47400 3.54300 28.84400
H  29.10400 4.83600 27.96000
H  28.36000 5.18000 29.60700
H  30.85600 4.20700 34.33200
H  31.27800 8.03900 35.99600
H  30.79500 6.92900 37.22900
H  29.54400 7.69500 36.34000

