158

Mg 46.25200 3.61300 47.48900
C  43.70800 6.05900 46.73000
C  43.78100 1.35500 47.78000
C  48.70700 1.30400 47.44200
C  48.59400 6.21600 47.25600
N  43.99800 3.69900 47.12200
C  43.14900 4.73700 46.86900
C  41.68800 4.34000 46.84900
C  41.73800 2.83200 47.27100
C  43.28000 2.61400 47.48400
C  40.85900 2.43700 48.51300
C  41.05600 4.65600 45.39600
C  39.75300 5.51300 45.23300
H  39.85200 6.87300 44.36800
N  46.27800 1.63000 47.55400
C  45.08200 0.88700 47.68700
C  45.45800 -0.52400 47.70400
C  46.87100 -0.61100 47.52600
C  47.32900 0.80400 47.50500
C  44.45900 -1.69000 47.73700
C  47.70100 -1.88800 47.38900
O  47.21900 -3.00300 47.43200
C  49.18000 -1.82600 47.32500
N  48.32100 3.74300 47.06400
C  49.13100 2.60700 47.16500
C  50.59500 3.04800 47.42200
C  50.47200 4.60500 47.42300
C  49.02300 4.90100 47.20900
C  51.09500 2.45300 48.81600
C  51.41800 5.27900 46.42900
C  52.18300 6.52000 46.99000
N  46.22300 5.65500 46.96400
C  47.28000 6.60300 47.08400
C  46.75500 7.92800 46.71500
C  45.38100 7.76400 46.67100
C  45.10200 6.36600 46.83100
C  47.52100 9.17300 46.51400
C  44.13400 8.44800 46.48600
O  43.88000 9.68200 46.32800
C  42.96500 7.34400 46.58900
C  42.20000 7.65400 47.85600
O  42.17100 6.96100 48.90700
O  41.41500 8.77100 47.57600
C  40.29700 9.06000 48.54600
H  43.06200 0.61600 48.13800
H  49.47700 0.54100 47.57200
H  49.32900 7.02200 47.22800
H  41.20400 4.94800 47.61200
H  41.36300 2.19200 46.47300
H  41.38100 2.02000 49.37400
H  40.21600 1.61700 48.19500
H  40.23900 3.32100 48.65900
H  40.77700 3.69300 44.96900
H  41.84600 5.09400 44.78700
H  39.30100 5.67600 46.21100
H  38.97900 4.94400 44.71800
H  44.68900 -2.54700 47.10300
H  43.49900 -1.26800 47.43900
H  44.36300 -2.11200 48.73800
H  49.54600 -2.85000 47.25600
H  49.58100 -1.37000 48.23000
H  49.53000 -1.30000 46.43600
H  51.19200 2.61200 46.62100
H  50.79000 4.89700 48.42300
H  50.46000 1.63600 49.16100
H  51.16400 3.25800 49.54700
H  52.08700 2.02600 48.66800
H  50.84600 5.65800 45.58200
H  52.07300 4.60000 45.88200
H  51.88800 6.71300 48.02100
H  51.99500 7.32600 46.28000
H  53.24900 6.32800 46.86800
H  46.76400 9.90400 46.23000
H  48.15700 8.92100 45.66500
H  48.22500 9.28000 47.33800
H  42.39900 7.53900 45.67800
H  40.37900 8.59000 49.52600
H  39.26600 8.86800 48.24800
H  40.32200 10.15000 48.56700
Mg 0.96100 43.06200 26.51700
C  2.97400 43.28700 29.31800
C  -1.81700 42.47900 28.67700
C  -1.04300 42.95300 23.87900
C  3.73100 43.32500 24.58100
N  0.55000 42.80800 28.73700
C  1.59200 43.02500 29.63900
C  1.11200 43.13900 31.05600
C  -0.37900 42.54600 30.85600
C  -0.57000 42.51900 29.34900
C  -0.49200 41.10100 31.42600
C  1.04400 44.57500 31.68700
C  1.23500 44.65200 33.16800
H  0.88900 43.36600 34.01200
N  -1.18000 42.82100 26.29800
C  -2.12700 42.68000 27.30900
C  -3.40500 42.64300 26.62600
C  -3.18100 42.93200 25.24700
C  -1.76900 42.91600 25.08300
C  -4.69700 42.48400 27.44100
C  -4.16300 43.18800 24.16800
O  -3.81000 43.51400 23.03000
C  -5.66000 43.20000 24.32800
N  1.28900 43.15500 24.52200
C  0.32000 43.06100 23.54400
C  0.78300 43.06400 22.13700
C  2.29000 43.43900 22.45800
C  2.46100 43.38800 23.97000
C  0.54000 41.70600 21.44600
C  2.63900 44.82100 21.93600
C  3.81500 44.98100 20.93100
N  2.95700 43.22500 26.84200
C  4.01300 43.37900 25.97900
C  5.29700 43.34800 26.68600
C  4.89800 43.38100 28.01900
C  3.52700 43.26200 28.07600
C  6.61800 43.45000 26.17200
C  5.44800 43.46800 29.38400
O  6.60000 43.60200 29.76700
C  4.12700 43.42100 30.25400
C  4.32500 42.14800 31.05500
O  4.19000 41.01300 30.71900
O  4.71400 42.55900 32.32000
C  4.96900 41.41400 33.24800
H  -2.63300 42.31700 29.38400
H  -1.54900 42.93000 22.91100
H  4.54100 43.37200 23.85000
H  1.76900 42.50400 31.65000
H  -1.14300 43.19000 31.29000
H  0.13400 40.99000 32.31200
H  -0.28000 40.33800 30.67700
H  -1.50800 40.98200 31.80200
H  0.08300 45.02500 31.43600
H  1.81400 45.11800 31.14000
H  0.66700 45.52500 33.49000
H  2.29600 44.84700 33.32700
H  -5.38000 41.71200 27.08700
H  -5.25300 43.41700 27.35200
H  -4.44100 42.19400 28.46100
H  -5.95600 42.15800 24.45400
H  -6.23700 43.67200 23.53200
H  -5.93500 43.75000 25.22800
H  0.23000 43.89400 21.69600
H  2.87400 42.69000 21.92300
H  1.44100 41.13400 21.22700
H  -0.00600 41.89300 20.52200
H  -0.00700 40.98900 22.05800
H  2.79700 45.43900 22.82100
H  1.81900 45.26800 21.37500
H  4.46000 44.16900 20.59600
H  4.38400 45.83900 21.29000
H  3.42900 45.35300 19.98200
H  6.66700 44.18200 25.36500
H  7.11500 42.51800 25.90300
H  7.21600 43.92300 26.95200
H  4.05600 44.25100 30.95600
H  5.61200 40.72700 32.69800
H  3.98100 41.05800 33.54000
H  5.65800 41.81800 33.98900

