158

Mg 2.34500 -1.94200 44.07200
C  5.83300 -0.98300 43.90400
C  1.77600 0.91500 42.00600
C  -0.73500 -2.92300 43.70300
C  3.47100 -5.08500 45.30300
N  3.71600 -0.27200 42.96400
C  5.10000 -0.04900 43.16200
C  5.53300 1.19600 42.34200
C  4.20100 1.89700 41.90100
C  3.17200 0.76700 42.23600
C  3.83100 3.22800 42.67400
C  6.50400 0.97200 41.13600
C  6.04900 -0.03400 40.10700
H  5.46800 0.44400 38.72000
N  0.69300 -1.17500 42.95000
C  0.64300 0.01100 42.27900
C  -0.69900 0.16000 41.81500
C  -1.52200 -0.90400 42.32100
C  -0.52400 -1.77300 43.05200
C  -1.07000 1.42400 41.14600
C  -2.97200 -1.10300 42.26600
O  -3.62200 -0.30900 41.60600
C  -3.73000 -2.16300 43.03900
N  1.51800 -3.83800 44.43500
C  0.12300 -3.89800 44.32500
C  -0.28600 -5.35300 44.76200
C  1.00700 -6.00100 45.34900
C  2.04500 -4.94000 45.01900
C  -1.49100 -5.57300 45.65200
C  1.31700 -7.32500 44.66700
C  0.79400 -8.56400 45.16900
N  4.20700 -2.88300 44.60200
C  4.44500 -4.12000 45.11100
C  5.89400 -4.28000 45.39900
C  6.46900 -3.00200 45.03500
C  5.43100 -2.25700 44.48700
C  6.53600 -5.52800 45.93800
C  7.67400 -2.30600 44.88300
O  8.81800 -2.66300 45.09600
C  7.34700 -0.96600 44.10200
C  7.76800 0.24100 44.86000
O  7.34500 0.49600 45.97800
O  8.69500 0.89200 44.17400
C  9.06000 2.19800 44.72600
H  1.73100 1.82900 41.41000
H  -1.72900 -3.34300 43.53300
H  3.88800 -5.94800 45.82400
H  6.08500 1.85800 43.00900
H  4.26100 2.12900 40.83800
H  2.84800 3.19300 43.14400
H  3.86300 4.11100 42.03600
H  4.63700 3.32200 43.40200
H  7.45100 0.67100 41.58400
H  6.58700 1.94600 40.65400
H  5.31900 -0.76500 40.45500
H  6.89900 -0.64500 39.80400
H  -2.12600 1.33300 40.88900
H  -0.66600 1.39000 40.13400
H  -0.81000 2.27900 41.76900
H  -4.78500 -1.91400 43.14500
H  -3.31700 -2.01000 44.03600
H  -3.53600 -3.13300 42.58000
H  -0.45400 -5.77500 43.77100
H  0.90300 -6.06100 46.43200
H  -1.48400 -6.54200 46.15000
H  -2.38000 -5.53500 45.02300
H  -1.61800 -4.70100 46.29300
H  2.36200 -7.62700 44.74800
H  1.06900 -7.33300 43.60600
H  1.60900 -9.11600 45.63700
H  0.29100 -9.09600 44.36200
H  0.05800 -8.53900 45.97300
H  6.22300 -6.44000 45.42900
H  6.10400 -5.74100 46.91600
H  7.62400 -5.57500 46.00200
H  7.94500 -0.98100 43.19100
H  8.33100 2.77100 45.29800
H  9.40400 2.83000 43.90800
H  9.89300 2.03900 45.41200
Mg 30.64300 58.02500 39.72800
C  27.54700 56.38900 38.97900
C  32.28300 55.17100 38.91600
C  33.37600 59.94600 39.46300
C  28.57200 60.86700 40.56900
N  29.98700 56.09700 38.92000
C  28.69500 55.62000 38.67800
C  28.75000 54.13300 38.43800
C  30.14900 53.79000 38.92400
C  30.85400 55.06600 38.93900
C  30.36700 52.99200 40.24700
C  28.24700 53.68900 37.00000
C  27.83400 54.76300 36.01900
H  28.20700 54.52300 34.52200
N  32.55600 57.62300 39.35600
C  33.09200 56.34600 38.95600
C  34.49000 56.44100 38.58800
C  34.87800 57.83900 38.80700
C  33.62400 58.57300 39.26800
C  35.41500 55.29800 38.15900
C  36.21100 58.47600 38.42800
O  37.06400 57.78700 37.90200
C  36.53700 59.94100 38.56900
N  30.92800 60.10100 39.97800
C  32.18000 60.59000 39.95700
C  32.05900 62.14000 40.32600
C  30.64800 62.36700 40.82500
C  29.94900 61.06500 40.50300
C  33.18200 62.56800 41.33100
C  29.94000 63.49700 40.13600
C  29.06600 64.46800 40.87800
N  28.46300 58.55500 39.83800
C  27.84500 59.78500 40.09200
C  26.48300 59.58100 39.93300
C  26.29200 58.29300 39.44000
C  27.57500 57.68700 39.33200
C  25.40000 60.64100 40.18700
C  25.28600 57.42300 38.96900
O  24.11800 57.51900 38.67400
C  26.08900 56.04900 38.73400
C  25.60600 55.14600 39.76900
O  25.98500 55.04900 40.89600
O  24.79400 54.17400 39.22000
C  24.49000 53.12600 40.13800
H  32.93200 54.29800 38.82200
H  34.19000 60.67400 39.44800
H  27.91800 61.69300 40.85900
H  28.07300 53.64000 39.13500
H  30.69500 53.23200 38.16400
H  30.57500 53.76700 40.98500
H  31.20000 52.32700 40.02000
H  29.44000 52.47500 40.49400
H  27.45100 52.95400 37.12000
H  29.04200 53.16700 36.46700
H  28.04500 55.77900 36.35300
H  26.76100 54.73800 35.82700
H  34.79100 54.41300 38.03500
H  36.16500 54.97200 38.88000
H  35.84400 55.68300 37.23400
H  37.55500 60.10300 38.21400
H  36.37100 60.16900 39.62200
H  35.93300 60.63100 37.97900
H  32.34900 62.57100 39.36800
H  30.68200 62.37200 41.91400
H  32.79400 63.27100 42.06800
H  34.07200 62.96800 40.84600
H  33.57100 61.70200 41.86700
H  29.49200 63.13600 39.21000
H  30.78300 64.09900 39.79900
H  28.05400 64.10100 40.71000
H  29.24200 65.45100 40.44100
H  29.34700 64.48400 41.93100
H  24.66400 60.21800 40.87000
H  25.04700 61.08600 39.25700
H  25.86700 61.44100 40.76000
H  25.87900 55.67600 37.73100
H  24.22800 53.48500 41.13400
H  25.38100 52.54800 40.38500
H  23.85100 52.37100 39.68100

