158

Mg -1.08900 7.31800 26.31900
C  -0.00500 9.38100 28.97500
C  -0.87500 4.62500 28.62200
C  -1.59300 5.17900 23.82800
C  -0.34700 9.93000 24.15700
N  -0.45700 7.04200 28.56500
C  -0.33900 8.06300 29.44400
C  -0.40500 7.61200 30.93900
C  -0.38300 6.02700 30.74500
C  -0.52400 5.84700 29.20500
C  0.63800 5.16700 31.55600
C  -1.70200 8.16000 31.65000
C  -1.75900 8.09600 33.22900
H  -0.44300 7.63500 33.87000
N  -1.19100 5.17500 26.29200
C  -1.09500 4.25200 27.30700
C  -1.38800 2.93100 26.78800
C  -1.59100 3.05700 25.35500
C  -1.50300 4.55800 25.06700
C  -1.55500 1.63500 27.59000
C  -1.94200 1.99900 24.32400
O  -2.17300 2.30400 23.19000
C  -1.70900 0.52400 24.73100
N  -0.95400 7.53600 24.23300
C  -1.34800 6.48100 23.40900
C  -1.56700 7.09000 21.89900
C  -1.06000 8.59800 22.10600
C  -0.81500 8.70700 23.59300
C  -0.76400 6.37800 20.71200
C  -1.88800 9.71200 21.44500
C  -3.04600 10.29800 22.22400
N  -0.38100 9.32400 26.45000
C  -0.13800 10.23600 25.51900
C  0.47500 11.41900 26.07800
C  0.45400 11.17300 27.46400
C  0.00400 9.83100 27.60400
C  0.82000 12.78500 25.34000
C  0.83600 11.59300 28.83500
O  1.38900 12.60200 29.25900
C  0.42300 10.51200 29.80000
C  1.57600 10.25800 30.67300
O  2.45300 9.46100 30.40000
O  1.51000 11.12700 31.75200
C  2.68100 11.11000 32.69600
H  -0.95700 3.75500 29.27600
H  -1.84800 4.57500 22.95500
H  -0.22600 10.67400 23.36700
H  0.50700 7.90300 31.46000
H  -1.30500 5.62000 31.16100
H  1.06500 5.76000 32.36500
H  1.53100 4.84800 31.01700
H  0.24700 4.28300 32.05900
H  -2.54300 7.65200 31.17900
H  -1.77000 9.19500 31.31400
H  -2.54100 7.46900 33.65700
H  -1.86400 9.14200 33.51600
H  -2.43500 1.12300 27.19900
H  -1.74600 1.96100 28.61300
H  -0.67900 0.99400 27.48900
H  -1.41300 -0.11700 23.90100
H  -2.58000 0.17600 25.28500
H  -0.86300 0.50100 25.41700
H  -2.61200 7.11400 21.59200
H  -0.05400 8.67600 21.69400
H  -1.54300 6.03500 20.03100
H  -0.22200 5.50300 21.07000
H  -0.14900 7.05600 20.12000
H  -2.38900 9.26000 20.58900
H  -1.30800 10.51000 20.98100
H  -4.03300 10.07500 21.81900
H  -2.88600 11.37500 22.28300
H  -2.97600 9.91800 23.24300
H  1.43200 12.48800 24.48900
H  1.41200 13.31400 26.08800
H  -0.09800 13.31800 25.09200
H  -0.41000 11.04000 30.26500
H  2.55700 12.00900 33.29900
H  3.61600 11.19400 32.14300
H  2.60000 10.16500 33.23300
Mg 0.49800 43.00600 25.56700
C  2.61500 42.72900 28.42800
C  -2.00400 41.84600 27.36400
C  -1.10900 42.59000 22.63100
C  3.45900 43.51600 23.59100
N  0.39200 42.36900 27.62000
C  1.26500 42.53700 28.66900
C  0.61200 42.59400 29.99300
C  -0.84200 42.06000 29.68400
C  -0.84300 42.01400 28.13200
C  -1.12400 40.66000 30.40900
C  0.74700 44.05100 30.65700
C  1.25700 44.00300 32.13900
H  1.16600 42.70500 32.97500
N  -1.31700 42.45500 25.06000
C  -2.26300 41.92900 25.97400
C  -3.44200 41.49800 25.28600
C  -3.22700 41.91100 23.95200
C  -1.81900 42.31200 23.81800
C  -4.58600 40.92100 26.00200
C  -4.23000 41.98100 22.73400
O  -4.00100 42.38300 21.60600
C  -5.66300 41.54800 22.97400
N  1.02200 43.24200 23.34800
C  0.21800 42.97700 22.31000
C  0.86000 43.21300 20.95600
C  2.29200 43.72800 21.30400
C  2.25600 43.47700 22.84100
C  0.89500 41.87600 20.13400
C  2.49900 45.22400 21.03000
C  3.63500 45.50700 20.05800
N  2.62600 43.13400 25.83200
C  3.62900 43.33400 24.99100
C  4.91000 43.19400 25.68100
C  4.54300 43.09500 27.01700
C  3.14400 42.97800 27.10200
C  6.31200 43.24100 25.07200
C  5.06000 43.00400 28.41200
O  6.17300 43.15900 28.81100
C  3.78200 42.87100 29.35700
C  3.92700 41.72100 30.31500
O  3.39100 40.57000 30.19100
O  4.84500 42.03400 31.21600
C  5.12300 41.23700 32.46900
H  -2.92200 41.71400 27.94000
H  -1.69800 42.33000 21.74900
H  4.40500 43.70700 23.07900
H  1.25400 41.96000 30.60500
H  -1.65600 42.74500 29.92200
H  -0.21200 40.06600 30.46300
H  -1.78500 40.04300 29.80000
H  -1.58700 40.79100 31.38800
H  -0.17200 44.63500 30.69500
H  1.44600 44.66900 30.09400
H  0.73800 44.82200 32.63600
H  2.32800 44.20200 32.18500
H  -4.26900 40.33000 26.86200
H  -5.17300 40.25900 25.36500
H  -5.23100 41.73900 26.32200
H  -5.73200 40.47000 22.83400
H  -6.34800 42.09400 22.32500
H  -5.96100 41.80800 23.99000
H  0.28900 44.01900 20.49600
H  3.08700 43.13300 20.85300
H  1.79300 41.37400 20.49400
H  1.08300 42.06500 19.07700
H  0.07300 41.19500 20.35400
H  2.74000 45.83100 21.90200
H  1.60000 45.72400 20.66900
H  4.18600 44.70300 19.57100
H  4.36100 46.09200 20.62300
H  3.27200 46.15100 19.25700
H  6.35500 42.87800 24.04500
H  7.00600 42.63800 25.65700
H  6.69100 44.26000 24.99000
H  3.60700 43.76600 29.95500
H  4.45000 40.38000 32.50300
H  5.05900 41.77700 33.41400
H  6.14600 40.86300 32.46400

