158

Mg 16.88000 -2.29400 27.37000
C  15.64800 -0.13700 29.90300
C  19.08400 -3.49300 29.51300
C  18.13200 -4.11500 24.84200
C  14.71400 -0.59800 25.11700
N  17.31500 -1.86900 29.50600
C  16.67500 -0.97200 30.34800
C  17.23300 -1.20100 31.77700
C  18.53400 -2.05800 31.52300
C  18.33700 -2.46900 30.04000
C  19.88000 -1.43600 31.84600
C  16.17400 -1.93200 32.68700
C  16.17900 -1.71400 34.20000
H  17.37200 -0.88400 34.69700
N  18.35200 -3.61200 27.20900
C  19.15400 -4.03700 28.24600
C  20.11400 -5.02800 27.80300
C  19.75700 -5.28300 26.46500
C  18.67300 -4.34800 26.09900
C  21.20700 -5.69800 28.69000
C  20.35500 -6.31100 25.46600
O  20.02300 -6.53600 24.32100
C  21.54000 -7.12700 25.92200
N  16.47800 -2.28000 25.23000
C  17.12900 -3.14400 24.44000
C  16.53900 -3.05200 23.07000
C  15.25800 -2.12300 23.17400
C  15.43100 -1.68300 24.60000
C  17.59400 -2.50400 22.10200
C  13.91300 -2.79300 22.96400
C  13.51000 -2.81500 21.45500
N  15.39200 -0.70700 27.47800
C  14.67000 -0.09100 26.46200
C  13.84600 1.01200 27.03800
C  14.18600 0.94700 28.41300
C  15.13000 -0.08300 28.62500
C  12.77200 1.90200 26.39900
C  13.87400 1.50200 29.71700
O  13.09100 2.43100 29.95200
C  14.90100 0.93000 30.68500
C  15.71900 1.91800 31.45400
O  16.67300 2.56000 30.90500
O  15.32200 2.00700 32.76800
C  16.14100 2.97800 33.56300
H  19.85500 -3.89500 30.17400
H  18.28800 -4.77800 23.98900
H  14.02700 -0.11400 24.42000
H  17.50200 -0.20800 32.13900
H  18.43200 -2.91500 32.18800
H  20.34300 -2.12700 32.55000
H  19.83600 -0.41100 32.21500
H  20.55200 -1.52900 30.99300
H  16.12700 -2.98200 32.39600
H  15.18000 -1.58700 32.39900
H  16.35800 -2.68200 34.66800
H  15.28900 -1.26100 34.63600
H  22.14300 -5.94900 28.19100
H  20.78200 -6.64400 29.02600
H  21.40900 -4.94900 29.45600
H  22.38600 -6.47100 26.12700
H  21.85000 -7.80400 25.12600
H  21.30800 -7.82300 26.72900
H  16.18300 -3.99600 22.65600
H  15.30700 -1.25600 22.51600
H  18.55700 -2.21000 22.51900
H  17.32700 -1.59600 21.56200
H  17.84200 -3.29800 21.39700
H  13.06700 -2.31500 23.45700
H  14.04100 -3.82200 23.30100
H  14.16200 -2.18000 20.85400
H  12.50600 -2.40700 21.57100
H  13.41900 -3.84300 21.10400
H  12.09700 1.31700 25.77400
H  13.15900 2.63600 25.69200
H  12.26100 2.44900 27.19100
H  14.35900 0.51500 31.53400
H  15.92700 4.00200 33.25900
H  17.21400 2.80000 33.48800
H  15.87800 2.86200 34.61500
Mg 44.80400 5.37300 46.94800
C  42.96900 8.31000 46.89100
C  41.92100 3.62500 46.02500
C  46.67500 2.66700 46.49000
C  47.77900 7.38500 47.18200
N  42.72300 5.93600 46.40500
C  42.18600 7.17600 46.53700
C  40.72600 7.28400 46.13800
C  40.45900 5.76300 45.83400
C  41.72500 5.05300 46.25400
C  39.12700 5.09200 46.43800
C  40.15200 8.37900 45.15700
C  40.74100 8.29600 43.69400
H  39.93600 7.78000 42.45700
N  44.36000 3.40400 46.48900
C  43.13700 2.86500 46.17400
C  43.31300 1.40700 45.91400
C  44.64800 1.12000 46.07000
C  45.31100 2.44900 46.38700
C  42.25300 0.51400 45.47600
C  45.31200 -0.25200 45.93300
O  44.65800 -1.26700 45.69600
C  46.80600 -0.53400 45.83700
N  46.93900 5.10200 46.64600
C  47.39900 3.82400 46.54400
C  48.92200 3.95400 46.51800
C  49.38000 5.47000 46.64200
C  47.93900 5.99700 46.84500
C  49.71000 2.97700 47.37700
C  50.01000 6.06900 45.35600
C  51.23700 5.35000 44.77100
N  45.32000 7.38100 47.12600
C  46.54500 8.08300 47.22300
C  46.26400 9.51300 47.43300
C  44.89100 9.67800 47.27200
C  44.35200 8.36100 47.07400
C  47.28300 10.55300 47.62700
C  43.78600 10.57200 47.34400
O  43.82200 11.78800 47.60300
C  42.48700 9.73000 46.98000
C  41.56600 9.95300 48.09500
O  41.75600 9.63800 49.27600
O  40.43800 10.51800 47.59800
C  39.26300 10.68100 48.54600
H  41.02900 3.11200 45.66000
H  47.40300 1.85500 46.54300
H  48.69800 7.95200 47.35000
H  40.26600 7.63300 47.06300
H  40.46400 5.59000 44.75800
H  39.49600 4.71500 47.39200
H  38.58200 4.24900 46.01300
H  38.52300 5.97900 46.62800
H  40.13300 9.40900 45.51200
H  39.09300 8.21800 44.95100
H  41.55000 7.57700 43.82500
H  41.17200 9.28900 43.57400
H  42.55400 0.12400 44.50400
H  41.25500 0.93300 45.34400
H  42.06400 -0.35800 46.10100
H  47.00400 -1.55100 45.49600
H  47.12700 -0.41100 46.87100
H  47.21100 0.24400 45.19000
H  49.09700 3.65400 45.48500
H  49.98000 5.74800 47.50900
H  50.23100 2.25800 46.74400
H  49.02900 2.44600 48.04300
H  50.50400 3.46100 47.94400
H  50.37700 7.06800 45.59300
H  49.25400 6.19100 44.58100
H  51.01200 5.05500 43.74600
H  51.51700 4.52100 45.42200
H  52.07100 6.05200 44.78100
H  47.68300 10.71400 48.62800
H  46.94500 11.51800 47.24900
H  48.16900 10.31100 47.03900
H  42.03400 10.13200 46.07400
H  38.48900 10.03000 48.14100
H  38.95000 11.72100 48.44900
H  39.44000 10.49600 49.60600

