158

Mg -2.63300 17.24500 27.10100
C  -3.14100 15.04100 29.76000
C  -3.06300 19.84700 29.18500
C  -2.53800 19.20200 24.37100
C  -2.79600 14.36600 24.94500
N  -3.25300 17.40400 29.27600
C  -3.28900 16.41000 30.15100
C  -3.38100 16.93400 31.62600
C  -3.52300 18.46700 31.35300
C  -3.30400 18.65700 29.84100
C  -4.76500 19.22700 31.79400
C  -2.22900 16.63400 32.61000
C  -2.66600 16.13800 33.98200
H  -1.74300 16.16000 35.25600
N  -2.61000 19.24500 26.83900
C  -2.86700 20.11400 27.84100
C  -2.59900 21.41300 27.22800
C  -2.46100 21.32600 25.85300
C  -2.51400 19.89300 25.60300
C  -2.79300 22.68400 27.95200
C  -2.24300 22.33700 24.69400
O  -2.20700 22.01500 23.47500
C  -2.09900 23.81400 25.02400
N  -2.91300 16.83600 24.94300
C  -2.70300 17.85500 24.05400
C  -2.60900 17.34500 22.58000
C  -2.56400 15.74800 22.77300
C  -2.79300 15.62000 24.31400
C  -3.65700 17.86800 21.54100
C  -1.42100 14.99700 22.18800
C  -0.08600 15.31000 22.86100
N  -2.98400 15.15800 27.23400
C  -2.92500 14.11500 26.32500
C  -2.95900 12.84700 26.92300
C  -3.03300 13.18100 28.26700
C  -3.07200 14.53800 28.41100
C  -2.92200 11.59000 26.27400
C  -3.22500 12.59300 29.50400
O  -3.34700 11.45100 29.89200
C  -3.18400 13.80700 30.55900
C  -1.89400 13.57600 31.29900
O  -0.74200 13.64000 30.85800
O  -2.14800 13.22600 32.63300
C  -0.93600 12.92400 33.42400
H  -3.11100 20.71800 29.84100
H  -2.35200 19.66300 23.39900
H  -2.81500 13.53700 24.23500
H  -4.31000 16.48000 31.97100
H  -2.66300 18.96800 31.79800
H  -5.45100 19.44100 30.97500
H  -4.45100 20.14900 32.28200
H  -5.37900 18.58200 32.42400
H  -1.48500 17.43100 32.63200
H  -1.74300 15.82800 32.06100
H  -3.10500 15.14300 33.89900
H  -3.43100 16.77100 34.43000
H  -3.24400 23.52700 27.42800
H  -1.81300 22.89400 28.37900
H  -3.34400 22.46800 28.86700
H  -1.58300 24.34500 24.22300
H  -1.54200 23.91100 25.95600
H  -3.09800 24.17900 25.26000
H  -1.60000 17.59900 22.25700
H  -3.47600 15.34400 22.33200
H  -4.10000 18.78100 21.93800
H  -4.53300 17.22100 21.50700
H  -3.24600 18.02600 20.54400
H  -1.29800 15.30300 21.14900
H  -1.58500 13.92000 22.24000
H  -0.14400 15.67100 23.88700
H  0.56800 16.01400 22.34600
H  0.53700 14.41800 22.79700
H  -2.45900 11.50100 25.29100
H  -3.98600 11.45400 26.08100
H  -2.57400 10.82400 26.96600
H  -4.01900 13.79200 31.25900
H  -0.81900 11.85800 33.23400
H  -1.09900 13.02000 34.49700
H  0.00800 13.40100 33.16100
Mg 31.29300 57.74600 40.12700
C  28.57600 56.18400 38.63200
C  33.36100 55.48800 38.59300
C  33.99100 59.75000 40.84400
C  29.18500 60.31600 41.25900
N  30.93500 56.03500 38.79500
C  29.76200 55.52500 38.30900
C  29.96700 54.26200 37.35600
C  31.46600 53.91300 37.75700
C  31.95300 55.20700 38.47700
C  31.56500 52.63700 38.56400
C  29.70700 54.71900 35.89800
C  28.93500 53.68000 35.02000
H  28.38700 54.17100 33.64100
N  33.38900 57.56300 39.85500
C  34.00000 56.58200 39.10500
C  35.43800 56.72300 39.26700
C  35.70200 58.01400 39.93100
C  34.34300 58.51600 40.28300
C  36.39300 55.73000 38.71400
C  37.06900 58.63400 40.19200
O  38.11300 58.01300 39.92800
C  37.21000 59.85600 40.99000
N  31.49300 59.72800 40.75500
C  32.75000 60.23900 41.07000
C  32.67200 61.66200 41.74400
C  31.19500 61.69800 42.13300
C  30.56600 60.53400 41.33800
C  33.59200 61.98800 42.99500
C  30.43200 63.03800 41.95800
C  30.47900 63.98900 43.10500
N  29.31000 58.16800 40.06600
C  28.51900 59.25500 40.56000
C  27.11200 59.00200 40.44300
C  27.13500 57.82900 39.61300
C  28.44000 57.36400 39.45700
C  25.94000 59.82300 40.92800
C  26.22000 56.98100 38.88100
O  24.96700 56.90200 38.70300
C  27.21700 55.96300 38.12200
C  26.76200 54.58300 38.25500
O  27.08300 53.87400 39.20500
O  25.84500 54.15900 37.27500
C  25.25900 52.85400 37.43100
H  33.96100 54.69700 38.13800
H  34.77200 60.49400 41.01300
H  28.44200 60.95900 41.73700
H  29.25500 53.47700 37.60700
H  32.01400 53.74500 36.83000
H  30.71400 51.96400 38.66000
H  31.76500 52.88600 39.60600
H  32.40400 52.04600 38.19600
H  30.64000 54.93800 35.37900
H  29.14500 55.65200 35.91800
H  28.01500 53.42700 35.54800
H  29.56500 52.80500 34.86100
H  35.87000 54.97400 38.12900
H  36.92500 55.25700 39.54000
H  37.07100 56.09400 37.94300
H  38.27200 59.88600 41.23400
H  36.68700 59.67000 41.92800
H  36.82600 60.66500 40.36900
H  32.97400 62.40900 41.01000
H  30.93900 61.41700 43.15400
H  34.29100 61.18800 43.23500
H  32.95300 62.19400 43.85400
H  34.27300 62.77100 42.66300
H  29.40000 62.92800 41.62400
H  30.98200 63.53800 41.16000
H  31.13700 64.85500 43.03400
H  30.99300 63.44800 43.89900
H  29.51500 64.41800 43.37700
H  25.60900 59.42600 41.88800
H  25.10200 59.66700 40.24900
H  26.30300 60.84700 41.01600
H  27.22400 56.18900 37.05600
H  25.42000 52.35300 38.38600
H  25.50900 52.10900 36.67600
H  24.18200 53.01700 37.39800

