158

Mg 52.83400 23.97000 45.01300
C  50.18500 25.96400 43.85000
C  50.89300 21.28100 43.86500
C  55.62500 22.12400 45.03000
C  54.48900 26.72200 45.92400
N  50.88100 23.72600 43.68300
C  49.95800 24.69000 43.35600
C  48.77000 24.09200 42.67300
C  48.95200 22.58900 42.84500
C  50.33600 22.48500 43.44400
C  47.81000 21.80700 43.56500
C  48.76600 24.46200 41.13600
C  50.10200 24.69000 40.34100
H  50.17600 25.31400 38.90600
N  53.19300 21.90800 44.64100
C  52.24100 20.96000 44.27600
C  52.88900 19.66300 44.22800
C  54.28000 19.84900 44.58000
C  54.45500 21.34800 44.79700
C  52.21500 18.34100 43.96800
C  55.29700 18.76600 44.73000
O  54.89200 17.58000 44.54900
C  56.71700 19.08400 45.08700
N  54.81600 24.40700 45.25300
C  55.75900 23.48700 45.31100
C  57.16500 24.08200 45.48900
C  56.83700 25.58400 45.91800
C  55.32300 25.62800 45.66900
C  58.04200 23.44700 46.61600
C  57.61000 26.71500 45.18600
C  58.90000 27.25600 45.80100
N  52.45100 26.04300 44.88500
C  53.16300 26.99000 45.51100
C  52.40500 28.24600 45.57800
C  51.18200 27.85100 44.90500
C  51.26900 26.52700 44.54000
C  52.69900 29.38600 46.34300
C  49.80000 28.26900 44.51200
O  49.18200 29.31500 44.56200
C  49.12000 27.00900 43.79700
C  48.90400 27.51100 42.38800
O  49.80600 27.77300 41.65600
O  47.58100 27.69800 42.07500
C  47.42900 28.50300 40.88200
H  50.27500 20.39200 43.72300
H  56.56300 21.58900 45.18900
H  55.11800 27.51500 46.33300
H  47.88800 24.42400 43.22000
H  48.99000 22.06500 41.89000
H  48.33000 21.29500 44.37400
H  47.32600 21.05400 42.94200
H  47.04400 22.43100 44.02600
H  48.12000 25.33700 41.06700
H  48.18800 23.72600 40.57700
H  50.51500 23.68200 40.29200
H  50.83200 25.26900 40.90700
H  52.59500 17.89100 43.05100
H  51.14400 18.41300 43.78100
H  52.37200 17.69200 44.83000
H  57.27000 18.14900 45.17700
H  56.81100 19.60800 46.03700
H  57.06500 19.64100 44.21700
H  57.74500 23.98500 44.57100
H  56.92600 25.68000 47.00000
H  57.45300 22.93000 47.37400
H  58.55100 24.17800 47.24500
H  58.79700 22.79700 46.17300
H  57.08800 27.65600 45.01000
H  57.84500 26.27700 44.21600
H  59.76100 26.93300 45.21600
H  59.16100 26.94500 46.81300
H  58.83800 28.33000 45.97500
H  53.42800 29.18200 47.12700
H  51.72700 29.55100 46.80800
H  52.96900 30.24000 45.72100
H  48.14600 26.73900 44.20500
H  46.35400 28.54100 40.70800
H  47.72500 27.97100 39.97800
H  47.78100 29.53200 40.95900
Mg 46.38300 25.37400 28.89900
C  47.20200 27.68200 31.34500
C  45.02900 23.31900 31.33400
C  46.06500 22.96200 26.55100
C  47.65200 27.47400 26.33500
N  46.14200 25.53700 31.00700
C  46.36800 26.64600 31.78100
C  45.99700 26.37800 33.26700
C  45.48100 24.89000 33.18100
C  45.59200 24.50900 31.74100
C  46.31100 23.85600 34.04600
C  44.93200 27.38400 33.88400
C  45.41300 28.12400 35.15500
H  45.75600 27.33800 36.42000
N  45.79100 23.36600 29.00400
C  45.20100 22.69300 30.07900
C  44.80600 21.37000 29.67200
C  45.13500 21.27200 28.31200
C  45.75300 22.53800 27.90500
C  44.15600 20.35100 30.63800
C  44.89700 20.06400 27.41200
O  45.16800 20.05200 26.25500
C  44.22900 18.86600 28.01900
N  46.71000 25.27400 26.75200
C  46.47300 24.15600 26.00300
C  46.47900 24.37900 24.48300
C  47.11700 25.80200 24.46700
C  47.16500 26.21700 25.93000
C  47.44800 23.41200 23.65100
C  46.51500 26.88100 23.54600
C  47.47200 27.45600 22.55600
N  47.22900 27.22500 28.83100
C  47.70600 27.93800 27.70700
C  48.41700 29.13700 28.28400
C  48.23300 29.08900 29.66700
C  47.48000 27.95700 29.97700
C  49.33700 29.99700 27.48000
C  48.47500 29.80800 31.01100
O  49.04200 30.82300 31.32100
C  47.87700 28.79200 32.11500
C  49.00500 28.44500 33.00200
O  50.11500 27.97100 32.66600
O  48.71300 28.78700 34.27800
C  49.62100 28.18600 35.32600
H  44.64200 22.70600 32.15000
H  46.01200 22.17700 25.79300
H  48.11000 28.02600 25.51100
H  46.94100 26.53300 33.79000
H  44.48300 24.78900 33.60700
H  45.68400 23.46300 34.84600
H  47.12800 24.44400 34.46400
H  46.68700 22.99900 33.48600
H  44.00600 26.85700 34.11200
H  44.72900 28.06300 33.05500
H  44.61400 28.81900 35.41600
H  46.26000 28.76800 34.92000
H  43.10100 20.28300 30.37400
H  44.20400 20.54100 31.71000
H  44.59700 19.35500 30.60000
H  43.23900 19.20200 28.32900
H  44.87600 18.45800 28.79500
H  44.20200 18.03700 27.31200
H  45.42700 24.35000 24.19900
H  48.16200 25.63600 24.20400
H  48.25200 23.06100 24.29800
H  47.88100 23.87100 22.76300
H  46.83300 22.60700 23.25100
H  46.03200 27.59600 24.21300
H  45.63500 26.49600 23.03100
H  47.56500 28.48600 22.90100
H  47.02800 27.43300 21.56100
H  48.43600 26.94700 22.54600
H  50.15000 29.33900 27.17400
H  49.81900 30.68700 28.17300
H  48.94300 30.48500 26.58900
H  47.10500 29.28400 32.70600
H  49.18300 27.21800 35.56800
H  49.65500 28.87200 36.17200
H  50.64000 27.97700 35.00100

