158

Mg 0.51600 7.55000 26.26900
C  1.58200 9.40800 29.00000
C  0.85300 4.69000 28.25400
C  0.07200 5.71200 23.54000
C  0.21300 10.44600 24.47600
N  1.00700 7.06700 28.32200
C  1.30400 8.07100 29.29000
C  1.24200 7.42300 30.67100
C  1.39800 5.85400 30.41100
C  1.04100 5.84400 28.87800
C  2.72500 5.14600 30.70100
C  0.01900 7.91700 31.49900
C  0.39200 8.29200 33.00900
H  1.12700 7.26800 33.79100
N  0.32100 5.45000 25.94600
C  0.49800 4.43100 26.90000
C  0.42500 3.16400 26.16200
C  0.12300 3.40500 24.82700
C  0.14000 4.92500 24.70800
C  0.66400 1.84100 26.87100
C  -0.14400 2.45100 23.74600
O  -0.20300 2.80500 22.59200
C  -0.27400 0.95900 23.98200
N  0.42100 8.00500 24.25600
C  0.09300 7.10600 23.32400
C  -0.41700 7.78200 22.01800
C  -0.58400 9.25800 22.45400
C  0.03800 9.26300 23.82600
C  0.58800 7.59100 20.90900
C  -2.05100 9.85800 22.41800
C  -2.89200 9.60000 21.16600
N  0.93200 9.56000 26.62300
C  0.74300 10.62000 25.79300
C  1.12600 11.82100 26.41600
C  1.52700 11.40300 27.71400
C  1.42900 10.02700 27.71400
C  1.18400 13.22800 25.81000
C  2.13000 11.71900 29.03100
O  2.42700 12.79300 29.54500
C  2.03800 10.44700 29.88400
C  3.34300 10.20100 30.56200
O  4.23800 9.40200 30.29000
O  3.34900 10.93100 31.73200
C  4.38700 10.73000 32.72400
H  0.99500 3.77000 28.82500
H  0.09900 5.25200 22.54900
H  0.05100 11.30400 23.82000
H  2.15800 7.65100 31.21700
H  0.56900 5.30800 30.86200
H  2.66000 4.56000 31.61700
H  3.48500 5.89800 30.91600
H  3.15400 4.55200 29.89400
H  -0.62400 7.03700 31.52500
H  -0.59500 8.64600 30.97200
H  -0.60000 8.56400 33.37100
H  0.95000 9.22400 33.09600
H  1.34800 1.22500 26.28700
H  -0.22200 1.24900 27.09700
H  1.30700 2.00300 27.73700
H  -0.38900 0.41900 23.04300
H  -1.20400 0.70800 24.49200
H  0.69800 0.60400 24.32700
H  -1.36800 7.28100 21.83500
H  -0.00300 9.92400 21.81700
H  1.60200 7.52000 21.30400
H  0.57500 8.49100 20.29400
H  0.24700 6.74700 20.31000
H  -1.95700 10.91300 22.67500
H  -2.61300 9.46700 23.26600
H  -2.50600 8.92500 20.40200
H  -2.97200 10.58500 20.70600
H  -3.88800 9.31000 21.49800
H  1.63900 13.89500 26.54200
H  0.16600 13.49600 25.52700
H  1.74100 13.17100 24.87500
H  1.27700 10.68400 30.62800
H  4.22900 9.98500 33.50400
H  4.50300 11.67100 33.26100
H  5.34100 10.39500 32.31600
Mg -0.28200 43.66400 24.38500
C  1.46200 43.21500 27.36000
C  -3.21600 43.00400 26.03300
C  -1.87300 43.35000 21.30900
C  2.77600 43.88200 22.61600
N  -0.81500 43.31400 26.50300
C  0.10400 43.14000 27.51900
C  -0.60400 42.78800 28.75100
C  -2.13500 42.63800 28.29700
C  -2.07600 42.95500 26.85000
C  -2.67600 41.23200 28.61400
C  -0.42600 43.80200 29.97600
C  -0.39700 43.22100 31.44100
H  -0.71800 41.76600 31.75500
N  -2.28000 43.37400 23.82500
C  -3.35500 43.19000 24.63000
C  -4.55100 43.26200 23.91500
C  -4.17300 43.22300 22.53600
C  -2.71700 43.32200 22.48500
C  -5.94700 43.20100 24.54900
C  -5.09300 43.12800 21.34500
O  -4.68800 43.27000 20.22400
C  -6.56600 42.64600 21.52600
N  0.31100 43.59400 22.35800
C  -0.47200 43.44000 21.25900
C  0.25000 43.40500 19.91400
C  1.63500 43.71700 20.33300
C  1.55200 43.68500 21.88700
C  0.05000 42.11800 19.02900
C  2.26600 45.01100 19.76000
C  1.50500 46.37100 19.86200
N  1.79500 43.52000 24.82800
C  2.89100 43.69800 23.99400
C  4.10200 43.63400 24.87100
C  3.58500 43.45600 26.16900
C  2.16700 43.38800 26.11600
C  5.62200 43.64400 24.43900
C  3.93000 43.28400 27.54500
O  4.98300 43.18500 28.10500
C  2.58900 43.06800 28.35000
C  2.71700 41.87800 29.16800
O  2.65300 40.75100 28.70800
O  3.00900 42.23200 30.44800
C  3.39700 41.19200 31.34400
H  -4.13400 42.89600 26.61400
H  -2.38200 43.15200 20.36400
H  3.64100 43.92300 21.95100
H  -0.22600 41.86100 29.18300
H  -2.85600 43.33300 28.72900
H  -1.94100 40.42900 28.65800
H  -3.40200 40.92700 27.86000
H  -3.06900 41.27200 29.63000
H  -1.29700 44.45600 29.94800
H  0.38200 44.49500 29.74000
H  -1.05600 43.86100 32.02700
H  0.64500 43.34800 31.73400
H  -6.43300 42.24500 24.35500
H  -6.54400 43.98000 24.07500
H  -6.07800 43.46500 25.59900
H  -7.22000 43.47800 21.78700
H  -6.63800 41.76000 22.15700
H  -6.82500 42.11200 20.61200
H  -0.15500 44.20300 19.29200
H  2.35200 42.95400 20.03100
H  0.72800 41.39700 19.48500
H  0.21800 42.34800 17.97700
H  -0.96000 41.73100 19.16900
H  2.42600 44.93800 18.68400
H  3.23400 45.19900 20.22500
H  0.93200 46.83000 19.05600
H  2.15500 47.22700 20.04700
H  0.83300 46.44200 20.71800
H  6.05300 44.54600 24.87300
H  5.72100 43.62800 23.35400
H  6.13800 42.73900 24.75900
H  2.46800 43.91400 29.02600
H  4.16500 40.60000 30.84700
H  2.54700 40.53200 31.51500
H  3.76900 41.63900 32.26600

