158

Mg 25.57200 0.16000 28.59700
C  27.36600 -0.03100 31.59300
C  22.68100 0.04200 30.44900
C  23.65700 0.03700 25.71100
C  28.43500 -0.32100 26.81300
N  25.12800 -0.16400 30.85200
C  26.01100 0.03800 31.87000
C  25.35800 0.14900 33.23900
C  23.89400 0.03200 32.86600
C  23.88500 -0.04700 31.28700
C  23.19700 -1.14600 33.72700
C  25.69400 1.44300 34.11200
C  25.96200 1.03700 35.63500
H  26.40100 2.13800 36.58600
N  23.49600 0.13900 28.14000
C  22.48600 0.13400 29.07800
C  21.16500 0.26800 28.44700
C  21.50100 0.15200 27.01000
C  22.92600 0.05900 26.89000
C  19.90000 0.33900 29.22200
C  20.56400 0.14700 25.79400
O  20.96900 -0.18700 24.65500
C  19.12900 0.31900 26.02800
N  25.97500 -0.06200 26.55300
C  25.04500 -0.06500 25.51600
C  25.79300 -0.01700 24.16700
C  27.23700 0.16600 24.48800
C  27.29000 -0.05400 26.02300
C  25.45300 -1.28300 23.32000
C  27.99800 1.46900 24.07400
C  27.59200 2.80200 24.76100
N  27.55300 -0.15700 29.06300
C  28.62700 -0.37400 28.20400
C  29.84000 -0.57800 28.99800
C  29.41300 -0.41700 30.34100
C  28.01200 -0.13900 30.33800
C  31.16800 -0.85000 28.44100
C  29.87000 -0.36800 31.71000
O  30.96700 -0.60300 32.20800
C  28.50500 -0.05200 32.60400
C  28.30400 -1.04100 33.65500
O  27.68100 -2.10700 33.56200
O  29.02000 -0.66600 34.79200
C  29.18900 -1.70600 35.77200
H  21.75600 0.01700 31.02800
H  23.25200 0.10700 24.69900
H  29.22200 -0.30200 26.05500
H  25.62800 -0.74300 33.80500
H  23.37400 0.94300 33.16500
H  22.32900 -0.92100 34.34600
H  23.96100 -1.62000 34.34400
H  22.76400 -1.86200 33.02900
H  24.88300 2.17100 34.12400
H  26.59100 1.89700 33.69000
H  26.65500 0.19800 35.69600
H  25.01900 0.66900 36.03900
H  20.04400 0.89200 30.15000
H  19.56400 -0.66700 29.47300
H  19.12800 0.81400 28.61700
H  18.75200 -0.32000 26.82600
H  18.54800 0.17400 25.11700
H  18.89200 1.35500 26.27300
H  25.47400 0.86000 23.60400
H  27.68000 -0.67400 23.95300
H  24.73400 -1.11700 22.51700
H  25.00200 -2.14800 23.80600
H  26.31500 -1.65000 22.76200
H  27.84700 1.66500 23.01200
H  29.04900 1.23100 24.23900
H  28.36100 2.95100 25.52000
H  26.58800 2.69800 25.17200
H  27.58900 3.65300 24.08000
H  32.03000 -0.47600 28.99300
H  31.18100 -0.40000 27.44800
H  31.13100 -1.93900 28.41800
H  28.67600 0.94200 33.01800
H  28.43900 -1.53600 36.54500
H  30.09500 -1.65000 36.37400
H  29.07000 -2.73100 35.42000
Mg 16.58600 51.81600 24.58000
C  18.42600 50.99300 27.50500
C  13.85100 52.60400 26.65000
C  14.85200 52.47800 21.87900
C  19.36800 50.79100 22.69500
N  16.25000 51.97600 26.84700
C  17.11900 51.49400 27.75900
C  16.57600 51.92100 29.14600
C  15.15200 52.27400 28.92000
C  15.06400 52.27000 27.36900
C  14.08300 51.52100 29.64500
C  17.45500 52.98000 29.90200
C  17.86300 52.83600 31.39900
H  17.31100 51.80500 32.37200
N  14.74200 52.47300 24.31100
C  13.75500 52.66900 25.26900
C  12.53600 53.06200 24.61400
C  12.74600 53.10100 23.21500
C  14.18900 52.69700 23.07700
C  11.32300 53.61100 25.29700
C  11.82900 53.47800 22.04800
O  12.17200 53.46200 20.90100
C  10.46600 53.95500 22.38200
N  16.99300 51.52200 22.55000
C  16.10100 51.95600 21.67500
C  16.67700 52.08200 20.28600
C  18.15700 51.47900 20.43100
C  18.20000 51.30600 21.99500
C  15.76500 51.31700 19.23700
C  19.29400 52.28700 19.90100
C  19.37200 52.41200 18.33400
N  18.42700 50.85600 24.97000
C  19.47800 50.55200 24.12400
C  20.63500 50.11400 24.81300
C  20.23200 50.28900 26.17800
C  18.92700 50.68900 26.19000
C  21.86500 49.67700 24.20500
C  20.69200 50.10000 27.56600
O  21.74800 49.71000 28.00800
C  19.52300 50.57900 28.44400
C  19.03300 49.49700 29.30800
O  18.26100 48.60700 29.00300
O  19.74900 49.49500 30.49700
C  19.35500 48.54400 31.52500
H  12.94500 52.89300 27.18800
H  14.34700 52.82200 20.97400
H  20.18400 50.59600 21.99600
H  16.56800 51.01400 29.75200
H  15.08700 53.33200 29.17700
H  14.43900 50.57800 30.06100
H  13.23600 51.34000 28.98400
H  13.59100 52.13000 30.40300
H  16.86600 53.89700 29.87100
H  18.35800 53.14600 29.31400
H  17.80700 53.79800 31.91000
H  18.93900 52.66300 31.42600
H  11.34200 53.67500 26.38500
H  10.48500 52.95400 25.06400
H  11.12100 54.61200 24.91700
H  9.91300 54.24500 21.48900
H  10.63500 54.82900 23.01200
H  9.90200 53.15600 22.86200
H  16.70200 53.10700 19.91500
H  18.09000 50.49600 19.96500
H  15.25600 51.99300 18.55000
H  15.11500 50.68800 19.84600
H  16.30600 50.59700 18.62300
H  20.22300 51.89800 20.31900
H  19.08600 53.31800 20.18800
H  19.32500 53.49200 18.19000
H  18.62500 51.88800 17.73800
H  20.34700 52.00800 18.06200
H  21.93100 50.34000 23.34200
H  22.14400 48.65000 23.97000
H  22.72500 49.97400 24.80600
H  19.82800 51.51300 28.91500
H  19.49000 47.54300 31.11500
H  18.31000 48.75500 31.75100
H  19.91800 48.59500 32.45700

