158

Mg 0.89500 8.06500 25.44100
C  1.87000 9.89800 28.25000
C  1.15000 5.31000 27.36500
C  0.58600 6.23300 22.56500
C  1.08300 10.89000 23.50200
N  1.57900 7.62000 27.54900
C  1.66900 8.57100 28.50200
C  1.79300 7.90600 29.91700
C  1.67200 6.34800 29.67500
C  1.40600 6.41000 28.12300
C  2.88100 5.49500 30.00800
C  0.73300 8.40800 30.90100
C  1.19900 8.35000 32.36400
H  2.40000 7.33900 32.85600
N  0.88500 6.01400 25.05000
C  0.92500 5.01400 25.98700
C  0.82200 3.76900 25.36000
C  0.62600 4.00500 23.94800
C  0.68200 5.48100 23.75000
C  0.88800 2.51500 26.21300
C  0.47300 2.98000 22.75700
O  0.29100 3.33300 21.58600
C  0.58500 1.50000 22.97700
N  0.75300 8.52200 23.38400
C  0.57400 7.58200 22.39300
C  0.51800 8.26400 21.04400
C  0.23500 9.74200 21.37900
C  0.71200 9.69500 22.76600
C  1.91300 8.05000 20.32100
C  -1.30900 10.09300 21.29100
C  -1.66200 11.28500 20.28500
N  1.43100 10.02500 25.73500
C  1.46000 11.08200 24.83400
C  1.83400 12.30400 25.60300
C  2.06800 11.91100 26.97500
C  1.79600 10.48500 26.97000
C  1.95600 13.68900 24.97400
C  2.34200 12.40000 28.31100
O  2.53000 13.55800 28.69100
C  2.18700 11.10700 29.21800
C  3.36300 11.03300 30.16000
O  4.40800 10.41800 29.98400
O  3.09000 11.79200 31.36100
C  4.14800 11.86800 32.35100
H  1.03700 4.42000 27.98700
H  0.55500 5.59400 21.68000
H  1.02300 11.84500 22.97400
H  2.80700 8.10100 30.26600
H  0.74200 5.95400 30.08500
H  3.49800 5.98600 30.76000
H  3.50800 5.24400 29.15200
H  2.52100 4.58900 30.49400
H  -0.05600 7.65800 30.85500
H  0.38600 9.37400 30.53100
H  0.34500 8.38300 33.04100
H  1.54200 9.38100 32.45900
H  1.23100 1.74300 25.52400
H  0.00600 2.19900 26.77100
H  1.53200 2.44700 27.08900
H  1.52400 1.19900 23.44100
H  0.52700 0.99700 22.01200
H  -0.24000 1.10500 23.56900
H  -0.20400 7.72300 20.43200
H  0.90800 10.38100 20.80700
H  2.66500 7.82200 21.07700
H  2.20300 9.01700 19.91000
H  1.92400 7.23800 19.59300
H  -1.80900 10.19500 22.25500
H  -1.78700 9.24200 20.80600
H  -0.77200 11.66400 19.78200
H  -2.05300 12.21700 20.69200
H  -2.41700 10.95600 19.57000
H  1.40500 13.71800 24.03400
H  2.97500 13.93400 24.67800
H  1.62200 14.47100 25.65700
H  1.30900 11.44400 29.77000
H  4.60600 10.88700 32.47200
H  3.65400 12.22900 33.25300
H  4.97500 12.49100 32.00900
Mg 47.92200 34.19400 26.80600
C  46.14800 32.93000 29.60900
C  48.68600 37.00000 28.58200
C  48.91000 35.76600 23.92600
C  46.89100 31.50700 24.98300
N  47.49800 34.76100 28.85200
C  46.85000 34.08600 29.88200
C  46.97600 34.78400 31.18900
C  47.36700 36.22100 30.68300
C  47.94700 36.02700 29.26400
C  46.21600 37.27800 30.77800
C  48.02700 34.16800 32.19500
C  47.69700 34.36400 33.62400
H  46.71900 35.45300 34.08900
N  48.65800 36.13800 26.36900
C  48.99400 37.05400 27.27200
C  49.60100 38.21000 26.59900
C  49.60900 37.92900 25.17800
C  48.93900 36.57400 25.09100
C  50.09500 39.38400 27.31600
C  50.22500 38.71100 24.11100
O  50.24000 38.25200 22.95800
C  51.01500 39.98700 24.32500
N  47.80800 33.71200 24.73800
C  48.37900 34.46700 23.74600
C  48.40700 33.73000 22.45900
C  47.65000 32.37900 22.64800
C  47.47900 32.49500 24.19000
C  47.90500 34.52500 21.25200
C  48.49100 31.12300 22.30100
C  49.60600 30.67100 23.22500
N  46.84100 32.45000 27.21400
C  46.50500 31.42100 26.35700
C  45.80000 30.40900 27.08800
C  45.53300 31.02600 28.35500
C  46.23200 32.23900 28.41000
C  45.23800 29.16500 26.63200
C  44.78000 30.82600 29.53700
O  44.06600 29.84800 29.85500
C  45.03500 32.13700 30.40000
C  45.32300 31.74700 31.78700
O  46.33900 31.19200 32.15300
O  44.22600 32.19800 32.59600
C  44.38000 31.85300 34.03100
H  48.87900 37.85700 29.23100
H  49.56400 36.10400 23.11900
H  46.67100 30.58300 24.44400
H  45.96000 34.72600 31.57900
H  48.08900 36.58000 31.41700
H  45.28900 36.92000 31.22500
H  45.90000 37.48400 29.75500
H  46.50600 38.23100 31.22000
H  49.06500 34.47000 32.05000
H  48.12300 33.08300 32.17100
H  48.63200 34.60800 34.12900
H  47.22000 33.47300 34.03100
H  49.68800 40.27900 26.84700
H  51.18300 39.33600 27.26500
H  49.89000 39.43500 28.38600
H  51.29700 40.46500 23.38700
H  51.90300 39.70600 24.89200
H  50.53600 40.68500 25.01200
H  49.45900 33.51400 22.27100
H  46.77000 32.54900 22.02900
H  46.95200 34.11500 20.91900
H  48.75800 34.64700 20.58400
H  47.65100 35.53300 21.58000
H  48.90800 31.29800 21.31000
H  47.73500 30.35500 22.46300
H  49.92200 31.46600 23.90100
H  50.53800 30.39200 22.73300
H  49.30200 29.79100 23.79100
H  45.46100 28.44000 27.41500
H  45.64800 28.87200 25.66500
H  44.15800 29.26900 26.52600
H  44.08400 32.66900 30.41600
H  43.72400 31.01000 34.25000
H  44.01700 32.70900 34.60000
H  45.37100 31.59900 34.40700

