158

Mg 25.12400 1.15100 29.03100
C  27.29900 0.81700 31.71900
C  22.45300 1.56000 31.32300
C  22.87200 1.07400 26.41300
C  27.65300 0.45500 26.79700
N  24.84900 1.00000 31.23200
C  25.96900 1.19000 32.05700
C  25.43700 1.38400 33.53200
C  23.91000 1.55200 33.36900
C  23.71800 1.33800 31.90000
C  23.05900 0.60500 34.32800
C  26.10500 2.61600 34.21800
C  26.72700 2.36400 35.58800
H  26.39400 3.41700 36.73100
N  23.01900 1.33300 28.86200
C  22.12000 1.50700 29.93600
C  20.78600 1.70700 29.50400
C  20.87500 1.58700 28.08700
C  22.25700 1.32600 27.71700
C  19.62000 2.11300 30.44200
C  19.79100 1.61900 27.02900
O  19.97900 1.52600 25.81800
C  18.31700 1.67500 27.43100
N  25.30800 0.80700 26.94700
C  24.16600 0.84800 26.07600
C  24.58000 0.63900 24.62700
C  26.19600 0.63700 24.68000
C  26.41700 0.64400 26.18300
C  24.02000 -0.55800 24.03200
C  26.95100 1.84600 24.02900
C  27.02300 3.18200 24.78000
N  27.08300 0.64400 29.23900
C  28.01700 0.38900 28.23400
C  29.31000 0.15100 28.81900
C  29.06200 0.28400 30.25200
C  27.70400 0.61700 30.40700
C  30.59300 -0.21800 28.12400
C  29.63300 0.31600 31.57600
O  30.83300 0.27000 31.89300
C  28.47300 0.76200 32.61600
C  28.28500 -0.18700 33.80300
O  27.59100 -1.21200 33.82100
O  29.02400 0.32700 34.90300
C  28.86600 -0.51500 36.12000
H  21.61800 1.85500 31.96100
H  22.32100 1.33400 25.50700
H  28.52500 0.26900 26.16700
H  25.68000 0.47200 34.07900
H  23.58500 2.57500 33.55700
H  22.43800 -0.10900 33.78700
H  22.39200 1.31100 34.82200
H  23.71700 0.01500 34.96700
H  25.26700 3.29700 34.36500
H  26.85700 3.05300 33.56000
H  27.80600 2.45000 35.46200
H  26.42700 1.39300 35.98100
H  19.05200 2.80400 29.81900
H  19.80800 2.59100 31.40300
H  19.13700 1.14800 30.59400
H  18.09400 0.78400 28.01800
H  17.71100 1.71800 26.52700
H  18.11300 2.55300 28.04500
H  24.20500 1.53700 24.13500
H  26.53600 -0.32100 24.28900
H  24.73800 -1.32000 23.73000
H  23.51200 -0.19300 23.13900
H  23.35200 -1.07300 24.72200
H  26.50500 1.99900 23.04600
H  27.96500 1.59100 23.71900
H  28.09500 3.21600 24.97200
H  26.40900 3.20800 25.68100
H  26.75600 4.02100 24.13700
H  31.41000 -0.27400 28.84300
H  30.81500 0.46800 27.30600
H  30.55100 -1.26300 27.81900
H  28.69900 1.78300 32.92200
H  28.56800 0.06900 36.99100
H  29.84200 -0.86900 36.45100
H  28.29500 -1.42900 35.95900
Mg 10.33100 47.45500 25.65800
C  8.30700 47.65000 28.58100
C  12.79600 48.96700 27.61500
C  12.23400 47.61200 23.00300
C  7.51500 46.68200 23.86000
N  10.46600 48.20900 27.88500
C  9.58900 48.05500 28.92900
C  10.13600 48.59200 30.25100
C  11.44000 49.32400 29.75000
C  11.60900 48.82000 28.33500
C  11.47100 50.88000 29.90300
C  10.40900 47.47800 31.32200
C  9.60700 47.57700 32.61300
H  9.81100 46.39100 33.58100
N  12.23000 48.14700 25.29800
C  13.10400 48.68700 26.24900
C  14.44600 48.79700 25.68400
C  14.30100 48.39800 24.32500
C  12.87100 48.13500 24.12000
C  15.62800 49.28900 26.53100
C  15.34500 48.17900 23.23300
O  15.00300 47.74600 22.11100
C  16.77900 48.59000 23.57300
N  9.89000 47.19000 23.61200
C  10.89600 47.20200 22.75100
C  10.42500 46.56700 21.40300
C  9.01100 46.13800 21.73900
C  8.74600 46.64900 23.13900
C  10.59300 47.62000 20.22700
C  8.79700 44.67500 21.49700
C  9.40800 43.70200 22.47500
N  8.31700 47.16200 26.07700
C  7.26200 46.92000 25.26700
C  6.02100 46.73300 25.99100
C  6.38600 46.86500 27.26400
C  7.75500 47.28000 27.26200
C  4.60300 46.52300 25.38800
C  5.95200 46.84100 28.63900
O  4.88300 46.54900 29.11000
C  7.12900 47.30400 29.54100
C  7.39400 46.09700 30.39000
O  8.25700 45.32900 30.22800
O  6.50200 46.22100 31.46000
C  6.48000 45.20100 32.41000
H  13.57300 49.43300 28.22500
H  12.74000 47.42600 22.05400
H  6.59600 46.29900 23.41000
H  9.50500 49.38100 30.66000
H  12.32000 48.97300 30.28900
H  10.64600 51.26700 30.50200
H  11.41200 51.34800 28.92000
H  12.38900 51.27100 30.34300
H  11.48500 47.54000 31.48500
H  10.22600 46.49100 30.89800
H  8.57600 47.83600 32.37300
H  9.95400 48.46200 33.14700
H  16.13100 50.08800 25.98600
H  16.37800 48.58900 26.89800
H  15.38400 49.77000 27.47800
H  17.01600 48.13100 24.53300
H  16.83100 49.66500 23.74700
H  17.35700 48.15900 22.75500
H  11.17000 45.78500 21.25300
H  8.44200 46.68300 20.98600
H  9.67000 47.76800 19.66700
H  11.17400 47.21800 19.39700
H  11.10200 48.52800 20.55000
H  9.07600 44.41300 20.47600
H  7.74200 44.42000 21.59900
H  9.88800 44.17300 23.33300
H  10.04500 43.09400 21.83300
H  8.57900 43.07400 22.80100
H  4.49600 47.08200 24.45800
H  3.95000 46.93400 26.15700
H  4.43900 45.44800 25.31000
H  6.95000 48.15500 30.19700
H  5.61200 44.54300 32.40800
H  6.66000 45.43400 33.45900
H  7.24000 44.44200 32.22100

