158

Mg 1.07500 7.52200 25.79700
C  1.72500 9.49000 28.66300
C  1.30700 4.71800 27.71600
C  0.87100 5.75300 22.87300
C  1.21300 10.38500 23.81900
N  1.43000 7.20800 27.94600
C  1.49800 8.14600 28.99000
C  1.22800 7.44400 30.33400
C  1.52500 5.90800 30.02400
C  1.49200 5.91800 28.47900
C  2.87400 5.18500 30.56400
C  -0.28600 7.81200 30.84700
C  -0.33700 8.13800 32.35100
H  0.67000 7.49400 33.24900
N  0.87900 5.58800 25.41400
C  1.07400 4.59500 26.32100
C  0.87200 3.32400 25.68000
C  0.85600 3.53900 24.19200
C  0.85400 5.02800 24.13800
C  0.80700 1.99100 26.45800
C  0.67100 2.53200 23.16200
O  0.74500 2.75600 21.95500
C  0.39700 1.04300 23.53000
N  1.09000 7.93800 23.67200
C  0.93500 7.07700 22.66000
C  1.00800 7.77400 21.27600
C  0.67700 9.22100 21.64500
C  1.00600 9.18800 23.14700
C  2.29700 7.63200 20.41200
C  -0.79800 9.76800 21.21800
C  -0.84200 11.07100 20.35700
N  1.60900 9.51200 26.05600
C  1.51900 10.52600 25.19100
C  1.67200 11.78900 25.86400
C  1.80600 11.46000 27.19500
C  1.69200 10.06900 27.30700
C  1.69600 13.23400 25.33300
C  2.03700 11.99700 28.60000
O  2.21500 13.14800 29.00000
C  1.76300 10.69900 29.64200
C  2.89200 10.66700 30.63400
O  3.98900 10.12400 30.55800
O  2.38500 11.11100 31.80800
C  3.24800 11.15700 32.92300
H  1.35400 3.89600 28.43300
H  0.83600 5.16600 21.95300
H  1.05000 11.29500 23.23700
H  1.99800 7.79900 31.01900
H  0.67600 5.37100 30.44700
H  3.30500 4.61100 29.74400
H  2.76800 4.61900 31.48900
H  3.59600 5.98600 30.72600
H  -0.96000 6.97600 30.66000
H  -0.63300 8.68800 30.29900
H  -1.26300 7.80500 32.81900
H  -0.27700 9.20600 32.56400
H  1.66000 1.33300 26.29200
H  -0.15300 1.56800 26.16200
H  0.84300 2.20000 27.52700
H  1.29300 0.64900 24.01100
H  0.15400 0.40300 22.68200
H  -0.44300 0.99100 24.22200
H  0.21100 7.31600 20.69100
H  1.41700 9.88200 21.19400
H  3.11000 7.61400 21.13900
H  2.41400 8.50200 19.76700
H  2.22900 6.74700 19.77900
H  -1.38900 9.88200 22.12600
H  -1.41300 8.98900 20.76700
H  -1.43600 10.99600 19.44700
H  0.17900 11.30900 20.05800
H  -1.25400 11.82800 21.02400
H  0.78200 13.72800 25.66100
H  1.46700 13.33600 24.27200
H  2.57900 13.84500 25.52300
H  0.80000 10.75500 30.15000
H  2.77800 11.48400 33.85000
H  4.10300 11.79200 32.69000
H  3.53600 10.13400 33.16700
Mg 16.19400 51.64400 24.99000
C  18.06000 50.67300 27.81100
C  13.75500 52.78400 27.13500
C  14.49900 52.46000 22.39300
C  18.77600 50.25400 22.88500
N  15.97100 51.66500 27.24500
C  16.87500 51.34700 28.18000
C  16.46300 51.62400 29.63300
C  14.95400 52.14300 29.36900
C  14.81200 52.13900 27.78400
C  13.72500 51.38000 30.12600
C  17.30400 52.52100 30.51300
C  17.25000 52.39700 32.05500
H  16.23100 51.41300 32.61200
N  14.38400 52.53300 24.80700
C  13.57000 53.00100 25.80200
C  12.46300 53.67900 25.20900
C  12.69900 53.72000 23.82100
C  13.91200 52.87700 23.64200
C  11.14600 54.00900 25.91700
C  11.83200 54.24900 22.75000
O  12.10700 54.00200 21.58400
C  10.45400 55.01500 23.03600
N  16.62600 51.34700 22.97300
C  15.61200 51.75800 22.11400
C  16.02000 51.52600 20.63300
C  17.50300 51.12900 20.67000
C  17.65700 50.89100 22.24200
C  15.11800 50.56900 19.84000
C  18.57100 52.09500 20.23500
C  19.22300 51.67800 18.91100
N  18.04900 50.57200 25.23800
C  19.00300 50.09500 24.28300
C  19.96900 49.36600 25.05900
C  19.74600 49.63700 26.42400
C  18.53000 50.33800 26.49600
C  21.06900 48.62500 24.40500
C  20.28900 49.52000 27.75800
O  21.31800 49.04500 28.18700
C  19.22900 50.15800 28.73100
C  18.70500 49.08200 29.65900
O  17.78900 48.28500 29.40600
O  19.40500 49.19600 30.85200
C  19.05000 48.12300 31.76500
H  12.98500 53.19500 27.79100
H  14.16900 52.89400 21.44600
H  19.54700 49.87000 22.21300
H  16.40900 50.60100 30.00600
H  14.93100 53.21200 29.57700
H  13.39300 51.97700 30.97600
H  13.96400 50.44000 30.62300
H  12.93700 51.20700 29.39400
H  16.92200 53.50800 30.24900
H  18.34900 52.42000 30.21700
H  16.97700 53.40400 32.37000
H  18.26500 52.20900 32.40500
H  11.07000 55.09700 25.92700
H  11.18800 53.49100 26.87500
H  10.26700 53.61100 25.41000
H  9.64900 54.31800 23.27000
H  10.27700 55.60900 22.13900
H  10.72900 55.68800 23.84800
H  15.91100 52.47700 20.11300
H  17.77500 50.21700 20.13700
H  14.67000 51.17100 19.04900
H  14.36200 50.23600 20.55100
H  15.54300 49.72000 19.30500
H  19.31800 52.06500 21.02800
H  18.33000 53.15600 20.29700
H  19.36700 52.48600 18.19400
H  18.50500 51.06700 18.36400
H  20.17600 51.20100 19.13800
H  20.62600 48.26600 23.47600
H  21.37200 47.79600 25.04600
H  21.86400 49.28100 24.05100
H  19.66800 50.99700 29.27200
H  18.78000 47.18900 31.27300
H  18.27400 48.46000 32.45200
H  19.93400 47.73700 32.27400

