158

Mg -2.46700 17.47500 27.46500
C  -3.04900 15.25800 30.25600
C  -2.76100 20.05400 29.48500
C  -2.37400 19.32400 24.68400
C  -2.75600 14.61400 25.47700
N  -2.72600 17.56500 29.68000
C  -3.05300 16.59400 30.60400
C  -3.15000 17.26300 32.06300
C  -3.09400 18.77700 31.76300
C  -2.89900 18.83400 30.20100
C  -4.32800 19.52800 32.37900
C  -1.97300 16.75100 32.99000
C  -1.55800 17.72500 34.09000
H  -1.25800 17.05800 35.42400
N  -2.44300 19.41600 27.14400
C  -2.60000 20.35200 28.12700
C  -2.42100 21.65300 27.52000
C  -2.24100 21.43400 26.08500
C  -2.37800 20.02900 25.89300
C  -2.31600 22.87700 28.41600
C  -2.02000 22.52600 25.00900
O  -1.90100 22.22500 23.78500
C  -1.93000 23.96000 25.37100
N  -2.69400 17.03700 25.33500
C  -2.47000 18.00500 24.38800
C  -2.25200 17.46100 22.94300
C  -2.32600 15.87000 23.23600
C  -2.66900 15.79200 24.76900
C  -3.25400 18.09600 21.89400
C  -1.11400 15.09300 22.88600
C  -0.01600 15.33500 23.87700
N  -2.71400 15.42600 27.76800
C  -2.82700 14.40600 26.82900
C  -3.04900 13.08900 27.42100
C  -3.04400 13.43400 28.76400
C  -2.91600 14.83100 28.93500
C  -3.15500 11.77900 26.69700
C  -3.12300 12.84800 30.10300
O  -3.15500 11.70500 30.50600
C  -3.17400 14.00100 31.11100
C  -1.92300 13.73500 31.90800
O  -0.80100 14.19800 31.73700
O  -2.32100 13.00600 33.01300
C  -1.48600 12.75600 34.18100
H  -2.80300 20.91300 30.15800
H  -2.15600 19.95300 23.81800
H  -2.76100 13.76500 24.79000
H  -4.09300 16.89600 32.46800
H  -2.14100 19.13400 32.15400
H  -3.94100 20.26400 33.08400
H  -4.98700 18.82100 32.88400
H  -5.06300 19.93000 31.68200
H  -1.13900 16.70600 32.29000
H  -2.30200 15.75200 33.27800
H  -2.15500 18.60000 34.34700
H  -0.54800 18.00100 33.78800
H  -1.39400 23.44900 28.30900
H  -2.48900 22.72800 29.48200
H  -3.18600 23.47800 28.15200
H  -1.95600 24.60100 24.49000
H  -1.01000 24.02800 25.95200
H  -2.82900 24.16300 25.95300
H  -1.21600 17.66800 22.67400
H  -3.05100 15.45400 22.53700
H  -4.01400 17.34300 21.68700
H  -2.70500 18.49700 21.04200
H  -3.70800 19.00200 22.29400
H  -0.80700 15.44100 21.89900
H  -1.40800 14.04500 22.82800
H  0.18600 16.39800 24.00800
H  0.88100 14.82000 23.53300
H  -0.14100 14.89300 24.86600
H  -2.58600 11.13600 27.36700
H  -2.63900 11.76600 25.73600
H  -4.20400 11.48400 26.67100
H  -4.08700 13.87200 31.69100
H  -1.30600 11.68100 34.18300
H  -2.08600 13.07200 35.03400
H  -0.57300 13.34000 34.29600
Mg 46.77900 16.62600 28.10300
C  45.07800 16.07200 31.17700
C  49.14400 18.33300 30.02300
C  48.25400 17.55200 25.27300
C  44.15000 15.23300 26.36200
N  47.06900 17.16400 30.38100
C  46.34200 16.64600 31.39300
C  46.97800 17.00000 32.75800
C  48.11100 18.10200 32.34700
C  48.18200 17.85900 30.81900
C  47.85700 19.56900 32.88100
C  47.32700 15.80800 33.65100
C  47.38800 15.99900 35.14200
H  47.19800 17.31200 35.76200
N  48.54900 17.65300 27.70000
C  49.37000 18.23200 28.63100
C  50.58100 18.77600 27.95400
C  50.23500 18.66600 26.51900
C  48.98800 17.95200 26.42900
C  51.75400 19.35900 28.65600
C  51.05600 19.16500 25.40700
O  50.68400 19.23300 24.25000
C  52.38300 19.73100 25.64100
N  46.33500 16.21800 26.06300
C  47.11700 16.71900 25.11200
C  46.53300 16.41200 23.67800
C  45.27400 15.62100 24.01100
C  45.21700 15.64300 25.57500
C  46.31900 17.68300 22.84500
C  45.29000 14.12200 23.31700
C  44.09400 13.69200 22.43300
N  44.93500 15.84900 28.55600
C  43.99900 15.23800 27.76100
C  42.92800 14.78800 28.58400
C  43.29300 15.07000 29.89300
C  44.56900 15.68800 29.87000
C  41.60900 14.18800 27.99500
C  42.89300 14.91000 31.23600
O  41.87300 14.43300 31.70200
C  43.98400 15.63200 32.14800
C  43.43200 16.88600 32.90900
O  42.91500 17.89400 32.44700
O  43.57200 16.58300 34.20500
C  42.99100 17.49700 35.21100
H  49.86500 18.92900 30.58600
H  48.72000 17.89200 24.34500
H  43.28100 14.97600 25.75300
H  46.15400 17.45100 33.31000
H  49.10000 17.84200 32.72300
H  48.60800 19.93800 33.57900
H  46.88400 19.56900 33.37100
H  47.70500 20.27800 32.06800
H  48.33700 15.56400 33.32300
H  46.56500 15.06400 33.41800
H  48.26300 15.44300 35.47800
H  46.48400 15.50500 35.49800
H  52.69300 19.12200 28.15700
H  51.82200 18.88000 29.63300
H  51.69200 20.42900 28.85600
H  52.25700 20.58200 26.31000
H  52.90200 20.19000 24.80000
H  52.88400 18.88100 26.10400
H  47.25800 15.76500 23.18500
H  44.39600 16.14000 23.62800
H  46.28900 18.64200 23.36100
H  45.36000 17.50400 22.35800
H  47.12000 17.83100 22.12200
H  45.32000 13.38800 24.12200
H  46.16400 14.14800 22.66500
H  43.72000 12.75200 22.83700
H  44.44100 13.62200 21.40200
H  43.33000 14.45200 22.60100
H  41.12300 14.97700 27.42200
H  40.95700 13.67800 28.70500
H  41.86400 13.37500 27.31500
H  44.33100 14.87900 32.85400
H  43.38700 17.25700 36.19800
H  41.90300 17.43100 35.23000
H  43.23600 18.53700 34.99800

