158

Mg 24.52200 1.46700 29.11800
C  26.62400 0.75100 31.89300
C  21.93100 1.35500 31.14700
C  22.54800 2.05900 26.34100
C  27.31600 1.16800 27.06800
N  24.36200 1.15000 31.30100
C  25.29800 1.00000 32.25700
C  24.73300 1.03800 33.63600
C  23.19200 1.30700 33.40000
C  23.15500 1.32200 31.86500
C  22.18200 0.34100 34.11700
C  25.50000 2.07900 34.57000
C  24.67100 2.72300 35.65200
H  25.45400 3.28100 36.82300
N  22.54200 1.65100 28.87500
C  21.59100 1.51600 29.79700
C  20.27400 1.62300 29.23500
C  20.45400 1.69300 27.81200
C  21.90400 1.85200 27.60800
C  19.01700 1.34600 30.04600
C  19.40900 1.55200 26.68900
O  19.65800 1.43200 25.47100
C  17.98100 1.52900 27.07300
N  24.85700 1.73600 27.06000
C  23.91800 1.96600 26.10800
C  24.58400 2.15200 24.75300
C  26.10500 2.02500 25.01000
C  26.12000 1.66000 26.50100
C  24.08200 1.48600 23.50000
C  26.85700 3.40300 24.79200
C  26.64200 4.42500 25.91700
N  26.49400 0.78100 29.28100
C  27.49600 0.73600 28.37000
C  28.73300 0.38400 29.01100
C  28.43600 0.50100 30.39100
C  27.03200 0.59800 30.53100
C  29.97000 0.08700 28.34200
C  29.03200 0.46200 31.67700
O  30.16000 0.25300 32.12600
C  27.87600 0.71600 32.71900
C  28.02300 -0.41400 33.73300
O  27.58300 -1.50600 33.55700
O  28.66000 0.05100 34.95600
C  28.79900 -1.02200 36.04100
H  21.14500 1.36800 31.90400
H  22.06600 2.18900 25.36900
H  28.17000 1.12500 26.38900
H  24.94000 0.04300 34.02800
H  23.05100 2.33300 33.74000
H  21.73200 0.91600 34.92700
H  22.75800 -0.41700 34.64700
H  21.60200 -0.11900 33.31700
H  25.95900 2.88400 33.99600
H  26.30200 1.56700 35.10100
H  24.00200 1.88800 35.86200
H  24.17400 3.62700 35.29800
H  18.77400 0.30600 29.82900
H  18.16100 1.98300 29.82500
H  19.29300 1.48100 31.09100
H  17.34400 1.60600 26.19200
H  17.80500 2.32100 27.80100
H  17.86800 0.50000 27.41700
H  24.35700 3.17300 24.44600
H  26.48300 1.18800 24.42300
H  23.65600 2.24000 22.83800
H  23.33600 0.72900 23.74100
H  24.90600 1.06400 22.92400
H  26.28700 3.81100 23.95700
H  27.89500 3.27800 24.48700
H  26.76000 4.13000 26.95900
H  25.65300 4.87800 25.84000
H  27.33500 5.26500 25.87500
H  29.73700 -0.18800 27.31300
H  30.52200 -0.67800 28.88600
H  30.59700 0.97600 28.40700
H  27.98800 1.68800 33.19900
H  28.34700 -1.98400 35.80100
H  28.21600 -0.67800 36.89600
H  29.81700 -1.12500 36.41600
Mg 47.14600 16.58000 28.47000
C  45.16300 16.32700 31.40700
C  49.37800 18.37400 30.12700
C  48.52000 17.10600 25.54400
C  44.40900 15.11300 26.77700
N  47.18600 17.24300 30.62100
C  46.38400 16.98200 31.63400
C  46.98500 17.50000 32.97500
C  48.18600 18.34800 32.42900
C  48.32100 17.91400 30.99000
C  47.76700 19.83800 32.50000
C  47.43700 16.37400 33.92400
C  46.85400 16.45800 35.33000
H  46.96000 17.84700 36.00200
N  48.77500 17.50200 27.95500
C  49.65400 18.12100 28.81400
C  50.83400 18.39800 28.09700
C  50.56300 18.20300 26.70400
C  49.21400 17.57700 26.67700
C  52.07900 18.68200 28.95600
C  51.34300 18.47600 25.45900
O  50.95600 18.17900 24.32500
C  52.69600 19.19300 25.59100
N  46.56700 16.12000 26.43900
C  47.26500 16.50600 25.41400
C  46.70300 16.07800 24.09600
C  45.46500 15.22400 24.52000
C  45.46900 15.53400 25.99600
C  46.39000 17.30200 23.08300
C  45.68900 13.71500 24.19400
C  45.08300 13.40500 22.80000
N  45.19300 15.95700 28.85200
C  44.21300 15.41000 28.09000
C  43.02700 15.07900 28.89600
C  43.42700 15.44200 30.20300
C  44.70200 15.97300 30.11100
C  41.72000 14.48200 28.37100
C  42.98100 15.45900 31.56300
O  41.89700 15.09800 32.04000
C  44.20200 15.91800 32.40400
C  43.71500 16.98400 33.37400
O  43.58200 18.19100 33.19100
O  43.32400 16.37000 34.55300
C  42.57400 17.25000 35.45900
H  50.10400 18.99700 30.65300
H  49.06500 17.03100 24.60100
H  43.47200 14.67900 26.42400
H  46.09100 17.95300 33.40300
H  49.16700 18.20500 32.88100
H  47.23000 20.08700 31.58500
H  48.71600 20.34600 32.67100
H  47.07300 19.97400 33.33000
H  48.50400 16.23900 34.10200
H  47.13800 15.42700 33.47500
H  47.29100 15.70400 35.98500
H  45.78900 16.24900 35.22800
H  52.96500 18.36600 28.40600
H  52.02400 18.01100 29.81300
H  52.16400 19.72200 29.27200
H  53.25200 19.29900 24.66000
H  53.26600 18.44500 26.14200
H  52.42100 20.16100 26.00900
H  47.32900 15.37000 23.55200
H  44.54000 15.63100 24.11400
H  47.09500 17.29000 22.25200
H  46.40900 18.23100 23.65200
H  45.39000 17.20000 22.66200
H  45.13800 13.13300 24.93300
H  46.74600 13.46700 24.28500
H  45.14300 14.25000 22.11400
H  44.03700 13.10100 22.82200
H  45.69700 12.56300 22.47900
H  41.42600 14.75900 27.35900
H  40.87500 14.75000 29.00500
H  41.91200 13.41200 28.45300
H  44.53800 14.97100 32.82800
H  41.53000 17.27600 35.14700
H  42.96400 18.23900 35.69900
H  42.52300 16.76000 36.43200

