158

Mg 2.72500 -2.78700 43.96100
C  5.89000 -0.98200 43.22400
C  1.09900 -0.29600 42.11900
C  0.02300 -4.59100 44.15200
C  4.58700 -5.10300 45.49200
N  3.46600 -0.83100 42.80800
C  4.77200 -0.33200 42.68700
C  4.77800 0.91200 41.80100
C  3.21600 1.25400 41.80600
C  2.50000 -0.02700 42.25900
C  2.69600 2.62100 42.35900
C  5.44000 0.64800 40.45400
C  6.43900 1.67400 39.89800
H  6.16300 2.17100 38.53000
N  0.87200 -2.51000 43.12300
C  0.36100 -1.42500 42.47800
C  -1.02600 -1.69900 42.21500
C  -1.31400 -2.99600 42.68900
C  -0.15300 -3.43400 43.36100
C  -1.93600 -0.73400 41.45000
C  -2.64100 -3.76100 42.54800
O  -3.60400 -3.29400 41.98300
C  -2.79600 -5.26500 42.98700
N  2.34800 -4.85700 44.34800
C  1.07000 -5.20800 44.63800
C  1.01800 -6.46800 45.44600
C  2.49400 -6.66900 45.90800
C  3.15900 -5.44300 45.26200
C  -0.00100 -6.53600 46.68400
C  3.13400 -8.08900 45.72600
C  3.47400 -8.35200 44.25900
N  4.75200 -2.98400 44.47300
C  5.35100 -4.03300 45.10300
C  6.75200 -3.78900 45.31800
C  6.99500 -2.61600 44.61800
C  5.72300 -2.16900 44.08000
C  7.67000 -4.79300 45.96100
C  8.03600 -1.69500 44.13700
O  9.23100 -1.75000 44.25600
C  7.39000 -0.58700 43.28000
C  7.49600 0.74900 43.95800
O  6.84800 1.07800 44.95600
O  8.48400 1.53000 43.39000
C  8.87300 2.63300 44.27800
H  0.64900 0.49000 41.50900
H  -0.91300 -5.08800 44.41400
H  5.22800 -5.79900 46.03600
H  5.22200 1.73400 42.36200
H  2.95800 1.36500 40.75300
H  2.35100 3.22800 41.52300
H  3.46300 3.20700 42.86500
H  1.88400 2.43900 43.06300
H  4.68600 0.43300 39.69700
H  5.98900 -0.28600 40.56900
H  7.40800 1.17700 39.91800
H  6.33700 2.56100 40.52400
H  -2.51700 -0.07000 42.09000
H  -2.51600 -1.28000 40.70600
H  -1.32100 -0.06200 40.85000
H  -1.92100 -5.73600 42.53900
H  -3.68900 -5.65300 42.49600
H  -2.99800 -5.38800 44.05100
H  0.72400 -7.19200 44.68600
H  2.60600 -6.46200 46.97200
H  -0.78200 -7.27700 46.51700
H  -0.43600 -5.55500 46.87600
H  0.46200 -6.82500 47.62800
H  2.37300 -8.81000 46.02500
H  4.05200 -8.21100 46.30100
H  4.52000 -8.10700 44.07700
H  2.85600 -7.79000 43.55900
H  3.30300 -9.39600 43.99600
H  7.39400 -5.79600 45.63700
H  7.58300 -4.62800 47.03500
H  8.71900 -4.56300 45.77400
H  7.73400 -0.52500 42.24800
H  9.11300 2.17300 45.23700
H  8.17200 3.46700 44.26300
H  9.82800 3.00600 43.90800
Mg -12.14900 37.69600 42.75400
C  -9.94000 35.15700 41.82300
C  -10.01700 39.88600 41.05100
C  -14.43600 40.12900 43.32200
C  -14.38200 35.22700 43.98100
N  -10.28100 37.51700 41.51900
C  -9.53600 36.35000 41.23000
C  -8.31300 36.58600 40.43100
C  -8.18600 38.16300 40.53000
C  -9.62300 38.57200 40.95700
C  -7.11900 38.61900 41.53800
C  -8.44100 36.09800 38.93300
C  -7.36600 35.01000 38.47500
H  -6.03400 35.35600 37.80200
N  -12.27600 39.68000 42.15600
C  -11.26500 40.43200 41.55400
C  -11.66200 41.85100 41.61400
C  -12.91300 41.93800 42.25000
C  -13.24200 40.57800 42.64000
C  -10.73700 42.87100 41.13200
C  -13.68800 43.19400 42.37100
O  -13.25800 44.23800 41.89400
C  -15.00600 43.27800 43.05000
N  -14.29600 37.59100 43.35200
C  -14.93700 38.82200 43.63000
C  -16.18700 38.59900 44.42400
C  -16.20700 37.04100 44.48100
C  -14.87900 36.55300 43.89600
C  -16.23100 39.36800 45.79600
C  -17.45600 36.38500 43.91300
C  -17.76500 34.94800 44.38600
N  -12.12500 35.64500 43.03300
C  -13.09700 34.80000 43.57200
C  -12.51600 33.49600 43.64100
C  -11.30600 33.53800 42.90700
C  -11.09100 34.90600 42.58100
C  -13.25100 32.23800 44.32000
C  -10.15300 32.85200 42.41700
O  -9.90900 31.63900 42.63400
C  -9.26700 33.78000 41.58100
C  -7.86700 33.65200 42.13400
O  -7.13800 32.80400 41.67000
O  -7.61000 34.72300 43.03200
C  -6.31900 34.58000 43.75400
H  -9.29700 40.56700 40.59500
H  -15.12700 40.81100 43.82200
H  -15.20500 34.57200 44.27700
H  -7.48700 36.12600 40.97300
H  -8.02700 38.55900 39.52700
H  -6.30600 37.89600 41.59900
H  -7.41000 38.77100 42.57800
H  -6.69900 39.50900 41.06900
H  -8.51200 36.91600 38.21600
H  -9.38300 35.55000 38.93900
H  -7.85900 34.26100 37.85400
H  -6.98800 34.52400 39.37400
H  -9.67700 42.67100 41.28500
H  -10.89800 43.74300 41.76700
H  -10.98600 42.94200 40.07300
H  -15.80400 42.79500 42.48800
H  -15.24700 44.30900 43.30700
H  -14.81200 42.78100 44.00100
H  -16.86800 38.97900 43.66200
H  -16.16700 36.74000 45.52800
H  -15.22500 39.51500 46.18800
H  -16.84200 38.85500 46.53900
H  -16.73600 40.32800 45.68900
H  -17.21900 36.44900 42.85200
H  -18.22900 37.08700 44.22800
H  -18.80900 34.83500 44.67800
H  -17.06500 34.80700 45.21100
H  -17.44100 34.37900 43.51500
H  -13.26100 31.34100 43.70100
H  -14.23000 32.48300 44.73200
H  -12.61200 31.86800 45.12200
H  -9.20600 33.44500 40.54600
H  -5.64300 35.43300 43.71200
H  -5.80500 33.67400 43.43300
H  -6.54400 34.38500 44.80300

