158

Mg -2.22800 17.41000 26.42900
C  -2.27200 15.12800 29.09600
C  -2.76600 19.93300 28.70600
C  -2.50900 19.64800 23.85400
C  -1.94100 14.89500 24.18800
N  -2.68900 17.59300 28.62300
C  -2.35100 16.51000 29.49300
C  -2.38600 16.94200 30.97800
C  -2.74300 18.46200 30.84600
C  -2.69200 18.75400 29.31900
C  -4.08800 18.84900 31.50800
C  -1.14300 16.56800 31.80300
C  -1.00000 17.28500 33.18100
H  -0.92100 16.37700 34.48300
N  -2.61200 19.44500 26.34100
C  -2.79600 20.35800 27.39700
C  -2.92400 21.68400 26.89500
C  -2.96500 21.63200 25.46200
C  -2.70600 20.16800 25.15800
C  -3.15300 22.87400 27.68400
C  -3.20400 22.66300 24.38800
O  -3.10800 22.44800 23.15100
C  -3.42300 24.11900 24.71300
N  -2.16600 17.34500 24.30900
C  -2.27700 18.31600 23.42300
C  -2.27400 17.90500 21.94400
C  -2.02000 16.43100 22.10000
C  -1.96400 16.21300 23.60000
C  -3.55500 18.25500 21.17000
C  -0.86200 15.77600 21.33300
C  -0.96200 14.38500 20.81400
N  -2.23300 15.39500 26.51100
C  -1.93200 14.48700 25.52400
C  -1.93700 13.13600 26.06400
C  -1.98200 13.39200 27.44800
C  -2.20000 14.75200 27.69100
C  -1.92700 11.88300 25.27500
C  -2.09100 12.71700 28.68000
O  -2.11100 11.48600 28.91900
C  -2.22700 13.78500 29.85000
C  -1.06600 13.49100 30.77700
O  0.11900 13.82300 30.69200
O  -1.62100 12.76600 31.81100
C  -0.75900 12.39900 32.98300
H  -2.57500 20.70200 29.45800
H  -2.70500 20.28300 22.98800
H  -1.73200 14.14500 23.42200
H  -3.22300 16.40800 31.42700
H  -1.93600 18.98500 31.35900
H  -4.06600 18.82400 32.59700
H  -4.99500 18.38700 31.11600
H  -4.29000 19.90200 31.30900
H  -0.25200 16.70700 31.19100
H  -1.14200 15.49500 31.99200
H  -1.82400 17.98800 33.30300
H  -0.08200 17.86800 33.25200
H  -3.10400 22.70000 28.75900
H  -4.12700 23.30400 27.44900
H  -2.35700 23.58300 27.45900
H  -3.81600 24.72100 23.89300
H  -2.49000 24.62700 24.95600
H  -4.04900 24.25700 25.59500
H  -1.39800 18.37000 21.49300
H  -2.93800 15.91900 21.81200
H  -4.14100 17.42300 20.77800
H  -3.25400 18.78000 20.26300
H  -4.20800 18.79300 21.85700
H  0.04500 15.86600 21.93100
H  -0.67900 16.39700 20.45600
H  -0.30100 13.69600 21.33900
H  -0.84900 14.38200 19.72900
H  -1.99900 14.06100 20.90700
H  -1.60100 11.96900 24.23800
H  -2.93600 11.47500 25.22700
H  -1.33000 11.09000 25.72400
H  -3.19100 13.55300 30.30300
H  -0.38300 11.38100 32.87500
H  -1.34900 12.43400 33.89900
H  0.07900 13.06600 33.18100
Mg -6.59900 25.08300 25.11800
C  -5.08100 26.50600 27.96700
C  -8.29000 22.99200 27.24500
C  -7.54400 23.24900 22.42400
C  -5.03300 27.40100 23.22700
N  -6.51900 24.70100 27.30200
C  -5.93500 25.47900 28.30700
C  -6.46200 25.02600 29.74600
C  -7.15000 23.69700 29.38300
C  -7.34200 23.75500 27.88000
C  -6.36500 22.45300 29.90400
C  -7.62400 26.11200 30.23200
C  -7.37200 26.70600 31.68500
H  -6.85800 25.67600 32.73400
N  -7.72900 23.33200 24.86900
C  -8.46800 22.75400 25.88000
C  -9.33400 21.73100 25.30400
C  -9.03400 21.69700 23.85400
C  -8.04900 22.77600 23.59600
C  -10.17800 20.88000 26.20400
C  -9.67700 20.89700 22.76100
O  -9.45400 21.15300 21.59000
C  -10.74100 19.90000 23.05500
N  -6.54400 25.38900 23.09700
C  -6.94000 24.49200 22.17400
C  -6.38500 24.93400 20.85000
C  -6.04700 26.39000 21.07100
C  -5.81600 26.44400 22.55100
C  -5.24000 24.04600 20.37800
C  -7.09100 27.45700 20.49600
C  -6.46700 28.31500 19.40100
N  -5.33100 26.71800 25.41900
C  -4.75500 27.56200 24.58700
C  -3.94300 28.56900 25.33800
C  -4.06800 28.12800 26.71600
C  -4.93500 26.99100 26.66900
C  -3.20400 29.74300 24.84700
C  -3.66800 28.51100 28.05700
O  -2.89700 29.33000 28.50200
C  -4.34800 27.34100 28.96900
C  -3.31000 26.62800 29.63800
O  -2.42400 25.94000 29.21100
O  -3.21100 27.10200 30.93200
C  -2.29700 26.54700 31.97300
H  -8.97400 22.45800 27.90800
H  -7.89300 22.78100 21.50100
H  -4.58000 28.09600 22.51700
H  -5.66600 24.92000 30.48300
H  -8.11300 23.56600 29.87600
H  -5.41000 22.70100 30.36700
H  -6.16500 21.78000 29.07100
H  -7.02900 21.90600 30.57300
H  -8.60900 25.64700 30.28500
H  -7.69200 26.96400 29.55500
H  -8.27100 27.07600 32.17700
H  -6.81700 27.64200 31.62200
H  -10.95700 20.36800 25.63800
H  -10.67100 21.43800 27.00000
H  -9.42500 20.24400 26.66800
H  -10.38300 19.16200 23.77300
H  -11.12000 19.47500 22.12700
H  -11.56800 20.52500 23.39200
H  -6.94700 24.84100 19.92100
H  -5.07200 26.57200 20.61800
H  -4.53300 24.69000 19.85400
H  -5.58600 23.40600 19.56700
H  -4.63900 23.51100 21.11300
H  -7.34400 28.14200 21.30500
H  -8.03700 27.01900 20.17900
H  -6.82900 28.05700 18.40600
H  -5.37800 28.34000 19.35600
H  -6.71400 29.37500 19.46000
H  -3.64600 29.98500 23.88000
H  -2.14500 29.48700 24.84900
H  -3.29100 30.59000 25.52700
H  -4.89600 27.76800 29.80900
H  -1.31000 26.48200 31.51400
H  -2.72500 25.60600 32.32000
H  -2.20600 27.27400 32.78000

