158

Mg 41.13000 8.71800 29.56800
C  43.13900 10.13600 32.10200
C  39.06000 7.52600 31.98700
C  39.21600 7.24500 27.17400
C  43.41500 9.67300 27.34200
N  41.20900 8.79600 31.81600
C  42.12300 9.40600 32.67400
C  41.56800 9.36700 34.15200
C  40.45300 8.27500 34.05200
C  40.23200 8.12800 32.55400
C  40.71500 6.93400 34.74000
C  41.03600 10.85700 34.44100
C  40.34500 11.06800 35.82000
H  41.18200 11.78300 36.89100
N  39.45200 7.47300 29.57500
C  38.74100 7.25800 30.69900
C  37.41300 6.71200 30.22400
C  37.34300 6.80500 28.83900
C  38.68200 7.21000 28.47100
C  36.50700 6.07900 31.31400
C  36.17400 6.50900 27.83500
O  36.28400 6.62600 26.68400
C  34.84800 6.18500 28.46300
N  41.27700 8.47900 27.51900
C  40.48400 7.70200 26.75100
C  40.89000 7.89500 25.25100
C  42.28200 8.43700 25.43800
C  42.37100 8.88200 26.88100
C  40.88700 6.68400 24.38000
C  42.67500 9.55000 24.38900
C  43.85400 9.27400 23.44800
N  42.85600 9.86900 29.63400
C  43.73600 10.21600 28.59900
C  44.82600 11.00000 29.01100
C  44.61700 11.05900 30.45600
C  43.50100 10.25900 30.71500
C  45.84200 11.65900 28.12900
C  45.11700 11.53500 31.65300
O  46.11200 12.11500 31.94700
C  44.24400 10.92100 32.85100
C  44.89300 10.24300 34.00700
O  45.81000 9.48400 33.86200
O  44.45400 10.76800 35.18100
C  45.09100 10.21600 36.41500
H  38.41000 7.24100 32.81700
H  38.58000 6.85900 26.37500
H  44.09900 9.80800 26.50100
H  42.40200 9.04200 34.77400
H  39.61500 8.73900 34.57200
H  41.71200 6.78600 35.15500
H  40.62200 6.08700 34.06000
H  40.02100 6.73200 35.55600
H  40.27300 11.18600 33.73500
H  41.94600 11.42000 34.23700
H  40.08800 10.10300 36.25500
H  39.48900 11.70700 35.60200
H  36.29700 5.06100 30.98600
H  35.57700 6.64600 31.31500
H  36.90900 5.91500 32.31400
H  34.59400 7.10400 28.99100
H  34.94500 5.33500 29.13900
H  34.07200 5.95900 27.73200
H  40.23900 8.68400 24.87600
H  43.08400 7.70200 25.35900
H  41.91300 6.41100 24.13500
H  40.28100 6.67600 23.47400
H  40.44100 5.84000 24.90700
H  42.82100 10.53700 24.82900
H  41.88700 9.56500 23.63700
H  44.45800 10.17800 23.36700
H  43.43600 9.05300 22.46600
H  44.54300 8.45400 23.64900
H  45.98500 10.93100 27.33000
H  46.66800 11.79200 28.82800
H  45.47300 12.63600 27.82000
H  43.89700 11.87500 33.24800
H  44.37400 10.14200 37.23200
H  45.87700 10.85000 36.82500
H  45.39500 9.18200 36.24800
Mg -10.73100 16.75200 40.65000
C  -7.39300 16.09900 41.14800
C  -10.00800 19.98300 39.84700
C  -13.86700 17.06600 39.45900
C  -11.24900 13.19700 40.71600
N  -8.86600 17.84500 40.53600
C  -7.62600 17.42700 40.74100
C  -6.61400 18.55100 40.53100
C  -7.54300 19.85000 40.57100
C  -8.90300 19.21600 40.36700
C  -7.64300 20.64000 41.94800
C  -5.95500 18.41600 39.08700
C  -4.48500 17.94300 39.07000
H  -4.19300 16.69200 38.27300
N  -11.86300 18.28200 39.90200
C  -11.34700 19.52900 39.60900
C  -12.40900 20.31900 38.96500
C  -13.60800 19.58700 38.97800
C  -13.12300 18.26000 39.46400
C  -12.15100 21.59000 38.38700
C  -15.00400 20.00200 38.59900
O  -15.17700 21.16900 38.34300
C  -16.17300 19.09800 38.78000
N  -12.24900 15.28900 39.94500
C  -13.51300 15.71700 39.77300
C  -14.50600 14.59700 39.90300
C  -13.61700 13.30200 39.96800
C  -12.28700 13.94400 40.25500
C  -15.59200 14.79300 41.10200
C  -13.69100 12.33500 38.76300
C  -13.79800 10.85000 39.08200
N  -9.54100 14.92500 40.88600
C  -9.99000 13.65100 41.01900
C  -8.75800 12.85700 41.38600
C  -7.70600 13.74900 41.48200
C  -8.29300 14.99000 41.15400
C  -8.73500 11.45100 41.78800
C  -6.30000 13.93600 41.75300
O  -5.38800 13.09600 41.96700
C  -6.07600 15.47400 41.63100
C  -5.73800 15.98100 42.95400
O  -6.45400 16.10700 43.94200
O  -4.36100 16.20000 43.02800
C  -3.82100 16.54200 44.35700
H  -9.62400 20.97500 39.60000
H  -14.89100 17.10500 39.08300
H  -11.37800 12.12000 40.84900
H  -5.89900 18.49900 41.35200
H  -7.33000 20.61900 39.82900
H  -7.68300 21.69900 41.69400
H  -6.75300 20.38600 42.52400
H  -8.53400 20.40700 42.53000
H  -6.04300 19.43100 38.70200
H  -6.60200 17.75300 38.51300
H  -4.25100 17.76200 40.11900
H  -3.88100 18.74800 38.65200
H  -12.00500 21.48500 37.31200
H  -11.24100 22.04400 38.78000
H  -12.87200 22.39800 38.51400
H  -16.94200 19.86000 38.90900
H  -16.07300 18.45800 39.65700
H  -16.41600 18.52300 37.88700
H  -15.12600 14.48700 39.01200
H  -13.77000 12.72200 40.87800
H  -16.04700 15.72600 40.76900
H  -15.24000 15.07400 42.09500
H  -16.33100 14.02700 41.33600
H  -12.82300 12.44700 38.11400
H  -14.51300 12.60900 38.10100
H  -13.38400 10.56700 40.05000
H  -13.22900 10.26700 38.35800
H  -14.81500 10.50400 38.89700
H  -7.97300 11.22100 42.53200
H  -8.49500 10.88700 40.88600
H  -9.72600 11.12100 42.09900
H  -5.15700 15.65300 41.07200
H  -2.78200 16.84900 44.24100
H  -3.89200 15.77100 45.12400
H  -4.32400 17.42000 44.76400

