158

Mg 46.58100 45.10000 44.43600
C  43.17800 44.68300 43.28100
C  47.22600 41.91500 43.09000
C  49.84100 45.81000 44.40200
C  45.75500 48.35900 44.98300
N  45.30000 43.54900 43.36400
C  43.97100 43.56500 43.05800
C  43.59600 42.36500 42.18800
C  44.75700 41.33900 42.49400
C  45.89600 42.33500 43.00500
C  44.44600 40.22700 43.62200
C  43.47100 42.87700 40.73700
C  42.25800 42.27500 39.90000
H  42.56200 41.56900 38.63900
N  48.32100 43.90200 44.11600
C  48.39500 42.60700 43.54200
C  49.75000 42.11800 43.69400
C  50.55900 43.28000 44.05500
C  49.61800 44.39800 44.18300
C  50.16300 40.63400 43.35100
C  52.07800 43.31900 44.22700
O  52.65800 42.27700 43.99000
C  52.82300 44.52100 44.66000
N  47.60200 46.79100 44.64800
C  48.96500 46.89200 44.67300
C  49.51300 48.31200 45.03200
C  48.18200 49.06600 45.25200
C  47.07400 48.02900 44.92700
C  50.50000 48.44700 46.26000
C  47.98300 50.36200 44.38600
C  47.81700 51.68800 45.13300
N  44.79900 46.31600 44.27300
C  44.56900 47.61500 44.67200
C  43.20500 48.00100 44.49100
C  42.60900 46.90800 43.89900
C  43.58700 45.92100 43.83000
C  42.70300 49.45200 44.63300
C  41.37200 46.32600 43.36300
O  40.28600 46.86000 43.20000
C  41.67200 44.82800 43.14500
C  40.99200 43.99800 44.15300
O  40.50500 42.93500 43.93500
O  41.27600 44.52100 45.36000
C  40.94700 43.64500 46.47900
H  47.27500 40.89800 42.69600
H  50.92000 45.96900 44.34200
H  45.39300 49.32700 45.33400
H  42.64500 41.91400 42.47400
H  45.05600 40.91000 41.53700
H  44.22500 39.37200 42.98300
H  43.55800 40.42300 44.22200
H  45.29000 40.09900 44.29900
H  44.35500 42.67100 40.13500
H  43.28400 43.94200 40.59700
H  41.72100 43.18000 39.61400
H  41.65600 41.54500 40.44100
H  50.86900 40.16700 44.03900
H  50.54000 40.59000 42.32900
H  49.34400 39.92500 43.46800
H  52.95600 45.16800 43.79300
H  53.75400 44.09500 45.03500
H  52.31400 44.98300 45.50500
H  50.02000 48.58600 44.10600
H  48.06400 49.37800 46.29000
H  51.02400 47.49300 46.31200
H  49.96700 48.50400 47.20900
H  51.25800 49.22200 46.14200
H  47.13400 50.24700 43.71300
H  48.78400 50.37800 43.64700
H  48.62200 52.37100 44.86500
H  47.86000 51.51200 46.20800
H  46.87100 52.17900 44.90400
H  43.07000 50.06500 45.45600
H  41.61600 49.41200 44.70900
H  42.99900 49.84000 43.65900
H  41.25200 44.57700 42.17100
H  41.48500 43.99200 47.36100
H  41.36600 42.63900 46.44200
H  39.87800 43.55400 46.67400
Mg -8.56500 40.38400 43.43300
C  -7.39700 37.26300 42.26000
C  -5.96400 41.91300 41.85300
C  -10.05600 43.36100 43.92300
C  -11.38600 38.64600 44.69400
N  -6.86200 39.61400 42.26600
C  -6.48400 38.33800 41.93600
C  -5.22700 38.31800 41.05100
C  -4.79400 39.75800 41.16000
C  -5.93300 40.49000 41.86000
C  -3.45500 39.89300 41.86900
C  -5.43400 37.64600 39.62800
C  -4.63800 36.47300 39.23900
H  -3.69000 36.59400 38.03300
N  -8.03900 42.40100 43.01600
C  -6.94800 42.81700 42.33000
C  -6.99700 44.29700 42.19600
C  -8.20700 44.70700 42.83700
C  -8.79500 43.46100 43.29500
C  -5.95300 45.06100 41.41200
C  -8.71800 46.20900 42.88700
O  -8.26200 47.11800 42.18900
C  -9.79300 46.55800 43.86100
N  -10.55100 40.95600 43.99900
C  -10.84200 42.27200 44.25500
C  -12.25800 42.36500 44.85400
C  -12.62300 40.84000 45.25500
C  -11.55000 40.04200 44.44300
C  -12.40600 43.28100 46.09600
C  -14.08500 40.43800 44.88200
C  -14.72200 39.48500 45.98800
N  -9.25100 38.36900 43.59700
C  -10.39400 37.81900 44.15400
C  -10.31900 36.40200 44.21300
C  -9.19300 36.11100 43.42900
C  -8.54800 37.37600 43.07900
C  -11.36900 35.46100 44.79100
C  -8.51800 35.07500 42.76800
O  -8.67400 33.83800 42.72800
C  -7.28800 35.73600 41.93900
C  -6.08000 35.06000 42.33000
O  -5.45100 35.28700 43.33900
O  -5.68100 34.15200 41.36900
C  -4.46500 33.40500 41.60400
H  -5.11600 42.43200 41.39900
H  -10.64800 44.25600 44.12900
H  -12.24300 38.28500 45.26600
H  -4.50400 37.74600 41.63100
H  -4.77900 40.17600 40.15400
H  -2.66900 39.46200 41.24800
H  -3.50500 39.29700 42.78000
H  -3.02300 40.87100 42.08300
H  -5.14300 38.32600 38.82700
H  -6.48800 37.43200 39.45200
H  -5.29500 35.63200 39.01300
H  -4.04100 36.11000 40.07500
H  -6.40300 45.89100 40.86700
H  -5.43600 44.40300 40.71300
H  -5.18600 45.49800 42.05100
H  -9.82400 47.63100 44.04600
H  -9.69000 46.06400 44.82700
H  -10.75500 46.28400 43.42800
H  -12.91400 42.78900 44.09400
H  -12.39000 40.59200 46.29100
H  -13.10300 44.11400 46.00400
H  -11.43900 43.75300 46.27000
H  -12.82800 42.75500 46.95200
H  -13.99500 39.84400 43.97300
H  -14.78700 41.24200 44.66000
H  -14.21300 39.58400 46.94700
H  -14.55500 38.45000 45.68800
H  -15.81000 39.55200 45.96900
H  -11.94300 35.10300 43.93700
H  -11.96700 35.79800 45.63800
H  -10.67600 34.72900 45.20600
H  -7.51900 35.62000 40.88000
H  -4.78200 32.42900 41.97200
H  -3.89600 33.73600 42.47300
H  -3.90400 33.05800 40.73600

