158

Mg 25.05800 1.24200 30.13800
C  27.46900 1.14300 32.79200
C  22.63400 1.00000 32.49000
C  22.93600 1.15000 27.49500
C  27.78400 0.73100 27.91000
N  25.07100 1.10000 32.41300
C  26.19800 1.21300 33.29300
C  25.69000 1.40800 34.74700
C  24.12900 1.32900 34.66500
C  23.91500 1.09700 33.11100
C  23.40000 0.34100 35.59100
C  26.22000 2.64800 35.55700
C  26.39100 2.53200 37.11500
H  25.69000 3.62800 37.91300
N  23.13800 1.05500 30.03200
C  22.24500 1.01700 31.12300
C  20.85100 0.92600 30.61400
C  20.91300 0.98200 29.15800
C  22.37700 1.05500 28.82900
C  19.76100 0.80800 31.56500
C  19.78300 0.79900 28.26200
O  19.93600 0.68800 27.06900
C  18.35600 0.56000 28.77100
N  25.31200 0.75100 27.99300
C  24.27600 1.13100 27.11100
C  24.83600 1.36700 25.69900
C  26.34400 0.92800 25.85600
C  26.51300 0.84000 27.36800
C  24.12400 0.63000 24.57500
C  27.21400 2.06500 25.21400
C  27.38400 3.32900 26.06900
N  27.15700 1.08400 30.26600
C  28.10000 0.75300 29.29300
C  29.39200 0.50600 29.89200
C  29.20200 0.67400 31.26200
C  27.80500 0.94800 31.43200
C  30.63300 0.06900 29.19500
C  29.83900 0.56300 32.52700
O  30.90800 0.11200 32.84400
C  28.76900 0.95200 33.57600
C  28.77700 -0.00200 34.66100
O  28.55300 -1.18900 34.56400
O  29.06200 0.62100 35.86400
C  29.08700 -0.24300 37.03400
H  21.92000 1.05400 33.31400
H  22.29700 1.40500 26.64700
H  28.66100 0.74600 27.25900
H  26.06800 0.55800 35.31500
H  23.76500 2.34400 34.82900
H  23.01600 -0.57700 35.14600
H  22.58700 0.81900 36.13700
H  24.18500 0.08500 36.30300
H  25.45000 3.39600 35.37000
H  27.20900 3.03200 35.30600
H  27.38800 2.54700 37.55500
H  25.83000 1.63200 37.36800
H  19.92400 -0.15400 32.05000
H  18.72500 0.89300 31.23600
H  19.91900 1.65100 32.23800
H  17.65300 0.50100 27.93900
H  17.91200 1.32900 29.40300
H  18.25800 -0.29600 29.43800
H  24.76000 2.42800 25.45800
H  26.58300 -0.09200 25.55500
H  23.58000 -0.20000 25.02600
H  24.81700 0.10400 23.91900
H  23.50200 1.22400 23.90500
H  26.83100 2.35300 24.23500
H  28.16100 1.57700 24.98400
H  28.46900 3.39100 26.15300
H  26.89400 3.41100 27.03900
H  26.99300 4.12900 25.44100
H  31.32300 0.90100 29.05500
H  30.33800 -0.40700 28.25900
H  31.04400 -0.73500 29.80500
H  29.08800 1.88600 34.04000
H  29.10900 -1.31900 36.86600
H  28.21700 -0.07300 37.66900
H  29.92000 0.06500 37.66600
Mg 46.64400 16.21600 28.39700
C  44.54300 16.17800 31.27300
C  48.83500 18.21900 30.32100
C  47.99800 17.24200 25.66500
C  44.17900 14.58500 26.65300
N  46.65700 17.13600 30.55700
C  45.70300 16.89200 31.51300
C  46.21600 17.40300 32.91800
C  47.56900 18.11500 32.59700
C  47.71400 17.82700 31.05600
C  47.62700 19.66800 32.92800
C  46.48700 16.19100 33.89300
C  46.26900 16.51400 35.43600
H  46.13200 17.98200 35.91900
N  48.31500 17.46300 28.00400
C  49.02100 18.19400 28.95900
C  49.99500 18.94700 28.25100
C  49.73600 18.82100 26.83100
C  48.70100 17.80000 26.73900
C  51.08800 19.69100 29.02100
C  50.39300 19.41800 25.58800
O  50.16200 19.03800 24.42900
C  51.32000 20.57000 25.78700
N  46.16200 15.84600 26.40400
C  46.89500 16.34500 25.43500
C  46.44600 15.93500 24.05800
C  45.49300 14.72200 24.37400
C  45.29800 14.95100 25.87000
C  45.80200 17.13400 23.33800
C  45.96600 13.25400 24.01400
C  45.20900 12.58700 22.87400
N  44.80000 15.44700 28.89100
C  43.90200 14.81500 28.07900
C  42.73200 14.42100 28.75400
C  42.93700 14.92800 30.02900
C  44.26300 15.50100 30.07900
C  41.52000 13.79800 28.21300
C  42.29000 15.06500 31.33700
O  41.21500 14.73900 31.77000
C  43.39700 15.91900 32.18700
C  42.91800 17.22900 32.75200
O  42.78500 18.26600 32.16200
O  42.55900 16.95200 34.02200
C  41.91300 18.10300 34.67900
H  49.60000 18.72200 30.91600
H  48.40500 17.70800 24.76500
H  43.51900 13.89800 26.11900
H  45.52000 18.15000 33.30000
H  48.52000 17.71400 32.95000
H  48.52500 19.90200 33.49900
H  46.80400 19.95800 33.58100
H  47.59000 20.20400 31.98000
H  47.51200 15.82700 33.82400
H  45.92800 15.30000 33.60600
H  47.12900 16.08400 35.94900
H  45.41100 15.99000 35.85800
H  51.85200 19.00800 29.39300
H  50.70900 20.24100 29.88300
H  51.59600 20.39500 28.36200
H  50.97600 21.38000 26.43100
H  51.41700 20.92200 24.76000
H  52.28700 20.14900 26.06200
H  47.32400 15.62300 23.49400
H  44.54200 14.88300 23.86500
H  46.60600 17.74900 22.93200
H  45.23400 17.63100 24.12400
H  45.03400 16.83000 22.62700
H  45.87800 12.53300 24.82700
H  46.98100 13.36700 23.63500
H  44.37100 13.23900 22.62700
H  44.80000 11.59600 23.07000
H  45.91000 12.43500 22.05300
H  41.35700 13.95100 27.14600
H  40.70300 14.42300 28.57400
H  41.47700 12.71100 28.27100
H  43.79800 15.30200 32.99100
H  41.86900 17.85300 35.73900
H  40.88200 18.17700 34.33600
H  42.65900 18.88200 34.52000

