158

Mg 26.20300 0.89700 28.98800
C  28.28600 0.74900 31.98600
C  23.48700 0.70200 31.24600
C  24.34600 0.93300 26.44300
C  29.02600 0.26900 27.11500
N  26.01900 0.80100 31.34900
C  26.93700 0.90900 32.31000
C  26.38100 0.98300 33.74700
C  24.81600 0.87700 33.48300
C  24.72000 0.91300 31.94800
C  24.04400 -0.32300 34.24200
C  26.83000 2.16300 34.60000
C  27.38400 1.93300 35.97100
H  27.05800 2.89100 37.13900
N  24.19200 0.86400 28.83400
C  23.22000 0.78200 29.87000
C  21.96700 1.02000 29.24900
C  22.13900 1.10200 27.84100
C  23.57600 0.91000 27.62800
C  20.66800 1.17900 30.00600
C  21.05300 1.44100 26.70100
O  21.42100 1.25500 25.57600
C  19.61700 1.76800 26.96500
N  26.65700 0.52400 27.09300
C  25.70400 0.72300 26.16200
C  26.27500 0.83700 24.73200
C  27.74000 0.51700 24.91800
C  27.84400 0.40600 26.45500
C  25.64800 -0.09800 23.61600
C  28.73900 1.55500 24.36100
C  28.76400 1.63000 22.88500
N  28.29700 0.55000 29.38000
C  29.30300 0.23800 28.50100
C  30.51400 0.13800 29.21500
C  30.25000 0.35100 30.56100
C  28.85700 0.64000 30.64000
C  31.79900 -0.25300 28.73900
C  30.79600 0.48000 31.91800
O  31.94900 0.31500 32.29200
C  29.53000 0.69800 32.93100
C  29.39500 -0.33400 33.96800
O  28.91800 -1.44000 33.85800
O  29.95100 0.08400 35.15800
C  29.97100 -0.81800 36.37400
H  22.59900 0.64300 31.87900
H  23.68800 0.94900 25.57200
H  29.90600 0.14600 26.48100
H  26.70500 0.13700 34.35400
H  24.30400 1.75200 33.88100
H  22.98500 -0.06900 34.27800
H  24.49000 -0.45500 35.22800
H  24.05100 -1.30400 33.76500
H  25.99000 2.82700 34.80200
H  27.53000 2.78300 34.04100
H  28.45500 1.74100 35.90400
H  26.91800 0.98000 36.22100
H  19.97200 0.37300 29.77300
H  20.20700 2.09300 29.63100
H  20.63800 1.34800 31.08300
H  19.46800 2.66200 27.57000
H  19.16300 0.86800 27.38000
H  19.10400 1.96400 26.02300
H  26.18900 1.88000 24.42600
H  27.95500 -0.45600 24.47700
H  24.96000 -0.69500 24.21500
H  26.32400 -0.83800 23.19000
H  25.07100 0.46800 22.88400
H  29.76700 1.39600 24.68700
H  28.45100 2.56600 24.65100
H  28.40000 2.59900 22.54600
H  28.13200 0.88300 22.40500
H  29.76700 1.42400 22.50900
H  31.68800 -1.32900 28.60400
H  32.56400 0.02800 29.46300
H  32.19600 0.22700 27.84500
H  29.67300 1.65100 33.44100
H  29.41000 -0.35100 37.18300
H  31.01200 -0.94900 36.67100
H  29.53200 -1.78800 36.13800
Mg -10.86900 17.59300 41.33000
C  -7.25600 17.43100 41.87100
C  -10.48700 20.92700 40.59200
C  -14.12500 17.51800 40.36200
C  -10.72100 14.06200 41.28100
N  -9.04700 18.93800 41.30700
C  -7.74000 18.70400 41.50000
C  -6.86500 19.92000 41.31700
C  -7.98200 21.03000 41.42400
C  -9.26700 20.26600 41.06200
C  -8.10000 21.77800 42.71400
C  -6.35400 19.97100 39.78600
C  -4.90400 19.55700 39.47900
H  -4.72200 18.59900 38.30500
N  -12.11300 19.05800 40.65700
C  -11.77700 20.34800 40.49400
C  -12.92900 21.10700 40.07900
C  -14.05400 20.18300 40.03700
C  -13.52800 18.83400 40.33200
C  -12.84300 22.62300 39.69300
C  -15.42600 20.61200 39.45800
O  -15.72700 21.78700 39.31700
C  -16.46000 19.54200 39.16300
N  -12.26100 15.96000 40.86600
C  -13.60600 16.20500 40.55300
C  -14.39300 14.90500 40.41000
C  -13.23000 13.85600 40.43000
C  -11.96800 14.63700 40.94400
C  -15.37200 14.56500 41.59400
C  -12.94400 13.06200 39.16800
C  -13.88500 12.01400 38.82000
N  -9.30700 16.01500 41.61900
C  -9.46800 14.65400 41.61500
C  -8.23300 14.03200 42.07000
C  -7.37200 15.08600 42.10500
C  -8.06100 16.24500 41.85700
C  -7.82700 12.62400 42.39900
C  -5.99900 15.39200 42.36500
O  -5.00100 14.66900 42.49400
C  -5.86200 16.99300 42.31600
C  -5.48700 17.57200 43.64200
O  -4.51500 18.34900 43.71000
O  -6.24100 17.11500 44.66800
C  -6.03800 17.81100 45.89900
H  -10.24800 21.97500 40.39900
H  -15.19200 17.49900 40.13100
H  -10.77200 12.98900 41.47700
H  -6.15500 20.09600 42.12500
H  -7.91800 21.72400 40.58600
H  -8.87500 21.31600 43.32600
H  -8.49300 22.77000 42.49000
H  -7.11400 21.75400 43.17700
H  -6.32300 21.02200 39.49800
H  -6.99000 19.35100 39.15300
H  -4.49700 19.12200 40.39100
H  -4.34500 20.48600 39.36700
H  -13.10500 22.48300 38.64400
H  -11.84900 22.97500 39.97200
H  -13.57700 23.15300 40.30000
H  -15.96300 18.79500 38.54400
H  -17.24100 19.93100 38.51000
H  -16.74800 19.06700 40.10100
H  -14.92400 14.85200 39.46000
H  -13.21500 13.07000 41.18600
H  -15.09900 15.31700 42.33500
H  -15.18700 13.53300 41.89000
H  -16.38000 14.64000 41.18700
H  -11.98700 12.59800 39.40700
H  -12.75100 13.66900 38.28400
H  -14.41500 11.54900 39.65100
H  -13.27600 11.24600 38.34300
H  -14.65200 12.33000 38.11200
H  -7.44900 12.00100 41.58900
H  -8.58700 12.09100 42.97000
H  -6.95400 12.73400 43.04300
H  -5.08500 17.20700 41.58200
H  -5.80900 17.02600 46.62000
H  -6.95900 18.30000 46.21400
H  -5.17500 18.46800 46.00700

