158

Mg 48.06600 24.90500 28.36800
C  48.74800 27.18500 30.98500
C  47.26500 22.71400 30.88300
C  47.56900 22.81200 26.00100
C  48.95700 27.41900 26.08900
N  47.94400 24.98400 30.68700
C  48.11100 26.03500 31.49900
C  47.80200 25.73200 32.95500
C  47.50800 24.19000 32.97900
C  47.61500 23.93100 31.41400
C  48.47800 23.26900 33.86600
C  46.61600 26.67700 33.30500
C  46.01600 26.61000 34.73100
H  46.21200 27.81300 35.70900
N  47.46600 23.02000 28.41100
C  47.13900 22.25600 29.51100
C  46.67900 20.97600 29.04200
C  46.56400 21.09800 27.65100
C  47.20300 22.33600 27.27400
C  46.27700 19.86000 30.04700
C  46.06400 20.10200 26.60200
O  46.09600 20.34700 25.39900
C  45.31000 18.82900 26.89000
N  48.18300 25.15500 26.34300
C  47.89200 24.09600 25.56500
C  48.17600 24.39500 24.08200
C  48.51900 25.93800 24.06700
C  48.54700 26.15000 25.60000
C  49.39100 23.63300 23.47300
C  47.58700 26.88100 23.26300
C  48.06700 27.20100 21.87500
N  48.80100 26.85500 28.47600
C  49.05200 27.75800 27.42900
C  49.55500 28.94800 27.93500
C  49.39700 28.78500 29.33600
C  48.91800 27.48400 29.60100
C  50.22000 30.10400 27.16800
C  49.76500 29.47200 30.55400
O  50.35500 30.47400 30.75600
C  49.26700 28.43900 31.67600
C  50.40200 28.19600 32.57000
O  51.18900 27.27400 32.47100
O  50.38600 29.13400 33.54000
C  51.19200 28.77800 34.74400
H  46.92300 21.98300 31.61900
H  47.55300 22.12600 25.15100
H  49.20900 28.26000 25.43900
H  48.65400 25.86200 33.62200
H  46.49300 23.96200 33.30500
H  49.34900 23.83800 34.19300
H  48.75300 22.31400 33.41800
H  47.87400 23.07000 34.75200
H  45.75000 26.48600 32.67300
H  47.00300 27.69600 33.27700
H  46.34400 25.68200 35.19900
H  44.93500 26.48400 34.67100
H  46.49300 18.87400 29.63500
H  45.22600 19.89000 30.33500
H  46.96300 19.86400 30.89400
H  46.06500 18.25000 27.42200
H  45.04600 18.35300 25.94600
H  44.52100 19.03000 27.61500
H  47.27900 24.29600 23.47100
H  49.56500 26.17300 23.87000
H  50.17600 24.16400 22.93400
H  48.98100 22.82700 22.86400
H  49.91300 23.20100 24.32700
H  47.33900 27.78700 23.81500
H  46.64500 26.34700 23.13900
H  49.09600 26.84500 21.81700
H  48.01100 28.25100 21.59000
H  47.47600 26.67600 21.12500
H  51.16300 30.32200 27.66900
H  49.64500 31.02400 27.27400
H  50.40400 29.89600 26.11400
H  48.44400 28.98000 32.14300
H  51.38300 29.60300 35.43100
H  52.17900 28.39100 34.49200
H  50.66000 27.98500 35.27100
Mg 1.53100 42.62300 26.41700
C  2.99800 42.63400 29.75400
C  -1.34200 41.42600 27.77300
C  0.40900 41.84400 23.30400
C  4.64300 43.36000 25.11900
N  0.98100 42.00800 28.54700
C  1.58700 42.31000 29.76400
C  0.62200 42.13200 30.93300
C  -0.66300 41.78600 30.21700
C  -0.33000 41.76300 28.71100
C  -1.36000 40.50000 30.78200
C  0.51200 43.51800 31.69000
C  0.99300 43.37900 33.12600
H  0.52100 42.20200 33.97800
N  -0.30600 41.91200 25.64000
C  -1.35900 41.40700 26.36500
C  -2.38300 40.99800 25.41500
C  -1.94700 41.14600 24.08000
C  -0.57600 41.67400 24.29200
C  -3.69700 40.49000 25.94800
C  -2.61600 40.80800 22.71800
O  -1.99200 40.80200 21.67300
C  -4.06800 40.71100 22.73400
N  2.38700 42.57200 24.48500
C  1.67800 42.37000 23.32700
C  2.62500 42.28300 22.14500
C  3.98200 42.95600 22.72600
C  3.71300 43.02400 24.22600
C  2.71600 40.81300 21.61600
C  4.28200 44.40000 22.11300
C  4.96100 44.42200 20.67200
N  3.46300 42.90300 27.21200
C  4.61100 43.24600 26.53100
C  5.66600 43.34300 27.49900
C  5.06200 43.13700 28.75000
C  3.77200 42.85900 28.58200
C  7.11600 43.59100 27.10700
C  5.40800 43.01800 30.17900
O  6.45600 43.15700 30.85900
C  3.96000 42.83400 30.88000
C  4.15100 41.59100 31.72300
O  4.17100 40.43900 31.31400
O  4.57500 41.95000 32.97500
C  5.08700 40.82700 33.83200
H  -2.36100 41.19500 28.09200
H  0.10600 41.58500 22.28700
H  5.63600 43.55400 24.70800
H  0.94900 41.31500 31.57700
H  -1.40700 42.57500 30.33400
H  -1.13500 40.46700 31.84800
H  -1.12700 39.56500 30.27400
H  -2.44600 40.59500 30.80000
H  -0.52600 43.82000 31.83100
H  1.05900 44.31400 31.18500
H  0.75600 44.30700 33.64500
H  2.08300 43.33800 33.14300
H  -4.32000 41.37500 26.07700
H  -3.58500 39.91900 26.87000
H  -4.19200 39.77700 25.28900
H  -4.45400 41.46800 23.41600
H  -4.37500 39.68600 22.94100
H  -4.37400 41.10400 21.76500
H  2.14700 42.79200 21.30700
H  4.85800 42.30900 22.68300
H  3.74400 40.56200 21.35600
H  2.22600 40.54400 20.68000
H  2.37400 40.04700 22.31200
H  4.99000 44.93400 22.74700
H  3.35400 44.96800 22.04900
H  5.01400 43.36800 20.39900
H  6.02400 44.66300 20.66900
H  4.43100 45.09700 20.00000
H  7.62200 42.73500 26.65900
H  7.58300 44.04500 27.98100
H  6.99300 44.44500 26.44100
H  3.77300 43.72900 31.47200
H  5.27200 41.23300 34.82700
H  6.03900 40.63300 33.33700
H  4.47300 39.92900 33.89600

