158

Mg 0.10200 7.78700 26.98000
C  0.95700 9.91800 29.53700
C  0.57200 5.02000 29.14200
C  0.11600 5.83500 24.24200
C  0.72000 10.59600 24.73700
N  0.90000 7.51100 29.06200
C  0.78400 8.55000 29.95200
C  0.70700 8.07000 31.37900
C  1.01200 6.53100 31.30500
C  0.79900 6.30500 29.72900
C  2.34400 6.02000 31.90500
C  -0.62700 8.36100 32.05800
C  -0.51300 8.82700 33.50400
H  0.52400 8.30100 34.48100
N  0.23800 5.68800 26.69900
C  0.30400 4.79400 27.74100
C  0.21500 3.49000 27.07600
C  0.10500 3.66100 25.66700
C  0.08000 5.12800 25.49900
C  0.27000 2.28700 27.92000
C  0.03500 2.71000 24.51600
O  -0.25200 3.03100 23.38800
C  -0.00800 1.24300 24.82900
N  0.29900 8.15700 24.75500
C  0.18000 7.17100 23.84900
C  0.32600 7.74100 22.43200
C  0.42200 9.28800 22.60500
C  0.42700 9.38600 24.14000
C  1.47500 7.16300 21.57100
C  -0.76100 10.17700 21.99300
C  -2.01900 10.39100 22.80000
N  0.62600 9.82800 27.08100
C  0.80700 10.83100 26.15100
C  1.09700 12.09900 26.76700
C  1.21800 11.82100 28.13000
C  0.85900 10.44100 28.25700
C  1.41000 13.42600 26.02500
C  1.58800 12.32100 29.43600
O  1.84900 13.45000 29.82100
C  1.43800 11.08800 30.43500
C  2.66800 10.76100 31.11400
O  3.70600 10.21200 30.71100
O  2.50800 11.14200 32.49200
C  3.81500 11.12300 33.26400
H  0.57500 4.16300 29.82000
H  -0.15400 5.32100 23.31800
H  0.71000 11.49900 24.12400
H  1.54500 8.44200 31.96900
H  0.19400 5.99600 31.78900
H  2.11800 5.32100 32.71000
H  2.95500 6.81100 32.33900
H  2.83400 5.46900 31.10200
H  -1.39700 7.59400 31.97900
H  -1.13800 9.20700 31.59900
H  -1.48800 8.75700 33.98600
H  -0.22700 9.87800 33.44400
H  -0.59500 1.62500 27.90800
H  0.24000 2.47200 28.99400
H  1.23600 1.82600 27.71400
H  0.13600 0.62300 23.94400
H  -0.98700 0.94400 25.20300
H  0.74700 0.87900 25.52500
H  -0.59700 7.51500 21.89900
H  1.36300 9.73700 22.28700
H  0.89000 6.66900 20.79600
H  2.18500 6.52100 22.09300
H  2.04700 7.90600 21.01600
H  -1.11700 9.72300 21.06800
H  -0.44100 11.14600 21.61100
H  -2.13700 9.59500 23.53400
H  -2.86600 10.28500 22.12300
H  -2.03300 11.38700 23.24400
H  1.76900 13.21300 25.01800
H  2.13800 14.04500 26.54900
H  0.46700 13.95500 25.88900
H  0.58900 11.06200 31.11800
H  4.27900 12.06900 32.98500
H  4.66400 10.47500 33.04800
H  3.65100 11.07500 34.34100
Mg -2.45600 34.31300 26.53100
C  -3.97400 32.45000 29.13500
C  -1.05800 36.24700 29.00000
C  -1.16200 36.16800 24.22200
C  -4.14800 32.33200 24.18700
N  -2.67300 34.39200 28.89700
C  -3.12700 33.43800 29.70200
C  -2.93900 33.81100 31.16400
C  -2.13600 35.14800 31.04200
C  -1.91800 35.29600 29.53200
C  -2.90600 36.39400 31.66600
C  -2.22400 32.76800 32.03100
C  -2.92400 32.36700 33.33300
H  -2.25200 32.36100 34.69100
N  -1.19700 36.00100 26.55300
C  -0.82000 36.69600 27.65500
C  -0.09300 37.83500 27.24200
C  -0.15700 37.94900 25.87900
C  -0.82800 36.70600 25.46200
C  0.64000 38.73500 28.25700
C  0.27900 39.09700 24.93700
O  -0.05300 39.07900 23.75100
C  1.03400 40.26300 25.34100
N  -2.62200 34.21800 24.42700
C  -1.96600 35.05700 23.67800
C  -2.21200 34.77000 22.18100
C  -2.95700 33.42000 22.20900
C  -3.22000 33.26100 23.69200
C  -2.98000 35.88600 21.42000
C  -2.28100 32.30000 21.49400
C  -1.53400 31.30300 22.42500
N  -3.75300 32.74800 26.59000
C  -4.34000 32.04400 25.54300
C  -5.20200 31.06800 26.13500
C  -5.11300 31.14300 27.50600
C  -4.21500 32.23200 27.73300
C  -6.17600 30.23800 25.29600
C  -5.58700 30.62300 28.79500
O  -6.39700 29.73600 29.05200
C  -4.80600 31.45900 29.91700
C  -5.83200 32.13500 30.87500
O  -6.43300 33.18500 30.65100
O  -5.91500 31.46800 32.01200
C  -6.98000 31.87900 32.99800
H  -0.46100 36.74100 29.77000
H  -0.62900 36.69700 23.42900
H  -4.54100 31.65200 23.42900
H  -3.92600 34.08600 31.53600
H  -1.20700 35.18300 31.61100
H  -3.73300 36.65500 31.00600
H  -2.15000 37.15800 31.85000
H  -3.34200 36.20000 32.64600
H  -1.31000 33.18000 32.45700
H  -2.14800 31.84700 31.45200
H  -3.15800 31.31100 33.19800
H  -3.86600 32.89900 33.46600
H  1.37800 39.42800 27.85100
H  1.14700 38.13700 29.01500
H  -0.18300 39.40500 28.50900
H  0.52200 40.95400 26.01100
H  1.32600 40.83800 24.46200
H  1.97000 39.86300 25.73200
H  -1.22300 34.55400 21.77700
H  -3.99300 33.53200 21.88800
H  -3.98600 35.56900 21.14400
H  -2.38600 36.11500 20.53600
H  -3.04500 36.78500 22.03200
H  -1.53300 32.59800 20.76000
H  -3.11700 31.70000 21.13300
H  -2.26100 30.62300 22.87000
H  -0.96800 31.77400 23.22800
H  -0.90800 30.67700 21.78800
H  -5.67700 29.75100 24.45900
H  -6.96500 30.85700 24.86900
H  -6.63000 29.47700 25.93000
H  -4.30600 30.78700 30.61500
H  -6.44100 32.39300 33.79400
H  -7.37300 30.99700 33.50400
H  -7.84100 32.40100 32.58100

