158

Mg 0.14300 7.03600 25.61900
C  0.90000 9.09400 28.44900
C  0.32500 4.37700 27.81600
C  -0.47000 5.23500 23.01200
C  0.69000 9.82800 23.63400
N  0.45700 6.80600 27.96800
C  0.70600 7.77700 28.88500
C  0.62400 7.24200 30.29500
C  0.75800 5.69500 30.00100
C  0.38500 5.60600 28.54400
C  2.20800 5.11100 30.39100
C  -0.78600 7.65200 30.89400
C  -0.85500 7.82200 32.43800
H  0.30600 7.58700 33.40900
N  -0.08300 5.05700 25.40400
C  0.10500 4.10400 26.35000
C  0.05700 2.81800 25.73100
C  -0.32900 3.01700 24.32400
C  -0.26300 4.49100 24.18800
C  0.27200 1.63900 26.60400
C  -0.62400 2.00300 23.27200
O  -0.79500 2.27700 22.11300
C  -0.86100 0.61200 23.68500
N  0.24900 7.47100 23.55100
C  -0.25600 6.54500 22.70100
C  -0.63700 7.23300 21.36900
C  -0.42900 8.67800 21.67000
C  0.20500 8.66900 23.04800
C  0.18500 6.59100 20.21200
C  -1.71000 9.65600 21.62700
C  -1.79200 10.70300 20.44800
N  0.59200 9.12200 25.93600
C  0.94600 10.10500 25.04700
C  1.44000 11.29700 25.71300
C  1.38100 10.97700 27.05200
C  0.92300 9.64300 27.14700
C  1.59800 12.68000 25.10100
C  1.61100 11.45100 28.39100
O  2.01600 12.52100 28.92100
C  1.20300 10.25400 29.28200
C  2.26600 10.08100 30.29600
O  3.23100 9.38000 30.13700
O  1.94000 10.80200 31.40200
C  2.79600 10.76300 32.56300
H  0.55000 3.57900 28.52700
H  -0.80400 4.55200 22.22700
H  0.76100 10.73900 23.03600
H  1.46200 7.64600 30.86300
H  0.13700 5.04200 30.61400
H  2.62300 4.80300 29.43100
H  2.02600 4.26600 31.05600
H  2.75100 5.87500 30.94600
H  -1.47600 6.89600 30.51800
H  -1.03000 8.61400 30.44400
H  -1.65800 7.20300 32.83800
H  -1.16200 8.84300 32.66500
H  0.92700 1.91600 27.43000
H  0.82900 0.96100 25.95600
H  -0.61900 1.14800 26.99700
H  -1.35900 0.49800 24.64800
H  0.06800 0.04200 23.72300
H  -1.46600 0.05800 22.96700
H  -1.70800 7.04000 21.30100
H  0.39100 9.01500 21.03700
H  -0.48300 6.02700 19.56100
H  0.94700 5.96600 20.67500
H  0.71900 7.30400 19.58300
H  -1.71800 10.14100 22.60300
H  -2.64000 9.08800 21.63800
H  -0.85200 10.58500 19.91000
H  -1.77100 11.66100 20.96900
H  -2.71300 10.67700 19.86600
H  2.48100 12.77200 24.46800
H  1.62000 13.46700 25.85500
H  0.76400 12.90800 24.43700
H  0.39200 10.59600 29.92500
H  3.50200 9.93200 32.55900
H  2.30300 10.83800 33.53200
H  3.48900 11.59800 32.45300
Mg 39.81200 9.98800 31.03500
C  41.83800 11.52800 33.56100
C  38.03600 8.63300 33.55200
C  38.35500 8.13000 28.74600
C  42.26500 10.95200 28.74500
N  39.93200 10.20400 33.33300
C  40.76200 10.84700 34.16300
C  40.45000 10.63000 35.69400
C  39.31000 9.55300 35.54300
C  39.05500 9.41500 34.04300
C  39.75600 8.21500 36.17100
C  39.91600 11.92600 36.45100
C  40.73500 12.23200 37.72900
H  40.05900 12.82900 38.98200
N  38.28400 8.65800 31.10200
C  37.63000 8.30300 32.26800
C  36.58000 7.40000 31.87300
C  36.67500 7.19600 30.45900
C  37.87600 7.96500 30.01800
C  35.72400 6.70900 32.88100
C  35.83200 6.31100 29.50900
O  36.17100 6.07400 28.36300
C  34.74200 5.47100 30.15900
N  40.40700 9.36600 29.05000
C  39.42700 8.83300 28.26100
C  39.73200 9.00500 26.76700
C  41.08100 9.75100 26.76900
C  41.30700 10.07000 28.24200
C  39.65200 7.66600 25.92100
C  41.31700 10.89000 25.66300
C  40.97300 12.30800 26.07700
N  41.68200 11.09300 31.10300
C  42.55600 11.31600 30.12700
C  43.64000 12.13100 30.60900
C  43.40100 12.21200 31.97800
C  42.18600 11.67300 32.21900
C  44.80400 12.57700 29.81400
C  43.92100 12.66800 33.22800
O  44.90700 13.35400 33.46000
C  42.98100 12.22400 34.25100
C  43.70900 11.27200 35.18100
O  44.41000 10.29400 34.91400
O  43.44400 11.74200 36.48500
C  44.09700 10.83200 37.53200
H  37.50400 8.18900 34.39600
H  37.74900 7.68200 27.95700
H  42.89400 11.48100 28.02600
H  41.34100 10.28000 36.21400
H  38.46100 9.85600 36.15500
H  39.02300 7.85800 36.89500
H  40.67000 8.20700 36.76400
H  39.69700 7.43600 35.41000
H  38.86300 11.90100 36.73100
H  39.96900 12.77200 35.76700
H  41.38300 13.03400 37.37400
H  41.45400 11.47400 38.03800
H  36.06300 5.70300 33.12900
H  34.67800 6.66100 32.57700
H  35.67800 7.19300 33.85700
H  35.28100 4.66000 30.64900
H  34.12000 5.03800 29.37500
H  34.06400 5.88800 30.90300
H  38.92300 9.58300 26.32000
H  41.85000 8.99800 26.59300
H  39.59800 6.72800 26.47300
H  40.51200 7.62500 25.25300
H  38.77300 7.70500 25.27700
H  40.70000 10.67400 24.79000
H  42.33700 10.92000 25.28100
H  40.67700 12.91700 25.22300
H  41.71700 12.82200 26.68500
H  40.12000 12.23200 26.75100
H  45.14000 12.00500 28.94900
H  45.58100 12.57700 30.57800
H  44.62400 13.55200 29.36200
H  42.72700 13.18100 34.70800
H  43.49900 9.92100 37.55900
H  44.19900 11.31500 38.50300
H  45.12200 10.60900 37.23500

