158

Mg -1.49400 16.99200 26.04600
C  -1.79600 15.02400 28.92600
C  -1.86400 19.82500 28.10500
C  -1.67300 18.90600 23.33100
C  -1.55900 14.18800 24.11300
N  -1.78900 17.33900 28.27800
C  -1.92400 16.32500 29.23400
C  -2.32800 16.93000 30.59800
C  -2.35100 18.48800 30.29600
C  -2.00000 18.57400 28.79300
C  -3.78900 19.24000 30.47800
C  -1.41500 16.50300 31.71200
C  -1.83000 17.04800 33.04700
H  -1.63400 16.28100 34.33200
N  -1.49900 19.10000 25.81100
C  -1.68300 20.12000 26.77600
C  -1.63600 21.36400 26.05500
C  -1.34600 21.14100 24.70000
C  -1.57300 19.65100 24.55700
C  -1.71500 22.68300 26.77800
C  -0.95700 22.11000 23.65900
O  -0.97200 21.86000 22.46900
C  -0.58200 23.47600 23.98000
N  -1.76000 16.62000 24.03500
C  -1.65300 17.59300 23.09700
C  -1.81100 17.01000 21.70800
C  -1.30800 15.51100 21.97300
C  -1.59600 15.39900 23.45300
C  -3.27500 17.04800 21.10400
C  0.18500 15.25800 21.57000
C  0.44200 15.12300 20.09500
N  -1.57800 15.03500 26.40200
C  -1.68200 14.01500 25.49000
C  -1.92000 12.79200 26.17100
C  -1.88100 13.13400 27.50600
C  -1.68600 14.54400 27.62800
C  -2.22700 11.53800 25.50300
C  -2.06500 12.51000 28.78000
O  -2.14300 11.32100 29.15300
C  -2.04500 13.77300 29.75700
C  -0.90900 13.33700 30.60800
O  0.18600 13.77300 30.46200
O  -1.39400 12.59900 31.68300
C  -0.47400 12.32100 32.79600
H  -2.05700 20.72900 28.68800
H  -1.57000 19.59600 22.49100
H  -1.53400 13.35100 23.41200
H  -3.30500 16.62200 30.97000
H  -1.62400 19.08900 30.84300
H  -3.52100 20.21600 30.88100
H  -4.61200 18.79800 31.04000
H  -4.25800 19.28900 29.49600
H  -0.41100 16.67000 31.32000
H  -1.49000 15.42900 31.88300
H  -2.87100 17.33600 32.90400
H  -1.23400 17.96000 33.07300
H  -2.12500 22.55300 27.77900
H  -2.36800 23.37800 26.25100
H  -0.72300 23.11100 26.92500
H  -1.15900 24.07000 24.69000
H  -0.29000 24.04500 23.09700
H  0.35900 23.17800 24.44100
H  -1.16600 17.58300 21.04200
H  -1.90900 14.82900 21.37200
H  -3.75800 16.07300 21.04700
H  -3.14400 17.53900 20.13900
H  -3.92300 17.72600 21.66000
H  0.56700 14.44000 22.18200
H  0.74200 16.13500 21.90000
H  1.41800 15.58400 19.94500
H  -0.32100 15.59600 19.47700
H  0.40000 14.05700 19.87100
H  -1.35000 10.89200 25.45700
H  -2.52400 11.73700 24.47300
H  -2.92000 10.91400 26.06700
H  -2.95300 13.79000 30.36000
H  0.57200 12.23000 32.50500
H  -0.86900 11.46000 33.33600
H  -0.53500 13.21200 33.42200
Mg 41.45500 41.40000 27.28300
C  40.72900 43.84000 29.73600
C  42.48000 39.26000 29.64400
C  42.63700 39.46700 24.76100
C  41.03200 44.13700 24.82500
N  41.58400 41.56000 29.35900
C  41.11200 42.55600 30.18100
C  41.12100 42.17200 31.62900
C  41.75500 40.72600 31.59800
C  42.01700 40.47600 30.14000
C  43.16100 40.66500 32.29300
C  39.64800 42.26600 32.38300
C  39.50900 43.12300 33.63500
H  39.06900 42.50500 34.94200
N  42.36400 39.67500 27.21100
C  42.63200 38.84200 28.29900
C  42.98200 37.51200 27.81800
C  43.06500 37.56400 26.40700
C  42.67100 38.98500 26.08300
C  43.26500 36.34400 28.73200
C  43.51300 36.50700 25.36200
O  43.61500 36.79700 24.16900
C  43.87100 34.98900 25.80700
N  41.84700 41.79300 25.11800
C  42.26700 40.75100 24.34000
C  41.98700 41.06400 22.87300
C  41.22900 42.45400 22.92400
C  41.36400 42.81200 24.39500
C  43.22200 40.99200 21.98300
C  39.75300 42.30100 22.44300
C  38.63800 42.32100 23.45500
N  40.89400 43.46000 27.23700
C  40.82200 44.40800 26.21400
C  40.40100 45.69400 26.69500
C  40.33500 45.51300 28.05200
C  40.70700 44.13800 28.35400
C  40.19900 46.98500 25.91200
C  40.14400 46.19500 29.32100
O  39.83700 47.34700 29.58600
C  40.36800 45.11800 30.42500
C  41.49200 45.60800 31.30000
O  42.60900 45.76200 30.98000
O  41.00300 46.03300 32.55300
C  41.87500 46.98600 33.28000
H  42.68300 38.52200 30.42300
H  42.73200 38.81900 23.88800
H  40.73800 44.86600 24.06700
H  41.83300 42.77000 32.19900
H  41.15300 39.91500 32.00700
H  43.05100 40.38600 33.34100
H  43.52000 41.69100 32.37800
H  43.92400 40.03000 31.84300
H  39.37400 41.23600 32.61000
H  38.94400 42.53000 31.59400
H  38.75600 43.86200 33.36000
H  40.43000 43.69800 33.72900
H  43.14500 36.54100 29.79800
H  44.33300 36.18200 28.58400
H  42.60500 35.53100 28.42700
H  42.96500 34.45000 26.08300
H  44.61100 35.03500 26.60600
H  44.30300 34.44400 24.96700
H  41.33000 40.34300 22.38500
H  41.76200 43.15700 22.28300
H  43.99600 40.63900 22.66300
H  43.47600 41.95900 21.54900
H  42.98300 40.31000 21.16600
H  39.76400 41.39900 21.83000
H  39.68700 43.24100 21.89500
H  37.87100 41.57200 23.25500
H  38.25200 43.34000 23.41400
H  38.92800 42.18900 24.49700
H  40.26100 47.78300 26.65200
H  39.19400 46.80400 25.53200
H  40.91500 47.20300 25.12000
H  39.49000 45.00700 31.06100
H  41.91700 47.94700 32.76700
H  42.83900 46.54200 33.52900
H  41.45300 47.23300 34.25400

