158

Mg 1.34300 -0.74900 43.87100
C  4.76300 -0.18800 43.23400
C  0.65100 2.13900 42.25100
C  -1.70700 -1.74100 43.57700
C  2.37200 -4.04900 44.88800
N  2.65400 0.71400 42.91000
C  4.02800 0.81500 42.78700
C  4.39600 2.12500 42.02600
C  3.07400 2.85100 41.81900
C  1.99900 1.84500 42.38900
C  2.95100 4.14000 42.68700
C  5.35300 2.00800 40.77700
C  5.09000 0.88500 39.74900
H  5.41700 1.26400 38.31200
N  -0.33000 0.12500 43.19100
C  -0.42700 1.28500 42.56600
C  -1.79900 1.63800 42.39800
C  -2.55200 0.52500 42.87500
C  -1.48500 -0.42900 43.21000
C  -2.34400 2.91300 41.78800
C  -4.04100 0.46500 43.09100
O  -4.72700 1.46800 43.04400
C  -4.94000 -0.72900 43.61800
N  0.55200 -2.65200 43.88100
C  -0.79200 -2.68100 43.92500
C  -1.24600 -4.08800 44.34800
C  -0.03900 -4.70300 45.07500
C  1.00600 -3.78300 44.52100
C  -2.59600 -4.19900 45.23100
C  0.14500 -6.24700 44.92100
C  0.37200 -7.05600 46.21200
N  3.19100 -1.86900 44.24300
C  3.42000 -3.10200 44.72500
C  4.81700 -3.28400 44.99800
C  5.36000 -2.13500 44.40000
C  4.34500 -1.32400 43.89100
C  5.55700 -4.45600 45.61300
C  6.63300 -1.53900 44.07500
O  7.79500 -1.90100 44.29300
C  6.28100 -0.28000 43.25800
C  7.03400 0.89300 43.88500
O  6.57100 1.50300 44.82600
O  8.27800 1.05100 43.41800
C  9.19100 1.85900 44.26000
H  0.35300 3.09300 41.80900
H  -2.77600 -1.95300 43.64500
H  2.64300 -4.93900 45.46100
H  5.03500 2.57000 42.78900
H  3.05800 2.98700 40.73800
H  2.16500 4.03000 43.43400
H  2.63900 4.98100 42.06900
H  3.90900 4.39900 43.13800
H  6.36700 1.84200 41.14000
H  5.31200 3.02500 40.38900
H  4.09000 0.45800 39.83200
H  5.63500 -0.01200 40.04300
H  -3.36900 2.73300 41.46400
H  -1.70800 3.24000 40.96500
H  -2.63800 3.70600 42.47500
H  -4.80700 -1.57100 42.93800
H  -5.98800 -0.44600 43.51600
H  -4.55400 -0.87800 44.62600
H  -1.47500 -4.66100 43.45000
H  -0.14000 -4.31700 46.08900
H  -2.53500 -3.32700 45.88300
H  -2.38200 -5.07300 45.84500
H  -3.59700 -4.22700 44.80100
H  1.06800 -6.49100 44.39400
H  -0.65800 -6.73300 44.36600
H  0.41000 -6.39600 47.07900
H  1.20300 -7.76000 46.25500
H  -0.52600 -7.66000 46.34100
H  5.32400 -5.31800 44.98800
H  5.04800 -4.59600 46.56700
H  6.63500 -4.30200 45.63800
H  6.68400 -0.35500 42.24800
H  9.86800 2.49600 43.69000
H  9.71800 1.09900 44.83600
H  8.74200 2.60400 44.91700
Mg 46.45400 15.63100 27.46300
C  44.53100 15.47600 30.43900
C  48.64300 17.66800 29.05800
C  48.22200 16.03800 24.52900
C  43.93700 14.00300 25.73600
N  46.56200 16.46600 29.50300
C  45.69100 16.31500 30.59600
C  46.24000 16.95600 31.83300
C  47.48400 17.82300 31.30600
C  47.58000 17.28800 29.89300
C  47.29200 19.31700 31.25400
C  46.56200 15.91900 32.97200
C  46.04200 16.27400 34.37000
H  46.97900 15.96900 35.53300
N  48.32200 16.48900 26.94700
C  49.01000 17.40600 27.73800
C  50.17200 17.80900 27.04300
C  50.11500 17.31500 25.76100
C  48.88600 16.49800 25.71000
C  51.29500 18.68500 27.67000
C  51.04000 17.42400 24.47200
O  50.90000 16.72600 23.51200
C  52.26800 18.26400 24.50200
N  46.14100 15.09600 25.37100
C  46.98900 15.32000 24.32400
C  46.45900 14.71900 23.01500
C  45.24200 13.84900 23.51800
C  45.12900 14.24000 24.96700
C  46.18000 15.70900 21.95300
C  45.40100 12.31300 23.29500
C  46.56100 11.68700 24.11300
N  44.60600 14.97300 27.92600
C  43.70300 14.28000 27.11100
C  42.53400 13.86300 27.92100
C  42.88500 14.37400 29.20700
C  44.11900 15.01000 29.15900
C  41.27600 13.28500 27.45900
C  42.29600 14.58100 30.49600
O  41.17000 14.33900 30.85100
C  43.36000 15.22900 31.40700
C  42.85700 16.51700 32.03500
O  42.89500 17.62400 31.46900
O  42.35000 16.37200 33.32700
C  42.36200 17.57700 34.11600
H  49.27900 18.46200 29.45500
H  48.69500 16.49600 23.65800
H  43.17500 13.32700 25.34300
H  45.51200 17.60800 32.31600
H  48.35200 17.64600 31.94100
H  46.39100 19.57300 31.81200
H  47.20200 19.68900 30.23300
H  48.22600 19.70900 31.65600
H  47.64100 15.77100 33.00500
H  46.05300 14.98400 32.73700
H  45.13100 15.75700 34.66900
H  45.77100 17.32100 34.50900
H  51.03400 19.68400 28.01800
H  52.16700 18.65900 27.01700
H  51.60400 18.12600 28.55400
H  52.82800 18.25700 23.56700
H  52.81900 17.72200 25.27000
H  52.00900 19.27600 24.81400
H  47.27400 14.06200 22.70900
H  44.37400 14.16100 22.93800
H  45.98800 16.67700 22.41500
H  45.31100 15.45000 21.35000
H  46.99700 15.76300 21.23300
H  45.53400 12.20900 22.21800
H  44.50800 11.75200 23.57000
H  47.35100 11.38500 23.42600
H  46.14800 10.95700 24.80900
H  46.99000 12.48700 24.71600
H  41.27100 13.53800 26.39900
H  40.55300 13.87400 28.02500
H  41.11700 12.23000 27.68000
H  43.59800 14.60300 32.26700
H  41.71400 18.34800 33.69800
H  43.36900 17.98700 34.18600
H  41.94600 17.28700 35.08100

