158

Mg 10.13600 48.59200 26.88400
C  8.43100 48.05400 29.98000
C  12.83100 49.81000 28.59800
C  11.59000 48.98400 24.01300
C  7.20800 47.74300 25.19200
N  10.48000 48.94400 29.09300
C  9.67300 48.67600 30.16600
C  10.36800 48.97500 31.45600
C  11.57200 49.97900 30.93900
C  11.67300 49.56100 29.44300
C  11.24300 51.50400 31.10000
C  10.94900 47.67700 32.21600
C  10.16300 47.39700 33.56100
H  10.82700 48.19000 34.73700
N  11.93700 49.20600 26.36200
C  12.92300 49.69700 27.23900
C  14.07900 49.96200 26.48600
C  13.79800 49.64800 25.13300
C  12.38500 49.24000 25.13700
C  15.39300 50.56600 27.09200
C  14.73700 49.61800 23.96200
O  14.41600 49.23700 22.81200
C  16.23300 49.73000 24.18800
N  9.37900 48.64900 24.86900
C  10.24400 48.68000 23.84000
C  9.60300 48.39600 22.48000
C  8.17100 47.92100 22.91000
C  8.25500 48.09800 24.41400
C  9.57800 49.45200 21.45900
C  7.92500 46.42600 22.66000
C  8.09300 46.08300 21.19000
N  8.19300 48.14800 27.41300
C  7.11500 47.75100 26.57700
C  5.99700 47.46400 27.41200
C  6.44800 47.51800 28.75700
C  7.83200 47.87300 28.69900
C  4.63100 47.27900 26.91500
C  6.07700 47.35700 30.11400
O  5.01200 46.97700 30.54200
C  7.37300 47.64300 30.95900
C  7.61900 46.33200 31.68200
O  8.30700 45.40400 31.25900
O  6.96400 46.32900 32.93700
C  6.94400 45.04900 33.58600
H  13.74200 50.10700 29.12100
H  12.00700 49.01000 23.00400
H  6.28500 47.46200 24.68200
H  9.65700 49.45600 32.12800
H  12.46100 49.72200 31.51600
H  12.17000 52.04600 31.28900
H  10.48800 51.63100 31.87600
H  10.84500 51.90000 30.16600
H  11.97000 47.75000 32.58900
H  11.00600 46.78300 31.59500
H  10.07700 46.32500 33.73700
H  9.17300 47.81500 33.37700
H  15.69000 51.42700 26.49300
H  16.17800 49.81000 27.06300
H  15.27300 50.97500 28.09500
H  16.50600 50.71400 24.56800
H  16.72400 49.67900 23.21600
H  16.52900 48.88600 24.81100
H  10.27200 47.65200 22.04900
H  7.34700 48.53600 22.54700
H  8.64000 49.98100 21.28800
H  10.09900 49.09100 20.57300
H  10.08900 50.30600 21.90500
H  6.90700 46.20800 22.98000
H  8.55700 45.82000 23.31000
H  7.27100 45.61500 20.64900
H  9.00800 45.49400 21.13400
H  8.42800 46.94700 20.61600
H  4.14100 48.20700 26.62100
H  4.05300 46.78400 27.69500
H  4.67500 46.49600 26.15800
H  7.20800 48.45300 31.66900
H  7.89300 44.53100 33.45200
H  6.08200 44.52400 33.17300
H  6.76700 45.09400 34.66100
Mg -12.12300 16.78700 40.49200
C  -8.89300 15.47600 40.13000
C  -10.70200 19.90200 40.22600
C  -15.19600 18.03200 40.21000
C  -13.38900 13.55600 40.53600
N  -10.04500 17.65700 40.08300
C  -8.90800 16.90000 39.99700
C  -7.59400 17.80000 40.00200
C  -8.18800 19.28100 40.14300
C  -9.71200 18.96100 40.18800
C  -7.73800 20.20600 41.32800
C  -6.76800 17.69900 38.67100
C  -5.36500 17.08700 38.73400
H  -4.80700 15.73200 38.17200
N  -12.85600 18.74400 40.11600
C  -12.11400 19.84900 40.05800
C  -13.08800 20.95100 39.82700
C  -14.37400 20.42100 39.78400
C  -14.23200 18.99800 40.01900
C  -12.54500 22.34000 39.67000
C  -15.57400 21.21400 39.56000
O  -15.51600 22.43800 39.34800
C  -16.95400 20.56300 39.47600
N  -14.01500 15.87200 40.24900
C  -15.14200 16.60200 40.31100
C  -16.40500 15.74900 40.42700
C  -15.86200 14.34000 40.26500
C  -14.27400 14.58100 40.51800
C  -17.13100 15.99700 41.81800
C  -16.08200 13.60000 38.84600
C  -17.51100 13.31800 38.51300
N  -11.38000 14.90600 40.31300
C  -11.98800 13.66700 40.50600
C  -11.06500 12.61500 40.48700
C  -9.79000 13.22900 40.26300
C  -10.04700 14.65900 40.22700
C  -11.47100 11.19500 40.62800
C  -8.35200 13.08600 40.19300
O  -7.67400 12.08000 40.34800
C  -7.74700 14.49000 40.14300
C  -6.82000 14.53100 41.26400
O  -7.09900 14.99800 42.34000
O  -5.55100 14.18000 40.89000
C  -4.57300 14.35500 41.96300
H  -10.23500 20.88300 40.12100
H  -16.23300 18.36500 40.13800
H  -13.80200 12.54500 40.55600
H  -6.99400 17.51000 40.86400
H  -8.10000 19.88400 39.24000
H  -8.60100 20.45500 41.94600
H  -7.40000 21.11900 40.83800
H  -6.95800 19.67900 41.87800
H  -6.74800 18.61700 38.08300
H  -7.29200 17.05300 37.96700
H  -5.11500 17.15500 39.79300
H  -4.63000 17.75800 38.29000
H  -13.08800 22.92200 38.92500
H  -11.53100 22.36200 39.26900
H  -12.49400 22.93700 40.58000
H  -16.80800 19.75000 38.76400
H  -17.73900 21.25300 39.17000
H  -17.20400 20.24700 40.48900
H  -17.06800 16.04200 39.61200
H  -16.18800 13.63700 41.03200
H  -18.05400 16.57500 41.86300
H  -16.41300 16.29000 42.58300
H  -17.55700 15.02800 42.08100
H  -15.39100 12.78000 38.65100
H  -15.68600 14.36500 38.17700
H  -17.69900 12.24500 38.49000
H  -17.82900 13.60100 37.50900
H  -18.18500 13.81100 39.21400
H  -11.84800 10.76200 39.70100
H  -12.11100 10.91400 41.46400
H  -10.46500 10.79300 40.75200
H  -7.14500 14.60000 39.24000
H  -4.40200 15.43000 42.02400
H  -3.58100 13.99200 41.69400
H  -4.83300 13.98500 42.95400

