158

Mg 49.62700 45.45500 43.76000
C  46.47400 46.03700 42.52700
C  49.70200 42.50500 41.91700
C  52.91600 45.08800 44.36200
C  49.64500 48.58900 45.24900
N  48.20800 44.46100 42.32800
C  46.98000 44.84600 42.00100
C  46.25400 43.83000 41.06800
C  47.22900 42.56700 41.17000
C  48.50900 43.21300 41.78100
C  46.74500 41.36000 42.00900
C  45.94100 44.37800 39.63200
C  44.45500 44.45000 39.23600
H  44.08700 43.51200 38.07700
N  51.12100 43.90100 43.36600
C  50.84400 42.81300 42.62300
C  51.99800 41.95300 42.71500
C  53.02300 42.71500 43.43700
C  52.39300 43.96400 43.75700
C  52.20200 40.63100 41.90200
C  54.24500 42.11000 43.87600
O  54.71900 41.05900 43.45900
C  55.21800 42.77500 44.90200
N  51.09100 46.73100 44.53600
C  52.34000 46.33700 44.79700
C  53.17600 47.36400 45.54500
C  52.07800 48.38500 45.98300
C  50.85600 47.89200 45.19800
C  54.17100 46.87400 46.69600
C  52.52100 49.80000 45.77600
C  52.70000 50.60700 47.06100
N  48.34800 47.02800 43.92100
C  48.43200 48.20600 44.61300
C  47.25600 48.96400 44.45500
C  46.50700 48.13300 43.57200
C  47.18500 46.98900 43.30900
C  46.84500 50.34400 45.03300
C  45.30400 48.08900 42.84400
O  44.42600 48.98400 42.73900
C  45.17700 46.71800 42.15000
C  43.99200 46.13900 42.76900
O  44.00100 45.57600 43.82700
O  42.83300 46.45000 42.09900
C  41.59700 45.97100 42.54500
H  49.77000 41.46700 41.58700
H  53.98900 45.21300 44.52400
H  49.59200 49.51400 45.82700
H  45.31000 43.80700 41.61200
H  47.47900 42.17000 40.18600
H  45.76400 41.49000 42.46600
H  47.43900 41.11000 42.81200
H  46.60700 40.46900 41.39600
H  46.56000 43.81900 38.93000
H  46.26200 45.42000 39.62900
H  44.14300 45.47500 39.03600
H  43.82700 44.04100 40.02800
H  52.93800 40.73400 41.10500
H  51.34100 40.14500 41.44200
H  52.64000 39.87700 42.55700
H  54.76200 42.46100 45.84200
H  55.49500 43.82900 44.91600
H  56.21600 42.33600 44.90000
H  53.76600 47.84100 44.76200
H  51.73300 48.21600 47.00300
H  53.94300 47.35100 47.64900
H  55.17700 47.20600 46.44100
H  54.24400 45.78700 46.72800
H  51.81200 50.42600 45.23400
H  53.49400 49.81300 45.28500
H  52.03600 51.46600 46.96900
H  53.74800 50.87900 46.93900
H  52.64100 50.05700 48.00100
H  45.78900 50.45300 45.28100
H  47.10900 51.02100 44.22100
H  47.53600 50.58600 45.84000
H  45.11300 46.97600 41.09300
H  41.67800 44.91200 42.78900
H  40.87400 46.14500 41.74700
H  41.31000 46.47500 43.46700
Mg 30.53300 58.82100 38.88300
C  27.92300 56.72100 37.60700
C  32.63300 56.26900 38.01400
C  33.01000 61.02000 39.10800
C  28.13100 61.42000 38.96400
N  30.28200 56.74500 37.70700
C  29.15600 56.13500 37.40400
C  29.41100 54.74900 36.81700
C  31.02700 54.60400 37.04900
C  31.32100 55.89300 37.77200
C  31.42500 53.35000 37.83100
C  29.00300 54.54600 35.36200
C  29.31700 55.66800 34.32200
H  28.31600 56.18300 33.26500
N  32.60900 58.59000 38.74500
C  33.24400 57.42500 38.36000
C  34.67900 57.64000 38.51100
C  34.79800 59.07900 38.88800
C  33.43000 59.65000 38.87600
C  35.76000 56.62200 38.27700
C  36.00800 59.79800 39.29500
O  37.03900 59.23500 39.12900
C  36.06400 61.12800 39.80100
N  30.52300 60.92400 39.12500
C  31.69300 61.54100 39.22800
C  31.48800 63.03600 39.56900
C  29.92000 63.20600 39.23400
C  29.45900 61.77500 39.17000
C  31.89700 63.47600 41.03200
C  29.68800 64.07700 37.92600
C  29.82600 65.62900 37.81500
N  28.42300 59.04700 38.54100
C  27.63200 60.13700 38.68300
C  26.25400 59.81300 38.39400
C  26.30900 58.48000 37.97000
C  27.67300 58.08400 38.01100
C  25.04400 60.75600 38.40000
C  25.58600 57.34500 37.48000
O  24.39400 57.17000 37.30700
C  26.55400 56.16100 37.31500
C  26.07400 54.91400 38.07700
O  26.24300 54.69400 39.28000
O  25.25000 54.14400 37.24100
C  24.49100 53.07700 37.96100
H  33.35800 55.48300 37.79600
H  33.73600 61.83200 39.18700
H  27.43500 62.26100 38.99500
H  28.79300 54.05100 37.38200
H  31.64500 54.55700 36.15200
H  31.70400 53.63700 38.84500
H  32.18700 52.72900 37.36100
H  30.65400 52.58000 37.87000
H  27.92700 54.37400 35.32200
H  29.56400 53.66800 35.04100
H  30.23200 55.36600 33.81300
H  29.61200 56.59900 34.80700
H  36.41600 56.63500 39.14700
H  36.20800 56.66400 37.28500
H  35.29100 55.63900 38.32500
H  37.08600 61.25700 40.15700
H  35.42000 61.24600 40.67200
H  35.80200 61.79500 38.97900
H  32.07600 63.69800 38.93300
H  29.42300 63.68100 40.08000
H  32.76800 64.12400 40.94100
H  32.25500 62.59300 41.56100
H  31.20500 63.95100 41.72700
H  28.60900 63.97500 37.81100
H  30.20000 63.63900 37.06900
H  30.26300 66.02400 38.73200
H  28.87500 66.09500 37.55800
H  30.53200 65.86300 37.01800
H  24.16900 60.10600 38.41900
H  24.91900 61.42100 37.54500
H  25.10500 61.38100 39.29100
H  26.61400 56.02700 36.23400
H  24.03000 53.32200 38.91700
H  25.13500 52.21900 38.15300
H  23.69000 52.83600 37.26200

