158

Mg -1.56700 17.96700 26.39400
C  -2.33400 15.76500 29.12800
C  -2.23800 20.64300 28.49800
C  -1.46200 20.02400 23.67300
C  -1.68500 15.22900 24.26100
N  -2.12500 18.19800 28.59900
C  -2.21000 17.13300 29.47800
C  -2.37900 17.72000 30.92700
C  -2.61300 19.22100 30.68900
C  -2.34200 19.38500 29.18700
C  -4.14600 19.61800 30.98300
C  -1.32100 17.35900 32.01500
C  -1.44000 18.11100 33.33200
H  -0.99900 17.34000 34.60600
N  -1.68400 19.98600 26.10700
C  -1.99100 20.91500 27.10800
C  -2.01900 22.26300 26.51100
C  -1.79500 22.09300 25.08500
C  -1.58300 20.66700 24.90700
C  -2.39500 23.53100 27.25700
C  -1.82000 23.19700 23.93300
O  -1.62200 22.87800 22.75700
C  -2.14000 24.57700 24.25900
N  -1.56200 17.64800 24.29100
C  -1.34200 18.65500 23.37300
C  -1.29200 18.15600 21.92100
C  -1.18100 16.62400 22.18200
C  -1.50200 16.43400 23.65300
C  -2.56400 18.48400 21.06100
C  0.20000 16.05200 21.79100
C  1.51200 16.76000 22.25000
N  -1.97100 15.91800 26.56100
C  -1.92000 14.91200 25.60700
C  -2.28000 13.60500 26.23300
C  -2.47300 13.90000 27.61300
C  -2.27500 15.32600 27.74800
C  -2.33900 12.33200 25.48200
C  -2.69700 13.26900 28.83600
O  -2.81500 12.06300 29.12800
C  -2.51200 14.50200 29.98400
C  -1.25300 14.17800 30.73900
O  -0.19500 14.22600 30.33800
O  -1.66300 13.55400 31.88300
C  -0.67500 12.87800 32.68200
H  -2.45800 21.54200 29.07700
H  -1.32600 20.62600 22.77200
H  -1.70200 14.32100 23.65300
H  -3.26800 17.16800 31.23200
H  -1.94000 19.80200 31.31800
H  -4.75300 18.72600 31.13900
H  -4.56200 20.13600 30.11900
H  -4.18400 20.33000 31.80800
H  -0.37100 17.58400 31.53000
H  -1.40800 16.30100 32.26400
H  -2.50500 18.31100 33.44800
H  -0.90300 19.04300 33.15500
H  -3.35400 23.91300 26.90700
H  -1.64800 24.30600 27.08500
H  -2.48800 23.33900 28.32600
H  -3.19500 24.63100 24.52900
H  -1.87600 25.15500 23.37300
H  -1.47900 24.93400 25.04900
H  -0.38000 18.47300 21.41500
H  -2.01700 16.17100 21.64900
H  -3.29800 17.68300 20.97300
H  -2.27600 18.74400 20.04200
H  -3.05500 19.37100 21.46100
H  0.18300 16.03400 20.70100
H  0.20900 14.99900 22.07400
H  1.53800 17.71200 22.78000
H  2.15900 16.92700 21.38900
H  2.03200 15.99800 22.83100
H  -2.80100 12.54800 24.51800
H  -2.98200 11.69200 26.08700
H  -1.33400 11.91000 25.49700
H  -3.39700 14.46400 30.61900
H  0.13200 12.53300 32.03500
H  -1.15500 11.96900 33.04300
H  -0.29600 13.51200 33.48400
Mg 47.50200 34.50900 26.56200
C  45.72100 33.47100 29.37900
C  48.33900 37.34300 28.25200
C  48.89300 35.60800 23.74400
C  46.30400 31.70000 24.87200
N  47.08100 35.20500 28.59100
C  46.47600 34.61700 29.62800
C  46.73200 35.34700 30.91600
C  47.22200 36.76900 30.45800
C  47.57700 36.43300 28.98800
C  46.05700 37.79600 30.51700
C  47.84000 34.62600 31.77200
C  47.52700 34.39300 33.25600
H  46.57000 35.42200 33.86200
N  48.44300 36.14700 26.05600
C  48.75500 37.21500 26.91500
C  49.51800 38.15900 26.21100
C  49.72200 37.68800 24.90800
C  48.99000 36.42700 24.84300
C  50.03900 39.40900 26.90000
C  50.53000 38.30300 23.75300
O  50.67400 37.64600 22.74800
C  51.20600 39.65000 23.88000
N  47.43900 33.85200 24.59500
C  48.24000 34.43300 23.68200
C  48.18100 33.65400 22.32500
C  47.64000 32.24500 22.85800
C  46.96500 32.64100 24.15800
C  47.32000 34.44400 21.21700
C  48.73300 31.18000 23.14300
C  48.28800 29.73100 22.84600
N  46.27700 32.83000 26.96200
C  45.91800 31.75300 26.19900
C  45.09100 30.89300 26.99600
C  44.96800 31.54200 28.20700
C  45.70900 32.71700 28.15500
C  44.52400 29.57400 26.60400
C  44.41400 31.38200 29.51900
O  43.76100 30.43600 29.98100
C  44.75700 32.66500 30.27100
C  45.20300 32.32900 31.63900
O  46.21900 31.74300 31.93600
O  44.18900 32.60900 32.54900
C  44.14400 31.77200 33.72100
H  48.54800 38.23800 28.84200
H  49.29900 35.80000 22.74900
H  45.92500 30.88400 24.25300
H  45.82100 35.40600 31.51100
H  48.05600 37.18200 31.02600
H  45.47200 37.90200 29.60400
H  46.37600 38.78100 30.85800
H  45.37200 37.44700 31.29100
H  48.80800 35.11800 31.67200
H  47.96300 33.60700 31.40500
H  48.52200 34.40400 33.70000
H  47.20200 33.35200 33.28700
H  51.12400 39.36200 27.00400
H  49.61900 39.45500 27.90500
H  49.76400 40.33600 26.39600
H  52.00600 39.56500 24.61500
H  50.49800 40.42400 24.17700
H  51.65400 39.82800 22.90300
H  49.20800 33.59400 21.96400
H  46.82900 31.78500 22.29300
H  48.12600 34.81500 20.58500
H  46.66600 35.24200 21.56900
H  46.65900 33.75900 20.68600
H  48.94400 31.26200 24.20900
H  49.64500 31.46800 22.61900
H  48.51900 29.03700 23.65400
H  48.70700 29.43000 21.88700
H  47.22600 29.75300 22.59900
H  44.34200 29.47700 25.53300
H  43.54600 29.39300 27.05000
H  45.22800 28.82200 26.95900
H  43.80000 33.18200 30.19500
H  43.36700 31.02600 33.55600
H  43.86900 32.37300 34.58700
H  45.09900 31.33900 34.02000

