158

Mg 17.11800 -1.52100 27.75000
C  16.21200 0.90900 30.15400
C  18.73200 -3.21000 30.27100
C  18.71800 -3.38200 25.39000
C  15.91000 0.56800 25.33000
N  17.38000 -1.11900 29.96400
C  16.75600 -0.20200 30.71600
C  17.09700 -0.40100 32.18700
C  18.25700 -1.43300 32.10500
C  18.11700 -2.00300 30.68000
C  19.68100 -0.91800 32.50200
C  15.85200 -0.90300 33.00900
C  15.86100 -0.63100 34.53200
H  17.03700 0.23800 35.11200
N  18.35800 -3.13100 27.81600
C  18.86700 -3.72100 28.94300
C  19.61400 -4.90700 28.57600
C  19.80000 -4.88400 27.21600
C  18.91200 -3.84000 26.71400
C  20.17700 -5.89600 29.58000
C  20.63200 -5.77500 26.34700
O  20.67100 -5.75700 25.12900
C  21.40400 -6.94200 26.97300
N  17.40800 -1.29500 25.68400
C  18.00500 -2.29500 24.87700
C  17.85600 -1.97100 23.38400
C  16.95500 -0.66300 23.32600
C  16.74200 -0.44300 24.83500
C  19.23800 -1.74200 22.74000
C  15.55700 -0.78500 22.60100
C  15.42100 0.29400 21.56600
N  16.17000 0.35600 27.68000
C  15.53200 0.96200 26.65400
C  14.76100 2.09400 27.02100
C  15.14500 2.16600 28.40800
C  15.96500 1.08500 28.75300
C  13.94500 3.01200 26.16000
C  14.90500 2.92000 29.63200
O  14.24000 3.96100 29.80700
C  15.56500 2.09700 30.81500
C  16.52300 2.91900 31.65700
O  17.59100 3.31600 31.23200
O  15.98500 3.24400 32.90800
C  16.62700 4.32600 33.69900
H  19.26200 -3.69200 31.09500
H  19.05600 -3.94000 24.51400
H  15.42200 1.18200 24.57100
H  17.54700 0.50100 32.60100
H  17.93100 -2.20700 32.80000
H  20.06600 -1.35800 33.42200
H  19.69100 0.16200 32.64700
H  20.36000 -1.20000 31.69600
H  15.66100 -1.94900 32.76900
H  15.01100 -0.33900 32.60500
H  15.98600 -1.59700 35.02000
H  14.93400 -0.15600 34.85600
H  19.89000 -5.60900 30.59200
H  21.25300 -6.00800 29.45300
H  19.67100 -6.85300 29.45300
H  22.12300 -6.49600 27.66000
H  22.15700 -7.38900 26.32400
H  20.77900 -7.69100 27.46200
H  17.47200 -2.87300 22.90800
H  17.68400 0.08400 23.01100
H  19.68300 -0.76100 22.90600
H  19.05800 -1.87100 21.67200
H  20.00100 -2.48200 22.98400
H  14.69700 -0.70300 23.26600
H  15.42600 -1.78900 22.19500
H  14.63900 0.99600 21.85400
H  15.16500 -0.25400 20.65900
H  16.25500 0.93400 21.27600
H  12.90200 2.69700 26.13400
H  14.24100 2.93400 25.11400
H  14.12900 4.06000 26.39800
H  14.74600 1.75200 31.44700
H  17.64900 3.99900 33.89100
H  16.34200 4.40100 34.74900
H  16.61700 5.31300 33.23600
Mg -11.65800 38.40600 42.85300
C  -9.61900 35.80300 41.73900
C  -9.46100 40.60400 41.43600
C  -13.82000 40.99600 43.56300
C  -14.28700 36.11500 43.41300
N  -9.82800 38.11800 41.46900
C  -9.14100 36.96800 41.24800
C  -7.88500 37.18900 40.49100
C  -7.78400 38.77100 40.64700
C  -9.09500 39.20600 41.20300
C  -6.55600 39.31600 41.33400
C  -8.01300 36.80100 38.92900
C  -7.11600 35.65100 38.48600
H  -6.03000 35.82100 37.39400
N  -11.67500 40.53500 42.60400
C  -10.63600 41.21800 42.01500
C  -10.89200 42.64600 42.23200
C  -12.13000 42.84300 42.84900
C  -12.56800 41.43500 43.03200
C  -10.10100 43.74800 41.67100
C  -12.78600 44.15800 43.27000
O  -12.24500 45.25700 43.09400
C  -14.00300 44.13300 44.01200
N  -13.85200 38.49600 43.38000
C  -14.43800 39.74300 43.62300
C  -15.91700 39.57800 44.03600
C  -16.09400 37.95100 43.99200
C  -14.68000 37.45800 43.50800
C  -16.32200 40.04800 45.44200
C  -17.22500 37.57900 42.98800
C  -18.43600 36.92100 43.56900
N  -11.91200 36.34200 42.65700
C  -13.02000 35.55700 42.98300
C  -12.67500 34.20500 42.64200
C  -11.31100 34.27000 42.35100
C  -10.93800 35.59600 42.24900
C  -13.56700 33.05200 42.77100
C  -10.14900 33.44000 41.85500
O  -10.08400 32.27600 41.67400
C  -9.03700 34.44700 41.39800
C  -7.86600 34.17400 42.23400
O  -7.72800 34.42300 43.42400
O  -7.04000 33.33700 41.58900
C  -5.99000 32.60300 42.30500
H  -8.64200 41.27000 41.15700
H  -14.61400 41.69700 43.82800
H  -15.12900 35.45200 43.62200
H  -7.04900 36.71600 41.00500
H  -7.72300 39.19800 39.64600
H  -5.88900 39.91700 40.71600
H  -6.08300 38.47400 41.83900
H  -6.86800 39.95100 42.16400
H  -7.72800 37.69300 38.37000
H  -9.05800 36.58100 38.71500
H  -7.87800 34.95300 38.14000
H  -6.57200 35.33400 39.37600
H  -10.85900 44.20700 41.03600
H  -9.31300 43.46600 40.97200
H  -9.75100 44.51700 42.35900
H  -13.96400 43.46700 44.87400
H  -14.72300 43.82700 43.25400
H  -14.32500 45.14200 44.27100
H  -16.53200 40.16500 43.35300
H  -16.26800 37.47400 44.95600
H  -16.81800 39.41000 46.17400
H  -16.94500 40.93700 45.33900
H  -15.41200 40.33700 45.96700
H  -16.90000 36.89400 42.20600
H  -17.62500 38.50800 42.58300
H  -18.34200 35.83900 43.66000
H  -19.26600 37.15400 42.90200
H  -18.61100 37.34700 44.55700
H  -13.34400 32.54900 43.71200
H  -13.45700 32.30500 41.98500
H  -14.60300 33.38400 42.69600
H  -8.87600 34.33100 40.32600
H  -5.26100 33.25400 42.78700
H  -5.36200 32.24100 41.49100
H  -6.40600 31.91300 43.03900

