158

Mg 17.59900 -1.76300 27.30800
C  16.26800 0.34300 29.78000
C  19.30400 -3.52100 29.63500
C  19.03000 -3.48400 24.79400
C  15.87500 0.27100 24.94200
N  17.91100 -1.40700 29.43800
C  17.16100 -0.61400 30.26800
C  17.40800 -1.01600 31.72600
C  18.62200 -2.09100 31.65400
C  18.63100 -2.38300 30.11600
C  20.02900 -1.66300 32.22800
C  16.07700 -1.54800 32.48500
C  15.84600 -0.88400 33.85200
H  17.02000 -0.14000 34.53400
N  18.92000 -3.40100 27.23000
C  19.46800 -3.98900 28.28000
C  20.21000 -5.22800 27.81600
C  20.20200 -5.16700 26.46300
C  19.39600 -3.98900 26.06700
C  20.99800 -6.21400 28.79700
C  20.86900 -6.06200 25.48100
O  20.96200 -5.84100 24.30700
C  21.44700 -7.32600 25.93400
N  17.46500 -1.65500 25.27200
C  18.19800 -2.44000 24.41200
C  18.03000 -1.95400 22.96400
C  16.99900 -0.87000 23.04600
C  16.70500 -0.76100 24.49800
C  19.38900 -1.51200 22.30100
C  15.76800 -1.01200 22.13600
C  14.35700 -1.43500 22.62700
N  16.26000 0.00900 27.26500
C  15.50800 0.61600 26.27700
C  14.64000 1.56000 26.79100
C  14.91500 1.53000 28.16500
C  15.89800 0.53300 28.40600
C  13.54200 2.28300 25.94800
C  14.56000 2.10200 29.46000
O  13.76400 3.02300 29.76700
C  15.36300 1.30800 30.52500
C  16.05200 2.27900 31.43700
O  17.04100 2.90300 31.15400
O  15.37000 2.39000 32.56600
C  15.83200 3.49200 33.47600
H  19.65000 -4.19300 30.42300
H  19.48100 -4.01500 23.95300
H  15.24000 0.83600 24.25700
H  17.68000 -0.01400 32.05800
H  18.24500 -2.94100 32.22300
H  20.53200 -2.41800 32.83200
H  19.99300 -0.65200 32.63600
H  20.66300 -1.73100 31.34500
H  16.11100 -2.58400 32.82200
H  15.19900 -1.39300 31.85800
H  15.55400 -1.63400 34.58700
H  15.02200 -0.18900 33.68600
H  22.07900 -6.21300 28.66100
H  20.70800 -7.26500 28.78000
H  20.80400 -5.92200 29.82900
H  22.48600 -7.24700 26.25300
H  21.40200 -8.03200 25.10500
H  20.76700 -7.91200 26.55300
H  17.71600 -2.81600 22.37500
H  17.39600 0.12300 22.83600
H  20.21500 -2.01200 22.80500
H  19.40900 -0.43900 22.49200
H  19.45200 -1.67300 21.22500
H  16.03800 -1.71300 21.34600
H  15.59600 -0.01900 21.72200
H  13.77200 -0.55900 22.90700
H  14.49400 -1.96200 23.57200
H  13.96500 -2.19000 21.94500
H  13.22500 1.57500 25.18300
H  13.99900 3.15200 25.47500
H  12.74500 2.65400 26.59300
H  14.64000 0.70500 31.07400
H  16.11400 4.41700 32.97400
H  16.65600 3.17000 34.11200
H  14.94900 3.60900 34.10500
Mg 47.52100 24.72500 29.29600
C  48.15100 27.24700 31.77700
C  46.86000 22.46900 31.74000
C  47.13600 22.34300 26.92900
C  49.27600 26.68500 27.03900
N  47.54000 24.86000 31.49000
C  47.54400 25.99900 32.28000
C  47.04100 25.69000 33.68100
C  47.00500 24.09300 33.74700
C  47.24100 23.77400 32.25200
C  48.04300 23.38100 34.68200
C  45.73600 26.46000 34.09400
C  45.56800 27.11900 35.44600
H  46.18700 26.63400 36.75700
N  46.84600 22.86100 29.31600
C  46.64600 22.07700 30.44500
C  46.10600 20.70800 30.04800
C  46.12300 20.72100 28.61100
C  46.65100 22.04200 28.22800
C  45.63400 19.69000 31.12600
C  45.61700 19.71700 27.61200
O  45.48400 19.94100 26.40100
C  45.05700 18.42900 28.12700
N  48.16300 24.54400 27.21500
C  47.85300 23.44000 26.44500
C  48.47100 23.55300 25.11300
C  49.03700 24.96500 25.09800
C  48.87300 25.46800 26.54900
C  49.47400 22.40100 24.82000
C  48.34400 25.98300 24.09100
C  46.89900 26.23900 24.10200
N  48.50300 26.53600 29.32900
C  49.11800 27.21500 28.28500
C  49.57200 28.54300 28.77700
C  49.22000 28.57900 30.10100
C  48.61100 27.34200 30.39000
C  50.28800 29.54600 27.96000
C  49.10900 29.41200 31.33700
O  49.32900 30.60000 31.48600
C  48.47600 28.55200 32.41700
C  49.54100 28.37500 33.48900
O  50.67200 27.96600 33.47700
O  48.94000 28.75100 34.68300
C  49.91200 28.71200 35.84300
H  46.46800 21.79900 32.50800
H  47.22300 21.47700 26.27000
H  49.76400 27.29800 26.27900
H  47.81900 26.04400 34.35700
H  46.00800 23.87500 34.13000
H  47.59900 22.98600 35.59500
H  48.81800 24.06100 35.03500
H  48.51100 22.53700 34.17500
H  44.95400 25.70100 34.06700
H  45.62000 27.13900 33.24900
H  44.48700 26.97600 35.45900
H  45.80600 28.18300 35.45600
H  44.86500 20.14400 31.75100
H  46.49500 19.54300 31.77800
H  45.33100 18.75700 30.65100
H  45.84300 18.01200 28.75700
H  44.78900 17.71300 27.35000
H  44.20200 18.62400 28.77400
H  47.74900 23.41300 24.30800
H  50.09700 24.99700 24.84700
H  50.12500 22.33600 25.69200
H  50.06200 22.60100 23.92400
H  49.02900 21.42100 24.64700
H  48.47000 25.45700 23.14500
H  48.90600 26.91600 24.04600
H  46.48100 25.76100 24.98700
H  46.37600 25.83200 23.23700
H  46.69100 27.30500 24.01100
H  50.77300 30.22600 28.66100
H  49.56700 30.04800 27.31500
H  50.92500 28.92000 27.33500
H  47.51800 28.94000 32.76100
H  49.27000 28.66900 36.72300
H  50.44700 29.65900 35.91400
H  50.61000 27.88400 35.97000

