158

Mg 48.12700 16.57800 28.60100
C  46.31900 16.46600 31.55400
C  50.56400 18.41500 30.13700
C  49.57900 17.23800 25.52900
C  45.47600 15.08000 26.81600
N  48.46800 17.34200 30.66600
C  47.55600 17.12400 31.70500
C  48.08800 17.67400 33.00700
C  49.46700 18.30300 32.53400
C  49.52300 18.00100 31.01400
C  49.41500 19.83600 32.75100
C  48.36900 16.38500 34.02800
C  47.79300 16.51700 35.44700
H  47.54400 18.00200 35.96200
N  50.00500 17.42000 27.94300
C  50.80200 18.13800 28.77800
C  51.95500 18.58300 28.00200
C  51.73400 18.21400 26.63700
C  50.38900 17.54300 26.63800
C  53.12100 19.34900 28.65700
C  52.60300 18.49500 25.39800
O  52.31000 18.07300 24.29300
C  53.95200 19.21000 25.57000
N  47.62600 16.23500 26.47800
C  48.37100 16.64500 25.44200
C  47.70000 16.23400 24.08300
C  46.45600 15.44900 24.53300
C  46.58200 15.48400 26.03900
C  47.42900 17.52400 23.23700
C  46.21900 13.96700 24.01300
C  45.40600 13.75300 22.71400
N  46.29700 15.87300 29.11400
C  45.29900 15.28000 28.23700
C  44.12600 15.00000 29.08200
C  44.57700 15.43500 30.36700
C  45.83200 15.95300 30.32500
C  42.80800 14.42800 28.55300
C  44.15600 15.52400 31.73500
O  43.07300 15.20400 32.14600
C  45.24900 16.09900 32.61200
C  44.67800 17.29000 33.25900
O  44.75000 18.43000 32.90500
O  43.98600 16.88300 34.35000
C  43.45800 17.97300 35.13900
H  51.17300 19.18900 30.60800
H  50.06900 17.40500 24.56800
H  44.62200 14.52700 26.41700
H  47.38000 18.38300 33.43600
H  50.21100 17.84700 33.18600
H  49.50600 19.99100 33.82600
H  48.46700 20.35700 32.62200
H  50.15100 20.39500 32.17300
H  49.42000 16.11200 34.11900
H  47.88700 15.52400 33.56500
H  48.49800 16.13400 36.18500
H  46.83200 16.00400 35.47300
H  53.96700 18.68500 28.83400
H  52.69100 19.85300 29.52300
H  53.41200 20.20000 28.04100
H  53.90700 20.20200 26.01900
H  54.24800 19.36700 24.53400
H  54.69500 18.65000 26.13800
H  48.41000 15.51500 23.67500
H  45.55600 15.95500 24.18300
H  47.57100 18.47600 23.74900
H  46.45800 17.51600 22.74200
H  48.09400 17.50000 22.37500
H  45.96700 13.27900 24.82000
H  47.19400 13.62300 23.66900
H  44.34800 13.52400 22.83600
H  45.79700 12.99100 22.04000
H  45.43400 14.74600 22.26600
H  42.65500 14.54600 27.48000
H  41.99600 14.96400 29.04400
H  42.87900 13.34900 28.68800
H  45.58100 15.32000 33.29900
H  42.50000 18.26600 34.71100
H  44.02200 18.89300 35.29000
H  43.33800 17.60400 36.15800
Mg 10.43300 47.42200 26.29100
C  8.63700 47.62200 29.19100
C  13.11800 49.03300 27.96200
C  12.19700 47.34300 23.51400
C  7.48300 46.89000 24.43600
N  10.77000 48.27700 28.32800
C  9.89800 48.14500 29.34100
C  10.42200 48.80700 30.66500
C  11.73300 49.56800 30.19400
C  11.91200 48.95400 28.75900
C  11.54800 51.06600 30.01500
C  10.63000 47.70500 31.81100
C  10.12800 47.95100 33.21800
H  9.79700 46.77100 34.08000
N  12.40300 47.91600 25.85100
C  13.35800 48.57400 26.62900
C  14.60700 48.54900 25.83800
C  14.44000 47.90900 24.60900
C  12.96200 47.77600 24.57600
C  15.80500 49.16100 26.42100
C  15.42800 47.51700 23.50300
O  15.16500 47.15500 22.32100
C  16.86800 47.51400 23.97400
N  9.90900 47.31800 24.20200
C  10.80100 47.10300 23.26600
C  10.31100 46.74600 21.86900
C  8.79600 46.58500 22.21100
C  8.68500 46.89700 23.73200
C  10.54300 47.73000 20.66000
C  8.19900 45.21900 21.93300
C  8.84200 44.02200 22.64400
N  8.45600 47.18300 26.69700
C  7.36300 46.97600 25.87500
C  6.18600 46.99300 26.74400
C  6.55400 47.25400 28.03000
C  7.97700 47.26700 27.92000
C  4.83400 46.91500 26.12900
C  6.11800 47.48800 29.38900
O  5.03900 47.54800 29.92200
C  7.50000 47.60400 30.19600
C  7.56600 46.38400 30.96900
O  8.16800 45.35600 30.64000
O  6.83800 46.62800 32.10400
C  6.56100 45.38300 32.88500
H  13.99500 49.54800 28.36100
H  12.76900 47.02500 22.64100
H  6.62500 46.57200 23.84000
H  9.64100 49.44500 31.07800
H  12.55200 49.32500 30.87200
H  10.51300 51.31200 30.25200
H  11.59800 51.41600 28.98400
H  12.26100 51.55600 30.67800
H  11.69800 47.52300 31.92400
H  10.23200 46.78200 31.39000
H  9.28200 48.63900 33.23000
H  10.91500 48.54900 33.67600
H  16.58200 48.40000 26.49300
H  15.78900 49.47300 27.46500
H  16.16500 50.03100 25.87200
H  16.87100 46.90100 24.87500
H  17.20700 48.48100 24.34400
H  17.53200 47.12000 23.20400
H  10.65700 45.74600 21.60600
H  8.14600 47.21400 21.60300
H  11.16300 47.19900 19.93800
H  11.08400 48.63300 20.94300
H  9.57400 47.92900 20.20200
H  8.14000 45.09000 20.85200
H  7.16600 45.18500 22.27900
H  9.70100 44.23800 23.27900
H  9.20200 43.45700 21.78400
H  8.08100 43.40100 23.11800
H  4.68600 45.87900 25.82500
H  4.60700 47.68700 25.39300
H  4.17400 47.17100 26.95800
H  7.38600 48.44100 30.88600
H  6.83100 45.52300 33.93200
H  7.03900 44.44700 32.59500
H  5.51300 45.13500 32.71700

