158

Mg 47.57100 15.37200 28.44000
C  45.22800 15.03800 31.22300
C  49.37000 17.49900 30.45600
C  49.34700 16.18100 25.67200
C  45.03800 13.88400 26.49500
N  47.15400 16.28700 30.53100
C  46.33700 15.86800 31.48800
C  46.84800 16.30100 32.81500
C  47.85100 17.44300 32.54300
C  48.15300 17.06400 31.12100
C  47.29400 18.89500 32.40900
C  47.50100 15.20000 33.66800
C  47.43400 15.36100 35.18700
H  48.73400 15.47600 35.96300
N  49.27000 16.43100 28.19900
C  49.86700 17.27300 29.12300
C  51.00900 17.88400 28.60200
C  51.03300 17.57500 27.24800
C  49.84000 16.70100 26.95200
C  51.93600 18.87900 29.36800
C  52.03300 18.05300 26.17900
O  51.92300 17.65000 25.03100
C  53.18900 18.98600 26.40900
N  47.23100 15.03600 26.38300
C  48.20200 15.44900 25.45000
C  47.85400 14.82000 24.12700
C  46.50000 14.08700 24.40500
C  46.25500 14.24400 25.87600
C  47.89900 15.82900 23.00500
C  46.26100 12.67100 23.85600
C  47.14600 11.54300 24.33600
N  45.61700 14.57300 28.75100
C  44.73400 13.95500 27.86400
C  43.54400 13.37300 28.55600
C  43.80200 13.70700 29.89300
C  44.99100 14.49500 29.96400
C  42.46500 12.56400 27.88600
C  43.27800 13.51000 31.18400
O  42.24400 12.98200 31.53700
C  44.26200 14.41100 32.19300
C  43.36300 15.38900 32.78700
O  42.46100 15.96600 32.20500
O  43.65200 15.43000 34.12900
C  42.69300 16.24100 34.95400
H  49.90900 18.04000 31.23700
H  49.91400 16.43100 24.77300
H  44.31600 13.33600 25.88700
H  46.06100 16.76500 33.40900
H  48.83400 17.43600 33.01500
H  47.48300 19.38400 31.45300
H  47.80000 19.46200 33.19100
H  46.22000 18.90600 32.59200
H  48.55000 15.18400 33.37500
H  47.06200 14.21800 33.48700
H  46.79300 14.53400 35.49400
H  46.91200 16.30600 35.33700
H  51.83700 19.86400 28.91300
H  52.91100 18.44000 29.15800
H  51.73700 18.93800 30.43800
H  53.84000 18.95800 25.53500
H  53.70900 18.56600 27.27100
H  52.86600 20.00300 26.62900
H  48.66600 14.10800 23.97700
H  45.65700 14.60600 23.94800
H  47.00900 15.69900 22.39000
H  48.73400 15.60800 22.34000
H  47.96000 16.83200 23.42700
H  46.50100 12.73000 22.79500
H  45.24800 12.30000 24.01500
H  46.46200 10.82000 24.78000
H  47.87700 11.89500 25.06500
H  47.61900 11.08000 23.47000
H  42.66300 12.03300 26.95500
H  41.69400 13.29600 27.64600
H  42.31800 11.83900 28.68600
H  44.71200 13.81400 32.98700
H  42.20700 17.07600 34.44900
H  43.40500 16.61300 35.69100
H  41.92000 15.62900 35.41800
Mg 6.60600 57.27100 41.57500
C  5.14100 54.05000 41.46600
C  9.51200 55.79600 40.49300
C  7.64700 60.39200 40.66700
C  3.46400 58.65500 42.26300
N  7.22100 55.15000 40.95100
C  6.46300 54.06300 41.04200
C  7.25700 52.84500 40.53300
C  8.71000 53.37200 40.69700
C  8.52100 54.86000 40.73800
C  9.48100 52.83400 41.93400
C  6.97400 52.61500 39.01200
C  7.02000 51.09200 38.55100
H  6.08500 50.61500 37.50000
N  8.35200 57.97800 40.71700
C  9.50400 57.21200 40.42600
C  10.49500 58.06500 39.93400
C  9.94600 59.41200 39.86100
C  8.54900 59.28000 40.35000
C  11.89800 57.62800 39.64400
C  10.69000 60.61300 39.45800
O  11.86000 60.50400 39.16100
C  10.06900 61.96500 39.23300
N  5.79900 59.31100 41.57500
C  6.39400 60.40800 41.17500
C  5.58300 61.65300 41.29800
C  4.20900 61.06700 41.77600
C  4.45300 59.56700 41.82700
C  6.27800 62.66000 42.25900
C  2.91400 61.50000 41.05600
C  1.71100 61.72600 41.86400
N  4.63900 56.49500 41.95700
C  3.51700 57.21500 42.20600
C  2.46400 56.21100 42.39600
C  3.08600 54.94300 42.10700
C  4.43100 55.21400 41.79900
C  0.95600 56.41300 42.66100
C  2.89800 53.54000 42.17900
O  1.93200 52.91000 42.53900
C  4.21800 52.86100 41.70100
C  3.95800 52.07800 40.55100
O  3.62100 52.42000 39.43600
O  4.04600 50.78200 40.92300
C  3.29300 49.79600 40.14200
H  10.47700 55.30600 40.35000
H  7.97200 61.36100 40.28300
H  2.48300 59.07600 42.49200
H  7.05900 51.94700 41.11700
H  9.40300 53.20700 39.87200
H  10.42200 52.50200 41.49600
H  8.92300 52.04300 42.43500
H  9.59400 53.69900 42.58700
H  7.82900 53.07100 38.51400
H  6.06200 53.11600 38.68600
H  6.97000 50.42500 39.41100
H  8.03800 50.89200 38.21700
H  12.69300 58.20400 40.11800
H  12.06800 57.74900 38.57400
H  12.13400 56.60100 39.92000
H  9.76500 62.43600 40.16800
H  9.16900 61.87800 38.62500
H  10.71700 62.66400 38.70400
H  5.49700 62.06900 40.29400
H  4.09100 61.31200 42.83200
H  5.48600 63.13600 42.83700
H  6.71300 63.42800 41.61800
H  6.87300 62.13400 43.00500
H  2.68100 60.70000 40.35400
H  3.05600 62.38900 40.44200
H  1.85200 61.42800 42.90300
H  0.92200 61.09100 41.46000
H  1.32900 62.74100 41.75300
H  0.60200 57.18300 41.97600
H  0.88100 56.78600 43.68200
H  0.45000 55.45500 42.53300
H  4.69900 52.27900 42.48700
H  3.82100 48.86600 40.35300
H  3.12100 50.12400 39.11700
H  2.31500 49.65900 40.60400

