158

Mg 40.62900 9.57000 30.10000
C  42.53000 10.59400 32.87100
C  38.31700 8.26600 32.31500
C  38.96200 8.50900 27.43600
C  43.41700 10.12500 28.05100
N  40.48800 9.50400 32.39800
C  41.32400 10.02800 33.27400
C  40.58500 10.11400 34.64700
C  39.30600 9.24000 34.46200
C  39.32700 8.94700 33.00900
C  39.07300 7.96100 35.28300
C  40.21100 11.62300 34.95600
C  39.81000 11.93500 36.39100
H  40.77300 12.66400 37.31000
N  38.88600 8.42100 29.89200
C  38.10900 7.96800 30.88600
C  36.94700 7.33200 30.26100
C  37.11500 7.46100 28.85500
C  38.36400 8.14600 28.67500
C  35.83300 6.80200 30.99800
C  36.20700 7.03400 27.75300
O  36.43000 7.05700 26.55600
C  34.91600 6.50400 28.15400
N  41.15100 9.28200 28.01200
C  40.25000 8.86900 27.11400
C  40.77700 8.98200 25.67300
C  42.25200 9.54900 25.84000
C  42.30900 9.58900 27.39900
C  40.48200 7.72900 24.75200
C  42.53200 10.87600 25.05700
C  42.12200 12.21000 25.67600
N  42.59100 10.21200 30.34700
C  43.60200 10.37900 29.40400
C  44.76900 10.87000 30.04700
C  44.46900 10.96800 31.36300
C  43.09600 10.56400 31.53000
C  46.08500 11.19300 29.33700
C  44.90100 11.35200 32.66900
O  45.99500 11.81700 32.94000
C  43.70500 11.16500 33.67700
C  44.24200 10.14000 34.70100
O  44.56100 8.98700 34.40300
O  44.36800 10.73300 35.92400
C  44.66600 9.79000 37.00200
H  37.49100 7.97600 32.96900
H  38.61400 8.16900 26.45900
H  44.30000 10.42200 27.48100
H  41.10700 9.83100 35.56100
H  38.46200 9.92100 34.58000
H  39.95000 7.65500 35.85400
H  38.75300 7.09900 34.69900
H  38.31600 8.23600 36.01800
H  39.38000 11.97600 34.34600
H  41.02000 12.29900 34.67900
H  39.40100 11.00800 36.79300
H  38.92800 12.57500 36.35500
H  34.83500 7.05000 30.63600
H  35.79800 7.29800 31.96700
H  35.89200 5.72200 31.13100
H  34.45400 6.09000 27.25800
H  34.27300 7.28700 28.55500
H  35.16400 5.72400 28.87400
H  40.25500 9.81900 25.20800
H  42.99700 8.79900 25.57300
H  41.46600 7.42700 24.39300
H  39.88600 7.91300 23.85800
H  40.10100 6.87100 25.30600
H  42.04800 10.85600 24.08100
H  43.60900 10.94400 24.90200
H  42.01200 12.25400 26.75900
H  41.07100 12.41500 25.47000
H  42.72300 13.08100 25.41700
H  46.32900 10.49200 28.53800
H  46.83200 11.29200 30.12500
H  45.88900 12.06500 28.71200
H  43.41100 12.07000 34.20800
H  44.79600 8.74400 36.72500
H  43.74000 9.89300 37.56700
H  45.57300 9.99500 37.57000
Mg 49.10400 47.35900 43.22200
C  45.72800 47.58200 42.00600
C  49.31600 44.35200 41.45600
C  52.38700 47.35900 43.85300
C  48.93200 50.76200 43.88700
N  47.74400 46.20600 41.67000
C  46.37200 46.46400 41.52400
C  45.63000 45.40100 40.76900
C  46.79000 44.30700 40.56400
C  48.04400 44.97300 41.28200
C  46.46200 42.84100 40.95600
C  44.94900 45.89100 39.47400
C  43.49000 45.61800 39.20400
H  43.06400 45.30800 37.76900
N  50.57200 45.96000 42.90000
C  50.47100 44.85100 42.07800
C  51.79500 44.28400 41.98500
C  52.65800 45.02100 42.86200
C  51.91500 46.18700 43.24100
C  52.05000 43.07900 41.06800
C  54.11200 44.71500 43.11600
O  54.60500 43.70600 42.63000
C  54.95500 45.64300 43.94300
N  50.46000 48.82200 43.80300
C  51.73600 48.54800 44.11100
C  52.43900 49.76600 44.77800
C  51.44300 50.92200 44.35000
C  50.19400 50.14000 43.94000
C  52.58600 49.56600 46.34800
C  51.94600 51.69600 43.05600
C  51.68400 53.23200 43.12500
N  47.63200 48.90300 43.24100
C  47.71900 50.23100 43.52400
C  46.49300 50.88100 43.32200
C  45.64900 49.84000 42.87200
C  46.36400 48.63300 42.70600
C  46.25300 52.37900 43.42000
C  44.27400 49.49600 42.48800
O  43.21100 50.11800 42.53700
C  44.29700 48.01500 41.94200
C  43.27800 47.18800 42.67200
O  43.39400 46.79000 43.80600
O  42.25000 46.81900 41.89500
C  41.28600 45.90500 42.50200
H  49.26300 43.31300 41.12400
H  53.37600 47.49800 44.29500
H  48.92200 51.80500 44.20900
H  44.89700 44.93900 41.43100
H  47.10200 44.27600 39.52000
H  45.41400 42.54500 40.91100
H  46.90300 42.69500 41.94200
H  47.03900 42.10300 40.39900
H  45.59600 45.62300 38.63900
H  45.21500 46.94300 39.37000
H  43.05200 46.60200 39.37100
H  43.09300 44.85000 39.86800
H  51.31400 42.89100 40.28600
H  52.11800 42.19200 41.69900
H  52.95200 43.31100 40.50100
H  55.13300 46.56200 43.38500
H  55.91000 45.14300 44.10800
H  54.39300 45.75800 44.87000
H  53.37900 49.75200 44.22600
H  51.30900 51.56000 45.22400
H  52.43800 48.52500 46.63600
H  51.81900 50.10600 46.90400
H  53.52800 49.97800 46.71100
H  51.48300 51.31100 42.14700
H  53.02200 51.73200 42.88800
H  50.97500 53.48400 42.33600
H  52.66200 53.71100 43.15300
H  51.21300 53.51900 44.06500
H  45.19900 52.65200 43.48200
H  46.62100 52.90900 42.54100
H  46.77900 52.81800 44.26800
H  43.89700 48.25300 40.95600
H  41.88700 45.06000 42.83900
H  40.63400 45.38700 41.80000
H  40.59300 46.42900 43.16000

