158

Mg -1.22500 17.60000 25.65600
C  -1.91300 15.49100 28.53200
C  -2.14500 20.25600 27.62900
C  -1.25500 19.45600 22.92600
C  -1.13100 14.61900 23.72900
N  -1.71900 17.85000 27.91200
C  -2.02800 16.91100 28.83600
C  -2.52800 17.50300 30.16700
C  -2.53200 18.99600 29.87800
C  -2.07100 19.06800 28.38800
C  -3.89600 19.65000 30.16000
C  -1.75100 17.00700 31.44600
C  -2.03200 17.78400 32.75800
H  -1.85700 16.91200 33.99700
N  -1.63800 19.54600 25.36300
C  -1.89400 20.51000 26.27600
C  -1.80200 21.84600 25.62000
C  -1.74400 21.59800 24.20500
C  -1.53100 20.15800 24.10200
C  -1.80800 23.02800 26.52900
C  -1.60500 22.57200 23.09900
O  -1.48400 22.31400 21.91200
C  -1.64600 24.05700 23.47000
N  -1.21800 17.14000 23.64500
C  -1.14500 18.09900 22.69900
C  -0.81700 17.54800 21.29100
C  -0.63700 16.06700 21.61400
C  -1.00500 15.93700 23.05400
C  -2.03700 17.73100 20.35300
C  0.80600 15.51200 21.30700
C  1.95500 15.49800 22.38100
N  -1.44400 15.50600 26.06000
C  -1.38600 14.45800 25.14200
C  -1.49100 13.18000 25.88000
C  -1.71900 13.54300 27.20800
C  -1.67300 14.97500 27.23200
C  -1.47100 11.74900 25.32200
C  -1.94800 13.06600 28.55000
O  -2.14300 11.94500 29.06100
C  -2.05000 14.32800 29.41900
C  -0.85400 14.23100 30.24900
O  0.26000 14.70000 30.03800
O  -1.18000 13.47800 31.37800
C  -0.13200 13.13400 32.33500
H  -2.54100 21.09600 28.20200
H  -1.20100 20.07800 22.03000
H  -0.97500 13.89700 22.92500
H  -3.52100 17.10700 30.37500
H  -1.78100 19.45800 30.51900
H  -4.52200 19.18200 30.91900
H  -4.52700 19.55800 29.27600
H  -3.77100 20.64100 30.59600
H  -0.70800 17.02100 31.12800
H  -1.96200 15.97000 31.70900
H  -3.06600 18.03200 32.51800
H  -1.47000 18.71800 32.71900
H  -0.99100 23.00600 27.24900
H  -2.70800 22.89600 27.13000
H  -1.97200 24.05100 26.19100
H  -1.74700 24.57200 22.51500
H  -0.67000 24.11700 23.95100
H  -2.44400 24.45200 24.09800
H  0.10600 17.96800 20.89300
H  -1.29200 15.34000 21.13400
H  -1.75300 18.40600 19.54500
H  -2.81700 18.11800 21.00800
H  -2.33800 16.74000 20.01500
H  1.15200 16.08800 20.44900
H  0.71800 14.47000 20.99700
H  2.42900 14.52000 22.46700
H  1.56900 15.80300 23.35400
H  2.68200 16.23000 22.03000
H  -0.65200 11.72700 24.60200
H  -2.36500 11.50700 24.74800
H  -1.41000 11.02800 26.13700
H  -2.85500 14.29500 30.15400
H  0.83200 13.60600 32.14800
H  0.04700 12.06000 32.38400
H  -0.43300 13.33400 33.36300
Mg 42.14500 41.34100 27.46700
C  41.06500 43.70500 29.90600
C  43.12300 39.21300 29.89300
C  43.26300 39.37400 25.10600
C  41.50200 43.93700 25.06100
N  41.77600 41.35100 29.63300
C  41.47300 42.42500 30.41800
C  41.55100 42.00800 31.92200
C  42.27700 40.62900 31.89400
C  42.40500 40.38000 30.33600
C  43.61400 40.51200 32.67800
C  40.17200 42.01300 32.70900
C  40.16400 42.84600 34.07000
H  38.89000 42.85400 34.95900
N  42.84000 39.41800 27.48200
C  43.15900 38.67200 28.62500
C  43.67300 37.40300 28.28100
C  43.82200 37.55700 26.88000
C  43.26500 38.78800 26.38300
C  44.05600 36.34800 29.29500
C  44.41800 36.45300 25.93800
O  44.54300 36.53800 24.73000
C  44.93700 35.23600 26.65100
N  42.28200 41.62800 25.43600
C  42.72700 40.59900 24.64100
C  42.79100 40.99200 23.18500
C  42.19800 42.38300 23.12300
C  42.02800 42.68600 24.62100
C  44.25000 40.90800 22.64800
C  40.79400 42.45700 22.39900
C  39.53400 41.89700 23.09900
N  41.41800 43.41900 27.39300
C  41.15500 44.26800 26.37400
C  40.66100 45.49200 26.88800
C  40.58300 45.30000 28.26500
C  41.02900 43.99800 28.53500
C  40.23200 46.64700 26.07400
C  40.27200 45.98100 29.54700
O  39.83100 47.11100 29.77300
C  40.59400 44.98600 30.66600
C  41.75300 45.45000 31.51000
O  42.95700 45.44200 31.18000
O  41.28000 45.99500 32.69000
C  42.22300 46.72500 33.52400
H  43.49900 38.64800 30.74900
H  43.58100 38.64700 24.35600
H  41.08600 44.63000 24.32600
H  42.18000 42.68500 32.50000
H  41.62400 39.84800 32.28400
H  44.47700 40.29100 32.05000
H  43.54300 39.81600 33.51400
H  43.89500 41.43300 33.18800
H  39.89500 40.99400 32.97700
H  39.34200 42.36700 32.09700
H  40.43800 43.84600 33.73500
H  40.94200 42.44200 34.71700
H  45.13200 36.17300 29.30400
H  43.44100 35.45300 29.19800
H  43.77300 36.62300 30.31100
H  45.88300 35.60700 27.04500
H  45.10100 34.56700 25.80600
H  44.20800 34.82300 27.34800
H  42.22000 40.30200 22.56400
H  42.97200 43.05400 22.75100
H  44.98700 40.84100 23.44900
H  44.50300 41.81600 22.10200
H  44.38300 40.10800 21.92000
H  40.89600 41.93600 21.44700
H  40.53200 43.50000 22.22200
H  39.10300 41.11300 22.47700
H  38.72500 42.62800 23.11200
H  39.83000 41.50700 24.07300
H  39.72900 47.37600 26.71000
H  39.56600 46.38300 25.25300
H  41.12000 47.16000 25.70400
H  39.69800 44.80200 31.25800
H  41.82800 47.74000 33.58300
H  43.27900 46.80800 33.26400
H  42.23400 46.26600 34.51200

