158

Mg 9.03400 3.68300 27.15000
C  10.52000 2.19700 30.13100
C  7.00600 5.44000 29.16800
C  7.63500 4.83300 24.36800
C  10.75300 1.21600 25.25900
N  8.68200 3.65900 29.40900
C  9.47400 3.11600 30.42000
C  9.06800 3.61800 31.78600
C  7.86800 4.55400 31.42600
C  7.80300 4.53200 29.88000
C  6.47200 4.25500 32.09900
C  10.19500 4.42000 32.44800
C  9.92000 4.69000 33.90500
H  10.98000 4.30100 35.00500
N  7.56400 4.97500 26.78300
C  6.78100 5.61300 27.82000
C  5.95800 6.57900 27.10600
C  6.13400 6.48000 25.73700
C  7.11600 5.35900 25.56800
C  4.93700 7.45200 27.88900
C  5.51800 7.28800 24.66300
O  5.77600 7.14100 23.46300
C  4.48300 8.33500 25.07000
N  9.26900 3.17700 25.05000
C  8.57500 3.82600 24.13300
C  8.96300 3.31600 22.75200
C  10.08400 2.20500 23.02400
C  10.12000 2.20600 24.49000
C  7.66800 2.70800 22.03000
C  11.47500 2.41100 22.37000
C  12.63400 3.02300 23.10500
N  10.29800 2.09800 27.58100
C  10.89900 1.16500 26.67800
C  11.67100 0.19500 27.44600
C  11.58800 0.61600 28.75900
C  10.72900 1.72000 28.79500
C  12.27200 -1.06500 26.83100
C  12.04300 0.36100 30.06100
O  12.84300 -0.51400 30.43600
C  11.34900 1.37500 30.99100
C  10.68700 0.68000 32.11000
O  9.67100 -0.03400 31.97400
O  11.18500 1.14300 33.27300
C  10.68300 0.49600 34.51000
H  6.45400 6.05500 29.88200
H  7.27000 5.07500 23.36800
H  11.29800 0.46200 24.68800
H  8.87100 2.79700 32.47500
H  8.12300 5.56300 31.74800
H  6.70700 3.92700 33.11200
H  5.91700 3.43100 31.65200
H  5.69500 5.02000 32.10600
H  10.31600 5.36700 31.92300
H  11.11300 3.83300 32.46800
H  8.98000 4.18800 34.13400
H  9.68000 5.75300 33.91000
H  5.26200 8.48800 27.79000
H  4.99800 7.18700 28.94500
H  3.90500 7.26400 27.59100
H  3.52800 7.86600 25.30800
H  4.38700 8.99800 24.21000
H  4.96800 8.98500 25.79900
H  9.36300 4.18500 22.22900
H  9.68600 1.28600 22.59400
H  6.86400 2.77600 22.76300
H  7.68800 1.63400 21.84400
H  7.43800 3.19200 21.08100
H  11.37600 3.18000 21.60400
H  11.80600 1.45600 21.96200
H  13.59100 2.78500 22.64000
H  12.62200 2.57200 24.09700
H  12.47600 4.10100 23.13000
H  13.33600 -0.92800 26.63600
H  11.72200 -1.50200 25.99700
H  12.18500 -1.86400 27.56800
H  12.16300 1.93800 31.44800
H  9.84300 -0.19100 34.40200
H  10.65900 1.30700 35.23700
H  11.49800 -0.15300 34.83000
Mg 40.81200 40.27600 27.69800
C  40.52900 42.99100 29.99200
C  41.80800 38.33700 30.39700
C  41.52300 37.88800 25.54200
C  40.09000 42.51100 25.18400
N  41.21700 40.71400 29.91900
C  40.93200 41.80800 30.63800
C  41.07500 41.61900 32.14000
C  41.66700 40.19400 32.17900
C  41.55600 39.68700 30.77200
C  43.08400 40.08600 32.78200
C  39.65500 41.64700 32.80900
C  39.57600 42.66400 34.04300
H  38.86400 42.20000 35.35100
N  41.50900 38.29300 27.93400
C  41.84200 37.67900 29.11300
C  42.16800 36.32600 28.78400
C  42.29600 36.21800 27.35100
C  41.78500 37.46500 26.85700
C  42.45000 35.28600 29.85100
C  42.73600 35.08200 26.48000
O  42.78200 35.09600 25.25300
C  43.11200 33.78600 27.09800
N  40.93000 40.15500 25.68500
C  41.02000 39.02800 24.99600
C  40.83900 39.27700 23.50400
C  40.22000 40.66500 23.46600
C  40.49000 41.18200 24.86300
C  42.05100 39.11200 22.66900
C  38.71400 40.77800 23.05500
C  37.67600 39.93000 23.79000
N  40.39100 42.37500 27.51500
C  40.05300 43.08800 26.42800
C  39.73100 44.40900 26.85800
C  39.83600 44.48200 28.24900
C  40.29100 43.16900 28.60100
C  39.40100 45.56500 25.93100
C  39.73400 45.31800 29.50600
O  39.50600 46.54500 29.60200
C  40.04400 44.35900 30.68100
C  41.07500 44.89500 31.52900
O  42.24800 44.69700 31.35100
O  40.61600 45.60500 32.52400
C  41.59100 46.09500 33.51000
H  41.93600 37.64200 31.23000
H  41.57200 37.00500 24.90300
H  39.87400 43.18700 24.35400
H  41.75000 42.37900 32.53500
H  41.07600 39.57800 32.85700
H  43.76600 40.88400 32.48600
H  43.49600 39.08500 32.65200
H  42.90800 40.18700 33.85300
H  39.26800 40.68900 33.15700
H  38.96800 42.05500 32.06600
H  39.07600 43.57900 33.72800
H  40.58800 42.86600 34.39600
H  41.86200 35.39600 30.76100
H  43.49600 35.44700 30.11500
H  42.26100 34.24200 29.60000
H  42.28300 33.33700 27.64500
H  43.99700 33.97100 27.70800
H  43.41800 33.13300 26.28100
H  40.16600 38.46300 23.23500
H  40.86900 41.27100 22.83400
H  42.89400 38.74300 23.25200
H  42.35600 40.02400 22.15700
H  41.96500 38.36700 21.87700
H  38.74300 40.30000 22.07600
H  38.55300 41.84500 22.90300
H  36.82500 40.60200 23.89700
H  37.95700 39.83100 24.83900
H  37.36100 39.02500 23.27100
H  39.74700 45.25300 24.94600
H  39.94000 46.47600 26.19200
H  38.34500 45.82300 25.85000
H  39.06600 44.36800 31.16200
H  42.30600 46.83100 33.14200
H  42.07200 45.27500 34.04400
H  41.08600 46.55900 34.35800

