158

Mg 8.16000 2.54500 27.11400
C  9.74300 1.51600 30.05900
C  6.11500 4.52200 29.15400
C  6.98900 3.86100 24.33000
C  9.97400 0.14700 25.27500
N  7.84800 2.86300 29.40800
C  8.81700 2.46700 30.39600
C  8.45800 3.09100 31.77200
C  7.14800 3.94600 31.46000
C  6.94000 3.73100 29.93300
C  5.90800 3.45100 32.18800
C  9.65500 3.87500 32.40700
C  9.28500 4.45500 33.78100
H  10.26400 4.31300 34.88300
N  6.70600 3.96100 26.71000
C  5.98500 4.66400 27.68800
C  5.15000 5.68400 26.99700
C  5.48000 5.52500 25.57300
C  6.39200 4.40700 25.47900
C  4.32700 6.68500 27.63200
C  5.02100 6.39600 24.40900
O  5.24200 6.16500 23.21300
C  4.38000 7.71100 24.63200
N  8.32700 1.93700 25.07900
C  7.82900 2.75200 24.17500
C  8.18700 2.23300 22.76300
C  9.33300 1.15000 23.01600
C  9.14400 0.98200 24.50700
C  6.96200 1.50600 22.07100
C  10.69500 1.73300 22.62000
C  11.81200 0.73800 22.13100
N  9.52000 1.02400 27.56000
C  10.15600 0.14200 26.70500
C  11.22600 -0.53400 27.43100
C  10.98300 -0.11300 28.78500
C  10.00800 0.93100 28.76500
C  12.37900 -1.37800 26.87000
C  11.58700 -0.07000 30.06600
O  12.52300 -0.74000 30.48200
C  10.84300 0.93700 30.94700
C  10.34500 0.13800 32.10700
O  9.37900 -0.53800 32.17500
O  11.20800 0.35800 33.22400
C  10.84000 -0.01500 34.57300
H  5.70100 5.40300 29.65000
H  6.77900 4.37500 23.39000
H  10.72600 -0.36900 24.67400
H  8.31300 2.29700 32.50400
H  7.27600 5.00400 31.68700
H  5.31900 4.23400 32.66600
H  6.21100 2.83100 33.03200
H  5.14200 3.03800 31.53200
H  10.03900 4.66200 31.75800
H  10.43500 3.14500 32.62200
H  8.25000 4.27200 34.06800
H  9.40400 5.53200 33.66800
H  3.35900 6.58900 27.14000
H  4.76600 7.66400 27.44300
H  4.36500 6.54100 28.71200
H  5.07000 8.34800 25.18500
H  3.38200 7.63600 25.06500
H  4.20400 8.18200 23.66500
H  8.52000 3.01300 22.07700
H  9.18500 0.18300 22.53600
H  6.02800 1.88500 22.48500
H  6.96400 0.42500 22.21100
H  6.99700 1.77500 21.01600
H  11.10500 2.13800 23.54500
H  10.56700 2.60400 21.97800
H  12.15900 0.78300 21.09800
H  11.38200 -0.26300 22.17900
H  12.67000 0.83700 22.79700
H  13.10800 -0.77300 26.33200
H  11.99400 -1.90900 26.00000
H  12.78500 -2.15300 27.52200
H  11.56200 1.71500 31.20500
H  10.71900 0.95600 35.05200
H  11.64900 -0.52900 35.09200
H  9.87700 -0.51100 34.69100
Mg 49.69100 47.42900 42.60400
C  46.27000 47.76700 41.63000
C  49.68600 44.42100 40.91000
C  52.95200 47.35200 43.01900
C  49.59400 50.67600 43.86000
N  48.09900 46.28300 41.36900
C  46.80800 46.61100 41.13800
C  46.08200 45.48200 40.38900
C  47.17100 44.30900 40.31300
C  48.39400 45.05700 40.84900
C  46.84100 42.98800 41.07800
C  45.43600 45.94100 39.03800
C  43.99400 45.66400 38.90500
H  43.34500 45.27100 37.59500
N  51.03100 45.98600 42.18100
C  50.88500 44.81300 41.47100
C  52.09300 44.08000 41.48800
C  53.07600 44.86800 42.13800
C  52.39400 46.19000 42.44400
C  52.23700 42.63900 40.88500
C  54.54900 44.50600 42.29600
O  55.05900 43.48300 41.85900
C  55.49600 45.50800 43.02500
N  51.13900 48.89300 43.15700
C  52.39500 48.59600 43.38200
C  53.16900 49.75600 44.06500
C  52.09300 50.80800 44.39500
C  50.85100 50.06700 43.75700
C  54.13000 49.39700 45.20600
C  52.23400 52.20100 43.93700
C  52.19700 53.32500 45.01900
N  48.30200 49.01800 42.61500
C  48.41700 50.24300 43.20400
C  47.15500 50.93200 43.15300
C  46.30100 49.97000 42.60200
C  47.01000 48.83400 42.28800
C  46.88900 52.35500 43.62400
C  44.89800 49.76200 42.18500
O  43.89400 50.48000 42.37700
C  44.84800 48.24900 41.49800
C  43.91400 47.56400 42.31700
O  44.14600 47.36800 43.53600
O  42.86500 47.02800 41.57500
C  42.10500 46.01000 42.27500
H  49.75600 43.48200 40.35700
H  54.01700 47.32500 43.26000
H  49.66700 51.62400 44.39700
H  45.27400 45.11000 41.01900
H  47.34400 44.06600 39.26500
H  45.76200 42.84900 41.13600
H  47.22700 42.98200 42.09800
H  47.34800 42.11000 40.67800
H  46.01600 45.56400 38.19600
H  45.59200 47.01600 39.12700
H  43.57900 46.65000 39.11100
H  43.55600 45.03000 39.67600
H  51.36400 42.00700 40.72400
H  52.88000 42.09500 41.57700
H  52.84900 42.68600 39.98400
H  55.57800 46.40800 42.41700
H  56.49100 45.08600 43.16100
H  55.03000 45.63700 44.00200
H  53.75800 50.13500 43.22900
H  51.90700 50.78200 45.46800
H  55.16300 49.50800 44.87500
H  53.97800 48.34800 45.46100
H  53.92800 49.99800 46.09200
H  51.46700 52.43800 43.20000
H  53.20900 52.41500 43.49900
H  53.20500 53.66000 45.26200
H  51.83300 52.94600 45.97400
H  51.55200 54.15500 44.73000
H  45.86000 52.67400 43.45900
H  47.53200 53.15800 43.26300
H  46.90900 52.38100 44.71300
H  44.46100 48.16100 40.48300
H  42.68400 45.08800 42.23000
H  41.20600 45.88700 41.67200
H  41.80800 46.22100 43.30200

