158

Mg 53.76800 23.87300 44.26600
C  50.78800 25.52700 43.44000
C  52.34800 21.05100 43.01100
C  56.76300 22.46600 44.23400
C  55.16800 26.97800 45.17800
N  51.84300 23.50300 43.23800
C  50.73800 24.25800 42.98100
C  49.61300 23.48000 42.33900
C  50.01500 21.94500 42.72900
C  51.57800 22.16000 43.03900
C  49.21800 21.17200 43.87600
C  49.50600 23.83400 40.82000
C  48.05700 24.01700 40.22000
H  47.83800 23.23900 38.88000
N  54.47300 21.99000 43.64900
C  53.71800 20.95400 43.26500
C  54.57000 19.74300 43.04800
C  55.88400 20.10200 43.50800
C  55.80800 21.55500 43.77900
C  54.12700 18.39500 42.35500
C  57.10400 19.25800 43.50600
O  56.98500 18.07700 43.19400
C  58.43500 19.72200 44.13800
N  55.67300 24.68900 44.42000
C  56.80500 23.83600 44.37500
C  58.13900 24.70400 44.42800
C  57.56800 26.02000 45.07400
C  56.07600 25.92100 44.90400
C  59.33800 24.15900 45.19100
C  58.11200 27.42200 44.66800
C  59.10200 28.03000 45.66100
N  53.19800 25.87900 44.32200
C  53.82000 26.98100 44.85700
C  52.73600 27.92300 45.12900
C  51.58200 27.44700 44.53100
C  51.91400 26.21000 44.01400
C  53.02400 29.21300 45.79300
C  50.23000 27.73200 44.35000
O  49.62200 28.73900 44.67000
C  49.64300 26.52100 43.44300
C  49.21100 27.05000 42.12200
O  50.00800 27.43200 41.28700
O  47.86600 27.21000 42.04000
C  47.25700 27.84900 40.84700
H  51.82900 20.14700 42.68500
H  57.78000 22.07000 44.21400
H  55.53200 27.77300 45.83200
H  48.74800 23.89600 42.85500
H  49.91300 21.34100 41.82700
H  48.60000 21.89900 44.40300
H  49.93900 20.74100 44.57100
H  48.60300 20.34800 43.51400
H  49.97700 23.03000 40.25600
H  50.12600 24.70700 40.61400
H  47.85700 25.08500 40.12600
H  47.27000 23.72300 40.91600
H  54.20800 18.50400 41.27400
H  53.11600 18.29200 42.75000
H  54.63000 17.46900 42.63400
H  58.93500 20.35900 43.40800
H  59.00600 18.82700 44.38800
H  58.19600 20.20600 45.08400
H  58.40700 24.86000 43.38300
H  57.63100 26.01300 46.16200
H  59.60300 24.89500 45.95000
H  60.11800 23.92800 44.46600
H  59.12900 23.22700 45.71800
H  57.30000 28.06300 44.32400
H  58.56600 27.29600 43.68500
H  59.99300 28.27200 45.08200
H  59.27500 27.35900 46.50200
H  58.55200 28.90600 46.00500
H  54.07900 29.28800 46.05600
H  52.50800 29.24300 46.75300
H  52.81400 29.96300 45.03100
H  48.78200 26.13900 43.99100
H  46.23100 27.50400 40.97400
H  47.62800 27.39400 39.92800
H  47.27900 28.92300 41.02700
Mg -10.78600 40.45300 42.09700
C  -9.57600 37.37400 40.90700
C  -7.67900 41.83400 41.03600
C  -12.26100 43.33800 42.09200
C  -13.92300 38.85700 42.56600
N  -8.94300 39.64700 40.98300
C  -8.70300 38.38600 40.63200
C  -7.28700 38.26000 40.04000
C  -6.61000 39.60200 40.52200
C  -7.79900 40.45400 40.96400
C  -5.56500 39.45300 41.68400
C  -7.37700 37.98000 38.45500
C  -6.65200 36.67500 38.02700
H  -5.37600 36.65800 37.09200
N  -10.06200 42.39800 41.79600
C  -8.75600 42.76700 41.41000
C  -8.73100 44.17000 41.49900
C  -10.03700 44.68700 41.92300
C  -10.83200 43.48100 41.93300
C  -7.55800 44.97900 41.05600
C  -10.44100 46.09600 42.21700
O  -9.54200 46.97300 42.14000
C  -11.66800 46.39500 42.90900
N  -12.90000 40.91900 42.00500
C  -13.17600 42.26900 42.15300
C  -14.67500 42.51100 42.32100
C  -15.17200 41.04300 42.49600
C  -13.89500 40.19800 42.36900
C  -15.09600 43.53200 43.48600
C  -16.39700 40.55800 41.66900
C  -17.65700 41.37200 41.65800
N  -11.63000 38.47300 41.94600
C  -12.82900 37.94400 42.31300
C  -12.80200 36.54000 42.23400
C  -11.53500 36.23100 41.69500
C  -10.89100 37.47600 41.45700
C  -13.97300 35.63700 42.24500
C  -10.71600 35.16900 41.19500
O  -10.91400 33.95400 41.18400
C  -9.41500 35.89300 40.69100
C  -8.36300 35.41700 41.61400
O  -8.34100 35.44100 42.83300
O  -7.66900 34.52100 40.85400
C  -7.24100 33.22300 41.40900
H  -6.65900 42.20200 40.90700
H  -12.88400 44.23400 42.07000
H  -14.80600 38.32000 42.91700
H  -6.81400 37.49300 40.65300
H  -6.06900 40.12800 39.73500
H  -5.91300 39.88200 42.62400
H  -4.61000 39.85600 41.34700
H  -5.46000 38.42500 42.03300
H  -6.82200 38.77800 37.96200
H  -8.40300 38.04900 38.09300
H  -7.40700 36.12300 37.46900
H  -6.37900 36.15900 38.94800
H  -8.00700 45.70200 40.37500
H  -6.84900 44.43700 40.43000
H  -7.07800 45.51200 41.87700
H  -12.46000 46.55500 42.17700
H  -11.51100 47.35300 43.40500
H  -12.04900 45.72200 43.67600
H  -15.13400 42.64700 41.34200
H  -15.38500 40.78400 43.53400
H  -15.94800 43.20500 44.08100
H  -15.15300 44.60300 43.29100
H  -14.30100 43.27200 44.18600
H  -16.72400 39.63200 42.14200
H  -16.14500 40.39700 40.62100
H  -18.01400 41.40400 40.62900
H  -17.40100 42.36400 42.03100
H  -18.43000 40.92100 42.28100
H  -13.68000 34.59400 42.36900
H  -14.61700 35.65500 41.36600
H  -14.56100 35.86200 43.13500
H  -9.15700 35.73700 39.64300
H  -6.28300 32.88300 41.01600
H  -7.80900 32.48000 40.84900
H  -7.39000 33.13100 42.48500

