158

Mg 47.99600 34.02400 26.95300
C  46.11400 32.99500 29.62900
C  48.59200 36.99300 28.55900
C  49.56400 35.37500 24.06800
C  47.18900 31.26500 25.13300
N  47.52400 34.78300 28.94700
C  46.75000 34.16800 29.90400
C  46.83800 34.97700 31.19000
C  47.39000 36.36500 30.72600
C  47.82400 36.05700 29.32400
C  46.54700 37.60100 30.92100
C  47.74300 34.28200 32.20800
C  47.63500 34.58200 33.72600
H  47.13200 35.91100 34.15200
N  49.20000 35.81500 26.41900
C  49.20000 36.92500 27.25800
C  50.00700 37.95100 26.62000
C  50.19000 37.62300 25.23500
C  49.67600 36.20100 25.16700
C  50.41300 39.19100 27.33400
C  50.75100 38.37700 24.02900
O  50.93400 37.84900 22.97400
C  51.04300 39.81400 24.08200
N  48.46300 33.40600 25.01300
C  49.08900 34.07900 23.95000
C  49.19000 33.21300 22.68000
C  48.79300 31.84500 23.22300
C  48.11200 32.18700 24.55900
C  48.44600 33.80500 21.49000
C  49.82400 30.71500 23.46200
C  51.13400 30.84100 22.70400
N  46.79200 32.51100 27.19600
C  46.62800 31.42200 26.42600
C  45.73300 30.50500 27.11700
C  45.41600 31.18700 28.32800
C  46.12300 32.37500 28.38300
C  45.21400 29.16300 26.52700
C  44.66500 31.00200 29.52700
O  44.04700 30.03000 29.95300
C  45.01900 32.27100 30.40200
C  45.16300 31.65300 31.76800
O  46.12100 30.95800 32.18400
O  44.20000 32.04700 32.57000
C  44.12000 31.58800 33.96100
H  48.82000 37.94400 29.04500
H  49.95100 35.68700 23.09500
H  46.95900 30.38300 24.53200
H  45.86100 35.02400 31.67100
H  48.30700 36.55500 31.28500
H  47.12500 38.26300 31.56600
H  45.60800 37.29400 31.38100
H  46.29100 38.12000 29.99700
H  48.69800 34.55800 31.76200
H  47.57800 33.20900 32.11000
H  48.57800 34.43100 34.25200
H  47.01600 33.75600 34.07700
H  51.46000 39.36500 27.08700
H  50.34200 39.08500 28.41600
H  49.62500 39.86300 26.99500
H  50.32600 40.41300 24.64400
H  51.27900 40.21900 23.09900
H  51.99800 39.82500 24.60700
H  50.23800 33.22300 22.37900
H  48.04600 31.32100 22.62700
H  48.21200 34.84800 21.70300
H  47.59500 33.13300 21.37500
H  49.05300 33.71700 20.58900
H  49.45800 29.69000 23.41000
H  50.12100 30.80800 24.50700
H  50.97500 31.37000 21.76400
H  51.42700 29.80000 22.56900
H  51.92000 31.30100 23.30200
H  45.52100 29.14200 25.48100
H  44.13600 29.03200 26.43600
H  45.49200 28.25200 27.05800
H  44.16500 32.94900 30.38200
H  43.91500 30.51900 33.90700
H  43.32300 32.15800 34.43800
H  45.05900 31.65100 34.51100
Mg 26.12700 50.39000 27.39400
C  24.20500 51.48400 30.10500
C  28.57100 49.41500 29.69800
C  28.13000 49.48900 24.90500
C  23.98800 51.97200 25.23100
N  26.40900 50.59900 29.65200
C  25.39200 50.86100 30.56300
C  25.76100 50.48200 31.96200
C  27.31700 50.22000 31.83300
C  27.44700 50.02300 30.26600
C  28.25000 51.47800 32.06200
C  24.99800 49.26100 32.56500
C  24.34700 49.27700 34.01800
H  25.12300 50.08700 35.11800
N  28.04100 49.43300 27.29500
C  28.82900 49.06300 28.39000
C  30.01400 48.32900 27.89200
C  29.93800 48.47400 26.44600
C  28.67900 49.14600 26.13300
C  31.13400 47.80300 28.77000
C  30.94900 48.00000 25.37800
O  30.77900 48.20900 24.15600
C  32.21400 47.25700 25.71100
N  26.17500 50.91000 25.33300
C  26.96900 50.24100 24.48000
C  26.41700 50.25400 23.07600
C  25.13400 51.09500 23.14800
C  25.03900 51.31200 24.65100
C  27.57700 50.77100 22.12300
C  23.88200 50.42100 22.48700
C  23.13700 51.20400 21.39800
N  24.43900 51.51000 27.54300
C  23.63700 52.13600 26.58200
C  22.46400 52.69200 27.16200
C  22.64600 52.49200 28.55800
C  23.87400 51.75500 28.73000
C  21.39600 53.44600 26.63300
C  21.98500 52.71300 29.84300
O  20.91500 53.27100 30.14600
C  23.04500 52.04500 30.93300
C  23.45600 53.07500 31.93600
O  24.35600 53.87200 31.65100
O  22.75200 53.05800 33.07700
C  22.88300 54.25300 33.96400
H  29.21800 49.00100 30.47400
H  28.72500 49.00400 24.12700
H  23.22700 52.33900 24.54100
H  25.55800 51.33800 32.60600
H  27.74400 49.34600 32.32400
H  27.63200 52.31400 32.38800
H  28.72500 51.80400 31.13700
H  28.91400 51.32500 32.91300
H  25.66900 48.42300 32.37500
H  24.18300 49.11000 31.85800
H  24.26500 48.24800 34.36700
H  23.35700 49.71500 33.89000
H  32.03700 48.13800 28.26000
H  31.23000 46.74900 28.50600
H  30.98700 48.03000 29.82600
H  32.84700 47.03500 24.85200
H  32.00500 46.29600 26.18200
H  32.88600 47.86900 26.31200
H  26.32500 49.20900 22.78000
H  25.35600 52.09600 22.77800
H  28.34800 51.17200 22.78000
H  27.22500 51.57900 21.48200
H  27.98300 49.93700 21.55100
H  23.21900 50.02300 23.25600
H  24.25200 49.51100 22.01600
H  23.17200 50.69700 20.43400
H  23.68300 52.13100 21.22400
H  22.09500 51.38800 21.65800
H  21.88200 53.98600 25.82100
H  21.00500 54.13000 27.38600
H  20.49900 52.91200 26.31700
H  22.51100 51.28200 31.50000
H  23.15000 55.17800 33.45300
H  23.63300 54.15200 34.74900
H  21.87700 54.33400 34.37500

