158

Mg -2.28400 17.35500 25.83200
C  -3.03800 14.98200 28.36000
C  -2.68300 19.79600 28.11500
C  -2.17100 19.58600 23.32700
C  -2.48700 14.72400 23.42600
N  -2.76500 17.31200 28.02500
C  -2.89400 16.31100 28.91400
C  -2.84800 16.69400 30.29800
C  -2.81700 18.25200 30.30600
C  -2.76000 18.48200 28.73500
C  -3.99900 18.98200 31.03100
C  -1.84400 15.94600 31.16500
C  -1.37900 16.65000 32.36700
H  -0.88800 15.74900 33.47500
N  -2.30500 19.33900 25.75500
C  -2.49100 20.18700 26.78100
C  -2.72800 21.59300 26.33800
C  -2.39600 21.52300 24.97300
C  -2.30700 20.09500 24.59500
C  -2.93000 22.82200 27.22700
C  -2.46200 22.71900 23.99200
O  -2.37400 22.62000 22.78600
C  -2.47300 24.10500 24.47900
N  -2.32900 17.19000 23.61900
C  -2.21000 18.25500 22.83400
C  -1.97600 17.81200 21.34700
C  -1.96300 16.24600 21.38300
C  -2.25200 16.04000 22.86400
C  -3.11400 18.27800 20.45300
C  -0.69300 15.56000 20.93000
C  -0.83300 14.40400 19.86900
N  -2.69100 15.31200 25.80400
C  -2.74100 14.41000 24.79200
C  -3.00700 13.11600 25.30800
C  -3.09000 13.31100 26.65100
C  -2.92700 14.68300 26.94500
C  -3.08300 11.83200 24.56500
C  -3.26200 12.60900 27.94800
O  -3.43400 11.42900 28.15100
C  -3.16500 13.64200 29.07800
C  -1.96900 13.12500 29.79400
O  -0.75000 13.23100 29.51800
O  -2.45600 12.56800 31.01900
C  -1.48500 11.92500 31.82800
H  -2.69300 20.62000 28.83200
H  -2.15000 20.28500 22.48800
H  -2.46800 13.79000 22.86100
H  -3.84800 16.38800 30.60600
H  -1.86100 18.65400 30.64500
H  -3.58200 19.79900 31.62000
H  -4.44400 18.35000 31.79900
H  -4.87200 19.23400 30.42900
H  -0.94800 15.67400 30.60600
H  -2.21000 15.01300 31.59200
H  -2.18100 17.28600 32.74000
H  -0.52200 17.31900 32.27400
H  -1.99500 23.37900 27.15900
H  -3.07500 22.52100 28.26500
H  -3.79800 23.40500 26.92100
H  -2.12300 24.76400 23.68400
H  -1.67200 24.10600 25.21800
H  -3.44200 24.55400 24.69900
H  -0.97200 18.08100 21.01900
H  -2.84200 15.89600 20.84300
H  -2.61000 19.13900 20.01500
H  -3.83700 18.63100 21.18900
H  -3.58400 17.65300 19.69400
H  -0.16000 15.06700 21.74300
H  0.04500 16.27700 20.56800
H  -0.37400 13.47100 20.19600
H  -0.17800 14.63200 19.02800
H  -1.83400 14.28800 19.45100
H  -2.16500 11.71700 23.98800
H  -3.81600 11.97300 23.77100
H  -3.41300 10.96800 25.14200
H  -4.01000 13.75000 29.75800
H  -1.05600 11.12500 31.22400
H  -1.92700 11.58300 32.76300
H  -0.64800 12.59300 32.03100
Mg 10.24100 47.13000 26.05200
C  7.74900 47.31200 28.21900
C  12.50700 48.20100 28.37600
C  12.66800 46.91500 23.57300
C  7.86000 46.62100 23.37900
N  10.03200 47.77000 28.03300
C  8.94200 47.71000 28.76100
C  9.30400 47.89700 30.23200
C  10.75900 48.48600 30.21500
C  11.13000 48.19100 28.76900
C  10.85800 49.98800 30.52800
C  9.07300 46.77700 31.21900
C  9.73500 47.02900 32.53700
H  9.07100 46.38100 33.77800
N  12.25600 47.59200 25.91000
C  13.01200 47.92500 27.01300
C  14.39900 48.02900 26.66100
C  14.50300 47.61200 25.27500
C  13.06900 47.36500 24.81200
C  15.51800 48.57100 27.59600
C  15.77400 47.40800 24.42300
O  15.69600 47.03200 23.28400
C  17.14200 47.77600 24.99600
N  10.26500 46.93000 23.80400
C  11.38400 46.80500 23.03700
C  11.13000 46.38200 21.55000
C  9.62900 46.38500 21.50400
C  9.19400 46.65300 22.98300
C  11.81500 47.30500 20.56000
C  9.03200 45.05100 20.84900
C  7.67400 45.20500 20.17500
N  8.20300 46.84700 25.83200
C  7.37000 46.78600 24.68000
C  5.99500 46.62400 25.15000
C  6.09200 46.85600 26.56700
C  7.45200 47.00400 26.84400
C  4.72400 46.39100 24.34200
C  5.31300 46.90300 27.83400
O  4.13700 46.78900 28.04500
C  6.41900 47.17400 28.95500
C  6.27800 46.01200 29.77700
O  6.86800 45.01500 29.63100
O  5.37900 46.23100 30.74600
C  5.07800 45.23100 31.71700
H  13.20000 48.46100 29.17900
H  13.42000 46.78400 22.79200
H  7.11900 46.52800 22.58200
H  8.70700 48.76600 30.51000
H  11.47100 47.83000 30.71700
H  11.43300 50.41900 29.70800
H  11.52400 50.13200 31.38000
H  9.88300 50.47000 30.59300
H  9.36100 45.81600 30.79300
H  7.99100 46.75400 31.34900
H  9.91000 48.09600 32.67400
H  10.72000 46.56400 32.52000
H  15.10300 48.90200 28.54800
H  16.01600 49.47600 27.24600
H  16.31600 47.83100 27.65500
H  17.58500 47.06100 25.68900
H  17.20600 48.76700 25.44500
H  17.84700 47.74700 24.16400
H  11.45800 45.37300 21.30100
H  9.37000 47.30500 20.97900
H  11.51900 48.32700 20.79600
H  11.35800 47.14200 19.58400
H  12.87400 47.04900 20.51600
H  8.94600 44.34100 21.67200
H  9.81500 44.70600 20.17400
H  7.34400 46.23300 20.02000
H  6.90800 44.60400 20.66400
H  7.85400 44.82200 19.17100
H  4.96200 45.78000 23.47000
H  4.34100 47.33700 23.95900
H  3.97200 45.91700 24.97200
H  6.31100 48.10200 29.51700
H  4.53600 44.34500 31.38500
H  4.39000 45.55800 32.49700
H  5.95400 44.99400 32.32000

