158

Mg 40.34800 9.42200 30.78500
C  42.20200 10.68500 33.40500
C  38.02800 8.25800 32.89800
C  38.62400 8.11600 28.08300
C  42.99000 10.02600 28.60400
N  40.23500 9.37100 32.92000
C  40.97400 10.15400 33.83500
C  40.29700 10.27300 35.17500
C  39.10200 9.28500 35.06800
C  39.08700 8.89600 33.55900
C  39.28800 8.03500 35.99500
C  39.92200 11.73000 35.62500
C  39.37400 11.98800 36.99700
H  40.17500 12.92500 37.90200
N  38.55100 8.39500 30.48900
C  37.75200 7.91800 31.57600
C  36.71300 7.07600 31.03200
C  36.93000 6.94800 29.66000
C  38.10500 7.83500 29.34400
C  35.63600 6.48700 31.84300
C  36.12400 6.17500 28.65600
O  36.51500 6.05400 27.53400
C  34.94900 5.40500 29.02400
N  40.65600 9.27400 28.59600
C  39.73800 8.84300 27.66900
C  40.26300 8.86000 26.25400
C  41.64000 9.53700 26.40200
C  41.79400 9.56600 27.98900
C  40.19100 7.48900 25.50800
C  41.83400 10.97300 25.85400
C  40.61700 11.89000 26.00900
N  42.19200 10.16700 30.93900
C  43.25100 10.26800 30.00200
C  44.40500 10.72500 30.63300
C  44.03000 11.08900 31.94000
C  42.70800 10.63400 32.08100
C  45.73200 10.96100 29.94100
C  44.42100 11.76600 33.19100
O  45.46000 12.33100 33.55200
C  43.27400 11.51200 34.23500
C  43.77200 10.79100 35.45400
O  43.97200 9.60700 35.60400
O  43.68500 11.58100 36.56500
C  43.76900 10.83800 37.80200
H  37.36200 7.85700 33.66500
H  38.01300 7.73400 27.26300
H  43.88200 10.17200 27.99100
H  41.06300 9.92600 35.86800
H  38.17300 9.71100 35.44500
H  40.12500 7.43100 35.64500
H  38.31000 7.55600 36.01600
H  39.46400 8.52900 36.95000
H  39.25500 12.20800 34.90800
H  40.86100 12.27200 35.51700
H  39.23500 11.03600 37.51000
H  38.39800 12.46000 36.88100
H  34.65400 6.79200 31.48200
H  35.75100 6.58100 32.92300
H  35.59500 5.40900 31.68200
H  34.33100 6.13600 29.54400
H  35.34200 4.62700 29.67900
H  34.43400 4.91600 28.19700
H  39.48800 9.34900 25.66300
H  42.44500 8.96200 25.94400
H  39.54100 7.50700 24.63300
H  39.78800 6.64100 26.06100
H  41.18800 7.21900 25.15900
H  41.95600 10.78700 24.78700
H  42.79600 11.39200 26.15100
H  39.90300 11.59800 26.77900
H  40.08400 11.99500 25.06500
H  40.97100 12.87500 26.31100
H  46.13700 10.03800 29.52500
H  46.44600 11.57400 30.49100
H  45.41900 11.58900 29.10700
H  42.99100 12.53400 34.48800
H  43.82100 11.66100 38.51400
H  44.69800 10.27700 37.89900
H  42.84900 10.26300 37.91500
Mg 29.06400 57.05900 41.48500
C  26.99500 54.56500 40.44100
C  31.81400 55.19500 40.26600
C  31.13100 59.91700 41.76200
C  26.44900 59.06400 42.33200
N  29.34100 55.04900 40.56500
C  28.31300 54.20200 40.21600
C  28.89600 52.98200 39.48800
C  30.47100 53.10400 39.69100
C  30.57600 54.51100 40.20100
C  31.08200 52.02600 40.59700
C  28.43100 52.79200 38.07500
C  28.80200 53.95200 37.05200
H  27.67800 54.69000 36.32900
N  31.16200 57.45000 41.14800
C  32.09800 56.49000 40.71700
C  33.40800 57.19700 40.69000
C  33.22700 58.49500 41.13800
C  31.75800 58.66100 41.40700
C  34.64800 56.54000 40.06200
C  34.42800 59.48400 41.41300
O  35.62500 59.25300 41.12800
C  34.17000 60.88500 42.03100
N  28.83800 59.25100 41.76900
C  29.78700 60.17600 42.01300
C  29.16600 61.49600 42.45300
C  27.58900 61.19900 42.45400
C  27.62300 59.68600 42.18800
C  29.65900 62.12900 43.76100
C  26.72400 61.96800 41.35400
C  25.78400 63.02200 42.02500
N  27.14500 56.90900 41.38500
C  26.18700 57.72900 41.91100
C  24.83600 57.11500 41.69600
C  25.13900 55.84100 41.15100
C  26.54000 55.76200 41.03600
C  23.51500 57.73500 42.06300
C  24.62500 54.59900 40.75800
O  23.47800 54.19000 40.78100
C  25.81100 53.67000 40.28000
C  25.76400 52.35200 41.07000
O  26.19600 52.06000 42.20100
O  25.26700 51.30500 40.27700
C  24.86100 50.07100 40.93100
H  32.69700 54.58400 40.06800
H  31.74900 60.81700 41.80300
H  25.56900 59.60400 42.68700
H  28.52000 52.17000 40.11100
H  31.00200 53.06100 38.74100
H  31.61700 52.42800 41.45700
H  31.72400 51.43300 39.94600
H  30.32700 51.37900 41.04400
H  27.36100 52.63000 38.20200
H  28.94100 51.85600 37.84300
H  29.51700 53.59200 36.31200
H  29.24000 54.68500 37.73000
H  34.85000 56.92800 39.06300
H  34.55300 55.45800 39.96700
H  35.51800 56.72900 40.69100
H  33.72000 61.59000 41.33200
H  35.18500 61.14100 42.33400
H  33.50000 60.66700 42.86300
H  29.52000 62.12500 41.63600
H  27.29100 61.36200 43.48900
H  28.94100 62.20200 44.57800
H  29.83700 63.16400 43.46900
H  30.59100 61.72800 44.16000
H  26.13100 61.29900 40.73100
H  27.44800 62.43300 40.68600
H  25.90700 63.00300 43.10800
H  24.76200 62.72000 41.79800
H  26.11200 64.00700 41.69200
H  22.71400 57.01400 41.89800
H  23.53000 58.61000 41.41400
H  23.43000 57.91500 43.13400
H  25.76700 53.47500 39.20800
H  24.26000 49.38700 40.33300
H  24.35200 50.11600 41.89300
H  25.69500 49.39100 41.10800

