158

Mg 35.44800 2.29700 29.67700
C  33.79400 3.36400 32.54600
C  38.26200 2.10200 31.70400
C  37.41300 1.76900 26.94800
C  32.79900 3.37600 27.66400
N  35.99400 2.66600 31.94700
C  35.07900 3.04300 32.89900
C  35.72700 2.96300 34.36200
C  37.23100 2.78800 33.95600
C  37.21600 2.49800 32.47600
C  38.22500 3.96700 34.23500
C  35.15300 1.81300 35.17900
C  34.66900 2.18600 36.53500
H  35.35900 3.28700 37.31700
N  37.52800 1.91500 29.33300
C  38.47300 1.79200 30.33500
C  39.71700 1.31600 29.73000
C  39.45900 1.17600 28.34500
C  38.10100 1.66000 28.14000
C  40.88600 0.94400 30.49700
C  40.31100 0.68400 27.17700
O  39.97300 0.61300 25.97200
C  41.71500 0.29600 27.49100
N  35.13000 2.52400 27.55100
C  36.10600 2.19400 26.60900
C  35.43200 2.17600 25.23600
C  33.94900 2.54400 25.44300
C  33.93800 2.84300 26.91200
C  36.17400 3.11600 24.33200
C  32.94800 1.48000 24.89300
C  32.43300 0.32400 25.81200
N  33.65000 3.09200 30.01700
C  32.70100 3.47200 29.10500
C  31.50600 3.95800 29.83100
C  31.88200 3.89400 31.14200
C  33.18600 3.40200 31.24700
C  30.17200 4.45000 29.31300
C  31.47900 4.16200 32.46600
O  30.40700 4.60300 32.85300
C  32.62100 3.78500 33.41800
C  32.88800 5.04700 34.38000
O  33.58200 6.01700 34.12300
O  32.02900 4.92800 35.43700
C  31.92200 6.00800 36.38400
H  39.19300 1.95300 32.25500
H  37.95900 1.75400 26.00300
H  31.87500 3.63200 27.14100
H  35.53800 3.96800 34.73900
H  37.59600 1.89700 34.46700
H  38.72000 3.87900 35.20200
H  37.58700 4.85100 34.20700
H  38.95500 4.11100 33.43800
H  35.92100 1.06700 35.38200
H  34.32600 1.33200 34.65500
H  34.46200 1.32800 37.17400
H  33.66600 2.56300 36.33800
H  40.89100 -0.11400 30.76200
H  40.87000 1.40400 31.48600
H  41.82200 1.23400 30.01900
H  42.05700 1.26100 27.86700
H  42.29700 0.02600 26.60900
H  41.87700 -0.47500 28.24400
H  35.49100 1.12100 24.96800
H  33.75900 3.52500 25.00800
H  35.45700 3.78300 23.85500
H  36.59200 2.42800 23.59700
H  36.97400 3.68700 24.80400
H  33.37900 1.06400 23.98200
H  32.14500 2.09700 24.48800
H  33.10300 0.15200 26.65400
H  32.30000 -0.61700 25.27800
H  31.42100 0.58500 26.12200
H  29.72200 3.71600 28.64500
H  30.16900 5.38600 28.75500
H  29.56400 4.50300 30.21600
H  32.21900 2.94700 33.98800
H  30.87300 6.29700 36.45800
H  32.60400 6.83600 36.19500
H  32.15200 5.54200 37.34200
Mg 48.96900 45.89900 43.30800
C  45.69900 46.22300 42.13200
C  48.92200 42.51500 42.40400
C  52.39300 45.79400 43.56500
C  49.06200 49.29800 43.75900
N  47.55500 44.61400 42.23000
C  46.26200 44.95100 41.87800
C  45.48800 43.68600 41.48200
C  46.42200 42.57600 41.85000
C  47.73300 43.25800 42.23400
C  45.83400 41.72300 42.96100
C  44.99300 43.64100 40.01700
C  45.86500 44.32400 38.92500
H  46.14800 43.42500 37.64100
N  50.44800 44.34400 43.04800
C  50.17500 43.07500 42.64200
C  51.44800 42.36600 42.49500
C  52.47800 43.23800 42.92100
C  51.83000 44.54200 43.16000
C  51.44000 40.94300 42.28200
C  53.93600 42.80200 42.92600
O  54.25200 41.71000 42.59200
C  55.05700 43.80800 43.20100
N  50.54700 47.37100 43.47300
C  51.83600 47.04100 43.80700
C  52.75000 48.26700 44.09000
C  51.64800 49.30400 44.43900
C  50.35100 48.65100 43.88400
C  53.77700 48.01300 45.19000
C  51.95800 50.76800 43.95800
C  52.36700 51.70300 45.10500
N  47.65400 47.48500 43.13000
C  47.91000 48.79800 43.34100
C  46.61600 49.52900 43.02300
C  45.71400 48.55400 42.60600
C  46.41300 47.31800 42.66000
C  46.36300 51.00400 42.93700
C  44.34800 48.32300 42.09700
O  43.35900 49.00400 41.98300
C  44.36600 46.78400 41.71000
C  43.12600 46.12300 42.22800
O  42.37300 45.55300 41.51600
O  42.96000 46.19300 43.57000
C  41.74600 45.58100 44.02000
H  48.74300 41.45700 42.19800
H  53.47800 45.85200 43.67000
H  49.16700 50.35900 43.99700
H  44.61200 43.70000 42.12900
H  46.55800 41.93000 40.98300
H  44.75400 41.59000 42.90700
H  46.04800 41.99600 43.99500
H  46.26100 40.72100 42.91500
H  43.99000 44.06300 39.95900
H  44.84400 42.58600 39.78400
H  46.84100 44.59600 39.32700
H  45.27900 45.18300 38.59800
H  51.98000 40.68900 41.37000
H  50.51300 40.37400 42.20500
H  51.93000 40.49900 43.14800
H  54.93700 44.68000 42.55800
H  55.97400 43.43600 42.74500
H  55.21100 44.02100 44.25800
H  53.29200 48.41800 43.15700
H  51.39100 49.32500 45.49800
H  53.57300 47.13000 45.79600
H  53.69200 48.90500 45.81000
H  54.75700 47.96900 44.71400
H  51.09800 51.20300 43.44900
H  52.72700 50.77000 43.18500
H  51.60400 52.41400 45.42400
H  53.20200 52.35500 44.85000
H  52.73900 51.29300 46.04400
H  46.82100 51.27500 41.98600
H  46.86900 51.58200 43.71100
H  45.28300 51.15000 42.94700
H  44.27500 46.60700 40.63800
H  40.89400 45.73900 43.35900
H  41.46900 45.98500 44.99400
H  41.77500 44.49600 44.12200

