158

Mg 45.69200 5.26600 47.33500
C  43.43300 7.88700 46.47700
C  42.95800 3.05900 46.91200
C  47.73100 2.64900 47.21200
C  48.28300 7.55300 47.45400
N  43.45900 5.45300 46.40900
C  42.82300 6.67500 46.23600
C  41.35100 6.46400 45.88500
C  41.17500 4.91400 46.26800
C  42.57700 4.41600 46.59200
C  40.27800 4.62700 47.41800
C  40.99400 6.78300 44.32800
C  39.97800 7.86000 44.02600
H  40.39000 8.83300 42.90900
N  45.43400 3.14900 47.09200
C  44.19800 2.45900 47.03900
C  44.49100 1.07200 46.92700
C  45.86600 0.81200 46.90600
C  46.43900 2.23900 47.00800
C  43.33700 0.06700 46.89600
C  46.51100 -0.60600 46.71900
O  45.80500 -1.58500 46.54200
C  48.01300 -0.69100 46.64200
N  47.72900 5.17100 47.22200
C  48.30000 3.95900 47.37200
C  49.87200 4.09700 47.52200
C  50.05400 5.65900 47.77300
C  48.59900 6.17100 47.49300
C  50.51200 3.24600 48.67700
C  51.08400 6.33700 46.83400
C  51.93700 7.62100 47.30800
N  45.86500 7.30000 47.14200
C  47.00900 8.12200 47.14400
C  46.56500 9.50200 47.00800
C  45.20300 9.43900 46.82200
C  44.78500 8.08400 46.80900
C  47.52500 10.59900 46.98500
C  44.03800 10.25900 46.62000
O  43.94500 11.47600 46.58000
C  42.86000 9.33400 46.28200
C  41.72500 9.55900 47.24000
O  41.48900 8.97300 48.29500
O  40.88000 10.44800 46.69400
C  39.56000 10.67100 47.45100
H  42.09800 2.39200 46.99300
H  48.45500 1.83300 47.26300
H  49.10900 8.21000 47.73100
H  40.81100 7.10800 46.57900
H  40.83300 4.32100 45.41900
H  40.49300 3.65800 47.87000
H  39.22400 4.78400 47.19000
H  40.42800 5.31100 48.25400
H  40.49500 5.91000 43.90700
H  41.92200 6.99500 43.79800
H  39.99800 8.47000 44.92900
H  39.04200 7.36400 43.77000
H  43.53400 -0.79700 47.53000
H  43.27700 -0.35700 45.89400
H  42.30500 0.38200 47.05300
H  48.54200 -0.39200 47.54700
H  48.32400 0.00100 45.85900
H  48.21900 -1.73900 46.42400
H  50.37700 3.95600 46.56700
H  50.32300 5.87700 48.80700
H  51.34600 2.64100 48.32200
H  49.72100 2.67700 49.16700
H  50.92300 3.71800 49.57000
H  50.60300 6.63700 45.90400
H  51.78300 5.51500 46.68100
H  52.79800 7.23900 47.85600
H  51.41600 8.18500 48.08100
H  52.08500 8.33200 46.49400
H  48.01500 10.77600 47.94300
H  46.90200 11.37600 46.54300
H  48.18900 10.15600 46.24200
H  42.52000 9.46600 45.25500
H  39.68400 11.33700 48.30500
H  39.07800 9.77100 47.83500
H  38.86300 11.08600 46.72300
Mg 36.77600 50.16000 25.50000
C  36.77000 48.29700 28.49300
C  35.58200 52.79900 27.11700
C  36.51600 51.79800 22.54500
C  37.69400 47.16500 23.84800
N  36.25900 50.49900 27.49500
C  36.33900 49.61000 28.60600
C  35.87300 50.32500 29.90200
C  35.29700 51.68500 29.34400
C  35.82000 51.66000 27.89000
C  33.79000 51.71200 29.41500
C  37.08800 50.61300 30.81500
C  36.83000 50.81300 32.36100
H  35.44600 50.72500 32.94900
N  36.07000 52.06900 24.90300
C  35.67400 52.99400 25.76800
C  35.41200 54.22600 25.08100
C  35.59000 54.03600 23.66400
C  36.10600 52.58700 23.63700
C  34.92300 55.41000 25.80100
C  35.36300 54.88400 22.52600
O  35.66400 54.54900 21.35200
C  34.58000 56.17900 22.70700
N  37.17100 49.55000 23.47400
C  36.86800 50.44100 22.43900
C  37.16700 49.78000 21.08300
C  37.56400 48.30600 21.47900
C  37.53300 48.34300 23.05200
C  35.97100 49.89000 20.06200
C  38.86100 47.73400 20.83800
C  40.17800 48.04900 21.54800
N  37.08300 48.11700 26.00600
C  37.56700 47.08500 25.26600
C  37.95000 45.94400 26.11100
C  37.67800 46.38600 27.43700
C  37.10300 47.67900 27.26800
C  38.48600 44.59700 25.64800
C  37.71100 46.12100 28.83700
O  37.93400 45.09500 29.46000
C  37.16600 47.31600 29.56300
C  36.09500 46.86000 30.46400
O  34.90100 46.80200 30.11800
O  36.63200 46.56300 31.69500
C  35.65000 45.92400 32.56900
H  35.30000 53.71100 27.64800
H  36.35800 52.30700 21.59200
H  38.08600 46.25300 23.39200
H  35.22200 49.71300 30.52600
H  35.69500 52.56200 29.85200
H  33.45600 52.32600 30.25100
H  33.36300 50.76000 29.73100
H  33.18800 51.83300 28.51400
H  37.52500 51.50100 30.35700
H  37.84200 49.82600 30.78700
H  37.25600 51.74900 32.72200
H  37.51300 50.17800 32.92500
H  34.45400 56.15200 25.15400
H  35.81500 55.81200 26.28200
H  34.12900 55.18700 26.51400
H  34.69100 56.72400 21.76900
H  35.16300 56.72800 23.44600
H  33.59400 55.77800 22.93900
H  37.99200 50.32100 20.61800
H  36.74300 47.63300 21.23400
H  35.73100 48.99500 19.48800
H  36.07100 50.70300 19.34200
H  35.07400 50.23300 20.57600
H  38.96200 47.85500 19.75900
H  38.78100 46.64800 20.86900
H  40.53200 47.16700 22.08200
H  40.12300 48.90800 22.21700
H  40.78900 48.40500 20.71900
H  38.04300 44.37300 24.67800
H  38.35400 43.76700 26.34300
H  39.57000 44.53500 25.54700
H  38.04200 47.70200 30.08300
H  34.92100 46.71700 32.72700
H  36.12900 45.72600 33.52800
H  35.08600 45.08400 32.16200

