158

Mg 44.76800 4.68200 48.25500
C  42.66100 7.44200 47.35300
C  42.21800 2.62100 47.40200
C  46.99000 2.14000 48.37000
C  47.48200 6.99000 48.47400
N  42.68600 4.95800 47.42300
C  42.00400 6.17900 47.14200
C  40.52400 5.90000 46.62500
C  40.43500 4.35900 46.96400
C  41.84200 3.94800 47.37700
C  39.46600 4.11600 48.16400
C  40.47500 6.16200 45.07700
C  39.02000 6.46400 44.49100
H  38.89400 7.39100 43.26200
N  44.64100 2.71100 48.04600
C  43.51500 2.01000 47.64400
C  43.84300 0.63700 47.79300
C  45.18400 0.43200 48.21800
C  45.63400 1.81300 48.26400
C  42.75900 -0.48800 47.56400
C  45.75500 -0.89500 48.66100
O  45.08200 -1.91500 48.65000
C  47.19600 -0.93600 49.30400
N  46.92000 4.58300 48.30500
C  47.59400 3.40000 48.44900
C  49.06300 3.59800 48.52400
C  49.23300 5.19100 48.42000
C  47.82800 5.66500 48.40200
C  49.70300 2.90000 49.73800
C  50.11100 5.66700 47.18500
C  51.35800 6.52800 47.43800
N  45.13500 6.80100 47.94700
C  46.24100 7.59300 48.17900
C  45.93800 8.98200 47.94900
C  44.50100 9.01400 47.74000
C  44.08400 7.68100 47.69600
C  46.96900 10.14500 48.04600
C  43.27500 9.85300 47.45300
O  43.17600 11.08800 47.30700
C  42.07400 8.87300 47.20500
C  41.03000 9.27400 48.16400
O  40.98200 8.84300 49.34200
O  40.10500 10.26000 47.58000
C  38.99300 10.69600 48.49000
H  41.35100 1.97100 47.26400
H  47.81300 1.44700 48.55600
H  48.32300 7.68500 48.53100
H  39.84600 6.52800 47.20400
H  40.16500 3.70200 46.13700
H  39.08600 5.06400 48.54700
H  39.92600 3.62200 49.01900
H  38.66400 3.43000 47.89100
H  40.74600 5.31800 44.44300
H  41.23000 6.85200 44.70000
H  38.43400 6.86900 45.31700
H  38.67500 5.44500 44.31700
H  41.96300 -0.18900 46.88100
H  42.22400 -0.61600 48.50500
H  43.26000 -1.35400 47.13300
H  47.30800 -1.97200 49.62300
H  47.38900 -0.21100 50.09500
H  47.91600 -0.87500 48.48800
H  49.46500 3.13200 47.62400
H  49.76000 5.61600 49.27400
H  50.39300 2.11700 49.42300
H  48.96400 2.48200 50.42100
H  50.26900 3.64800 50.29300
H  49.38900 6.35500 46.74700
H  50.39300 4.92900 46.43300
H  51.60500 6.41700 48.49300
H  51.17900 7.59900 47.33800
H  52.17100 6.25800 46.76300
H  47.13400 10.50700 49.06100
H  46.64200 11.00100 47.45600
H  47.92500 9.73400 47.72200
H  41.76600 9.01200 46.16900
H  38.09000 10.92400 47.92300
H  39.33000 11.61800 48.96400
H  38.70700 9.98700 49.26700
Mg 26.95200 49.63100 26.32500
C  24.84600 50.69600 28.87800
C  29.04000 48.33500 28.71700
C  28.96200 48.80000 23.86700
C  24.78700 51.40800 24.07000
N  26.90300 49.57400 28.56000
C  25.93000 49.95500 29.38600
C  26.11000 49.40900 30.85000
C  27.58200 48.87900 30.80200
C  27.93400 48.94200 29.28000
C  28.63900 49.55500 31.69200
C  24.94000 48.53700 31.40200
C  24.38900 49.04000 32.84200
H  25.42600 49.57400 33.86100
N  28.70700 48.69200 26.28000
C  29.42800 48.18900 27.34700
C  30.57800 47.51000 26.85700
C  30.66400 47.79600 25.45000
C  29.42100 48.44200 25.11900
C  31.57200 46.80900 27.79700
C  31.69900 47.43000 24.34700
O  31.67300 47.84300 23.19300
C  32.91700 46.57700 24.68500
N  26.92900 50.26400 24.27400
C  27.89400 49.62300 23.46800
C  27.49600 49.77800 21.96200
C  26.23200 50.65100 22.00800
C  25.92400 50.75600 23.55000
C  28.67800 50.47500 21.25000
C  25.05700 50.19300 21.08700
C  24.89300 51.00900 19.75700
N  25.17500 50.86100 26.34100
C  24.42800 51.54800 25.40700
C  23.28200 52.17700 25.95200
C  23.42600 51.90400 27.33300
C  24.55700 51.06600 27.53000
C  22.29400 53.08000 25.31800
C  22.73200 52.06900 28.63300
O  21.71000 52.58900 29.02300
C  23.67200 51.27600 29.67300
C  24.15200 52.36200 30.54400
O  25.02400 53.21000 30.21900
O  23.40000 52.36300 31.69600
C  23.66300 53.32000 32.68700
H  29.66600 48.05700 29.56700
H  29.49200 48.38300 23.00800
H  24.06500 51.93000 23.43800
H  26.13300 50.21300 31.58600
H  27.51900 47.82200 31.06200
H  29.35200 48.79900 32.01900
H  28.26200 49.97000 32.62700
H  29.27100 50.28000 31.18000
H  25.18600 47.47900 31.48500
H  24.12100 48.56700 30.68300
H  23.76500 48.27600 33.30500
H  23.66200 49.83800 32.69200
H  31.38000 45.75000 27.62100
H  31.56900 46.86000 28.88600
H  32.58400 47.15500 27.58700
H  33.78500 47.15800 24.99500
H  33.18500 46.06500 23.76100
H  32.56400 45.95000 25.50400
H  27.31400 48.76500 21.60200
H  26.54400 51.67300 21.79600
H  29.13200 51.23000 21.89300
H  28.42200 50.93400 20.29500
H  29.33400 49.63800 21.01100
H  24.10400 50.15000 21.61300
H  25.41200 49.21500 20.76000
H  23.83000 51.13600 19.55300
H  25.31400 50.41600 18.94400
H  25.40700 51.96900 19.73100
H  21.60500 52.44400 24.76100
H  22.84700 53.64300 24.56700
H  21.79700 53.77600 25.99500
H  23.21800 50.53300 30.32800
H  24.04700 54.27900 32.34000
H  24.30900 52.86700 33.43800
H  22.77300 53.64800 33.22400

