158

Mg 24.08400 -4.73500 45.98800
C  26.22500 -2.34300 44.56600
C  21.55400 -3.63900 43.95100
C  22.41900 -7.51300 46.77400
C  27.02200 -6.19700 47.51400
N  23.90500 -3.22200 44.41500
C  24.92400 -2.31200 44.06600
C  24.48000 -1.33700 42.92400
C  22.88800 -1.52200 43.09700
C  22.72600 -2.86000 43.85600
C  22.09300 -0.31800 43.62200
C  25.15400 -1.70500 41.60400
C  25.38300 -0.48000 40.78900
H  25.63200 -0.61100 39.25500
N  22.24000 -5.43100 45.48000
C  21.31700 -4.80500 44.64700
C  20.09500 -5.62600 44.51800
C  20.36400 -6.74600 45.37400
C  21.68300 -6.61000 45.96800
C  18.96400 -5.26700 43.83100
C  19.33100 -7.88800 45.52500
O  18.28700 -7.89700 44.86700
C  19.51300 -8.95700 46.63300
N  24.67100 -6.61800 46.94000
C  23.71400 -7.48100 47.17400
C  24.32800 -8.66400 47.86100
C  25.84700 -8.38200 48.07800
C  25.87000 -6.96000 47.58000
C  23.51700 -9.04300 49.15300
C  26.75700 -9.41100 47.42100
C  27.77400 -10.02900 48.34200
N  26.12700 -4.29800 46.15700
C  27.19300 -4.97000 46.80700
C  28.40900 -4.31000 46.64500
C  28.17300 -3.23400 45.71900
C  26.75600 -3.36400 45.40700
C  29.78100 -4.64200 47.24600
C  28.72400 -2.09700 45.00200
O  29.91600 -1.72500 44.98100
C  27.50200 -1.50800 44.18800
C  27.41700 -0.07500 44.57000
O  26.43200 0.39800 45.10500
O  28.53500 0.64200 44.16300
C  28.49600 2.07600 44.58700
H  20.72800 -3.24900 43.35300
H  21.92000 -8.44700 47.04000
H  27.81800 -6.66500 48.09600
H  24.65700 -0.28800 43.16000
H  22.68800 -1.74500 42.04900
H  21.60600 -0.56500 44.56500
H  21.32600 -0.11600 42.87500
H  22.65200 0.61800 43.60800
H  24.53900 -2.34800 40.97400
H  26.13800 -2.16000 41.72200
H  26.24400 0.06500 41.17500
H  24.48000 0.11900 40.90800
H  19.04900 -5.85500 42.91700
H  18.94500 -4.22700 43.50400
H  17.99200 -5.39800 44.30400
H  20.23000 -9.74500 46.40000
H  18.53700 -9.41800 46.78400
H  19.71500 -8.58900 47.63900
H  24.14400 -9.46400 47.14500
H  26.13500 -8.28800 49.12500
H  22.56300 -8.51600 49.17200
H  24.08200 -8.73200 50.03100
H  23.39000 -10.12000 49.26300
H  27.31600 -9.06800 46.55100
H  26.08200 -10.21700 47.13300
H  28.17200 -9.30300 49.05100
H  28.65100 -10.30800 47.75700
H  27.34000 -10.91900 48.79800
H  30.06200 -5.56800 46.74400
H  29.73500 -4.72100 48.33300
H  30.46000 -3.81600 47.03800
H  27.79400 -1.63700 43.14500
H  27.51000 2.54000 44.53900
H  29.00900 2.72700 43.87900
H  28.82100 2.25400 45.61200
Mg -2.23900 34.35100 26.63200
C  -3.75400 32.53700 29.24700
C  -0.93700 36.54700 28.99800
C  -1.28900 36.38300 24.16800
C  -4.11300 32.49900 24.43100
N  -2.51100 34.55100 28.83500
C  -3.11000 33.70800 29.71000
C  -2.80500 34.20000 31.13800
C  -2.15700 35.58200 30.99100
C  -1.82200 35.57200 29.50200
C  -3.02900 36.81700 31.40900
C  -1.92200 33.22800 32.02300
C  -2.29100 32.86000 33.49600
H  -1.19700 32.94200 34.51900
N  -1.02900 36.15100 26.55400
C  -0.54300 36.83100 27.67500
C  0.35800 37.83800 27.15400
C  0.28900 37.78000 25.71300
C  -0.67900 36.72000 25.38100
C  1.17400 38.71300 28.04800
C  1.06100 38.53000 24.70900
O  0.86800 38.38900 23.50200
C  2.04200 39.56600 25.17000
N  -2.80500 34.56600 24.61800
C  -2.24000 35.45600 23.79000
C  -2.70900 35.34800 22.30900
C  -3.50200 33.99200 22.37000
C  -3.53200 33.67500 23.88000
C  -3.48600 36.64500 21.78400
C  -2.89200 32.84400 21.49900
C  -1.42400 32.54000 21.69800
N  -3.53800 32.81800 26.79200
C  -4.22300 32.09700 25.75300
C  -5.02800 31.02200 26.30000
C  -4.83700 31.08000 27.68000
C  -3.86400 32.17300 27.89500
C  -6.04200 30.17100 25.50800
C  -5.25900 30.53600 28.96000
O  -5.97500 29.57700 29.19800
C  -4.52700 31.45900 30.09500
C  -5.62600 32.02800 30.90200
O  -6.37200 32.92000 30.57100
O  -5.55700 31.43900 32.14600
C  -6.60400 31.80400 33.12500
H  -0.46900 37.14100 29.78600
H  -0.96900 37.00500 23.32900
H  -4.67100 31.81700 23.78600
H  -3.78700 34.23600 31.61000
H  -1.20800 35.66500 31.52200
H  -3.20400 37.52400 30.59800
H  -2.60100 37.31800 32.27700
H  -3.99200 36.61100 31.87800
H  -0.91900 33.65300 32.03500
H  -1.76800 32.33200 31.42200
H  -2.71100 31.85800 33.40900
H  -3.14100 33.44000 33.85300
H  0.79600 39.67000 27.68800
H  2.19700 38.40300 27.83200
H  0.91200 38.59600 29.09900
H  1.51700 40.41800 25.60300
H  2.47800 40.09700 24.32400
H  2.76100 39.09400 25.84000
H  -1.77100 35.16700 21.78300
H  -4.49300 34.25600 22.00200
H  -4.26100 36.28900 21.10500
H  -2.78600 37.15900 21.12500
H  -3.79300 37.20300 22.66800
H  -3.08700 33.13000 20.46600
H  -3.49100 31.96500 21.73800
H  -0.99700 33.14300 20.89600
H  -1.25800 31.46300 21.66000
H  -1.16800 33.07900 22.61000
H  -6.92800 30.08400 26.13700
H  -5.63500 29.21100 25.19000
H  -6.25900 30.84300 24.67700
H  -3.90400 30.81700 30.71800
H  -7.37300 32.44000 32.68700
H  -6.07500 32.34600 33.90900
H  -6.96900 30.84800 33.50000

