158

Mg 30.18700 58.00300 40.10000
C  27.28800 56.52300 39.24800
C  31.85900 55.11500 39.38400
C  33.07800 59.77800 40.35100
C  28.42200 61.06500 40.31800
N  29.63900 56.01100 39.21600
C  28.35000 55.65600 38.97600
C  28.28800 54.21000 38.57800
C  29.73200 53.65800 39.10000
C  30.48000 54.95600 39.24400
C  29.82600 52.76500 40.38400
C  27.96200 53.77100 37.12000
C  28.49700 54.62200 35.94900
H  27.79300 54.65800 34.59300
N  32.17200 57.50500 39.84800
C  32.65500 56.24200 39.62800
C  34.07200 56.28200 39.59400
C  34.49400 57.56000 40.00600
C  33.23600 58.39600 40.12200
C  34.86400 55.03600 39.31500
C  35.87900 57.89300 40.34600
O  36.78200 57.11900 40.07400
C  36.20900 59.22100 41.05000
N  30.67300 60.10800 40.37300
C  31.93700 60.56700 40.46600
C  32.02800 62.09700 40.49400
C  30.49700 62.45000 40.56400
C  29.79000 61.15700 40.28800
C  32.95600 62.77800 41.51600
C  30.10500 63.41900 39.44000
C  29.08700 64.51200 39.76500
N  28.15100 58.68600 39.94400
C  27.52400 59.90700 40.17800
C  26.14400 59.76300 39.86600
C  26.01100 58.42500 39.52400
C  27.24100 57.83100 39.66300
C  25.19100 60.93200 39.75600
C  24.99100 57.47000 39.06800
O  23.82100 57.56700 38.77700
C  25.80700 56.13400 38.93100
C  25.34600 55.14900 39.93400
O  25.82500 54.99700 41.06300
O  24.43900 54.28500 39.32700
C  24.00500 53.15100 40.21200
H  32.28800 54.11200 39.32500
H  34.06200 60.25000 40.38000
H  27.98200 62.06200 40.40100
H  27.52000 53.90200 39.28800
H  30.29200 53.16900 38.30200
H  28.77300 52.54900 40.56300
H  30.24800 53.34900 41.20200
H  30.34800 51.86200 40.07000
H  26.87300 53.71700 37.11700
H  28.28700 52.75000 36.92000
H  29.57600 54.48000 35.88700
H  28.38700 55.64300 36.31400
H  34.31100 54.23800 38.81900
H  35.18600 54.60300 40.26200
H  35.67400 55.17200 38.59900
H  36.19400 60.09600 40.40000
H  37.26600 59.16700 41.31000
H  35.62100 59.38900 41.95200
H  32.33800 62.36400 39.48400
H  30.03000 62.72900 41.50900
H  32.32300 63.41700 42.13100
H  33.69900 63.36000 40.97000
H  33.47000 62.11700 42.21300
H  29.72400 62.87500 38.57500
H  30.96500 64.02200 39.14900
H  29.56400 65.45400 39.49300
H  28.90500 64.57500 40.83800
H  28.19500 64.40000 39.14800
H  24.73200 61.13400 40.72300
H  24.38700 60.65400 39.07500
H  25.63100 61.79500 39.25600
H  25.74900 55.72700 37.92100
H  23.09000 53.44700 40.72600
H  24.75400 52.80400 40.92400
H  23.72100 52.31500 39.57200
Mg -6.01900 25.33300 26.46600
C  -4.29000 26.74200 29.15900
C  -7.49100 23.16600 28.54100
C  -7.26200 23.96000 23.77000
C  -4.01200 27.51200 24.28700
N  -5.80100 24.92000 28.60900
C  -5.15400 25.67400 29.54200
C  -5.61800 25.36400 31.03100
C  -6.39400 24.02500 30.77800
C  -6.63700 24.01500 29.20500
C  -5.62200 22.74000 31.26700
C  -6.51500 26.50200 31.62600
C  -6.27100 27.00000 33.10500
H  -5.69900 25.90600 34.04400
N  -7.28600 23.74600 26.19500
C  -7.86300 23.00400 27.16900
C  -8.64600 21.97900 26.66000
C  -8.54400 22.20300 25.21700
C  -7.65000 23.35000 24.97400
C  -9.35700 20.88400 27.40500
C  -9.24800 21.49400 24.10600
O  -9.05900 21.78600 22.95600
C  -10.38800 20.46800 24.36500
N  -5.59800 25.61800 24.29200
C  -6.35200 24.97600 23.42000
C  -6.10000 25.42400 21.96000
C  -5.02400 26.55300 22.10300
C  -4.78700 26.60300 23.62100
C  -5.51600 24.32300 21.02400
C  -5.53800 28.02500 21.64000
C  -4.62600 28.85000 20.73300
N  -4.55900 26.85000 26.66100
C  -3.87500 27.63600 25.66400
C  -2.98700 28.62700 26.40800
C  -3.14400 28.27000 27.77900
C  -4.08000 27.23600 27.84300
C  -1.89900 29.58000 25.79300
C  -2.56100 28.57700 29.08900
O  -1.77000 29.44600 29.46500
C  -3.37800 27.52900 30.11700
C  -2.43600 26.69500 30.79700
O  -1.85400 25.77000 30.22300
O  -2.32300 27.17300 32.10600
C  -1.28200 26.57100 33.00300
H  -8.07900 22.52600 29.20200
H  -7.68800 23.44400 22.90700
H  -3.47000 28.24000 23.68000
H  -4.75800 25.13700 31.66200
H  -7.33500 23.91500 31.31600
H  -6.34300 21.92900 31.37600
H  -4.99900 22.79300 32.16000
H  -4.90100 22.51700 30.48100
H  -7.57700 26.27700 31.53600
H  -6.30600 27.35300 30.97800
H  -7.20900 27.28600 33.58000
H  -5.47800 27.74200 33.20500
H  -9.20100 19.86700 27.04500
H  -10.43000 21.03300 27.28400
H  -9.09800 20.87400 28.46400
H  -10.78700 20.07100 23.43300
H  -11.08000 20.92900 25.06900
H  -9.81100 19.65000 24.79700
H  -7.07000 25.85100 21.70400
H  -4.02900 26.35900 21.70300
H  -6.22700 24.25100 20.20200
H  -5.54700 23.31600 21.44000
H  -4.48700 24.48000 20.69900
H  -5.75700 28.66500 22.49400
H  -6.42100 27.80900 21.03800
H  -3.59500 28.52100 20.60500
H  -4.54700 29.73800 21.36000
H  -5.06600 29.03100 19.75200
H  -2.22800 30.61800 25.74700
H  -1.74600 29.27800 24.75700
H  -0.99600 29.53600 26.40200
H  -3.87000 28.08400 30.91600
H  -0.67600 27.31100 33.52500
H  -0.64700 25.88600 32.43900
H  -1.67300 26.06600 33.88600

