158

Mg 29.04300 58.14100 42.00000
C  26.85800 56.07000 40.31300
C  31.67900 56.52400 40.21600
C  31.18900 60.59700 42.91500
C  26.32300 59.89000 43.19600
N  29.17100 56.68900 40.18000
C  28.13700 55.93400 39.76000
C  28.53900 54.76300 38.77100
C  30.07200 54.74100 39.24200
C  30.32800 56.03200 39.94800
C  30.53800 53.47900 40.00400
C  28.29800 55.14400 37.33800
C  27.34500 54.20900 36.60000
H  27.22800 54.14200 35.12100
N  31.13700 58.53000 41.66300
C  32.02100 57.73200 40.95500
C  33.37100 58.19400 41.21900
C  33.20900 59.41500 42.02100
C  31.78900 59.56300 42.20800
C  34.61900 57.41700 40.73800
C  34.39900 60.26500 42.48000
O  35.54900 59.89700 42.21400
C  34.23900 61.53800 43.35900
N  28.81600 59.92200 42.87000
C  29.86600 60.78600 43.23200
C  29.28700 62.09400 43.76100
C  27.80300 61.71000 44.06600
C  27.62400 60.45400 43.25800
C  30.05000 62.78400 44.93700
C  26.75300 62.86700 43.75700
C  25.61500 62.99000 44.76000
N  26.90100 57.92200 42.08400
C  25.94400 58.69800 42.55500
C  24.63300 58.06700 42.24100
C  24.97000 56.99600 41.43700
C  26.37800 56.96600 41.30400
C  23.31200 58.64900 42.65300
C  24.36300 55.94700 40.61800
O  23.19500 55.66100 40.50900
C  25.60700 55.27200 39.94900
C  25.66900 53.88000 40.50400
O  26.40100 53.46300 41.38300
O  24.66600 53.14900 39.89700
C  24.65100 51.74800 40.40200
H  32.49300 55.93100 39.79400
H  31.92800 61.32200 43.26500
H  25.42200 60.44900 43.45900
H  28.04000 53.84000 39.06600
H  30.70100 54.69200 38.35300
H  30.52800 53.76900 41.05400
H  31.51600 53.13700 39.66400
H  29.79500 52.70700 39.80500
H  29.24500 55.05700 36.80500
H  27.98100 56.17400 37.17300
H  26.33900 54.39300 36.97700
H  27.57700 53.18600 36.89800
H  34.42800 56.46200 40.24900
H  35.28300 57.07300 41.53100
H  35.15600 58.01800 40.00500
H  33.81500 62.26500 42.66600
H  35.23400 61.77900 43.73400
H  33.69400 61.10600 44.19800
H  29.30000 62.81900 42.94700
H  27.69400 61.40500 45.10600
H  29.42300 62.94100 45.81500
H  30.36900 63.75900 44.57100
H  30.99300 62.35600 45.27700
H  26.37500 62.64100 42.76000
H  27.27100 63.82000 43.64900
H  25.55400 64.01900 45.11300
H  25.67900 62.36200 45.64800
H  24.68600 62.79500 44.22500
H  23.35000 59.62900 42.17800
H  23.20400 58.84100 43.72100
H  22.53200 58.02600 42.21500
H  25.35500 55.25400 38.88900
H  24.46700 51.76300 41.47600
H  25.58300 51.22000 40.20200
H  23.79800 51.31000 39.88400
Mg -11.80700 16.27500 42.33500
C  -8.97700 14.32600 42.19900
C  -9.92800 18.93100 40.89700
C  -14.65100 17.71500 41.51300
C  -13.57700 13.46500 43.70400
N  -9.75700 16.46600 41.46300
C  -8.80800 15.54300 41.57400
C  -7.54100 16.06700 41.05000
C  -7.68800 17.63900 40.87700
C  -9.21300 17.75000 41.11400
C  -6.92600 18.43800 41.88500
C  -7.17000 15.42600 39.72200
C  -5.71600 15.73800 39.21800
H  -5.49800 16.54900 37.93600
N  -12.26600 18.12800 41.43500
C  -11.36200 19.12200 40.99500
C  -12.06300 20.29700 40.50500
C  -13.41100 19.99500 40.79100
C  -13.53800 18.58500 41.25200
C  -11.42300 21.55500 39.92800
C  -14.60700 20.92800 40.66200
O  -14.41700 22.03100 40.33600
C  -16.09100 20.65100 40.98100
N  -13.81800 15.61100 42.43500
C  -14.78700 16.47300 42.17400
C  -16.12600 15.83100 42.25400
C  -15.79300 14.48700 42.98100
C  -14.27900 14.49800 43.11000
C  -17.29400 16.57400 43.01500
C  -16.27200 13.12300 42.39300
C  -16.69600 12.04200 43.42000
N  -11.36400 14.34600 42.97200
C  -12.19300 13.32100 43.54100
C  -11.28500 12.17600 43.85900
C  -9.95600 12.61500 43.42700
C  -10.11600 13.87100 42.78000
C  -11.64200 10.78600 44.33100
C  -8.63300 12.13300 43.28600
O  -8.21000 11.08100 43.67000
C  -7.90800 13.23100 42.47500
C  -6.66800 13.75700 43.15600
O  -6.66200 14.22000 44.26200
O  -5.60900 13.76200 42.30700
C  -4.22700 14.02200 42.88600
H  -9.41700 19.82900 40.54100
H  -15.62800 18.08300 41.19400
H  -14.12200 12.62900 44.14800
H  -6.65800 15.97000 41.68100
H  -7.47200 17.88800 39.83800
H  -6.54600 19.26300 41.28400
H  -6.09100 17.90800 42.34400
H  -7.49600 18.77100 42.75200
H  -7.90100 15.72100 38.97000
H  -7.32200 14.35400 39.84300
H  -5.08900 14.84700 39.17500
H  -5.19800 16.33100 39.97100
H  -11.20200 22.21800 40.76400
H  -12.03300 21.93900 39.11000
H  -10.52600 21.23200 39.40000
H  -16.12600 20.12700 41.93600
H  -16.41300 20.03100 40.14400
H  -16.61600 21.60600 41.00100
H  -16.38900 15.66600 41.21000
H  -16.21400 14.53800 43.98500
H  -16.90800 17.29000 43.74000
H  -17.95800 15.80200 43.40400
H  -17.85900 17.09400 42.24100
H  -15.49600 12.69000 41.76200
H  -17.07000 13.40700 41.70800
H  -16.05600 11.16500 43.32800
H  -17.68100 11.60100 43.26900
H  -16.63000 12.46900 44.42100
H  -10.72600 10.48600 44.83900
H  -11.86000 10.19700 43.44000
H  -12.48400 10.69300 45.01800
H  -7.66600 12.62200 41.60400
H  -3.43400 13.99500 42.13900
H  -4.04800 13.26100 43.64600
H  -4.18600 14.98700 43.39000

