158

Mg 48.36700 35.78100 28.11000
C  46.28800 34.02700 30.39900
C  48.66900 38.18700 30.32100
C  49.93500 37.47700 25.64800
C  47.39000 33.38200 25.69100
N  47.59200 36.00900 30.02500
C  46.89900 35.14600 30.79200
C  46.83000 35.64800 32.19700
C  47.12000 37.18400 32.10200
C  47.84000 37.15900 30.72600
C  45.84500 38.15000 32.18000
C  47.67400 34.81200 33.25600
C  48.68400 35.60800 34.18400
H  48.21500 36.66600 35.21100
N  49.32900 37.51900 28.06900
C  49.39400 38.38100 29.15300
C  50.16300 39.48300 28.81200
C  50.59700 39.32800 27.43400
C  49.95100 38.07400 26.95400
C  50.37400 40.66800 29.71400
C  51.36400 40.31800 26.52400
O  51.63900 40.01200 25.34700
C  51.92900 41.69700 26.92900
N  48.51500 35.47100 26.01600
C  49.26400 36.34700 25.19300
C  49.49300 35.80600 23.71500
C  48.96300 34.33200 23.96700
C  48.20900 34.43900 25.30300
C  48.83000 36.69800 22.60000
C  50.06100 33.27200 23.91400
C  49.70400 31.92400 23.27600
N  47.07600 34.06900 28.00400
C  46.77000 33.19500 26.93900
C  45.82800 32.15700 27.35500
C  45.51000 32.48700 28.68600
C  46.39700 33.58800 29.02700
C  45.35500 31.04100 26.36700
C  44.70900 32.17900 29.82400
O  43.92400 31.30700 30.10300
C  45.09700 33.22900 30.89300
C  45.32200 32.62200 32.21000
O  46.23300 31.87800 32.52400
O  44.36200 33.04900 33.09700
C  44.43500 32.63900 34.52900
H  48.70000 39.06200 30.97400
H  50.50100 37.98500 24.86400
H  47.15200 32.71100 24.86300
H  45.81700 35.49500 32.56900
H  47.82800 37.57400 32.83300
H  44.91500 37.61100 32.35600
H  45.72000 38.62900 31.20800
H  45.91100 38.98000 32.88300
H  48.14100 33.92900 32.82100
H  46.90500 34.35100 33.87600
H  49.44700 36.04200 33.53800
H  49.29700 34.87300 34.70400
H  50.10800 40.63200 30.77100
H  49.81500 41.47400 29.23800
H  51.42800 40.86000 29.91700
H  51.14200 42.44300 27.03900
H  52.52400 42.04400 26.08400
H  52.48700 41.58500 27.85900
H  50.55800 35.83100 23.48700
H  48.22000 34.03000 23.22900
H  49.49600 36.91900 21.76600
H  48.52500 37.64900 23.03600
H  47.94700 36.22400 22.17100
H  50.42400 33.10500 24.92800
H  50.80500 33.79100 23.31000
H  50.35600 31.74400 22.42200
H  48.71400 31.87600 22.82100
H  49.87400 31.11700 23.98900
H  44.49000 30.49000 26.73500
H  46.15900 30.32000 26.21900
H  45.18400 31.37000 25.34200
H  44.28400 33.95500 30.91500
H  45.47600 32.50700 34.82600
H  43.88100 31.76800 34.87900
H  43.92700 33.42600 35.08600
Mg 1.15300 42.19800 24.89000
C  3.18800 42.28300 27.68300
C  -1.40100 40.95300 26.65000
C  -0.47500 41.64200 21.85900
C  4.11000 42.99000 22.91200
N  0.97700 41.86600 27.01600
C  1.87100 42.01900 27.99100
C  1.26300 41.84400 29.34200
C  -0.24200 41.29500 29.03500
C  -0.19300 41.26100 27.46700
C  -0.73300 39.95500 29.71500
C  1.31400 43.12500 30.18100
C  0.99400 43.10100 31.68800
H  0.64200 41.81200 32.42700
N  -0.68100 41.50100 24.34900
C  -1.63700 41.01300 25.23200
C  -2.83400 40.65600 24.52900
C  -2.67500 41.00000 23.12400
C  -1.23600 41.44400 23.04700
C  -4.03300 39.96800 25.20900
C  -3.61400 40.94600 21.88300
O  -3.26700 41.31300 20.76600
C  -5.00400 40.38100 21.97500
N  1.85300 42.06500 22.65100
C  0.88200 41.97700 21.68400
C  1.49100 42.29000 20.26600
C  2.83800 42.97900 20.65800
C  2.96200 42.63600 22.15700
C  1.61500 41.06400 19.34600
C  2.91400 44.44900 20.30000
C  2.15000 45.45700 21.16000
N  3.08800 42.59700 25.19000
C  4.18500 42.85400 24.29900
C  5.41400 42.97200 25.10700
C  5.00600 42.78500 26.37800
C  3.61300 42.56300 26.40800
C  6.85900 43.18300 24.69100
C  5.53400 42.61400 27.66500
O  6.72400 42.64200 27.99500
C  4.38600 42.44500 28.62700
C  4.72400 41.37500 29.64600
O  5.13100 40.25600 29.35000
O  4.47300 41.83100 30.93100
C  4.70800 40.92400 32.03600
H  -2.19600 40.49600 27.24400
H  -1.04500 41.63400 20.92800
H  4.99300 43.25300 22.32600
H  1.78400 41.07700 29.91600
H  -0.98500 42.04600 29.30700
H  -1.13100 39.24500 28.99000
H  -1.57600 40.22800 30.34900
H  -0.00900 39.44600 30.35200
H  0.76700 43.84500 29.57100
H  2.35800 43.43800 30.19800
H  0.19100 43.82200 31.84300
H  1.77900 43.50200 32.32900
H  -5.00400 40.45000 25.09500
H  -3.80900 39.64700 26.22700
H  -4.31300 39.06700 24.66300
H  -4.94000 39.32800 22.25200
H  -5.59900 40.77900 21.15300
H  -5.48100 40.90400 22.80400
H  0.86600 43.07100 19.83200
H  3.71100 42.60100 20.12500
H  2.67100 41.03500 19.07900
H  1.03200 41.20600 18.43600
H  1.25100 40.20300 19.90700
H  2.78200 44.66400 19.23900
H  3.98300 44.59200 20.45900
H  2.88500 45.92100 21.81900
H  1.36700 44.90000 21.67400
H  1.77300 46.25900 20.52500
H  7.50700 42.39300 25.07000
H  7.30300 44.13400 24.98400
H  7.00300 43.02400 23.62200
H  4.53700 43.41400 29.10300
H  5.76100 40.92000 32.31900
H  4.40400 39.94700 31.66200
H  4.07800 41.10800 32.90700

