158

Mg 17.61600 -0.90300 27.60300
C  16.35900 0.98500 30.20400
C  19.49500 -2.67600 29.94400
C  18.87900 -2.52000 24.97000
C  15.95000 1.25400 25.34500
N  17.97600 -0.72600 29.81800
C  17.24000 0.01400 30.70800
C  17.62400 -0.21400 32.18000
C  18.88700 -1.19000 31.98800
C  18.79400 -1.56000 30.52700
C  20.27700 -0.60800 32.42100
C  16.46300 -0.76800 33.07600
C  16.48500 -0.52400 34.62500
H  17.74700 0.16200 35.19900
N  18.98400 -2.37400 27.43300
C  19.54400 -3.09600 28.51900
C  20.31500 -4.25400 27.98600
C  20.03300 -4.34400 26.65500
C  19.23200 -3.09100 26.29300
C  21.09800 -5.22100 28.95700
C  20.30700 -5.39900 25.58800
O  19.74800 -5.42800 24.50000
C  21.35000 -6.50600 25.80300
N  17.68400 -0.45300 25.44900
C  18.19300 -1.41900 24.58300
C  17.79600 -1.10600 23.16600
C  16.93300 0.14300 23.27600
C  16.77400 0.31000 24.80200
C  18.94500 -1.03100 22.13400
C  15.61900 -0.04400 22.58600
C  14.53700 -0.94200 23.25000
N  16.33600 0.79000 27.66400
C  15.71300 1.53300 26.67000
C  14.82300 2.54300 27.28100
C  15.04600 2.32500 28.65700
C  15.95400 1.24000 28.83100
C  13.94700 3.60300 26.69100
C  14.70300 2.74700 29.97400
O  13.96600 3.66400 30.26100
C  15.53600 1.95700 31.03400
C  16.37000 2.91900 31.76300
O  17.46200 3.30600 31.41800
O  15.63900 3.34900 32.82400
C  16.37500 4.44300 33.51600
H  19.98500 -3.38600 30.61400
H  19.35600 -3.14500 24.21300
H  15.36600 1.74000 24.56100
H  17.85000 0.73000 32.67700
H  18.76200 -2.09200 32.58700
H  20.16800 0.45000 32.65900
H  20.93700 -0.54000 31.55700
H  20.70900 -1.10500 33.29000
H  16.34500 -1.83600 32.89600
H  15.53700 -0.28700 32.76100
H  16.35700 -1.51200 35.06700
H  15.63800 0.12000 34.86000
H  20.82300 -6.26300 28.79400
H  20.93400 -5.05700 30.02200
H  22.13600 -5.09600 28.64900
H  21.82500 -6.52500 26.78400
H  22.20300 -6.40300 25.13200
H  20.77100 -7.40900 25.60800
H  17.11100 -1.88900 22.84000
H  17.47200 0.98400 22.83900
H  19.88700 -1.30400 22.61100
H  19.01900 -0.09200 21.58700
H  18.72800 -1.74800 21.34300
H  15.72500 -0.34600 21.54400
H  15.16800 0.94800 22.59400
H  13.68900 -0.26800 23.36800
H  14.75100 -1.40500 24.21400
H  14.29500 -1.73900 22.54700
H  14.44200 3.81900 25.74500
H  14.10300 4.41000 27.40800
H  12.88100 3.40200 26.58700
H  14.83600 1.55700 31.76900
H  17.33200 4.16000 33.95600
H  15.80900 4.85300 34.35200
H  16.69000 5.27400 32.88500
Mg 7.22900 53.69200 41.47100
C  6.39100 50.30300 40.90800
C  10.40600 52.89000 40.52100
C  7.91100 56.90100 41.17000
C  3.84900 54.37700 42.06100
N  8.20800 51.78800 40.63600
C  7.72200 50.50200 40.58600
C  8.77100 49.45400 40.04600
C  10.05700 50.27500 40.32000
C  9.55300 51.75000 40.51300
C  10.87100 49.83000 41.52500
C  8.52600 48.99900 38.52600
C  7.81500 50.11300 37.66000
H  7.90400 49.87300 36.17000
N  8.91700 54.70300 40.86400
C  10.15500 54.22600 40.59200
C  11.04100 55.22900 40.24600
C  10.37100 56.40500 40.34500
C  9.03200 56.08500 40.85500
C  12.48100 55.05600 40.06200
C  10.84300 57.77900 39.90600
O  11.97000 57.93900 39.44300
C  9.92700 58.85900 39.77700
N  5.98300 55.40600 41.32500
C  6.63600 56.59700 41.52500
C  5.64300 57.58800 42.08200
C  4.31700 56.84300 42.37400
C  4.71500 55.48000 41.83900
C  6.17100 58.35300 43.21000
C  3.05600 57.57300 41.79100
C  1.80200 57.46100 42.60100
N  5.43300 52.56000 41.67100
C  4.15900 53.03700 41.92500
C  3.34800 51.85900 41.98600
C  4.15900 50.76300 41.63500
C  5.42900 51.30300 41.35900
C  1.85100 51.85700 42.37200
C  4.18700 49.31900 41.52400
O  3.41400 48.42800 41.83000
C  5.61700 48.93200 40.98600
C  5.39800 47.97800 39.77900
O  4.73700 48.22400 38.78700
O  5.87200 46.73300 40.13500
C  5.47900 45.66600 39.13800
H  11.44700 52.64400 40.30000
H  8.21500 57.94200 41.29800
H  2.81700 54.61800 42.32400
H  8.72900 48.56400 40.67400
H  10.76900 50.27100 39.49500
H  10.15000 49.71200 42.33400
H  11.73900 50.47500 41.66500
H  11.22600 48.82200 41.31300
H  7.93300 48.09200 38.41400
H  9.53000 48.91400 38.10900
H  8.27600 51.09400 37.77200
H  6.77900 50.20800 37.98500
H  12.83900 55.01700 39.03300
H  12.76700 54.13900 40.57600
H  13.03700 55.82000 40.60700
H  8.90300 58.53500 39.59500
H  10.14200 59.49200 38.91700
H  9.96000 59.54000 40.62700
H  5.42100 58.28300 41.27200
H  4.18300 56.66300 43.44000
H  7.03000 57.78700 43.56700
H  5.39400 58.38000 43.97400
H  6.33100 59.42400 43.07900
H  2.95300 56.86700 40.96700
H  3.23700 58.60500 41.49300
H  1.48600 58.40800 43.03900
H  1.97500 56.73700 43.39700
H  0.96200 57.15600 41.97800
H  1.70200 50.94300 42.94800
H  1.32400 51.86300 41.41800
H  1.66000 52.76700 42.94100
H  6.13500 48.38400 41.77300
H  5.96600 46.06000 38.24500
H  4.41500 45.52900 38.94900
H  5.81800 44.71500 39.54900

