158

Mg 35.23700 1.02900 29.58500
C  33.23900 2.48900 32.06600
C  37.83200 0.97600 32.03700
C  37.18500 -0.23100 27.30300
C  32.60700 1.52400 27.27200
N  35.57100 1.94900 31.80500
C  34.51700 2.22500 32.60200
C  35.03300 2.31800 34.04600
C  36.59300 2.06700 33.93600
C  36.66900 1.59500 32.52200
C  37.61400 3.17600 34.28900
C  34.23800 1.45400 35.03700
C  34.13100 1.88200 36.53500
H  34.52900 3.26400 37.01900
N  37.34200 0.48600 29.62600
C  38.12600 0.39000 30.71400
C  39.40200 0.01700 30.21400
C  39.26100 -0.37000 28.87400
C  37.89100 -0.06100 28.55600
C  40.61500 0.06600 31.09800
C  40.26800 -0.73200 27.86000
O  40.00800 -0.84000 26.70500
C  41.64800 -1.01600 28.25800
N  34.98400 0.82200 27.55100
C  35.94600 0.18900 26.83600
C  35.42000 -0.02600 25.36500
C  34.03100 0.48600 25.38100
C  33.83600 0.90900 26.83800
C  36.33700 0.63000 24.29800
C  32.92600 -0.51600 24.95600
C  32.52000 -1.57500 26.01300
N  33.36700 1.90700 29.53300
C  32.37200 2.03000 28.59100
C  31.23600 2.69100 29.09700
C  31.52800 2.88500 30.50900
C  32.85200 2.40600 30.70200
C  29.89500 2.97000 28.34700
C  30.97000 3.27100 31.74100
O  29.83500 3.55900 32.11300
C  32.01600 2.97000 32.88000
C  32.18700 4.29900 33.61700
O  32.81900 5.23400 33.13700
O  31.38200 4.22400 34.74400
C  31.32300 5.46200 35.46200
H  38.55800 0.75800 32.82300
H  37.65600 -0.82500 26.51700
H  31.86100 1.64100 26.48300
H  34.75200 3.35400 34.23600
H  36.85100 1.20600 34.55300
H  38.60100 3.03200 33.85000
H  37.78700 3.14000 35.36500
H  37.12900 4.12900 34.07600
H  34.68200 0.45900 35.00300
H  33.28100 1.42700 34.51600
H  34.51800 1.18500 37.27900
H  33.07800 1.78500 36.79900
H  40.50100 0.74700 31.94100
H  41.42500 0.60000 30.60200
H  40.99200 -0.93100 31.32500
H  42.20500 -0.11400 28.51300
H  42.12700 -1.40000 27.35700
H  41.58600 -1.77100 29.04100
H  35.36000 -1.09200 25.14600
H  33.84500 1.35900 24.75600
H  36.65200 -0.14200 23.59600
H  37.24600 0.90100 24.83600
H  36.01500 1.52100 23.76000
H  33.37000 -0.97200 24.07100
H  32.04800 0.05000 24.64300
H  32.43000 -2.50600 25.45300
H  31.53500 -1.32700 26.40900
H  33.13100 -1.65200 26.91300
H  29.69700 2.29700 27.51200
H  29.82900 3.95000 27.87400
H  29.03300 2.79400 28.99100
H  31.68500 2.18400 33.55800
H  30.48100 6.07800 35.14400
H  32.22900 6.06400 35.39000
H  31.33000 5.22300 36.52500
Mg 16.14600 51.16400 26.04900
C  18.36600 50.33600 28.61600
C  13.49200 51.24900 28.23900
C  13.96700 51.16000 23.32500
C  18.72200 50.35800 23.76300
N  15.93600 50.82100 28.12900
C  17.02700 50.69500 28.96300
C  16.67000 51.04800 30.38800
C  15.11400 50.90900 30.31600
C  14.79700 51.04900 28.81000
C  14.61300 49.64800 31.07800
C  17.21200 52.41400 30.95200
C  17.42900 52.48100 32.52600
H  16.56900 51.51900 33.43500
N  14.09200 51.37200 25.82300
C  13.18900 51.41100 26.91100
C  11.84700 51.42500 26.30400
C  11.95000 51.42200 24.86600
C  13.34900 51.34300 24.64500
C  10.65800 51.52200 27.22200
C  10.79300 51.35200 23.87900
O  11.00200 51.35900 22.64000
C  9.39200 51.13000 24.38700
N  16.32700 50.70300 23.85000
C  15.28900 50.97400 22.96800
C  15.82000 50.99200 21.55400
C  17.37300 50.94600 21.73600
C  17.48600 50.56600 23.17300
C  15.18500 49.79900 20.62800
C  18.18400 52.23100 21.32400
C  19.21400 52.08400 20.17100
N  18.14500 50.54800 26.15700
C  19.10100 50.33300 25.16600
C  20.35600 49.90600 25.80400
C  20.09300 49.97100 27.17800
C  18.74900 50.34900 27.31000
C  21.55000 49.57200 25.12500
C  20.72900 49.74100 28.48400
O  21.86400 49.32700 28.84200
C  19.57900 50.15100 29.55400
C  19.46000 48.98300 30.42900
O  19.26800 47.85400 30.06100
O  19.54700 49.37800 31.71000
C  19.37300 48.31700 32.65000
H  12.75000 51.21600 29.04000
H  13.35300 51.30900 22.43400
H  19.49200 50.22100 23.00100
H  17.10200 50.29500 31.04700
H  14.69800 51.70800 30.92900
H  13.81400 49.96600 31.74800
H  15.43300 49.19700 31.63700
H  14.22900 49.05100 30.25100
H  16.62400 53.27300 30.62800
H  18.16100 52.61700 30.45600
H  17.24300 53.53200 32.75000
H  18.51200 52.38200 32.60800
H  10.05200 50.61800 27.16000
H  9.98800 52.36100 27.03200
H  10.87700 51.63000 28.28400
H  8.93200 51.93900 24.95500
H  9.44500 50.21100 24.97100
H  8.82100 50.83300 23.50700
H  15.43800 51.93300 21.15900
H  17.81700 50.13500 21.16000
H  14.46600 49.20700 21.19500
H  16.02300 49.21900 20.24200
H  14.73300 50.25700 19.74800
H  18.56800 52.86500 22.12300
H  17.54800 52.94900 20.80600
H  18.68700 52.41100 19.27400
H  19.54400 51.04500 20.16500
H  20.05600 52.77000 20.25500
H  21.39400 48.60100 24.65500
H  22.50700 49.58400 25.64800
H  21.76800 50.23200 24.28600
H  19.75600 51.06400 30.12200
H  20.26700 47.70400 32.54000
H  18.44000 47.75400 32.69500
H  19.51100 48.84700 33.59200

