158

Mg -1.88300 18.13800 27.09900
C  -2.21500 16.04400 29.64300
C  -2.62000 20.85000 29.12100
C  -2.19600 20.17300 24.38100
C  -1.50300 15.38500 24.76200
N  -2.37100 18.40100 29.23100
C  -2.25300 17.35600 30.09800
C  -2.32200 17.89700 31.56200
C  -2.79800 19.45700 31.29100
C  -2.69800 19.59500 29.75500
C  -4.17600 19.67100 31.87500
C  -1.01600 17.84300 32.39000
C  -1.20100 17.27800 33.76700
H  -0.09800 17.39400 34.76700
N  -2.18000 20.25800 26.82600
C  -2.43600 21.20200 27.79500
C  -2.27900 22.54600 27.19500
C  -2.17900 22.33000 25.78100
C  -2.19000 20.85500 25.59700
C  -2.53500 23.82900 28.04900
C  -1.95600 23.27800 24.68400
O  -1.78500 22.93900 23.51800
C  -2.14300 24.72100 24.97700
N  -1.93900 17.79800 24.91100
C  -2.09100 18.84000 24.10300
C  -1.93100 18.30300 22.64600
C  -1.40900 16.83800 22.71200
C  -1.60600 16.64900 24.18500
C  -3.32100 18.45200 21.88000
C  0.12900 16.56600 22.23700
C  1.21600 17.28400 23.06900
N  -1.84300 16.11800 27.10300
C  -1.70900 15.09200 26.16300
C  -1.85000 13.82900 26.81500
C  -2.05700 14.14900 28.17900
C  -2.01000 15.52800 28.33800
C  -1.95100 12.50300 26.21300
C  -2.28100 13.59100 29.47200
O  -2.36000 12.44800 29.74900
C  -2.32000 14.74400 30.50000
C  -1.27300 14.62400 31.54900
O  -0.10900 15.02300 31.39700
O  -1.74500 13.92200 32.56300
C  -0.85400 13.62000 33.68900
H  -2.66100 21.67600 29.83400
H  -2.23200 20.72500 23.44000
H  -1.51800 14.50500 24.11700
H  -3.06000 17.42300 32.21000
H  -2.15100 20.11100 31.87500
H  -4.10500 20.16700 32.84200
H  -4.74400 18.74400 31.95900
H  -4.67600 20.27500 31.11800
H  -0.56900 18.82500 32.54500
H  -0.30700 17.23700 31.82600
H  -1.38100 16.22000 33.57500
H  -2.11500 17.67000 34.21300
H  -2.63200 24.79200 27.54800
H  -1.67300 23.80700 28.71600
H  -3.41400 23.80500 28.69300
H  -1.90400 25.39400 24.15400
H  -1.36900 24.99700 25.69400
H  -3.16300 24.90100 25.31500
H  -1.15000 18.98300 22.30600
H  -2.02600 16.11400 22.18100
H  -4.15300 18.43400 22.58400
H  -3.19500 17.62900 21.17700
H  -3.28400 19.39200 21.32900
H  0.21400 16.84400 21.18600
H  0.39900 15.51100 22.20300
H  1.81600 17.91700 22.41600
H  1.95300 16.63300 23.54000
H  0.80000 17.81900 23.92200
H  -1.52400 12.52700 25.21000
H  -3.02500 12.32500 26.16700
H  -1.52600 11.71200 26.83100
H  -3.28800 14.67500 30.99600
H  0.00900 14.26300 33.86100
H  -0.51000 12.60400 33.49400
H  -1.52400 13.60400 34.54900
Mg 30.39200 57.31700 39.05700
C  27.66300 55.38700 38.17700
C  32.57100 54.81100 38.36200
C  32.94100 59.58500 39.24600
C  28.12700 60.06700 39.44700
N  30.12300 55.34600 38.44800
C  28.97100 54.79400 38.06100
C  29.23700 53.42400 37.51500
C  30.73900 53.12000 37.73000
C  31.25400 54.50200 38.20000
C  31.13100 51.98100 38.68700
C  28.76300 52.99700 36.11200
C  29.17000 53.81800 34.85400
H  28.08500 54.50700 34.03000
N  32.45700 57.26900 38.73300
C  33.17900 56.11900 38.54400
C  34.51300 56.39400 38.54200
C  34.67800 57.78000 38.91100
C  33.31300 58.26800 38.99900
C  35.65700 55.43100 38.34100
C  36.06600 58.53900 39.11000
O  37.11600 57.94300 38.88100
C  36.18700 59.98800 39.40700
N  30.53000 59.49400 39.07600
C  31.69800 60.17500 39.37200
C  31.50700 61.64600 39.79700
C  29.95900 61.62600 40.06200
C  29.48500 60.31300 39.44900
C  32.37000 62.23800 41.07100
C  29.29700 62.88100 39.50600
C  28.10600 63.52900 40.25400
N  28.27600 57.68300 38.92400
C  27.51400 58.83300 39.13200
C  26.07600 58.51400 39.00200
C  26.09900 57.18000 38.63500
C  27.41500 56.74200 38.54900
C  24.78800 59.45000 39.06400
C  25.25300 56.05000 38.35200
O  24.01500 55.99900 38.36700
C  26.29100 54.84100 37.92200
C  26.05200 53.73700 38.82000
O  26.65400 53.47900 39.87900
O  25.05000 52.91500 38.28600
C  24.70700 51.65900 39.11300
H  33.26100 53.96600 38.32400
H  33.66400 60.37700 39.45400
H  27.47100 60.83300 39.86500
H  28.67500 52.74600 38.15800
H  31.32400 52.93900 36.82800
H  30.26800 51.38900 38.99300
H  31.51400 52.34000 39.64200
H  31.89800 51.34400 38.24600
H  27.67600 52.95600 36.18900
H  29.06800 51.96500 35.93700
H  29.50600 52.98600 34.23500
H  29.98600 54.47300 35.15700
H  36.47700 55.89400 37.79400
H  35.30500 54.65300 37.66200
H  36.03900 55.18500 39.33100
H  35.88400 60.37800 40.37900
H  35.49400 60.47500 38.72200
H  37.19600 60.36600 39.24800
H  31.76900 62.24000 38.92200
H  29.73900 61.66800 41.12900
H  31.77300 62.62300 41.89700
H  33.00100 63.02700 40.66100
H  33.08300 61.45700 41.33700
H  28.95300 62.61300 38.50700
H  30.05500 63.66000 39.42700
H  27.30700 63.90100 39.61300
H  28.52100 64.43800 40.69100
H  27.68800 62.93300 41.06600
H  24.99200 60.50500 38.88600
H  24.24300 59.40400 40.00700
H  24.11500 59.11900 38.27300
H  26.01000 54.49800 36.92700
H  23.87300 51.81400 39.79700
H  25.56700 51.13400 39.52700
H  24.37900 50.96900 38.33500

