158

Mg 24.02300 -4.70900 45.59300
C  26.02700 -2.23100 44.11200
C  21.43900 -3.53300 43.68000
C  22.52400 -7.68200 46.12100
C  27.05600 -6.11700 46.85800
N  23.74200 -3.05100 44.17800
C  24.67900 -2.20200 43.74300
C  24.13600 -1.17100 42.70400
C  22.58800 -1.39600 42.87100
C  22.59800 -2.75100 43.61000
C  21.87700 -0.27400 43.62100
C  24.62100 -1.58200 41.30800
C  25.43300 -0.50300 40.57700
H  25.40400 -0.61400 39.04700
N  22.09500 -5.37000 45.15500
C  21.20300 -4.74700 44.33200
C  20.02000 -5.53200 44.30200
C  20.28800 -6.80600 45.01400
C  21.71200 -6.66200 45.43400
C  18.76500 -5.08200 43.51000
C  19.35000 -7.89500 45.20600
O  18.31400 -7.93000 44.59100
C  19.55800 -9.04800 46.22900
N  24.76600 -6.73500 46.24200
C  23.88800 -7.76500 46.46200
C  24.46300 -8.92100 47.19000
C  25.99100 -8.33900 47.40700
C  25.97800 -6.98000 46.82100
C  23.66200 -9.46500 48.36900
C  27.08800 -9.34800 46.97000
C  28.10700 -9.65100 48.02800
N  26.10800 -4.29200 45.58100
C  27.17600 -4.90800 46.20700
C  28.35800 -4.02700 46.04100
C  27.91000 -3.01900 45.21400
C  26.52000 -3.21600 44.94500
C  29.72400 -4.30000 46.48500
C  28.41200 -1.88400 44.44100
O  29.56700 -1.47600 44.40800
C  27.16200 -1.26000 43.67000
C  26.87300 0.14000 44.06400
O  26.43400 0.39300 45.13500
O  27.39200 0.96200 43.07500
C  27.49000 2.45200 43.23400
H  20.60400 -3.04700 43.17100
H  22.01500 -8.64300 46.22400
H  27.96100 -6.54300 47.29600
H  24.36800 -0.14600 42.99500
H  22.02900 -1.36100 41.93600
H  21.41600 -0.74100 44.49100
H  21.17700 0.08500 42.86600
H  22.44800 0.59100 43.95800
H  23.74000 -1.69200 40.67500
H  25.26900 -2.45200 41.40700
H  26.46400 -0.56300 40.92600
H  25.04600 0.48300 40.83600
H  17.91600 -5.29100 44.16200
H  18.72300 -5.71800 42.62600
H  18.72900 -4.04900 43.16500
H  18.58600 -9.34100 46.62600
H  20.10200 -8.81800 47.14600
H  20.02000 -9.87600 45.69200
H  24.53300 -9.58500 46.32900
H  26.22900 -8.14800 48.45300
H  23.66100 -10.55500 48.33700
H  22.60400 -9.26600 48.19700
H  24.02200 -9.11800 49.33700
H  27.58600 -8.85100 46.13800
H  26.69600 -10.28500 46.57300
H  27.80900 -9.21900 48.98300
H  29.02200 -9.24800 47.59300
H  28.19300 -10.73700 48.06200
H  30.39400 -3.82300 45.77000
H  29.97700 -5.34400 46.66700
H  29.88000 -3.84000 47.46100
H  27.42500 -1.29000 42.61300
H  28.25500 2.49500 44.00900
H  26.58400 2.85900 43.68400
H  27.79400 3.03400 42.36400
Mg 47.14400 34.59900 27.19300
C  45.54000 32.84100 29.87000
C  47.75300 37.09000 29.27600
C  47.87100 36.45500 24.52300
C  46.23500 31.84200 25.03300
N  46.71200 34.85300 29.35400
C  46.19800 34.01100 30.31900
C  46.51600 34.53100 31.72000
C  46.88100 36.04600 31.46500
C  47.12200 36.01400 29.92900
C  45.80700 37.05700 31.91700
C  47.67000 33.73000 32.40300
C  47.81700 33.90600 34.00300
H  46.82700 34.91000 34.63100
N  47.75200 36.56400 26.93700
C  48.04600 37.39700 27.94500
C  48.57600 38.60100 27.45800
C  48.67100 38.47200 26.04100
C  48.10800 37.13900 25.74700
C  48.83300 39.87600 28.31100
C  49.25300 39.43600 25.01700
O  49.33300 39.12800 23.83800
C  49.97800 40.76600 25.36200
N  47.10800 34.10400 25.13300
C  47.40200 35.12700 24.22800
C  47.18400 34.67700 22.85300
C  47.05100 33.18600 22.98000
C  46.70800 33.01600 24.47900
C  45.91000 35.30700 22.28500
C  48.36800 32.35900 22.72200
C  48.32700 30.97400 22.02900
N  46.16300 32.64000 27.36400
C  45.84700 31.69000 26.42300
C  45.21600 30.55000 27.03800
C  45.00800 31.00900 28.41100
C  45.61600 32.27800 28.53800
C  44.79100 29.29600 26.40200
C  44.49200 30.62100 29.67600
O  43.86800 29.62300 29.96000
C  44.68800 31.89700 30.60900
C  45.00100 31.55600 31.98300
O  45.89700 30.75500 32.34900
O  44.00500 32.16000 32.76900
C  44.16400 31.86600 34.22200
H  48.08400 37.84200 29.99600
H  48.10300 37.10000 23.67300
H  45.85400 31.00900 24.43800
H  45.56700 34.40100 32.24100
H  47.79500 36.40500 31.93800
H  44.82900 36.62700 32.13400
H  45.58300 37.69500 31.06100
H  46.18500 37.71000 32.70300
H  48.61100 33.96400 31.90600
H  47.60900 32.67900 32.12200
H  48.82800 34.13500 34.34100
H  47.42400 32.95000 34.34900
H  49.89100 39.97400 28.55000
H  48.36100 39.82900 29.29200
H  48.56400 40.82900 27.85400
H  49.38300 41.56600 25.80200
H  50.44200 41.08100 24.42700
H  50.83300 40.51500 25.99000
H  48.06800 34.89600 22.25300
H  46.19300 32.72600 22.49000
H  45.03600 34.65900 22.35900
H  46.12400 35.55500 21.24600
H  45.75200 36.21600 22.86600
H  48.92700 32.16000 23.63700
H  49.02900 32.88800 22.03600
H  48.88900 30.23600 22.60200
H  48.73200 31.07100 21.02200
H  47.27800 30.69400 21.92600
H  44.82900 29.34500 25.31300
H  43.73700 29.16900 26.64700
H  45.49700 28.59400 26.84700
H  43.66700 32.27800 30.58000
H  44.19300 30.80200 34.45900
H  43.26000 32.16400 34.75400
H  45.08400 32.15200 34.73100

