158

Mg 47.72600 15.66200 28.53300
C  45.75700 15.73300 31.35300
C  50.34300 17.20200 30.29500
C  49.45800 15.94700 25.57800
C  44.96400 14.24700 26.80500
N  47.93400 16.47600 30.47200
C  47.01800 16.28600 31.49700
C  47.55900 16.76900 32.82300
C  48.93600 17.45100 32.44900
C  49.13400 16.99100 30.96400
C  48.96200 18.93500 32.72400
C  47.84100 15.52700 33.76300
C  47.27600 15.64400 35.24200
H  47.27000 16.97300 36.07900
N  49.65900 16.44400 28.02600
C  50.60100 16.94600 28.87900
C  51.78800 17.26500 28.16300
C  51.49500 16.99700 26.76000
C  50.13900 16.45200 26.72700
C  53.07600 17.71900 28.84300
C  52.44900 17.14100 25.56600
O  52.04000 16.83700 24.46300
C  53.84600 17.78700 25.71100
N  47.26300 15.10100 26.50200
C  48.14700 15.39100 25.50900
C  47.52800 14.98500 24.10300
C  46.28300 14.15400 24.55500
C  46.10400 14.45700 26.03100
C  47.14900 16.22300 23.26600
C  46.46400 12.61400 24.25300
C  45.52900 12.03200 23.22400
N  45.73000 15.16200 28.93500
C  44.75800 14.57400 28.15900
C  43.54300 14.31600 28.98400
C  43.91800 14.64000 30.26800
C  45.26000 15.21600 30.23300
C  42.23400 13.68800 28.59300
C  43.40500 14.81300 31.64100
O  42.28600 14.57200 32.08700
C  44.63700 15.42900 32.44400
C  43.98700 16.59100 33.15400
O  43.48700 17.58500 32.60200
O  43.95400 16.37700 34.48900
C  43.23300 17.26500 35.35900
H  51.17300 17.55800 30.90900
H  49.96400 15.94600 24.61000
H  44.08100 13.85800 26.29500
H  46.78200 17.39800 33.25900
H  49.75400 17.08700 33.07100
H  49.09900 19.32800 33.73200
H  47.94700 19.29900 32.56400
H  49.64400 19.51300 32.10000
H  48.90600 15.29700 33.79500
H  47.47700 14.60100 33.31800
H  47.74500 14.83900 35.80800
H  46.22500 15.37200 35.14600
H  53.14900 17.26400 29.83100
H  53.10900 18.80600 28.92200
H  54.03100 17.46300 28.38300
H  53.55800 18.64400 26.31900
H  54.16500 18.01300 24.69400
H  54.55700 17.23200 26.32300
H  48.17800 14.31000 23.54700
H  45.44800 14.65100 24.06200
H  46.08600 16.31000 23.04100
H  47.76300 16.10600 22.37300
H  47.37900 17.09900 23.87300
H  46.41700 12.12200 25.22400
H  47.41900 12.37800 23.78300
H  46.15500 11.49900 22.50800
H  44.95700 12.73200 22.61400
H  44.83100 11.42500 23.80100
H  41.99400 13.85500 27.54300
H  41.52400 14.20100 29.24200
H  42.18000 12.60900 28.73200
H  44.88100 14.63200 33.14700
H  43.15000 16.85200 36.36400
H  42.20900 17.49100 35.06400
H  43.84100 18.15700 35.50600
Mg 5.90400 53.20400 41.55200
C  5.59500 49.71300 41.46900
C  9.19300 52.72800 40.48700
C  6.16300 56.56700 41.07400
C  2.45400 53.37400 41.89400
N  7.13800 51.39900 40.77800
C  6.79200 50.13500 40.84600
C  7.92900 49.24400 40.26500
C  9.09000 50.21800 40.43100
C  8.46200 51.51700 40.56700
C  9.95200 49.96000 41.63000
C  7.67800 48.63300 38.78200
C  6.77300 49.43700 37.77700
H  6.33700 48.82000 36.50000
N  7.57400 54.47900 40.91600
C  8.83600 54.10700 40.67000
C  9.68900 55.24500 40.53200
C  8.79800 56.44000 40.60000
C  7.40600 55.87200 40.87400
C  11.12800 55.13000 40.18200
C  9.20700 57.84100 40.64900
O  10.41500 57.98600 40.39600
C  8.35900 59.00800 40.97000
N  4.48500 54.73600 41.40500
C  4.88400 56.07700 41.37700
C  3.69000 56.99400 41.75600
C  2.49100 55.96900 41.50400
C  3.13900 54.60600 41.54000
C  3.77500 57.52900 43.20800
C  1.51800 56.15300 40.30100
C  0.09900 56.47100 40.59100
N  4.32500 51.87200 41.93100
C  2.97000 52.08200 42.10400
C  2.35500 50.89300 42.60400
C  3.35300 49.87700 42.39100
C  4.49300 50.55100 41.86600
C  0.93600 50.75800 43.11700
C  3.63100 48.43500 42.35100
O  3.10000 47.43800 42.77300
C  5.05500 48.32200 41.75900
C  4.79800 47.61400 40.42400
O  4.13000 48.08300 39.52000
O  5.48700 46.35600 40.50000
C  5.28700 45.51700 39.33300
H  10.24900 52.53300 40.28500
H  6.22000 57.65200 40.96400
H  1.36900 53.32200 42.01000
H  8.07900 48.38800 40.92400
H  9.61100 50.32700 39.48000
H  10.93200 50.31900 41.31700
H  9.99800 48.92700 41.97700
H  9.78400 50.53900 42.53800
H  7.30000 47.62000 38.92300
H  8.66500 48.66700 38.32100
H  7.32700 50.28600 37.37600
H  5.84200 49.76900 38.23700
H  11.74100 55.94900 40.55800
H  11.25900 55.10900 39.10100
H  11.56500 54.22300 40.60000
H  9.00500 59.88600 40.98800
H  7.82600 58.75800 41.88700
H  7.71900 58.86500 40.09900
H  3.74100 57.90300 41.15800
H  1.88200 55.95500 42.40800
H  4.69200 57.16900 43.67400
H  3.02900 57.03100 43.82800
H  3.64500 58.61100 43.24100
H  1.57600 55.41500 39.50100
H  1.80200 57.04400 39.74100
H  -0.35000 57.21100 39.92800
H  -0.15500 56.54600 41.64900
H  -0.40400 55.58000 40.21800
H  0.45900 51.73200 43.22500
H  0.80400 50.27500 44.08500
H  0.40800 50.23600 42.31900
H  5.75600 47.72200 42.33900
H  6.18600 44.93000 39.14400
H  5.21200 46.13900 38.44100
H  4.46200 44.81700 39.46900

