158

Mg 9.13500 2.97500 28.09200
C  10.26900 1.54800 31.09000
C  7.82600 5.43600 30.02500
C  7.41100 3.79800 25.48600
C  10.17900 0.03000 26.41000
N  8.81700 3.26200 30.31700
C  9.49900 2.64700 31.36400
C  9.46100 3.44700 32.69800
C  8.44200 4.58900 32.31600
C  8.39400 4.40800 30.76700
C  7.01200 4.43900 32.96200
C  10.81800 4.00200 33.16500
C  10.75100 4.69600 34.59300
H  11.50200 3.97700 35.80100
N  7.97600 4.51500 27.72800
C  7.53400 5.46500 28.60100
C  6.83200 6.53300 27.85800
C  6.64900 6.01300 26.56800
C  7.34100 4.70800 26.54700
C  6.50000 7.86100 28.50400
C  5.89000 6.68200 25.39300
O  5.86400 6.18600 24.29000
C  5.26800 8.13300 25.58400
N  8.97300 2.11200 26.10800
C  7.98200 2.60700 25.25300
C  7.76300 1.65800 24.01500
C  8.99300 0.74900 24.14500
C  9.36900 0.96600 25.59600
C  6.37500 0.95100 24.17100
C  10.19400 1.05400 23.23900
C  10.33200 0.16300 21.95600
N  10.18600 1.25800 28.56200
C  10.56000 0.17900 27.77800
C  11.24400 -0.69200 28.60600
C  11.25200 -0.19100 29.87400
C  10.56500 1.00700 29.81900
C  11.95900 -1.90900 28.21600
C  11.70500 -0.48700 31.19700
O  12.27700 -1.46400 31.67100
C  11.14500 0.73900 32.03200
C  10.36900 0.17900 33.16300
O  9.47900 -0.69400 33.09300
O  10.74900 0.77200 34.33400
C  10.01900 0.38100 35.55400
H  7.27500 6.17800 30.60700
H  6.68200 4.09800 24.73000
H  10.39400 -0.85100 25.80100
H  9.06600 2.77300 33.45700
H  8.86000 5.55000 32.61500
H  6.74600 5.29500 33.58200
H  6.99900 3.58300 33.63700
H  6.28200 4.23200 32.18000
H  11.13800 4.76600 32.45700
H  11.61900 3.26300 33.17400
H  9.72300 4.93300 34.86500
H  11.10500 5.72700 34.59800
H  5.41700 7.90500 28.61100
H  6.82800 8.64000 27.81500
H  7.09700 7.97200 29.41000
H  4.69700 8.32500 24.67500
H  6.06700 8.87400 25.58400
H  4.66500 8.16800 26.49100
H  7.78200 2.25800 23.10600
H  8.70300 -0.28200 23.94100
H  5.96100 1.04500 23.16700
H  5.65500 1.51800 24.76200
H  6.48200 -0.12000 24.34000
H  11.14300 0.96400 23.76900
H  10.05000 2.03400 22.78500
H  10.30200 0.78800 21.06300
H  9.56800 -0.60900 21.86400
H  11.28900 -0.35800 21.93300
H  13.02700 -1.84300 28.42200
H  11.82000 -2.15200 27.16200
H  11.41500 -2.69200 28.74400
H  11.97600 1.28500 32.47800
H  9.61700 1.17500 36.18300
H  10.83300 -0.01100 36.16300
H  9.39100 -0.50600 35.46600
Mg 46.19200 24.37600 28.45600
C  46.59800 26.63500 31.17700
C  45.27900 21.84400 30.78100
C  46.33000 22.24900 26.01600
C  47.61600 26.90700 26.32000
N  46.02100 24.27100 30.73400
C  46.09700 25.40100 31.59100
C  45.60100 25.03000 33.06200
C  45.41300 23.46300 32.90100
C  45.55500 23.10800 31.35200
C  46.29000 22.59500 33.89900
C  44.41700 25.81500 33.55900
C  44.74000 26.67800 34.81400
H  43.76700 26.70000 35.96400
N  45.80000 22.38800 28.37100
C  45.33800 21.56300 29.34200
C  45.02800 20.28600 28.75600
C  45.50200 20.28900 27.42900
C  45.90900 21.67200 27.20500
C  44.30400 19.17600 29.52500
C  45.39700 19.17700 26.34600
O  45.86300 19.24300 25.20100
C  44.80500 17.88600 26.76500
N  46.74900 24.59900 26.44200
C  46.72300 23.49500 25.65100
C  47.33400 23.75600 24.29400
C  47.52100 25.31200 24.32700
C  47.27800 25.66600 25.76500
C  48.58400 22.89500 23.97400
C  46.67600 26.18300 23.39100
C  45.16200 26.18500 23.48300
N  46.90500 26.42000 28.62400
C  47.36400 27.28600 27.65700
C  47.72300 28.50800 28.33900
C  47.37700 28.35600 29.69200
C  46.90300 27.03600 29.80400
C  48.33100 29.72200 27.71400
C  47.29600 29.02900 30.94200
O  47.62100 30.12200 31.36200
C  46.85000 27.85100 31.96900
C  47.97500 27.68100 32.93100
O  48.94900 26.98000 32.78100
O  47.69200 28.35500 34.08300
C  48.44800 28.15100 35.36600
H  44.85700 21.15800 31.51800
H  46.17400 21.54200 25.19800
H  48.15000 27.55700 25.62400
H  46.45500 25.13100 33.73100
H  44.38900 23.10900 33.01800
H  46.04500 23.20200 34.77100
H  47.37000 22.64500 33.75900
H  45.88800 21.58200 33.87300
H  43.66800 25.05500 33.78200
H  43.92600 26.42400 32.80100
H  44.72300 27.68200 34.39000
H  45.71500 26.55800 35.28500
H  44.90700 18.27200 29.61000
H  43.37400 18.83100 29.07400
H  44.11100 19.35000 30.58400
H  45.35700 17.52600 27.63400
H  44.87100 17.14500 25.96900
H  43.75400 18.15000 26.88900
H  46.59000 23.47700 23.54800
H  48.55400 25.55100 24.07600
H  48.34300 21.83200 23.94000
H  49.35600 23.03800 24.73000
H  48.77900 23.26200 22.96600
H  46.82100 25.81600 22.37500
H  47.06500 27.19700 23.49200
H  44.77700 25.51400 24.25000
H  44.79800 25.74100 22.55600
H  44.83300 27.21300 23.63300
H  48.86000 29.61800 26.76600
H  48.89100 30.16300 28.53800
H  47.53400 30.46200 27.63600
H  45.94300 28.15000 32.49400
H  49.32200 27.51200 35.23700
H  47.79300 27.74100 36.13500
H  48.74000 29.13400 35.73800

