158

Mg -2.09500 17.36200 26.51200
C  -2.61700 14.96400 29.00600
C  -2.50500 19.84900 28.90800
C  -1.96300 19.58700 24.07900
C  -2.13200 14.65100 24.11700
N  -2.71800 17.32900 28.70300
C  -2.81500 16.22400 29.52300
C  -3.08400 16.78900 30.98700
C  -2.98600 18.30600 30.86200
C  -2.84300 18.52200 29.40400
C  -4.28500 19.09700 31.37700
C  -2.00300 16.25900 32.04300
C  -1.75800 16.83000 33.51100
H  -1.28300 15.94200 34.61500
N  -2.03000 19.40000 26.49000
C  -2.24500 20.26600 27.58500
C  -2.16200 21.65400 27.13300
C  -1.79900 21.57900 25.72600
C  -1.96000 20.14200 25.36700
C  -2.28600 22.86300 28.05000
C  -1.36400 22.61000 24.70600
O  -1.36800 22.42600 23.46400
C  -1.02800 23.93600 25.21000
N  -2.10500 17.12700 24.40100
C  -1.91900 18.22400 23.63900
C  -1.91900 17.84900 22.13100
C  -1.76400 16.33300 22.19900
C  -1.97600 16.01200 23.65200
C  -3.17100 18.37900 21.42500
C  -0.40600 15.76400 21.78200
C  0.77300 15.85500 22.84700
N  -2.45300 15.22600 26.45600
C  -2.35100 14.27300 25.43500
C  -2.56700 13.00000 26.00700
C  -2.62500 13.24000 27.37500
C  -2.54900 14.59500 27.59700
C  -2.75100 11.73500 25.28700
C  -2.75800 12.52400 28.65600
O  -3.03200 11.35000 28.90700
C  -2.58700 13.59500 29.78200
C  -1.31500 13.31400 30.58000
O  -0.24800 13.85200 30.36900
O  -1.54200 12.42400 31.53100
C  -0.42800 12.23000 32.52600
H  -2.57900 20.69900 29.59000
H  -2.00300 20.32000 23.27000
H  -2.12000 14.00800 23.23500
H  -4.12900 16.53300 31.16600
H  -2.15300 18.64600 31.47600
H  -4.96800 18.52300 32.00200
H  -4.75900 19.65100 30.56700
H  -3.96300 19.82600 32.12200
H  -1.06700 16.21700 31.48500
H  -2.19400 15.19200 32.16500
H  -2.67200 17.37400 33.74700
H  -0.92300 17.48700 33.26500
H  -2.64400 22.66000 29.05900
H  -2.89400 23.55700 27.47000
H  -1.28500 23.29000 28.11600
H  -0.90400 24.65300 24.39800
H  -0.13900 23.77500 25.81900
H  -1.77100 24.29000 25.92500
H  -1.07600 18.34200 21.64700
H  -2.51900 15.94800 21.51400
H  -3.84000 17.52900 21.29300
H  -3.08200 18.83500 20.43900
H  -3.73100 19.16000 21.94000
H  -0.01600 16.09500 20.82000
H  -0.61600 14.69800 21.69300
H  0.85000 14.87300 23.31400
H  0.65300 16.46300 23.74300
H  1.67200 16.24300 22.36900
H  -1.73300 11.42300 25.05200
H  -3.27700 12.01700 24.37500
H  -3.39000 11.06000 25.85600
H  -3.33200 13.56300 30.57700
H  -0.96300 11.89600 33.41500
H  0.09700 13.14800 32.79200
H  0.21900 11.39300 32.26600
Mg 16.74900 -1.87500 27.92200
C  15.81200 0.08400 30.71200
C  19.28200 -3.16600 29.89500
C  18.17000 -3.20300 25.18600
C  14.56500 0.05900 25.87900
N  17.46500 -1.48500 30.00500
C  16.85800 -0.80200 30.98700
C  17.28000 -1.18000 32.45700
C  18.59400 -2.01600 32.12000
C  18.50100 -2.21100 30.58000
C  19.85500 -1.27600 32.45400
C  16.14000 -1.73500 33.35900
C  16.07200 -1.17200 34.72300
H  17.31600 -0.46500 35.41100
N  18.35600 -3.06600 27.61100
C  19.20500 -3.62500 28.57000
C  20.14000 -4.57500 27.90400
C  19.80800 -4.57400 26.55600
C  18.73800 -3.58800 26.42900
C  21.19800 -5.34300 28.67700
C  20.46700 -5.27800 25.38500
O  20.16800 -5.09500 24.24400
C  21.56500 -6.31000 25.69700
N  16.41700 -1.56500 25.83100
C  17.10400 -2.33100 24.89300
C  16.68300 -1.93200 23.45300
C  15.33100 -1.10000 23.72600
C  15.41500 -0.86500 25.24700
C  17.66100 -1.16800 22.50600
C  14.00900 -1.87800 23.45500
C  13.57400 -1.72100 21.99900
N  15.39900 -0.34000 28.19400
C  14.60600 0.37700 27.26400
C  13.84800 1.39600 27.98300
C  14.28900 1.30300 29.32800
C  15.24600 0.27400 29.40600
C  12.83100 2.34700 27.43900
C  14.02200 1.86600 30.63600
O  13.16700 2.73600 31.00300
C  15.02500 1.03700 31.63800
C  15.81300 1.98900 32.44900
O  16.91800 2.53000 32.14100
O  15.14700 2.28300 33.62300
C  15.73400 3.25800 34.51700
H  20.11800 -3.56100 30.47600
H  18.37700 -3.70500 24.23900
H  13.99800 0.76000 25.26400
H  17.57200 -0.21700 32.87800
H  18.59800 -3.01100 32.56500
H  19.57900 -0.68700 33.32900
H  20.13000 -0.60400 31.64100
H  20.67500 -1.93800 32.73400
H  16.32700 -2.80700 33.42800
H  15.18900 -1.69800 32.82800
H  15.77100 -2.01300 35.34800
H  15.16300 -0.57700 34.80300
H  20.89600 -6.38800 28.60200
H  21.12300 -5.34900 29.76500
H  22.17300 -5.04500 28.29200
H  21.32800 -6.88500 26.59300
H  22.44500 -5.67300 25.78000
H  21.57200 -6.93600 24.80500
H  16.35400 -2.87500 23.01600
H  15.31800 -0.14900 23.19300
H  17.99300 -1.70100 21.61600
H  18.55600 -1.07600 23.12100
H  17.25800 -0.18700 22.25100
H  13.28400 -1.69400 24.24800
H  14.28100 -2.93200 23.50200
H  12.49900 -1.56300 21.91500
H  13.70500 -2.64900 21.44100
H  14.01800 -0.81000 21.59700
H  12.84400 3.25500 28.04200
H  11.89400 1.81300 27.59400
H  13.14900 2.62700 26.43400
H  14.34600 0.38200 32.18400
H  15.48300 4.25800 34.16400
H  16.79000 3.11900 34.74700
H  15.18800 3.03200 35.43300

