158

Mg 8.47400 3.29600 27.24400
C  9.97400 1.93200 30.03400
C  6.58100 5.37300 29.21600
C  7.37600 4.85300 24.51800
C  10.03200 0.87700 25.18400
N  8.06400 3.34200 29.46100
C  8.97200 2.90300 30.38400
C  8.69900 3.47600 31.79500
C  7.46800 4.42600 31.48700
C  7.36500 4.42300 29.95900
C  6.12800 3.97800 32.16000
C  9.94000 4.20400 32.47000
C  9.74400 4.79800 33.79300
H  10.74300 4.24200 34.93800
N  7.11700 4.92900 26.92100
C  6.49500 5.68600 27.86400
C  5.68100 6.67700 27.22400
C  6.09500 6.68200 25.81500
C  6.95300 5.46800 25.69400
C  4.78000 7.59600 27.97300
C  5.65700 7.59000 24.59800
O  5.92600 7.33700 23.44100
C  4.70300 8.74700 24.96400
N  8.49400 2.78700 25.14500
C  7.94800 3.62500 24.21100
C  7.92900 2.97600 22.75000
C  8.75000 1.65900 22.97400
C  9.13000 1.76800 24.52400
C  6.44900 2.81000 22.26500
C  10.07400 1.65500 22.26300
C  10.36300 0.42900 21.31700
N  9.67800 1.72600 27.50400
C  10.27000 0.83400 26.59300
C  11.25100 0.00100 27.24200
C  11.23300 0.44800 28.61900
C  10.21100 1.45300 28.68900
C  12.10000 -1.03000 26.56000
C  11.82300 0.30800 29.97200
O  12.67800 -0.50400 30.41300
C  11.00100 1.25000 30.89700
C  10.36000 0.45700 32.03300
O  9.57300 -0.41300 31.86800
O  10.91600 0.77900 33.29500
C  10.49600 0.00200 34.46600
H  6.09100 6.03500 29.93300
H  7.14900 5.34700 23.57100
H  10.60600 0.20500 24.54100
H  8.53400 2.54500 32.33700
H  7.65700 5.45600 31.78800
H  6.42900 3.30500 32.96200
H  5.53100 3.50800 31.37800
H  5.56100 4.86400 32.44500
H  10.42600 4.95000 31.84100
H  10.69600 3.41900 32.50800
H  8.73400 4.66200 34.18200
H  10.02800 5.84400 33.67800
H  5.14300 8.62400 27.99200
H  4.41500 7.23900 28.93600
H  3.87000 7.75800 27.39600
H  3.72300 8.45300 25.34200
H  4.47600 9.30700 24.05700
H  5.23800 9.38300 25.66800
H  8.43400 3.59500 22.00900
H  8.18400 0.74200 22.81300
H  6.47200 1.96700 21.57400
H  5.98900 3.68100 21.79600
H  5.94000 2.50700 23.18000
H  10.89600 1.89400 22.93700
H  10.17600 2.53600 21.62900
H  10.34000 0.64300 20.24800
H  9.65600 -0.35000 21.60300
H  11.32500 -0.01300 21.57800
H  12.90700 -0.72000 25.89600
H  11.45900 -1.74300 26.04200
H  12.56500 -1.68500 27.29800
H  11.78200 1.82200 31.39800
H  9.62900 -0.64400 34.32300
H  10.24800 0.71700 35.25000
H  11.35700 -0.53600 34.86200
Mg 16.73400 51.68100 26.27400
C  18.79700 50.06900 28.43600
C  14.82200 52.55600 29.02700
C  14.69700 53.34600 24.16200
C  18.72000 50.59900 23.49100
N  16.97800 51.53200 28.51100
C  17.94500 50.82100 29.16800
C  17.78600 50.85300 30.68200
C  16.26600 51.28100 30.73100
C  15.97500 51.83800 29.33800
C  15.26200 50.18100 31.21600
C  18.74500 51.91200 31.28000
C  19.02800 51.76300 32.81300
H  18.19500 50.92500 33.74000
N  14.88900 52.66100 26.55700
C  14.31600 53.00200 27.76600
C  13.23100 53.76700 27.49200
C  13.09800 53.93900 26.07700
C  14.24900 53.26500 25.51500
C  12.19800 54.17800 28.56200
C  11.94500 54.61700 25.30600
O  11.84000 54.63500 24.11200
C  10.98800 55.44800 25.98900
N  16.79200 51.93600 24.16200
C  15.84100 52.67900 23.58100
C  16.00100 52.75900 22.01900
C  17.41100 52.04600 21.82800
C  17.69700 51.56100 23.24600
C  14.92500 52.00300 21.15600
C  18.44500 53.10000 21.40200
C  18.45500 53.46700 19.85000
N  18.43800 50.56300 25.97000
C  19.03700 50.08000 24.76200
C  19.95900 49.05700 25.06100
C  19.89400 48.98800 26.52400
C  19.03400 50.01000 27.02300
C  20.82600 48.35300 24.06300
C  20.49800 48.44400 27.69900
O  21.36500 47.60500 27.83400
C  19.78200 49.11200 29.03400
C  19.10200 48.10500 29.84000
O  18.02500 47.63400 29.57800
O  19.97200 47.76200 30.84600
C  19.38300 46.80700 31.83700
H  14.19400 52.76700 29.89600
H  14.00900 53.77900 23.43300
H  19.26600 50.21300 22.62800
H  18.02300 49.93300 31.21500
H  16.20100 52.08600 31.46300
H  14.54700 49.87900 30.45100
H  14.68500 50.59200 32.04400
H  15.87900 49.30800 31.43000
H  18.35500 52.91700 31.11700
H  19.72700 51.85700 30.81200
H  19.05500 52.73600 33.30400
H  20.08000 51.48700 32.88900
H  11.17400 53.86500 28.35600
H  12.29100 55.25200 28.72700
H  12.49400 53.69600 29.49400
H  10.76200 56.32400 25.38000
H  11.49300 55.87600 26.85500
H  10.11500 54.83300 26.20500
H  15.94100 53.80500 21.71900
H  17.44600 51.41500 20.93900
H  14.28300 51.46000 21.84800
H  15.45200 51.26400 20.55200
H  14.43400 52.80000 20.59800
H  19.45100 52.74500 21.62400
H  18.28600 53.97300 22.03600
H  19.47200 53.20000 19.56300
H  18.37300 54.53500 19.64700
H  17.67200 52.98000 19.27000
H  21.35700 47.55700 24.58500
H  21.46500 49.10500 23.60000
H  20.09000 47.93300 23.37600
H  20.57300 49.59000 29.61300
H  18.42900 46.34200 31.58700
H  19.38800 47.42500 32.73600
H  20.11500 46.00800 31.95000

