158

Mg 25.87700 50.95200 25.87700
C  23.49400 52.01300 28.24100
C  28.03600 50.22000 28.38400
C  28.09400 50.32900 23.49800
C  23.65000 52.28700 23.31700
N  25.75000 51.16900 27.98900
C  24.67600 51.39000 28.75500
C  24.98600 51.09600 30.23800
C  26.45700 50.79200 30.25900
C  26.80300 50.77400 28.76600
C  27.35800 51.65500 31.20200
C  23.98900 50.12800 30.85500
C  23.46200 50.52800 32.24600
H  23.98000 49.77900 33.46400
N  27.83100 50.33900 25.98400
C  28.57700 50.05000 27.07400
C  29.87700 49.64900 26.64600
C  29.96000 49.65400 25.25700
C  28.55900 50.05800 24.85800
C  31.00100 49.32500 27.54000
C  31.15900 49.46100 24.23300
O  30.99100 49.34100 23.01500
C  32.55200 49.32100 24.79700
N  25.88100 51.41800 23.76000
C  26.97400 50.95300 23.01700
C  26.79300 51.21300 21.52300
C  25.34900 51.83700 21.47000
C  24.93800 51.94500 22.96900
C  27.86000 52.18200 20.87900
C  24.32000 51.18400 20.50000
C  23.98200 52.11900 19.26000
N  24.04900 51.98200 25.74900
C  23.31000 52.41100 24.65100
C  22.14000 53.00900 25.13800
C  22.11500 52.93000 26.58000
C  23.32600 52.27600 26.84200
C  21.11000 53.58800 24.23200
C  21.40300 53.27500 27.76800
O  20.34600 53.89400 27.94600
C  22.23900 52.54800 28.92700
C  22.53500 53.50100 30.04200
O  23.50000 54.25400 30.10200
O  21.50300 53.48800 30.98100
C  21.78700 54.50800 32.07600
H  28.60100 49.81600 29.22600
H  28.81800 49.98000 22.75900
H  22.89000 52.55600 22.58100
H  24.86000 52.01900 30.80500
H  26.55700 49.75000 30.56100
H  27.94400 52.37100 30.62600
H  28.04800 51.10500 31.84200
H  26.74400 52.19900 31.92000
H  24.41900 49.12700 30.87100
H  23.09000 50.03100 30.24600
H  22.40400 50.27700 32.31400
H  23.58600 51.60600 32.34700
H  30.77700 49.48900 28.59400
H  31.86500 49.96700 27.36700
H  31.20600 48.27700 27.32500
H  32.43000 48.40600 25.37700
H  32.71600 50.21800 25.39400
H  33.27100 49.44700 23.98700
H  26.82700 50.22000 21.07500
H  25.33500 52.88300 21.16300
H  28.63800 52.41600 21.60500
H  27.28500 53.02200 20.49100
H  28.26400 51.69400 19.99200
H  23.33700 50.99500 20.93300
H  24.62600 50.18400 20.19400
H  24.87600 52.43600 18.72400
H  23.42500 52.99000 19.60800
H  23.42700 51.47900 18.57400
H  20.26400 53.86300 24.86100
H  20.64100 52.93300 23.49800
H  21.58200 54.49600 23.85600
H  21.62800 51.79100 29.42100
H  21.79400 55.52400 31.68100
H  22.66400 54.20800 32.65000
H  20.90600 54.52000 32.71700
Mg 16.31100 51.96000 24.57200
C  17.88900 50.79900 27.59600
C  13.58200 52.83900 26.56200
C  14.80000 52.81400 21.86600
C  18.96800 50.48300 22.75100
N  15.81700 51.71400 26.82500
C  16.67800 51.38100 27.85600
C  16.14600 51.70200 29.30400
C  14.68400 52.11700 28.89400
C  14.65400 52.30200 27.33200
C  13.59500 51.15900 29.44900
C  16.92700 52.84200 30.06700
C  16.75500 52.92000 31.66600
H  15.85200 51.80700 32.40900
N  14.41500 52.83200 24.22300
C  13.40400 53.06800 25.11100
C  12.32800 53.59400 24.38400
C  12.62400 53.70600 23.01100
C  13.98300 53.08500 23.00500
C  11.04300 54.01700 25.17600
C  11.80100 54.21200 21.78900
O  12.29600 54.31200 20.62900
C  10.35600 54.66700 21.94200
N  16.98100 51.89500 22.60800
C  16.02000 52.17600 21.69600
C  16.48600 51.80600 20.28700
C  18.01100 51.49900 20.53400
C  18.01900 51.26800 22.02800
C  15.70600 50.66100 19.72100
C  18.83100 52.72200 20.13500
C  20.38500 52.53200 20.33500
N  18.05600 50.80500 25.04200
C  19.01900 50.29200 24.20400
C  19.96800 49.58200 25.01500
C  19.58700 49.81000 26.32200
C  18.40800 50.49400 26.32800
C  21.14800 48.89600 24.53200
C  19.95700 49.44700 27.71100
O  20.95000 48.88000 28.16600
C  18.85300 50.18700 28.58000
C  18.30500 49.15400 29.55800
O  17.56500 48.23100 29.22600
O  18.54500 49.49200 30.89700
C  18.19300 48.47700 31.90200
H  12.68500 53.05700 27.14600
H  14.16900 52.93800 20.98300
H  19.81200 49.99500 22.26000
H  16.10800 50.71700 29.77000
H  14.43200 53.06100 29.37700
H  13.11000 50.74800 28.56300
H  12.92800 51.83800 29.97900
H  13.87900 50.39800 30.17500
H  16.57600 53.75700 29.59100
H  17.98400 52.77400 29.80600
H  16.43500 53.94500 31.85400
H  17.77800 52.88000 32.04300
H  10.95200 55.10300 25.19800
H  10.98400 53.67500 26.20900
H  10.11300 53.68100 24.71800
H  10.43900 55.40300 22.74100
H  9.74800 53.80400 22.21300
H  10.01300 55.03600 20.97500
H  16.27900 52.66500 19.64900
H  18.33700 50.62900 19.96300
H  16.40300 50.15900 19.05000
H  14.98200 51.16400 19.08000
H  15.26800 50.05900 20.51800
H  18.47600 53.55800 20.73600
H  18.63900 53.04400 19.11100
H  20.69600 51.53900 20.01200
H  20.64300 52.51700 21.39400
H  20.98900 53.27900 19.81900
H  21.83500 49.39700 23.85000
H  20.87600 47.87300 24.27400
H  21.79200 48.57800 25.35200
H  19.40100 50.98500 29.08200
H  18.49800 47.45400 31.67900
H  17.14400 48.38200 32.18300
H  18.70100 48.72600 32.83300

