158

Mg 8.33900 3.39500 27.36900
C  9.95000 1.81900 30.13500
C  6.66900 5.42400 29.49900
C  6.56400 4.44800 24.76600
C  9.80900 0.82300 25.31900
N  8.37300 3.61200 29.59600
C  9.12800 2.86900 30.51300
C  8.75700 3.38000 31.89100
C  7.54400 4.37300 31.65700
C  7.53700 4.46500 30.15400
C  6.14600 3.92700 32.07800
C  10.02400 3.98400 32.63900
C  10.40000 3.49800 34.04700
H  10.61500 4.46800 35.21000
N  6.83800 4.76900 27.15200
C  6.34300 5.51800 28.12000
C  5.35600 6.40100 27.53500
C  5.40300 6.29700 26.05600
C  6.34100 5.15500 25.90800
C  4.50000 7.36500 28.31900
C  4.67400 7.14300 24.91200
O  4.65500 6.84600 23.73900
C  4.04300 8.42800 25.27300
N  8.18000 2.66200 25.36200
C  7.40300 3.34400 24.51000
C  7.55400 2.81900 23.12200
C  8.68400 1.70800 23.24400
C  8.93400 1.69600 24.72800
C  6.23400 2.29200 22.43500
C  10.01700 2.08200 22.52500
C  10.93000 3.14300 23.16300
N  9.63200 1.69700 27.57200
C  10.03200 0.76300 26.67800
C  10.92500 -0.22300 27.36900
C  10.89300 0.16800 28.75300
C  10.15000 1.38400 28.80000
C  11.82400 -1.22200 26.84000
C  11.31900 -0.20800 30.11000
O  12.01800 -1.16500 30.47600
C  10.79000 0.87800 31.00100
C  9.95400 0.17100 32.03900
O  8.94700 -0.45100 31.67000
O  10.31000 0.30400 33.41600
C  9.34500 -0.06100 34.46900
H  6.39400 6.31300 30.07100
H  6.18500 4.84000 23.82000
H  10.24600 0.00500 24.74400
H  8.33700 2.51500 32.40500
H  7.89100 5.28600 32.14200
H  5.43000 4.09600 31.27400
H  5.79600 4.57500 32.88100
H  5.98800 2.87800 32.32900
H  9.89700 5.06700 32.66000
H  10.94200 3.86500 32.06400
H  11.30900 2.89700 34.02600
H  9.63400 2.77900 34.34100
H  4.49000 8.40100 27.98100
H  4.79500 7.51700 29.35700
H  3.48300 7.01800 28.13400
H  3.75400 9.03800 24.41800
H  4.85500 8.99700 25.72600
H  3.32500 8.30400 26.08500
H  7.88200 3.66200 22.51300
H  8.28900 0.78300 22.82400
H  6.06800 2.94400 21.57700
H  5.38100 2.49000 23.08300
H  6.11200 1.22300 22.25900
H  9.78400 2.39100 21.50600
H  10.64800 1.19500 22.55600
H  11.23600 3.80500 22.35300
H  11.83700 2.66600 23.53300
H  10.50000 3.79600 23.92200
H  12.24500 -1.04500 25.85100
H  11.32600 -2.19000 26.89300
H  12.63800 -1.27700 27.56400
H  11.61500 1.44100 31.43700
H  8.33800 0.29500 34.25300
H  9.70200 0.32300 35.42500
H  9.27500 -1.14800 34.48100
Mg 41.73500 41.12500 26.67900
C  40.65400 43.21800 29.29500
C  42.66100 38.89700 29.30700
C  43.06800 39.12400 24.41000
C  41.16200 43.66000 24.33300
N  41.70400 41.11900 29.06900
C  41.10900 42.05600 29.86300
C  41.25200 41.67300 31.35900
C  42.12300 40.43600 31.36600
C  42.21700 40.13200 29.81200
C  43.55200 40.66700 32.03400
C  39.88700 41.65700 32.17400
C  39.57600 42.70300 33.30400
H  38.74400 42.45600 34.53400
N  42.70900 39.30500 26.81500
C  43.00100 38.53000 27.95300
C  43.59000 37.30600 27.58700
C  43.79100 37.31000 26.15000
C  43.19100 38.65100 25.73200
C  44.00500 36.26100 28.58300
C  44.28300 36.22500 25.21300
O  44.17300 36.26700 23.98300
C  44.74200 34.96100 25.84000
N  42.13400 41.37600 24.64700
C  42.49100 40.28100 23.90100
C  42.44400 40.66600 22.37700
C  41.87100 42.08000 22.38500
C  41.69100 42.45700 23.87200
C  43.85200 40.63800 21.66200
C  40.50000 42.03900 21.80100
C  39.98900 43.43000 21.38000
N  40.94100 42.99600 26.72200
C  40.80300 43.92400 25.69400
C  40.27100 45.11100 26.31400
C  40.18400 44.88100 27.67800
C  40.70000 43.57600 27.91400
C  39.95300 46.36300 25.70200
C  39.99000 45.48000 28.93900
O  39.60400 46.65100 29.24000
C  40.16400 44.39000 30.06000
C  41.08900 44.94800 31.04000
O  42.29400 44.91900 30.87500
O  40.43000 45.64700 32.04800
C  41.35900 46.35200 32.95600
H  42.87300 38.29200 30.19100
H  43.61300 38.56500 23.64700
H  40.89700 44.54700 23.75300
H  41.82500 42.49800 31.78300
H  41.55600 39.62600 31.82400
H  44.38500 40.61300 31.33300
H  43.56800 39.89900 32.80800
H  43.67600 41.66900 32.44300
H  39.82400 40.73400 32.75000
H  39.07200 41.74500 31.45500
H  38.89500 43.37500 32.78100
H  40.51400 43.22600 33.48700
H  43.63500 35.28900 28.25600
H  43.84200 36.43400 29.64600
H  45.07500 36.08900 28.46000
H  45.17600 34.32300 25.07100
H  43.94600 34.31500 26.21000
H  45.57200 35.19900 26.50500
H  41.94000 39.94500 21.73400
H  42.65400 42.76700 22.06400
H  44.07200 39.63800 21.28900
H  44.55400 41.02000 22.40300
H  43.79900 41.20200 20.73100
H  39.90800 41.59700 22.60200
H  40.44100 41.34500 20.96300
H  39.75600 43.35600 20.31800
H  40.75300 44.20500 21.32500
H  39.07500 43.77000 21.86700
H  38.87800 46.51400 25.79800
H  40.24300 46.46000 24.65600
H  40.51600 47.08500 26.29400
H  39.21000 44.33700 30.58500
H  42.02200 45.54400 33.26500
H  40.84000 46.64100 33.87000
H  41.90400 47.18000 32.50300

