158

Mg 27.05500 50.26400 27.01200
C  25.16500 51.65600 29.59100
C  29.53900 49.83700 29.17800
C  28.79200 49.14400 24.41200
C  24.56400 51.41900 24.73900
N  27.27400 50.74300 29.13800
C  26.38800 51.07000 30.04200
C  26.90400 50.98700 31.45700
C  28.40900 50.91300 31.30700
C  28.46900 50.46800 29.74200
C  29.02000 52.25800 31.46400
C  26.39200 49.71000 32.19400
C  25.13300 49.90200 33.03100
H  25.25600 49.88000 34.55500
N  28.90500 49.50000 26.83300
C  29.73200 49.27700 27.88900
C  30.88600 48.49700 27.42600
C  30.76600 48.42400 26.01800
C  29.44200 49.04400 25.64300
C  31.97300 48.09000 28.30900
C  31.77800 47.92600 25.05900
O  31.59900 47.89700 23.85400
C  33.13000 47.51400 25.48200
N  26.80900 50.58100 24.79400
C  27.62000 49.77500 24.02800
C  27.04700 49.53700 22.68100
C  25.68000 50.19700 22.80300
C  25.69400 50.86600 24.15200
C  28.06000 50.11100 21.55700
C  24.45000 49.25900 22.70900
C  23.46400 49.62300 21.60200
N  25.23600 51.36200 27.11800
C  24.28500 51.69900 26.09900
C  23.16300 52.38400 26.70800
C  23.48400 52.42700 28.01900
C  24.70800 51.71400 28.22300
C  21.98600 52.95600 26.00300
C  22.96500 52.81500 29.31400
O  21.91100 53.35400 29.59200
C  24.02400 52.28000 30.45100
C  24.49600 53.50900 31.21700
O  25.43400 54.25400 30.86500
O  23.63600 53.68100 32.27100
C  23.88300 54.92100 33.11900
H  30.39200 49.71900 29.85000
H  29.21200 48.48400 23.65000
H  23.76300 51.57700 24.01400
H  26.62800 51.88300 32.01300
H  28.80900 50.18600 32.01500
H  28.38800 53.00800 30.98800
H  29.95900 52.43700 30.93900
H  29.09300 52.44300 32.53500
H  27.08200 49.21800 32.88000
H  26.21500 48.96300 31.42000
H  24.44700 49.13100 32.68100
H  24.76200 50.87800 32.71500
H  31.65900 48.13400 29.35200
H  32.93000 48.60000 28.20000
H  32.21300 47.04700 28.10200
H  33.74400 48.36700 25.77100
H  33.66300 47.08400 24.63400
H  32.88300 46.76400 26.23300
H  26.86700 48.46400 22.61600
H  25.58800 50.93200 22.00300
H  28.93300 50.37200 22.15600
H  27.80900 50.99400 20.97000
H  28.26100 49.35100 20.80200
H  23.82700 49.04100 23.57600
H  24.90400 48.30900 22.42600
H  23.48300 50.70900 21.50800
H  22.43200 49.34700 21.81700
H  23.67100 49.13200 20.65200
H  22.13000 54.02600 25.85300
H  21.04500 52.76100 26.51600
H  21.93900 52.45400 25.03600
H  23.48100 51.55800 31.06200
H  24.78700 54.74400 33.70100
H  23.01800 55.02200 33.77400
H  23.81200 55.86700 32.58300
Mg 6.47200 54.34800 41.59300
C  5.92000 51.04100 41.04200
C  9.74000 53.89600 40.56500
C  6.68500 57.65100 41.20300
C  2.93600 54.83500 41.97300
N  7.57300 52.62700 40.52900
C  7.19000 51.39100 40.61800
C  8.34600 50.39600 40.25500
C  9.68100 51.24000 40.43700
C  8.97900 52.71300 40.54400
C  10.65400 50.98400 41.63200
C  8.21400 49.71500 38.90400
C  7.92800 50.55400 37.60800
H  6.95600 50.04200 36.54800
N  8.03700 55.58100 41.17700
C  9.29400 55.19200 40.74800
C  10.14100 56.34900 40.59400
C  9.31800 57.47000 40.75900
C  7.91600 56.92200 41.05100
C  11.58300 56.26000 40.24000
C  9.73400 58.97000 40.55300
O  10.90200 59.24100 40.26100
C  8.85100 60.09200 40.97100
N  5.02200 56.02100 41.55400
C  5.37400 57.28400 41.47300
C  4.18100 58.29700 41.61500
C  2.97300 57.35300 41.88100
C  3.73200 56.00400 41.95500
C  4.35000 59.22500 42.86800
C  1.82200 57.48900 40.84300
C  0.68200 58.51800 41.11800
N  4.76500 53.19000 41.68800
C  3.43400 53.49500 41.88000
C  2.76500 52.26800 41.98500
C  3.68200 51.24900 41.62100
C  4.86400 51.89800 41.43900
C  1.34500 52.16500 42.32200
C  3.82400 49.87100 41.53000
O  3.01700 48.96700 41.86400
C  5.29900 49.62400 41.05000
C  5.14000 48.92600 39.71900
O  4.82900 49.45700 38.64400
O  5.45500 47.62000 39.97900
C  5.16600 46.69400 38.95200
H  10.77700 53.64900 40.32700
H  6.70800 58.70200 40.90700
H  1.86900 54.86000 42.20300
H  8.21900 49.64800 41.03900
H  10.31900 51.11100 39.56300
H  10.44000 51.83100 42.28300
H  11.66000 50.97500 41.21300
H  10.51500 50.01800 42.11600
H  7.55700 48.85200 39.02100
H  9.20800 49.33900 38.66000
H  8.87200 50.61600 37.06600
H  7.54300 51.54200 37.86000
H  12.09300 57.16800 40.56300
H  11.68600 56.07900 39.17000
H  12.01000 55.47300 40.86100
H  8.29700 60.37200 40.07500
H  9.51800 60.93300 41.15800
H  8.26800 59.89000 41.86900
H  4.23900 58.96600 40.75600
H  2.51200 57.52400 42.85300
H  5.27400 59.79800 42.78900
H  4.38200 58.60700 43.76500
H  3.52100 59.93200 42.86200
H  1.36700 56.55200 40.52100
H  2.24100 57.79900 39.88500
H  -0.28900 58.04300 40.97400
H  0.86400 59.45900 40.59800
H  0.82500 58.86300 42.14200
H  0.69100 52.47000 41.50500
H  1.26800 52.79300 43.20900
H  1.00300 51.16200 42.57700
H  5.74400 48.86500 41.69300
H  5.89700 45.89200 39.05400
H  5.24400 47.06200 37.92900
H  4.28900 46.10800 39.22700

