158

Mg 17.80400 -2.04200 28.04700
C  16.93600 -0.08500 30.83200
C  19.97600 -3.77300 29.94100
C  19.25900 -3.09700 25.25000
C  15.81200 0.26000 26.26800
N  18.31600 -1.87600 30.13400
C  17.87800 -1.06400 31.15600
C  18.31500 -1.54800 32.50500
C  19.36700 -2.62300 32.13700
C  19.19500 -2.87600 30.66200
C  20.84600 -2.33900 32.60200
C  17.00600 -2.10100 33.33300
C  17.06900 -1.71600 34.87200
H  18.49200 -1.92200 35.44000
N  19.29400 -3.44000 27.64200
C  20.03400 -4.04600 28.54000
C  20.75700 -5.08800 27.89900
C  20.52200 -5.05200 26.50100
C  19.70100 -3.79700 26.41400
C  21.63000 -6.11600 28.60500
C  20.89000 -5.97900 25.38400
O  20.60100 -5.68200 24.24900
C  21.76100 -7.16900 25.64400
N  17.56600 -1.51500 26.08500
C  18.35100 -2.00200 25.08100
C  17.87800 -1.45900 23.69200
C  16.70200 -0.53500 24.05100
C  16.68100 -0.63100 25.55400
C  18.95300 -0.64900 22.90600
C  15.35900 -0.92400 23.34700
C  14.56400 0.22200 22.79000
N  16.43800 -0.33500 28.42900
C  15.67700 0.44200 27.61700
C  14.87700 1.42900 28.33900
C  15.40300 1.35700 29.62800
C  16.27800 0.24900 29.62800
C  13.92500 2.37300 27.71100
C  15.36200 1.92000 30.97400
O  14.81400 2.90100 31.45900
C  16.44400 0.98000 31.78300
C  17.58000 1.90900 32.30500
O  18.62200 2.15500 31.79400
O  17.03500 2.49200 33.42700
C  17.88900 3.38900 34.15900
H  20.66200 -4.47400 30.42100
H  19.78300 -3.46900 24.36700
H  15.24500 0.95000 25.63800
H  18.85400 -0.71900 32.96400
H  19.16800 -3.54400 32.68500
H  20.86700 -1.86600 33.58400
H  21.44900 -1.76600 31.89900
H  21.41900 -3.24700 32.79100
H  16.88500 -3.14800 33.05300
H  16.14800 -1.56900 32.92400
H  16.41500 -2.33500 35.48600
H  16.71300 -0.70400 35.06500
H  22.53200 -6.41200 28.07000
H  21.07000 -7.04100 28.74700
H  21.98500 -5.67900 29.53800
H  22.71800 -6.85100 26.05800
H  21.83200 -7.57700 24.63600
H  21.28900 -7.87000 26.33100
H  17.53700 -2.32800 23.12900
H  16.82600 0.49600 23.71700
H  19.90100 -0.82600 23.41600
H  18.76000 0.41800 22.79900
H  19.07100 -1.13900 21.94000
H  14.73900 -1.31100 24.15600
H  15.50400 -1.75100 22.65100
H  14.96500 1.18900 23.09300
H  13.56000 0.24700 23.21300
H  14.40200 0.08100 21.72100
H  14.49200 3.26900 27.45500
H  13.12300 2.54400 28.42800
H  13.59900 1.85700 26.80700
H  15.86900 0.57500 32.61600
H  18.92600 3.35800 33.82400
H  17.80500 3.08300 35.20200
H  17.30400 4.28100 33.93500
Mg -11.69900 39.05800 41.79800
C  -9.92000 36.25900 40.64500
C  -9.32700 41.06100 40.50000
C  -13.77200 41.67000 42.45400
C  -14.26300 36.78200 42.71600
N  -10.01300 38.66000 40.47100
C  -9.41100 37.48200 40.18400
C  -8.11700 37.71900 39.36800
C  -7.82800 39.21400 39.59300
C  -9.12600 39.66600 40.26500
C  -6.50100 39.61300 40.21200
C  -8.20800 37.06700 37.96200
C  -6.96700 36.13600 37.65600
H  -6.08000 36.55600 36.58000
N  -11.49100 41.10100 41.59500
C  -10.43300 41.71100 41.05200
C  -10.61900 43.14700 41.27500
C  -11.87000 43.39000 41.87000
C  -12.49900 41.99900 41.97900
C  -9.56600 44.09400 40.81500
C  -12.35000 44.71100 42.30500
O  -11.67500 45.71000 41.97500
C  -13.58600 45.02000 42.99900
N  -13.79900 39.16900 42.20100
C  -14.38300 40.39200 42.50200
C  -15.79500 40.16000 43.01000
C  -16.03400 38.62200 42.74000
C  -14.60200 38.11700 42.52000
C  -16.18400 40.64600 44.46900
C  -17.00100 38.23200 41.62000
C  -18.10100 37.32500 42.09600
N  -12.16900 36.87400 41.65900
C  -13.09100 36.16200 42.32300
C  -12.73200 34.76400 42.34300
C  -11.54000 34.70200 41.64300
C  -11.15600 36.03000 41.28700
C  -13.48700 33.62500 43.04500
C  -10.45900 33.82100 41.14000
O  -10.34500 32.63200 41.12700
C  -9.43400 34.82100 40.36000
C  -8.13600 34.56200 40.99600
O  -7.80200 34.99900 42.11700
O  -7.34700 33.78700 40.10400
C  -6.07000 33.38100 40.60800
H  -8.42400 41.62400 40.25400
H  -14.36300 42.55100 42.71500
H  -14.84000 36.03000 43.25800
H  -7.42600 37.08300 39.92200
H  -7.82400 39.83400 38.69600
H  -6.61200 40.21000 41.11700
H  -5.96500 40.27600 39.53300
H  -5.89000 38.75500 40.49400
H  -8.24300 37.77600 37.13500
H  -9.13700 36.50500 38.06100
H  -7.41300 35.14500 37.57100
H  -6.39400 35.99400 38.57200
H  -8.59100 43.72400 41.13200
H  -9.73100 45.14800 41.03900
H  -9.65500 44.17500 39.73100
H  -14.45300 44.53900 42.54700
H  -13.92500 46.05600 43.00300
H  -13.54300 44.62800 44.01600
H  -16.48100 40.64700 42.31700
H  -16.45300 38.31600 43.69900
H  -15.33700 41.13400 44.95100
H  -16.56400 39.77100 44.99700
H  -17.00400 41.36300 44.42300
H  -16.43500 37.66600 40.88000
H  -17.51000 39.13500 41.28300
H  -19.03900 37.76600 42.43500
H  -17.74500 36.70400 42.91800
H  -18.34500 36.80100 41.17200
H  -13.01300 32.64600 42.96700
H  -14.51900 33.56100 42.69900
H  -13.48900 33.85300 44.11100
H  -9.51000 34.48000 39.32700
H  -5.75600 34.03700 41.41900
H  -5.28800 33.35500 39.84900
H  -6.22700 32.37500 40.99600

