158

Mg 40.91400 7.93000 28.80400
C  42.86500 9.29400 31.24900
C  38.84100 6.57000 31.22200
C  39.17900 6.41800 26.35200
C  43.22800 8.85800 26.48300
N  40.99500 7.90100 30.95800
C  41.77900 8.65500 31.78200
C  41.23100 8.54500 33.32300
C  40.01400 7.60000 33.18400
C  39.90200 7.33000 31.67400
C  40.09300 6.19000 33.99300
C  40.90700 10.00900 33.80600
C  39.84100 10.14400 34.90800
H  40.29400 10.97400 36.21200
N  39.20100 6.65300 28.80400
C  38.47500 6.22000 29.86900
C  37.39600 5.45900 29.41800
C  37.35300 5.59200 27.96900
C  38.64700 6.28700 27.59400
C  36.47000 4.67700 30.36400
C  36.22600 5.10400 26.94700
O  36.27200 5.30200 25.75000
C  34.96400 4.59100 27.46800
N  41.11600 7.70400 26.68200
C  40.30500 7.06300 25.84200
C  40.81200 7.06500 24.45600
C  42.05600 8.08100 24.44000
C  42.15900 8.24100 25.96500
C  41.13200 5.60500 24.05600
C  41.69200 9.46800 23.79000
C  40.59900 10.34600 24.48400
N  42.70700 8.81000 28.80600
C  43.61000 9.08900 27.82300
C  44.85700 9.60800 28.39100
C  44.57000 9.79100 29.76800
C  43.28700 9.28100 29.93000
C  46.15500 9.94900 27.57900
C  45.03100 10.33300 30.99600
O  46.05400 10.93200 31.31500
C  43.98600 9.98200 32.08300
C  44.55600 9.29300 33.32600
O  44.67500 8.09000 33.52900
O  44.56500 10.26400 34.32100
C  44.93000 9.83700 35.61500
H  38.06800 6.28500 31.93700
H  38.50700 6.07800 25.56200
H  43.91600 9.21500 25.71400
H  42.10400 8.18400 33.86700
H  39.07400 8.01100 33.55300
H  40.55600 5.48300 33.30600
H  39.09900 5.83900 34.27100
H  40.73100 6.28200 34.87200
H  40.55100 10.71000 33.05000
H  41.80200 10.41200 34.28000
H  39.55800 9.20700 35.38900
H  38.96200 10.67300 34.54100
H  36.71900 4.65600 31.42500
H  36.41700 3.63200 30.05800
H  35.52500 5.19800 30.20900
H  34.35400 4.40500 26.58400
H  34.62800 5.44100 28.06300
H  35.09000 3.70700 28.09300
H  40.03800 7.45900 23.79900
H  43.03300 7.73900 24.09800
H  40.90400 4.94900 24.89700
H  42.14000 5.26500 23.82000
H  40.58300 5.45400 23.12600
H  41.33100 9.28600 22.77700
H  42.62300 10.03400 23.76600
H  39.83000 10.49700 23.72600
H  41.08100 11.21500 24.93000
H  40.01600 9.87700 25.27600
H  45.84000 10.50700 26.69800
H  46.44300 8.93700 27.29500
H  46.93500 10.50300 28.10100
H  43.50600 10.93800 32.28800
H  44.11000 10.00200 36.31400
H  45.75600 10.45300 35.97100
H  45.15500 8.77400 35.70700
Mg 52.80000 24.05400 43.82800
C  49.85500 25.80800 43.64200
C  51.08100 21.07400 43.16300
C  55.75600 22.56900 43.27600
C  54.43300 27.15700 44.42000
N  50.78100 23.58700 43.27200
C  49.78000 24.45500 43.35700
C  48.45400 23.70200 43.15900
C  48.80400 22.19100 43.35900
C  50.32400 22.21600 43.24000
C  48.26100 21.54700 44.64800
C  47.78300 23.94800 41.70300
C  48.66300 23.78400 40.50000
H  47.93300 23.41400 39.28400
N  53.37900 22.09400 43.30200
C  52.51500 20.95700 43.24700
C  53.33900 19.73600 43.22400
C  54.71400 20.17900 43.17600
C  54.63900 21.67000 43.24000
C  52.78900 18.37500 43.11400
C  55.87700 19.13100 43.14700
O  55.65300 17.92400 43.08000
C  57.27600 19.61200 43.22000
N  54.80400 24.84000 43.73400
C  55.83200 23.98700 43.56600
C  57.15600 24.73400 43.70500
C  56.75400 26.07700 44.33000
C  55.23800 26.05400 44.13600
C  58.27500 23.88100 44.52100
C  57.45900 27.25700 43.56200
C  58.03700 28.30400 44.51200
N  52.28900 26.14100 44.07100
C  53.05800 27.25800 44.34900
C  52.17200 28.32400 44.63300
C  50.88200 27.77200 44.31000
C  51.03900 26.52400 43.92700
C  52.53100 29.73500 45.14300
C  49.44600 28.08400 44.26700
O  48.76600 29.11400 44.50500
C  48.77100 26.87100 43.73200
C  48.12700 27.21100 42.43900
O  48.79700 27.24600 41.41500
O  46.79500 27.42100 42.55900
C  46.04300 27.98700 41.40300
H  50.59500 20.10100 43.06200
H  56.74400 22.10500 43.23700
H  55.03800 28.00000 44.76200
H  47.79700 23.99500 43.97800
H  48.44300 21.61600 42.50600
H  48.04800 20.50100 44.42500
H  47.27700 21.91700 44.93500
H  48.95300 21.52000 45.49000
H  47.29200 24.91800 41.63500
H  46.92400 23.28700 41.58500
H  49.34200 22.96200 40.72700
H  49.21700 24.71600 40.38900
H  53.26300 17.88100 43.96300
H  53.06200 17.81600 42.21900
H  51.72500 18.36600 43.35100
H  57.52300 20.18100 42.32400
H  57.87100 18.69900 43.20100
H  57.50900 20.24500 44.07600
H  57.60900 24.92900 42.73300
H  57.09500 26.10600 45.36500
H  59.09300 23.45500 43.93900
H  57.78600 23.01100 44.95700
H  58.71000 24.48700 45.31600
H  56.76000 27.82900 42.95000
H  58.38500 26.88400 43.12600
H  58.69800 27.79900 45.21700
H  57.24400 28.85900 45.01200
H  58.64200 28.94600 43.87100
H  52.29800 30.54000 44.44500
H  53.62100 29.73100 45.17700
H  52.06600 29.88600 46.11800
H  48.02800 26.43700 44.40100
H  46.72500 28.11500 40.56300
H  45.60100 28.94900 41.66000
H  45.26600 27.38800 40.92800

