158

Mg 17.11800 -1.96200 27.35500
C  15.97000 -0.09700 30.11600
C  19.39600 -3.59600 29.43700
C  18.67100 -3.23600 24.64200
C  15.28300 0.22000 25.33600
N  17.64100 -1.76500 29.54100
C  16.95500 -0.97700 30.47200
C  17.66500 -1.13500 31.84600
C  18.79100 -2.21200 31.58400
C  18.66900 -2.55900 30.06100
C  20.24700 -1.79200 31.88100
C  16.67100 -1.58800 32.98900
C  16.63000 -0.78700 34.22300
H  17.79800 -0.03200 34.70700
N  18.70500 -3.40100 27.05800
C  19.40600 -4.03300 28.09400
C  20.21300 -5.11300 27.50800
C  19.93500 -5.02300 26.09900
C  19.15500 -3.80600 25.84600
C  21.13800 -6.02200 28.27900
C  20.41900 -5.96100 24.97700
O  20.19600 -5.71900 23.83700
C  21.05800 -7.21900 25.32900
N  17.06900 -1.52600 25.24500
C  17.81100 -2.19000 24.35000
C  17.44300 -1.78500 22.91000
C  16.28400 -0.72500 23.12300
C  16.17700 -0.69900 24.66700
C  18.72500 -1.34800 22.15300
C  14.93900 -0.76900 22.25600
C  14.93600 -0.07600 20.85600
N  15.74600 -0.44600 27.58800
C  15.01300 0.28800 26.68000
C  14.21000 1.21500 27.38700
C  14.53000 1.10300 28.72600
C  15.52700 0.08000 28.82100
C  13.42300 2.28900 26.78100
C  14.24300 1.64700 29.98700
O  13.48700 2.52500 30.44700
C  15.20400 0.95500 31.01100
C  16.05300 1.99200 31.62300
O  16.87700 2.71400 31.07500
O  15.68600 2.18800 32.88600
C  16.32800 3.39700 33.48200
H  20.05300 -4.14500 30.11500
H  19.02600 -3.76600 23.75600
H  14.82100 0.94800 24.66600
H  18.13200 -0.20500 32.17100
H  18.57400 -3.14600 32.10100
H  20.29600 -0.76400 32.24100
H  20.91700 -1.93800 31.03300
H  20.68800 -2.43500 32.64300
H  16.74800 -2.63400 33.28500
H  15.66400 -1.41000 32.61300
H  16.21300 -1.39100 35.02800
H  15.82600 -0.07400 34.04100
H  22.17500 -5.98300 27.94600
H  20.72900 -7.02800 28.18400
H  21.20200 -5.80300 29.34500
H  22.10700 -7.09000 25.59500
H  21.03800 -7.69800 24.35000
H  20.41500 -7.65400 26.09400
H  17.11300 -2.73800 22.49600
H  16.71100 0.25600 22.91500
H  19.59300 -1.18200 22.79100
H  18.48100 -0.39700 21.67900
H  19.01100 -1.99600 21.32400
H  14.10700 -0.40400 22.85900
H  14.73400 -1.81900 22.04600
H  14.21700 0.73400 20.73400
H  14.61100 -0.82300 20.13200
H  15.93500 0.28200 20.60700
H  12.65600 1.89300 26.11500
H  14.12000 2.86300 26.17100
H  12.96700 2.91200 27.55000
H  14.56600 0.54100 31.79100
H  15.81400 4.31500 33.19800
H  17.39300 3.62400 33.42200
H  16.18700 3.38500 34.56300
Mg -12.14800 37.71600 42.35600
C  -10.05500 35.01400 41.50000
C  -9.93200 39.79900 40.63300
C  -14.58700 39.91800 42.31300
C  -14.49800 35.18100 43.45300
N  -10.29800 37.40400 40.94600
C  -9.61200 36.19800 40.89000
C  -8.33100 36.40400 40.08100
C  -8.13900 37.95900 40.07100
C  -9.51500 38.44300 40.59500
C  -7.05400 38.39300 41.01000
C  -8.40400 35.72900 38.69400
C  -7.16700 34.89000 38.40400
H  -6.11800 35.41300 37.50900
N  -12.18300 39.64000 41.71000
C  -11.11600 40.38300 41.11800
C  -11.61900 41.78800 41.07800
C  -12.94400 41.82000 41.56700
C  -13.34100 40.45300 41.84500
C  -10.73300 42.85200 40.60200
C  -13.84600 43.05000 41.65200
O  -13.43800 44.12800 41.19800
C  -15.18600 43.12900 42.29000
N  -14.32100 37.56900 42.40400
C  -15.01000 38.68500 42.61500
C  -16.43900 38.39800 43.11900
C  -16.39900 36.90100 43.45200
C  -15.02400 36.46600 43.06300
C  -16.94100 39.38000 44.25500
C  -17.50000 35.96700 42.78500
C  -18.26000 34.98300 43.78900
N  -12.25200 35.57400 42.61600
C  -13.16200 34.72700 43.17200
C  -12.60400 33.42700 43.35100
C  -11.36200 33.42100 42.69400
C  -11.24400 34.79200 42.18700
C  -13.27600 32.33300 44.13000
C  -10.25000 32.64500 42.21400
O  -9.96300 31.44300 42.31400
C  -9.33900 33.64500 41.44600
C  -7.95300 33.60700 41.93500
O  -7.15200 32.72200 41.60000
O  -7.65300 34.60800 42.76800
C  -6.28600 34.60800 43.40300
H  -9.17200 40.49600 40.27400
H  -15.33800 40.68600 42.50400
H  -15.15300 34.55900 44.06700
H  -7.56400 35.91500 40.68200
H  -7.97600 38.31700 39.05400
H  -7.48800 38.93000 41.85400
H  -6.34500 38.99800 40.44500
H  -6.51900 37.62200 41.56400
H  -8.49400 36.47200 37.90200
H  -9.24900 35.07900 38.46600
H  -7.55800 33.96400 37.98300
H  -6.70600 34.50700 39.31500
H  -9.66600 42.63100 40.62900
H  -10.81100 43.69700 41.28600
H  -10.98600 43.17900 39.59300
H  -16.04800 42.91400 41.65700
H  -15.28700 44.15100 42.65500
H  -15.31000 42.46500 43.14600
H  -17.14400 38.54700 42.30100
H  -16.51200 36.93900 44.53600
H  -16.46800 40.35200 44.11300
H  -16.70200 38.96200 45.23200
H  -17.98500 39.66900 44.13200
H  -16.98600 35.31200 42.08200
H  -18.21400 36.55300 42.20700
H  -18.37100 34.01000 43.31000
H  -19.16400 35.54100 44.03200
H  -17.62400 34.96800 44.67400
H  -12.68800 31.45100 44.38400
H  -14.13000 31.98400 43.54800
H  -13.62900 32.76900 45.06500
H  -9.37000 33.26700 40.42400
H  -5.62200 35.31400 42.90400
H  -5.76100 33.65300 43.39000
H  -6.50200 35.02400 44.38700

