158

Mg 52.83100 24.43400 44.16000
C  50.19500 26.87400 43.32100
C  50.82000 22.14900 42.56600
C  55.46000 22.51100 43.68800
C  54.94700 27.28100 44.63600
N  50.83200 24.62400 42.82600
C  49.86900 25.62100 42.81900
C  48.45000 25.09700 42.36900
C  48.64100 23.56400 42.44500
C  50.20600 23.45200 42.61500
C  47.87500 22.81600 43.62600
C  47.78300 25.66400 41.02900
C  48.76900 26.04400 39.96900
H  48.40600 25.94500 38.45700
N  53.05200 22.58000 43.50000
C  52.14000 21.75900 42.86700
C  52.62500 20.41500 42.72100
C  54.01400 20.48800 43.01600
C  54.24100 21.92500 43.46300
C  51.87000 19.20200 42.13200
C  55.06300 19.37200 42.97000
O  54.66700 18.25800 42.51700
C  56.47300 19.47700 43.19300
N  54.96700 24.85100 44.11900
C  55.81400 23.82400 44.02800
C  57.26800 24.26600 44.34500
C  57.08100 25.81300 44.48500
C  55.60700 26.01000 44.46500
C  57.91900 23.37700 45.44400
C  57.82800 26.75600 43.58100
C  57.19200 27.32700 42.32100
N  52.57400 26.66200 44.21500
C  53.51200 27.60100 44.55700
C  52.81300 28.82000 44.79500
C  51.48800 28.54000 44.38700
C  51.44400 27.26900 43.90300
C  53.36700 30.07900 45.23300
C  50.19200 29.14700 44.29600
O  49.73800 30.25900 44.53300
C  49.31200 28.06600 43.59800
C  48.70100 28.71600 42.40500
O  49.44100 29.22100 41.53300
O  47.33900 28.90000 42.49300
C  46.76400 29.76600 41.42400
H  50.19900 21.28200 42.33100
H  56.29000 21.80900 43.58200
H  55.60900 28.11400 44.88400
H  47.65200 25.37300 43.05800
H  48.41600 22.99800 41.54100
H  47.30800 22.02300 43.13800
H  47.07900 23.40900 44.07600
H  48.44700 22.41000 44.46000
H  47.26900 26.60400 41.23000
H  47.03500 24.97100 40.64700
H  49.59300 25.34800 40.13000
H  48.99900 27.08100 40.21100
H  50.82200 19.41800 41.92100
H  51.92200 18.33600 42.79200
H  52.38500 19.04100 41.18500
H  56.82000 18.46300 42.99300
H  56.56600 19.75300 44.24300
H  56.97200 20.23200 42.58400
H  57.70300 24.03700 43.37200
H  57.41200 26.13400 45.47200
H  58.05900 23.94200 46.36600
H  58.91500 23.04300 45.15300
H  57.32600 22.49700 45.69100
H  58.71300 26.25300 43.19100
H  58.22900 27.56200 44.19600
H  57.14800 28.41600 42.32500
H  56.18400 26.91200 42.29600
H  57.69400 26.88300 41.46100
H  54.05300 30.37700 44.44000
H  53.88300 30.12500 46.19200
H  52.62800 30.88000 45.24000
H  48.61300 27.69200 44.34600
H  47.16200 29.44600 40.46100
H  47.17000 30.77700 41.45500
H  45.68400 29.62000 41.40200
Mg 31.18500 58.79100 40.67100
C  28.32500 57.21900 39.37300
C  33.03700 56.29600 39.15000
C  33.94300 60.71400 41.01400
C  29.13500 61.52000 41.66700
N  30.70300 57.01300 39.28800
C  29.49400 56.47800 39.09100
C  29.62200 55.05300 38.60200
C  31.16500 54.73400 38.85300
C  31.68000 56.09100 39.12700
C  31.45100 53.75500 39.98000
C  29.28600 54.86400 37.06300
C  27.97400 54.22200 36.61600
H  27.18800 54.81700 35.38700
N  33.20900 58.46300 40.13000
C  33.78800 57.42700 39.57000
C  35.24500 57.59200 39.36000
C  35.54700 58.79100 40.03500
C  34.22200 59.35500 40.49600
C  36.09300 56.56300 38.74800
C  36.87700 59.37500 40.24200
O  37.89200 58.79400 39.86700
C  37.03900 60.74100 40.88000
N  31.49300 60.80300 41.25500
C  32.78200 61.32400 41.30200
C  32.70600 62.76000 41.86900
C  31.18300 63.11900 42.01000
C  30.53500 61.75200 41.68000
C  33.73700 63.03600 43.00800
C  30.71000 64.33800 41.17000
C  29.49800 65.15200 41.67100
N  29.18400 59.27500 40.60100
C  28.53600 60.38400 41.04400
C  27.10700 60.25900 40.85500
C  26.96800 59.02100 40.22400
C  28.24700 58.48700 40.04200
C  26.00700 61.18900 41.35700
C  25.97900 58.00700 39.73600
O  24.72100 58.00200 39.64000
C  26.84500 56.80300 39.18900
C  26.56400 55.63500 40.01800
O  27.14400 55.38600 41.08700
O  25.59500 54.84400 39.41300
C  25.26000 53.65100 40.15700
H  33.55500 55.39800 38.80700
H  34.79900 61.37600 41.16000
H  28.49200 62.32700 42.02600
H  28.95200 54.43400 39.19800
H  31.73600 54.38700 37.99100
H  30.59300 53.73000 40.65200
H  32.32600 53.99200 40.58600
H  31.54800 52.68900 39.77400
H  30.06500 54.32700 36.52300
H  29.20400 55.86900 36.64900
H  27.24900 54.15700 37.42700
H  28.29400 53.19500 36.44100
H  36.64600 57.08100 37.96400
H  35.47800 55.83500 38.21900
H  36.78700 56.12300 39.46400
H  36.55400 61.52300 40.29500
H  38.09100 61.01200 40.96000
H  36.73700 60.77400 41.92700
H  33.10400 63.43400 41.11000
H  31.05800 63.31100 43.07500
H  34.15800 62.15500 43.49300
H  33.34500 63.63000 43.83300
H  34.63500 63.59000 42.73400
H  30.32200 63.86000 40.27100
H  31.65400 64.82500 40.92500
H  29.79100 66.20100 41.72000
H  29.09100 64.66300 42.55600
H  28.71000 65.09600 40.91900
H  26.31800 62.17300 41.00700
H  26.04800 61.14900 42.44600
H  25.03200 60.97800 40.91900
H  26.57900 56.41200 38.20700
H  26.16200 53.08700 40.39500
H  24.61900 52.99200 39.57100
H  24.72300 53.77600 41.09700

