158

Mg 48.50600 34.25500 26.25400
C  46.31300 33.22900 28.75200
C  49.21700 37.05200 28.22600
C  50.29900 35.59800 23.56700
C  47.27200 31.81600 24.08800
N  47.77100 35.09500 28.23700
C  47.03400 34.39200 29.11700
C  47.20300 35.01700 30.54300
C  47.63200 36.46400 30.20300
C  48.21200 36.23700 28.82000
C  46.52100 37.54600 30.31200
C  48.23700 34.26000 31.34300
C  47.74500 33.93600 32.78700
H  47.04800 35.05700 33.51500
N  49.75800 35.96500 26.05800
C  49.96800 36.94000 26.98900
C  51.02100 37.80200 26.52700
C  51.33200 37.47100 25.15000
C  50.47000 36.22500 24.87700
C  51.55100 38.94400 27.29000
C  52.24000 38.15700 24.06200
O  52.62500 37.64600 23.05800
C  52.70600 39.55100 24.36000
N  48.63100 33.89900 24.11500
C  49.50600 34.49500 23.23100
C  49.57900 33.78400 21.87200
C  48.80000 32.48600 22.20500
C  48.17300 32.75400 23.54700
C  48.94000 34.66900 20.68700
C  49.66900 31.23900 22.24000
C  49.00500 29.95100 21.61100
N  47.10200 32.79900 26.33300
C  46.67500 31.82100 25.35100
C  45.67900 30.88100 25.93700
C  45.56700 31.39800 27.28400
C  46.37900 32.56100 27.45700
C  45.00900 29.79200 25.22800
C  44.88200 31.20000 28.47400
O  44.05200 30.35000 28.76600
C  45.29300 32.37200 29.50900
C  45.62500 31.77300 30.81600
O  46.64100 31.08200 30.97200
O  44.67600 32.05100 31.76100
C  45.00500 31.58100 33.10000
H  49.45100 37.86000 28.92400
H  50.87300 36.12400 22.80100
H  47.11100 31.00200 23.37800
H  46.18700 34.94300 30.92900
H  48.36600 36.77100 30.94800
H  46.79200 38.13100 31.19100
H  45.49400 37.21600 30.46800
H  46.59900 38.25600 29.48800
H  49.21600 34.73900 31.34800
H  48.50800 33.37100 30.77300
H  48.61600 33.54900 33.31600
H  47.05100 33.10100 32.68600
H  51.41400 38.80200 28.36200
H  51.04700 39.86500 26.99600
H  52.62000 39.04100 27.10400
H  53.36400 39.91200 23.57000
H  53.34000 39.63700 25.24200
H  51.86300 40.24100 24.39400
H  50.59700 33.48900 21.61700
H  47.92400 32.29600 21.58400
H  48.08800 34.19200 20.20200
H  49.66600 34.95400 19.92600
H  48.56900 35.62000 21.07000
H  50.02500 30.94900 23.22900
H  50.47700 31.39300 21.52500
H  49.70600 29.27500 21.12200
H  48.19200 30.17900 20.92100
H  48.60400 29.42100 22.47500
H  44.35900 30.26300 24.49100
H  44.39200 29.11600 25.82000
H  45.76700 29.22500 24.68800
H  44.31000 32.82600 29.64200
H  44.62600 32.20200 33.91200
H  46.04700 31.30300 33.25900
H  44.48700 30.62300 33.14600
Mg 6.61900 54.46500 41.61500
C  5.80600 50.96000 41.57500
C  9.61600 53.50000 40.07700
C  7.05400 57.67400 40.76900
C  3.32800 55.12800 42.63200
N  7.53200 52.40000 40.87100
C  7.06100 51.13700 41.04900
C  8.00600 50.14600 40.39400
C  9.33700 50.98200 40.34200
C  8.83000 52.43300 40.40200
C  10.30900 50.72900 41.54600
C  7.61400 49.62500 38.94600
C  6.71200 50.58600 38.06800
H  7.46700 51.23300 36.87500
N  8.14000 55.43400 40.61700
C  9.28600 54.87500 40.13500
C  10.18000 55.92900 39.84600
C  9.50800 57.17800 39.95800
C  8.18100 56.81800 40.47600
C  11.60800 55.61400 39.37000
C  10.01600 58.50500 39.52700
O  11.15300 58.70300 39.06400
C  9.17100 59.77300 39.68000
N  5.20200 56.20700 41.47000
C  5.79300 57.43600 41.30500
C  4.73100 58.54400 41.67300
C  3.51600 57.69000 42.25500
C  4.07100 56.25300 42.10300
C  5.32500 59.54800 42.64900
C  2.20600 57.80000 41.44900
C  0.86800 57.87000 42.23500
N  4.91400 53.32100 42.08800
C  3.61300 53.70500 42.48600
C  2.89600 52.49900 42.95100
C  3.73500 51.44800 42.62000
C  4.92100 51.99100 41.98600
C  1.61500 52.42900 43.70800
C  3.89300 49.94300 42.62700
O  3.28500 49.11400 43.26000
C  5.24500 49.59300 41.92100
C  4.88100 48.75900 40.74000
O  4.31000 49.21500 39.75300
O  5.09300 47.41700 41.03300
C  4.62600 46.47100 40.02100
H  10.61500 53.18300 39.77100
H  7.13100 58.76300 40.75800
H  2.38000 55.22000 43.16700
H  8.25000 49.27400 41.00200
H  9.76200 50.79000 39.35700
H  11.27400 51.01000 41.12600
H  10.40700 49.67900 41.82200
H  10.07700 51.38100 42.38900
H  7.13700 48.64700 39.01900
H  8.53200 49.53100 38.36700
H  6.47300 51.51100 38.59300
H  5.78900 50.19400 37.64200
H  11.55100 54.93500 38.51900
H  12.02300 55.10200 40.23800
H  12.34300 56.37900 39.12000
H  8.23500 59.52000 39.18100
H  9.56900 60.62400 39.12800
H  9.14300 60.00800 40.74400
H  4.34100 59.05100 40.79000
H  3.29000 57.89800 43.30100
H  4.77700 60.49000 42.66600
H  6.35800 59.83200 42.45000
H  5.37500 59.08300 43.63400
H  2.10800 56.89300 40.85300
H  2.24800 58.65400 40.77300
H  1.06900 57.53300 43.25100
H  0.15200 57.25100 41.69400
H  0.55500 58.91400 42.24300
H  0.77500 52.98600 43.29400
H  1.83000 52.86900 44.68100
H  1.26300 51.39800 43.74500
H  5.87800 49.11200 42.66600
H  5.17100 46.54300 39.07900
H  3.54200 46.42200 39.91600
H  4.87200 45.53100 40.51300

