158

Mg 8.72900 4.08400 27.06100
C  10.37900 2.68900 29.98300
C  7.11600 6.11600 29.28000
C  7.07000 5.26200 24.49800
C  10.41000 1.65000 25.19700
N  8.65200 4.17000 29.47900
C  9.40200 3.59500 30.40200
C  9.21700 4.20700 31.79100
C  8.12400 5.30400 31.51100
C  7.97800 5.23000 29.93800
C  6.82300 5.29700 32.37400
C  10.55000 4.84500 32.49000
C  10.87900 4.34200 33.91900
H  11.01600 5.38200 35.03700
N  7.31800 5.61600 26.81100
C  6.79500 6.32500 27.85600
C  5.88200 7.30800 27.30900
C  5.86100 7.09400 25.87200
C  6.77200 5.95100 25.68300
C  5.05900 8.26900 28.16400
C  5.14900 7.81300 24.71800
O  5.18400 7.46700 23.52400
C  4.53900 9.10000 24.94700
N  8.73700 3.52700 25.10300
C  7.96600 4.14900 24.24700
C  8.20800 3.54100 22.84700
C  9.29900 2.44600 23.06400
C  9.47900 2.47800 24.53500
C  6.94400 2.89300 22.16800
C  10.55400 2.78300 22.29100
C  11.37100 1.52200 21.75400
N  10.03800 2.46000 27.47200
C  10.62900 1.56600 26.60300
C  11.47600 0.62000 27.31600
C  11.48300 1.14100 28.65000
C  10.58600 2.22800 28.65900
C  12.18900 -0.53900 26.71100
C  11.99900 0.91400 29.97900
O  12.76500 0.03400 30.37800
C  11.36500 1.96700 30.87900
C  10.77400 1.18900 32.09200
O  9.79300 0.45900 32.06500
O  11.50600 1.36800 33.21400
C  11.19700 0.73500 34.53800
H  6.64600 6.82500 29.96500
H  6.53200 5.53900 23.58900
H  10.96000 0.85800 24.68500
H  8.71100 3.42400 32.35600
H  8.63500 6.25900 31.63400
H  5.94900 5.27300 31.72300
H  6.78000 6.22900 32.93900
H  6.89100 4.39800 32.98700
H  10.53100 5.93400 32.50200
H  11.46000 4.68600 31.91200
H  11.78200 3.73300 33.93600
H  10.15200 3.58100 34.20500
H  5.51200 9.24100 27.97000
H  5.07900 8.00400 29.22100
H  4.04500 8.46400 27.81300
H  3.80400 8.96900 25.74100
H  4.02700 9.35600 24.01900
H  5.36400 9.76700 25.19600
H  8.64600 4.23600 22.13100
H  8.93900 1.43900 22.85400
H  6.17000 2.60300 22.87900
H  7.20200 2.07300 21.49800
H  6.48100 3.67200 21.56300
H  11.14200 3.19100 23.11300
H  10.39600 3.42500 21.42400
H  11.70300 1.80000 20.75400
H  10.75900 0.63300 21.60400
H  12.21600 1.36600 22.42500
H  13.15300 -0.20600 26.32700
H  11.58900 -0.99300 25.92200
H  12.26300 -1.37800 27.40300
H  12.15400 2.60200 31.28300
H  10.15000 0.81800 34.83000
H  11.79500 1.30700 35.24800
H  11.56300 -0.28800 34.45500
Mg -11.37700 16.00100 41.29700
C  -8.17500 14.59800 41.08600
C  -10.14300 18.81600 39.73000
C  -14.52400 17.24200 41.04000
C  -12.47800 12.93000 42.34500
N  -9.42200 16.60900 40.51800
C  -8.28600 15.91100 40.52200
C  -7.11300 16.65100 39.74500
C  -7.77500 18.10700 39.51000
C  -9.22600 17.76400 39.84000
C  -7.15900 19.05800 40.52400
C  -6.74000 15.97300 38.44400
C  -5.26400 15.85700 38.00500
H  -4.87300 16.72700 36.87900
N  -12.23400 17.71500 40.38000
C  -11.52300 18.79800 39.88100
C  -12.41100 19.88700 39.52900
C  -13.73900 19.54400 39.94200
C  -13.57900 18.10500 40.46700
C  -12.00600 21.23200 39.06900
C  -15.04400 20.39100 39.90600
O  -14.95600 21.54400 39.56500
C  -16.35200 19.92400 40.40800
N  -13.29600 15.12000 41.50600
C  -14.39900 15.94100 41.57400
C  -15.64100 15.16100 42.08700
C  -14.97000 13.83300 42.65100
C  -13.52300 13.92900 42.07000
C  -16.48500 16.06900 43.11000
C  -15.69900 12.54700 42.35100
C  -16.56300 11.89200 43.46200
N  -10.52800 14.11400 41.65900
C  -11.12600 12.95900 42.12100
C  -10.12800 11.94100 42.31300
C  -8.99900 12.53000 41.87900
C  -9.26500 13.85100 41.51000
C  -10.32100 10.61600 42.83600
C  -7.56400 12.32600 41.73600
O  -6.94400 11.33100 41.88400
C  -6.91100 13.72700 41.24300
C  -5.95200 14.34600 42.18600
O  -6.21100 15.03700 43.16500
O  -4.72500 13.79600 41.90900
C  -3.63400 14.28600 42.67500
H  -9.79600 19.67300 39.14900
H  -15.55600 17.57900 41.16000
H  -12.78500 12.01600 42.85800
H  -6.18600 16.68300 40.31600
H  -7.71300 18.43100 38.47100
H  -7.98300 19.44700 41.12200
H  -6.63600 19.89400 40.05900
H  -6.54900 18.52500 41.25300
H  -7.24800 16.44200 37.60100
H  -7.07900 14.93800 38.48200
H  -4.93900 14.82400 37.88200
H  -4.63500 16.35100 38.74500
H  -11.85100 21.94500 39.87900
H  -12.70800 21.78200 38.44200
H  -11.08300 21.12700 38.50000
H  -17.11300 20.67600 40.19900
H  -16.20700 19.70400 41.46600
H  -16.65600 18.98100 39.95400
H  -16.33500 14.88800 41.29100
H  -14.81700 13.96300 43.72200
H  -17.50000 16.24000 42.75300
H  -16.10900 17.09200 43.12900
H  -16.44000 15.51200 44.04700
H  -14.93500 11.85700 41.99400
H  -16.28300 12.80500 41.46700
H  -16.22900 10.87000 43.64000
H  -17.56900 11.78000 43.05800
H  -16.47200 12.33400 44.45400
H  -11.35400 10.29300 42.70300
H  -10.23900 10.70400 43.91900
H  -9.58600 9.89200 42.48400
H  -6.39200 13.58700 40.29500
H  -3.22700 15.14200 42.13700
H  -2.93800 13.47500 42.89100
H  -3.92200 14.58700 43.68300

