158

Mg 7.21900 53.08900 40.09900
C  6.62100 49.61400 39.90400
C  10.60500 52.37000 39.58100
C  7.74800 56.28700 39.57500
C  3.76100 53.53100 40.06700
N  8.40300 51.25600 39.62500
C  7.96900 49.96000 39.90400
C  9.12900 48.93000 39.67800
C  10.39500 49.87400 39.81500
C  9.72000 51.21600 39.62600
C  11.16000 49.65800 41.13900
C  9.16700 48.14400 38.36500
C  9.04300 48.99800 37.04300
H  7.92600 48.56600 36.12000
N  8.93500 54.17500 39.74300
C  10.22400 53.69400 39.50600
C  11.11000 54.82700 39.27500
C  10.32500 56.00600 39.25700
C  8.94800 55.52700 39.59100
C  12.60000 54.70700 39.02100
C  10.80400 57.35800 38.81900
O  11.94800 57.53900 38.36800
C  9.96700 58.55200 38.98900
N  5.91900 54.67600 39.91000
C  6.40800 55.96400 39.87200
C  5.37600 56.93900 40.12400
C  4.04100 56.06600 40.03200
C  4.54800 54.65600 39.97300
C  5.53400 57.74800 41.42600
C  2.91200 56.51300 39.00300
C  1.56500 56.79500 39.62800
N  5.53100 51.90800 39.95600
C  4.20600 52.20700 39.97100
C  3.41700 51.04300 40.15500
C  4.30600 49.94900 40.15500
C  5.57100 50.52700 39.94500
C  1.93300 51.05900 40.36000
C  4.34000 48.51900 40.32500
O  3.49200 47.67100 40.34800
C  5.89400 48.23500 40.08300
C  5.93600 47.36800 38.91700
O  5.63500 47.64300 37.80000
O  6.29300 46.12600 39.34500
C  6.31500 45.07200 38.38000
H  11.63800 52.09900 39.35500
H  8.05600 57.33200 39.51100
H  2.68200 53.69300 40.00400
H  9.13500 48.16500 40.45500
H  11.17100 49.71500 39.06600
H  12.23100 49.48600 41.03800
H  10.66200 48.86200 41.69300
H  11.17400 50.55000 41.76700
H  8.49500 47.28900 38.43900
H  10.12600 47.64500 38.22600
H  9.87100 48.65100 36.42500
H  9.07000 50.06200 37.27600
H  13.00900 53.70400 39.15000
H  13.15800 55.37000 39.68200
H  12.83900 55.08400 38.02700
H  9.59200 58.70500 40.00100
H  9.15500 58.42300 38.27300
H  10.43000 59.49100 38.68600
H  5.26200 57.65000 39.30500
H  3.54100 56.17900 40.99400
H  6.42400 57.39800 41.94900
H  4.70300 57.55500 42.10400
H  5.52000 58.82900 41.28400
H  2.81300 55.76400 38.21700
H  3.32600 57.35900 38.45500
H  1.57300 56.49400 40.67600
H  0.78700 56.28000 39.06500
H  1.40300 57.85700 39.44500
H  1.41100 50.18000 39.98200
H  1.39800 51.85200 39.83800
H  1.73000 51.27200 41.41000
H  6.26900 47.81200 41.01500
H  7.34200 44.94600 38.03500
H  5.63000 45.19700 37.54200
H  6.11800 44.11400 38.86100
Mg -12.10800 38.03600 42.00100
C  -10.22100 35.16300 40.97300
C  -9.93600 40.00700 40.42200
C  -14.22400 40.49900 42.70000
C  -14.50300 35.66900 43.25100
N  -10.35700 37.59500 40.74500
C  -9.64200 36.40100 40.60300
C  -8.27400 36.58700 39.97100
C  -8.10100 38.16800 40.18600
C  -9.59900 38.62300 40.39500
C  -7.15200 38.63400 41.31800
C  -8.16300 35.99000 38.62300
C  -6.94400 35.04800 38.38700
H  -5.85400 35.68200 37.43300
N  -12.15200 40.02800 41.58100
C  -11.10200 40.66100 40.92400
C  -11.42800 42.11300 40.98300
C  -12.70400 42.24300 41.57200
C  -13.09500 40.93700 41.93600
C  -10.50700 43.19800 40.35900
C  -13.39200 43.64400 41.87600
O  -12.76700 44.64800 41.63700
C  -14.65700 43.65200 42.56300
N  -14.16400 38.08300 42.65800
C  -14.77800 39.26200 43.00600
C  -15.98900 38.98900 43.93600
C  -16.20300 37.42100 43.72900
C  -14.82900 37.03200 43.20900
C  -15.70500 39.44500 45.31200
C  -17.51500 37.00100 42.90300
C  -18.80100 36.65500 43.75900
N  -12.33800 35.83400 42.22400
C  -13.43200 35.06400 42.62200
C  -13.13100 33.63200 42.51000
C  -11.87000 33.67400 41.85000
C  -11.47000 34.97600 41.65800
C  -13.90600 32.48000 42.97700
C  -10.82700 32.82600 41.26800
O  -10.88200 31.59100 41.19600
C  -9.74000 33.76300 40.68100
C  -8.46100 33.44400 41.40600
O  -7.57100 32.73600 40.94900
O  -8.35200 34.08800 42.57800
C  -6.93600 34.11200 43.15200
H  -9.14500 40.64300 40.01800
H  -14.99200 41.20700 43.01900
H  -15.32800 35.04300 43.59600
H  -7.55500 36.17200 40.67700
H  -7.64100 38.47100 39.24500
H  -6.66200 37.80700 41.83300
H  -7.68100 39.13400 42.12900
H  -6.42300 39.35900 40.95500
H  -7.98700 36.87100 38.00600
H  -9.10800 35.54700 38.30700
H  -7.38900 34.13300 37.99500
H  -6.54300 34.80000 39.37000
H  -11.14800 43.82600 39.74000
H  -9.65700 42.80400 39.80200
H  -10.04300 43.81800 41.12600
H  -15.13800 44.63000 42.53700
H  -14.30100 43.33000 43.54200
H  -15.37600 42.97300 42.10400
H  -16.85100 39.55700 43.58600
H  -16.19700 36.85900 44.66300
H  -16.18700 40.39400 45.54600
H  -14.63900 39.66000 45.39500
H  -16.03100 38.66000 45.99400
H  -17.21300 36.15100 42.29100
H  -17.76400 37.80600 42.21200
H  -19.08900 35.66900 43.39300
H  -19.59400 37.39200 43.63400
H  -18.57700 36.69400 44.82500
H  -14.32000 31.92700 42.13400
H  -14.68600 32.60900 43.72800
H  -13.30600 31.69700 43.44100
H  -9.64900 33.51100 39.62400
H  -6.27600 34.73400 42.54800
H  -6.51300 33.11000 43.21900
H  -6.83900 34.59500 44.12400

