158

Mg 0.07700 7.02800 26.01400
C  0.82900 9.16800 28.63600
C  -0.43200 4.50000 28.23200
C  -0.49300 5.04400 23.47800
C  0.96400 9.64400 23.76000
N  0.11300 6.94800 28.25400
C  0.49100 7.88300 29.15400
C  0.32600 7.44700 30.63200
C  0.32400 5.85400 30.32500
C  -0.02800 5.72800 28.79100
C  1.58900 5.07100 30.62200
C  -0.85500 8.19800 31.35000
C  -0.94500 7.77900 32.83900
H  0.12100 6.91200 33.52900
N  -0.56600 5.10600 25.92300
C  -0.66000 4.23800 26.92300
C  -1.02600 2.90600 26.37000
C  -0.99000 3.06800 24.95300
C  -0.67400 4.47500 24.74600
C  -1.20000 1.64800 27.22300
C  -1.16000 1.97200 23.88200
O  -1.02200 2.21000 22.71300
C  -1.46400 0.56300 24.36700
N  0.30000 7.28200 23.90100
C  -0.01800 6.24400 23.09800
C  0.23400 6.67300 21.63400
C  0.53700 8.24200 21.69000
C  0.59300 8.43900 23.17900
C  1.15400 5.83400 20.84000
C  -0.42500 9.22300 20.89000
C  -1.87200 9.38900 21.39100
N  0.74300 8.96000 26.10300
C  1.00100 9.89200 25.13300
C  1.39200 11.14500 25.72800
C  1.39700 10.91400 27.12400
C  0.98200 9.53700 27.24200
C  1.64600 12.35200 25.00100
C  1.63300 11.48100 28.39400
O  2.01800 12.62900 28.69500
C  1.29800 10.37200 29.42100
C  2.42400 10.20200 30.31600
O  3.57500 9.95900 30.13300
O  1.92500 10.60500 31.56800
C  2.80700 10.92600 32.63900
H  -0.56400 3.65900 28.91500
H  -0.75800 4.45000 22.60000
H  1.27900 10.47300 23.12300
H  1.25600 7.67700 31.15100
H  -0.54900 5.42200 30.81500
H  1.87200 4.42000 29.79500
H  1.32400 4.43000 31.46300
H  2.43100 5.65000 31.00000
H  -1.78100 8.06900 30.79100
H  -0.56000 9.24800 31.37300
H  -1.93800 7.33700 32.91600
H  -0.86300 8.68200 33.44500
H  -0.37200 0.94500 27.31000
H  -2.07300 1.11400 26.84700
H  -1.49100 1.90800 28.24000
H  -0.62200 0.22600 24.97100
H  -1.51900 -0.07100 23.48200
H  -2.39000 0.40200 24.91900
H  -0.72400 6.60100 21.11900
H  1.51500 8.52200 21.29800
H  1.17000 4.84000 21.28900
H  2.13300 6.31300 20.84500
H  0.92400 5.84800 19.77500
H  -0.63000 8.69400 19.95900
H  0.06000 10.18600 20.72800
H  -2.51100 8.64200 20.92100
H  -2.23700 10.40400 21.23400
H  -1.85900 9.21200 22.46600
H  1.94800 13.27600 25.49500
H  0.70400 12.73000 24.60500
H  2.38300 12.25500 24.20300
H  0.38700 10.66900 29.94200
H  2.76000 10.04600 33.28000
H  2.35200 11.79800 33.10900
H  3.79900 11.15900 32.25200
Mg 8.27500 2.37600 28.08100
C  9.68300 1.03500 30.90200
C  6.58400 4.61500 30.09700
C  6.46800 3.34600 25.31100
C  9.69100 -0.19700 26.14300
N  8.01000 2.65500 30.22900
C  8.92600 2.13500 31.13100
C  8.78000 2.78900 32.52300
C  7.62900 3.78700 32.26100
C  7.38000 3.67200 30.72600
C  6.31200 3.51000 33.05500
C  10.09600 3.41900 33.01600
C  10.57000 3.00500 34.45800
H  10.76900 4.11700 35.57900
N  6.66700 3.74600 27.76300
C  6.16600 4.59000 28.73600
C  5.14600 5.38900 28.15200
C  5.08200 5.06500 26.72400
C  6.09600 4.00100 26.52000
C  4.23600 6.26800 28.96800
C  4.07400 5.64800 25.63700
O  4.14100 5.24900 24.50600
C  3.01200 6.63000 25.97800
N  8.19200 1.74500 26.03500
C  7.42400 2.27500 25.08900
C  7.65100 1.72500 23.71000
C  8.80500 0.70400 24.01400
C  8.92300 0.76300 25.50000
C  6.51200 1.10400 22.99600
C  10.21200 1.02700 23.20000
C  10.82500 -0.00000 22.23400
N  9.45900 0.76900 28.35200
C  9.99100 -0.18800 27.51100
C  10.81700 -1.13400 28.28000
C  10.66000 -0.71300 29.64700
C  9.88200 0.51200 29.61200
C  11.66000 -2.25000 27.79800
C  11.02800 -1.01000 31.01100
O  11.78700 -1.92200 31.42800
C  10.41100 0.15700 31.87000
C  9.54500 -0.42200 32.99500
O  8.33400 -0.46300 32.97700
O  10.40900 -0.76700 34.06700
C  9.75800 -1.04200 35.28000
H  6.11100 5.22500 30.87000
H  5.81200 3.50300 24.45200
H  9.99000 -0.98900 25.45300
H  8.45000 2.07400 33.27700
H  7.83400 4.82000 32.54200
H  5.38000 3.72900 32.53300
H  6.32900 4.08100 33.98300
H  6.30700 2.44100 33.26600
H  10.02200 4.50200 32.91000
H  10.96400 3.12100 32.42800
H  11.60200 2.68000 34.33100
H  10.12800 2.08500 34.84100
H  3.25400 5.81300 28.83900
H  4.18000 7.25000 28.49700
H  4.46900 6.32000 30.03100
H  3.46600 7.45100 26.53200
H  2.31000 6.12600 26.64300
H  2.65400 7.14200 25.08500
H  8.00600 2.49400 23.02400
H  8.37400 -0.28900 23.89000
H  5.65300 1.25200 23.65100
H  6.64700 0.04800 22.76300
H  6.46700 1.62700 22.04100
H  10.93800 1.30700 23.96300
H  10.11000 1.92800 22.59600
H  11.90300 -0.04600 22.38600
H  10.57000 0.31700 21.22300
H  10.34300 -0.96000 22.42100
H  11.87500 -2.12400 26.73700
H  11.16800 -3.20700 27.97200
H  12.59100 -2.23300 28.36500
H  11.20500 0.78600 32.27400
H  8.99600 -1.79700 35.08500
H  9.36400 -0.08100 35.61200
H  10.44600 -1.43200 36.03000

