158

Mg 40.75100 9.53600 29.11000
C  42.58500 10.72000 31.80600
C  38.59700 7.92300 31.11700
C  39.43500 8.18000 26.44400
C  43.56400 10.54000 27.04900
N  40.70900 9.29900 31.20200
C  41.48500 9.99800 32.18200
C  40.88100 9.78500 33.57000
C  39.66600 8.80300 33.28400
C  39.68800 8.59500 31.80800
C  39.59500 7.58600 34.29700
C  40.43200 11.14500 34.22900
C  39.50300 11.01400 35.41800
H  39.87600 11.59500 36.79700
N  39.17200 8.26800 28.83200
C  38.34000 7.74900 29.76500
C  37.27100 7.05100 29.12300
C  37.52300 7.02100 27.73000
C  38.72500 7.85800 27.62500
C  36.04700 6.47900 29.85300
C  36.73100 6.50100 26.62100
O  37.07200 6.81800 25.47700
C  35.58400 5.52300 26.80200
N  41.43000 9.40100 27.04900
C  40.58700 8.87700 26.13400
C  41.09900 8.93600 24.67500
C  42.49400 9.65900 24.89200
C  42.53600 9.90500 26.43300
C  41.16800 7.49900 24.02200
C  42.74200 10.85100 23.96600
C  42.15600 12.23100 24.37200
N  42.65900 10.54800 29.28900
C  43.63400 10.86400 28.42000
C  44.69600 11.60100 29.04900
C  44.30100 11.45800 30.37500
C  43.06600 10.81400 30.46500
C  45.88200 12.13200 28.42400
C  44.78600 11.72800 31.68900
O  45.85500 12.14500 32.09300
C  43.64100 11.35500 32.69800
C  44.08500 10.29400 33.72700
O  44.49600 9.17300 33.49400
O  44.02100 10.86000 34.97400
C  44.62200 10.13600 36.03700
H  37.83600 7.44700 31.73800
H  39.04700 7.80200 25.49600
H  44.41100 10.75200 26.39300
H  41.66300 9.19300 34.04500
H  38.68800 9.27800 33.35700
H  38.70900 7.55800 34.93200
H  40.43900 7.61100 34.98700
H  39.68400 6.66200 33.72500
H  40.05000 11.94900 33.60000
H  41.36000 11.59700 34.57800
H  39.23900 9.96100 35.51600
H  38.68200 11.67400 35.13700
H  35.10600 6.59800 29.31700
H  36.05300 6.97300 30.82500
H  36.17200 5.39600 29.86100
H  35.59900 4.80800 25.97900
H  34.59500 5.97900 26.83300
H  35.84500 4.91400 27.66700
H  40.42300 9.57500 24.10800
H  43.31000 8.94800 24.76100
H  40.39600 7.27300 23.28600
H  41.20600 6.67800 24.73800
H  42.14800 7.40200 23.55400
H  42.25200 10.54500 23.04200
H  43.81400 10.96800 23.80600
H  41.59000 12.62500 23.52800
H  43.03400 12.85100 24.55000
H  41.47500 12.20100 25.22300
H  45.69900 12.96700 27.74800
H  46.53000 11.39600 27.94800
H  46.44000 12.56400 29.25500
H  43.28600 12.22100 33.25800
H  43.84200 9.79000 36.71500
H  45.17500 10.91300 36.56500
H  45.26500 9.30400 35.75200
Mg 53.59300 22.68000 44.78700
C  51.61400 25.34900 43.62800
C  51.53900 20.63300 43.17600
C  55.93900 20.35400 44.88300
C  55.93400 25.15500 45.90900
N  51.76400 22.99600 43.39700
C  51.10400 24.13800 43.20300
C  49.71000 23.89400 42.49400
C  49.52500 22.32400 42.91600
C  51.00700 21.95100 43.10900
C  48.72800 22.17200 44.21900
C  49.71400 24.01300 40.92500
C  51.09400 24.07000 40.28900
H  51.06700 24.61600 38.91300
N  53.62500 20.75300 44.27500
C  52.69400 20.03900 43.60000
C  53.04600 18.61300 43.48700
C  54.36000 18.50800 44.00800
C  54.73500 19.96300 44.36600
C  52.17000 17.48600 42.89400
C  55.07700 17.23000 44.36600
O  54.65500 16.14100 44.06300
C  56.39600 17.21700 45.04700
N  55.69500 22.78100 45.23600
C  56.41700 21.64400 45.20700
C  57.83800 21.93300 45.65000
C  57.79000 23.44500 46.00900
C  56.41300 23.85800 45.69300
C  58.41600 20.99300 46.75400
C  58.70100 24.28900 45.07800
C  59.14500 25.68400 45.65600
N  53.68700 24.78700 44.93700
C  54.67600 25.61500 45.45200
C  54.09600 26.93700 45.57800
C  52.93900 26.91000 44.78300
C  52.78700 25.57200 44.36900
C  54.71800 28.10300 46.39600
C  51.80700 27.70000 44.21700
O  51.58800 28.88100 44.22400
C  50.90100 26.70400 43.55300
C  50.68100 27.14400 42.15000
O  51.50700 27.38400 41.30100
O  49.32100 27.08600 41.99600
C  48.81000 27.80600 40.86600
H  50.74500 20.00900 42.76200
H  56.78100 19.66200 44.95600
H  56.59500 25.84400 46.43900
H  48.88700 24.50400 42.86600
H  48.86300 21.80700 42.22200
H  47.81100 21.64900 43.94700
H  48.38600 23.18600 44.42400
H  49.28500 21.66100 45.00500
H  49.20700 24.93500 40.63900
H  49.27800 23.12000 40.47600
H  51.40400 23.02500 40.26400
H  51.83000 24.62600 40.87000
H  52.39000 17.24400 41.85400
H  51.14400 17.78500 43.11200
H  52.29600 16.49900 43.34000
H  56.31700 17.90600 45.88800
H  57.14300 17.50800 44.30700
H  56.86100 16.26300 45.29300
H  58.42700 21.78900 44.74400
H  57.93600 23.74600 47.04700
H  58.69100 21.60500 47.61200
H  59.35200 20.53700 46.43100
H  57.73400 20.16200 46.93600
H  58.19000 24.44400 44.12700
H  59.58200 23.69900 44.82700
H  60.23500 25.69800 45.66700
H  58.79500 25.85000 46.67500
H  58.78300 26.40300 44.92100
H  54.21900 29.02800 46.10400
H  55.77200 28.20400 46.13900
H  54.54400 27.77100 47.42000
H  49.96800 26.82400 44.10300
H  47.99100 27.32900 40.32900
H  49.49300 27.91300 40.02300
H  48.44000 28.78200 41.18100

