158

Mg 24.23200 -4.68900 45.62300
C  26.64000 -2.53100 43.89400
C  21.94800 -3.66900 43.25400
C  22.46400 -7.22800 46.53700
C  27.04600 -5.89900 47.56600
N  24.39500 -3.31700 43.72200
C  25.37700 -2.46000 43.36600
C  24.94900 -1.58300 42.15500
C  23.40900 -1.67600 42.16300
C  23.19700 -2.90800 43.10400
C  22.69800 -0.51100 42.74700
C  25.59200 -2.16000 40.77600
C  26.29400 -1.06300 39.94700
H  26.04800 -1.19500 38.37000
N  22.41300 -5.35600 45.03700
C  21.61600 -4.79100 44.04100
C  20.38900 -5.60300 43.84800
C  20.54400 -6.63200 44.84400
C  21.81400 -6.45100 45.53100
C  19.27300 -5.21100 42.82500
C  19.54300 -7.80400 44.98800
O  18.60000 -7.77400 44.27000
C  19.71800 -8.91000 46.05500
N  24.67100 -6.27600 47.07100
C  23.75400 -7.23200 47.15400
C  24.22400 -8.38300 48.10400
C  25.64500 -7.91900 48.52500
C  25.85700 -6.64200 47.59500
C  23.21700 -8.72500 49.27300
C  26.79500 -8.98300 48.48200
C  27.76400 -9.09200 49.67000
N  26.32700 -4.21900 45.79700
C  27.25200 -4.79500 46.67700
C  28.49800 -4.13800 46.41500
C  28.35900 -3.21900 45.30900
C  27.01600 -3.32200 44.96500
C  29.80700 -4.35400 47.21600
C  29.01000 -2.23900 44.43500
O  30.15000 -1.77200 44.41000
C  27.88500 -1.76800 43.44700
C  27.81900 -0.32500 43.66100
O  27.68300 0.26100 44.75200
O  28.10200 0.27100 42.50200
C  27.83600 1.75400 42.41300
H  21.21100 -3.46200 42.47500
H  21.95400 -8.15500 46.80300
H  27.88400 -6.33100 48.11600
H  25.26100 -0.55100 42.31000
H  23.05200 -1.85600 41.14900
H  21.62300 -0.58400 42.58000
H  23.12300 0.35000 42.23200
H  22.73300 -0.53100 43.83600
H  24.75000 -2.43500 40.14100
H  26.25000 -2.99300 41.02000
H  27.35600 -1.08600 40.18900
H  26.08200 -0.06900 40.33900
H  19.67500 -5.37000 41.82400
H  18.98100 -4.17000 42.95600
H  18.42800 -5.89900 42.85300
H  19.77500 -8.43600 47.03500
H  20.66200 -9.36200 45.74900
H  18.82700 -9.53800 46.07900
H  24.41100 -9.25700 47.47900
H  25.58100 -7.47800 49.52000
H  23.72400 -8.54800 50.22100
H  22.93600 -9.77800 49.23200
H  22.29600 -8.14300 49.23500
H  27.37400 -8.69400 47.60500
H  26.24700 -9.91300 48.33300
H  28.73000 -8.97700 49.17800
H  27.60900 -10.02800 50.20600
H  27.60000 -8.31700 50.41900
H  30.49300 -3.54600 46.96000
H  30.32000 -5.27400 46.93200
H  29.67500 -4.34300 48.29700
H  28.14000 -1.94100 42.40200
H  26.84000 1.96400 42.80400
H  27.80100 2.01300 41.35500
H  28.61800 2.19100 43.03400
Mg 8.74900 48.78300 26.04600
C  7.08500 48.80700 29.09900
C  11.57700 49.87100 27.75900
C  10.51200 48.52200 23.17000
C  5.83900 48.09200 24.38000
N  9.20300 49.28900 28.17100
C  8.41900 49.14200 29.21900
C  9.12000 49.50600 30.43600
C  10.38200 50.29500 29.99700
C  10.41000 49.84400 28.53900
C  10.44700 51.85200 30.26100
C  9.41300 48.35200 31.42900
C  8.69600 48.41400 32.78100
H  8.77300 47.29300 33.74800
N  10.79200 49.30900 25.48100
C  11.78700 49.61800 26.37900
C  13.11100 49.61700 25.66900
C  12.85200 49.10600 24.35000
C  11.33900 48.89300 24.29600
C  14.39600 49.80900 26.47800
C  13.79900 48.69800 23.29500
O  13.48900 48.19900 22.23400
C  15.26800 48.79100 23.46100
N  8.22700 48.47700 24.04900
C  9.13600 48.36900 23.09000
C  8.46500 48.04600 21.75800
C  7.14200 47.48100 22.29200
C  7.02300 48.11000 23.66000
C  8.41900 49.10700 20.58500
C  7.00100 45.95800 22.17800
C  6.64100 45.15600 23.46500
N  6.81400 48.53000 26.58900
C  5.70200 48.24000 25.79500
C  4.50700 48.19400 26.64900
C  4.94900 48.38900 27.98000
C  6.37000 48.66100 27.91700
C  3.17900 47.83000 26.30000
C  4.61800 48.39700 29.38700
O  3.47800 48.24600 29.96200
C  5.99100 48.57100 30.18700
C  6.07600 47.25000 31.01300
O  6.89700 46.37500 30.88600
O  5.09400 47.32000 32.02900
C  5.00100 46.28100 33.01300
H  12.48600 50.08900 28.32300
H  10.96400 48.52600 22.17600
H  5.02500 47.62300 23.82300
H  8.53200 50.28200 30.92600
H  11.27200 49.81500 30.40200
H  10.07300 52.38800 29.38900
H  11.45600 52.20500 30.47800
H  9.75900 51.91800 31.10300
H  10.46700 48.26300 31.69300
H  9.19100 47.45900 30.84400
H  7.67800 48.77800 32.63900
H  9.27800 49.14000 33.34900
H  14.26300 50.66400 27.14100
H  15.23600 50.18900 25.89500
H  14.76200 48.91100 26.97600
H  15.60900 48.18000 24.29600
H  15.69700 49.78700 23.56600
H  15.76300 48.38100 22.58000
H  9.08400 47.22300 21.39900
H  6.29200 47.97000 21.81700
H  7.44000 49.53000 20.36100
H  8.89000 48.66600 19.70700
H  8.90100 50.05200 20.83600
H  7.85400 45.43100 21.75100
H  6.13000 45.80100 21.54300
H  6.90700 45.48900 24.46800
H  6.96600 44.11600 23.43500
H  5.56600 44.98200 23.43800
H  2.82100 46.93000 26.80100
H  3.30400 47.62600 25.23700
H  2.51800 48.67700 26.48200
H  6.04100 49.42500 30.86300
H  5.51400 46.70100 33.87800
H  5.53000 45.38700 32.68200
H  3.94200 46.08000 33.17800

