158

Mg 4.91600 53.26000 41.16100
C  3.05500 50.31000 41.23500
C  7.40700 51.60300 39.60500
C  6.12500 56.28200 40.39800
C  1.81600 55.01000 42.00400
N  4.97200 51.15400 40.22200
C  4.23500 50.08600 40.47500
C  4.81400 48.80700 39.90500
C  6.30400 49.16000 39.81900
C  6.25600 50.74100 39.85000
C  7.20200 48.51600 40.85300
C  4.19500 48.47000 38.52300
C  4.29300 47.06500 37.99400
H  4.94900 46.89200 36.61400
N  6.57000 53.83100 40.31300
C  7.49500 53.01200 39.59900
C  8.52800 53.74700 39.04700
C  8.29300 55.08500 39.42500
C  6.89700 55.13800 40.00300
C  9.70800 53.04600 38.42800
C  9.29600 56.24700 39.30300
O  10.32100 56.09400 38.66200
C  9.13900 57.50300 40.01600
N  4.12200 55.33900 41.38700
C  4.89900 56.35800 40.94500
C  4.21200 57.67400 41.01300
C  2.78500 57.24300 41.54500
C  2.91400 55.79600 41.61100
C  4.86800 58.78400 41.93700
C  1.52800 57.74900 40.65000
C  0.35700 58.39700 41.44200
N  2.96600 52.77000 41.76300
C  1.80400 53.57100 42.03800
C  0.70300 52.67200 42.40000
C  1.24400 51.35600 42.22600
C  2.51000 51.52600 41.69700
C  -0.65600 53.09900 42.84100
C  0.89800 49.98800 42.22900
O  -0.14900 49.34800 42.42300
C  2.16800 49.27400 41.82800
C  1.77000 48.12600 41.02500
O  1.04700 48.22500 40.02200
O  2.27700 46.93300 41.53300
C  2.07400 45.71500 40.85200
H  8.19400 51.00300 39.14400
H  6.60200 57.16500 39.96700
H  0.92500 55.56800 42.29800
H  4.75900 48.01200 40.64900
H  6.63500 48.78500 38.85100
H  8.16800 48.13700 40.51800
H  6.74100 47.74700 41.47200
H  7.47500 49.30400 41.55600
H  4.51000 49.19600 37.77400
H  3.11600 48.62500 38.51300
H  3.33800 46.54000 37.99100
H  4.86200 46.50500 38.73700
H  10.35900 53.74200 37.89800
H  9.45500 52.16900 37.83200
H  10.30000 52.69100 39.27100
H  10.05800 58.08900 40.00700
H  8.85400 57.24500 41.03600
H  8.37100 58.18400 39.65000
H  4.02100 57.92400 39.97000
H  2.59200 57.68000 42.52500
H  5.89300 58.49600 42.16900
H  4.35000 58.86600 42.89300
H  4.82000 59.74600 41.42700
H  1.15600 56.89300 40.08700
H  1.93900 58.55200 40.03800
H  0.25200 59.42000 41.07900
H  0.45600 58.44300 42.52600
H  -0.62500 57.98400 41.21200
H  -1.33600 52.56800 42.17500
H  -0.81200 54.16000 42.64400
H  -0.84200 52.83200 43.88200
H  2.56500 48.88200 42.76400
H  2.98400 45.36500 40.36700
H  1.41500 45.90800 40.00600
H  1.55200 45.01100 41.50100
Mg 17.38600 52.33900 26.34200
C  19.33900 50.68200 28.82500
C  15.01200 52.85100 28.89600
C  15.39500 53.57900 24.11500
C  19.68300 51.43500 23.93700
N  17.17400 51.78500 28.56100
C  18.09700 51.10900 29.36900
C  17.74100 51.38900 30.83800
C  16.20200 51.63000 30.70400
C  16.06300 52.08100 29.26100
C  15.32600 50.41200 31.06200
C  18.56200 52.55000 31.43200
C  18.80700 52.39200 32.96100
H  17.92600 51.46800 33.79400
N  15.40400 53.09800 26.47600
C  14.67600 53.30200 27.60800
C  13.53000 54.16100 27.33600
C  13.62900 54.39200 25.93100
C  14.82700 53.74900 25.39300
C  12.52700 54.70000 28.51200
C  12.70000 55.21400 25.13100
O  12.92600 55.44800 23.95400
C  11.40200 55.82200 25.69700
N  17.32500 52.14900 24.23400
C  16.49500 52.89300 23.55400
C  16.87400 53.08400 22.05200
C  18.35900 52.48900 22.01400
C  18.46300 51.96200 23.51100
C  15.80900 52.39400 21.13900
C  19.35900 53.54400 21.44200
C  20.12700 54.52500 22.27300
N  19.10500 51.26000 26.32500
C  19.95200 51.01900 25.27100
C  21.15300 50.34900 25.70100
C  20.98200 50.15700 27.07900
C  19.70500 50.72500 27.41200
C  22.27900 49.84500 24.84400
C  21.55500 49.62000 28.32000
O  22.59200 48.94200 28.43700
C  20.54200 50.00100 29.51900
C  20.15800 48.76700 30.25200
O  19.45200 47.85400 29.80400
O  20.58800 48.98600 31.56200
C  20.05600 47.89200 32.44200
H  14.26900 52.99500 29.68400
H  14.80100 54.07700 23.34500
H  20.42300 51.38200 23.13600
H  17.98200 50.45000 31.33600
H  15.84900 52.52100 31.22300
H  15.09500 49.82500 30.17400
H  14.45600 50.82300 31.57400
H  15.84500 49.81600 31.81400
H  18.09400 53.50400 31.18800
H  19.49700 52.47400 30.87700
H  18.79000 53.34100 33.49700
H  19.83600 52.07600 33.13400
H  12.76500 54.40600 29.53400
H  11.58500 54.19200 28.30300
H  12.46300 55.78700 28.47300
H  10.84100 56.22200 24.85200
H  11.70400 56.67100 26.30900
H  10.79800 55.19600 26.35400
H  16.85100 54.17000 21.96600
H  18.50000 51.66700 21.31200
H  16.37000 51.89100 20.35200
H  15.09900 53.13600 20.77400
H  15.30800 51.55300 21.61900
H  18.87000 54.14100 20.67200
H  20.15900 53.05200 20.89000
H  20.40400 55.45400 21.77300
H  21.05000 54.11600 22.68300
H  19.52600 54.78700 23.14400
H  22.30600 50.35100 23.87900
H  21.96300 48.82900 24.60700
H  23.20600 49.94800 25.40800
H  20.90500 50.76900 30.20200
H  18.97200 47.96100 32.35000
H  20.31000 48.18300 33.46100
H  20.49800 46.94700 32.12800

