158

Mg 40.98000 9.39800 29.83500
C  42.92600 10.31400 32.57000
C  38.57800 8.41400 32.00800
C  39.23200 8.23800 27.33100
C  43.71700 10.07300 27.72200
N  40.87500 9.10500 32.05200
C  41.69000 9.75600 32.92500
C  41.02900 9.86900 34.33800
C  39.76900 8.89600 34.13600
C  39.69400 8.69600 32.66300
C  39.87700 7.58200 34.95800
C  40.75600 11.35700 34.77200
C  40.16000 11.50800 36.19700
H  41.13600 12.03800 37.29300
N  39.18100 8.50400 29.69000
C  38.24800 8.37500 30.65500
C  37.00500 7.75700 30.16600
C  37.35000 7.39700 28.78700
C  38.65100 8.04300 28.54100
C  35.89700 7.45400 31.03600
C  36.60400 6.59500 27.79900
O  37.02700 6.31300 26.68600
C  35.19700 5.91900 28.21100
N  41.37900 9.31800 27.73500
C  40.49200 8.71600 26.91600
C  41.10000 8.75900 25.39300
C  42.52900 9.22500 25.61500
C  42.58000 9.55900 27.11900
C  41.04200 7.35200 24.65800
C  42.98300 10.31600 24.54900
C  42.69700 11.72800 24.98800
N  42.96300 10.08900 30.05200
C  43.95000 10.33500 29.11000
C  45.13300 10.85000 29.77700
C  44.78400 10.89300 31.14400
C  43.44300 10.38900 31.21900
C  46.33200 11.44600 29.17700
C  45.18800 11.33400 32.42700
O  46.19400 11.94900 32.72600
C  44.05500 10.98700 33.35600
C  44.66000 10.07500 34.31900
O  44.75100 8.86700 34.14100
O  45.06800 10.78400 35.38300
C  45.72100 9.90600 36.37800
H  37.73800 8.17500 32.66300
H  38.89000 7.71300 26.43600
H  44.56700 10.20900 27.05000
H  41.69600 9.39800 35.06000
H  38.90100 9.52200 34.34600
H  39.89500 6.84500 34.15400
H  38.97400 7.58400 35.56800
H  40.74500 7.55200 35.61700
H  40.07700 11.76800 34.02500
H  41.64400 11.95900 34.57700
H  39.88600 10.48500 36.45700
H  39.34900 12.22800 36.08600
H  35.79200 8.20800 31.81700
H  35.88600 6.47000 31.50500
H  35.01700 7.58500 30.40600
H  35.37800 5.30700 29.09400
H  34.85600 5.22400 27.44300
H  34.40500 6.66500 28.13800
H  40.45800 9.47500 24.88000
H  43.26200 8.42000 25.57100
H  40.62300 6.58400 25.31000
H  41.96200 7.01500 24.18100
H  40.36800 7.44600 23.80700
H  42.56500 10.02700 23.58500
H  44.05100 10.26500 24.33500
H  41.75300 11.72600 25.53200
H  42.63900 12.40600 24.13700
H  43.50900 12.10100 25.61300
H  45.99500 11.93300 28.26200
H  46.97400 10.58700 28.97900
H  46.75700 12.21900 29.81700
H  43.73700 11.89300 33.87200
H  46.64700 9.45700 36.02000
H  45.03800 9.14500 36.75700
H  46.01000 10.55300 37.20600
Mg -12.63200 16.30500 42.79600
C  -9.38300 15.08100 42.18100
C  -11.88500 19.17200 41.23300
C  -16.06100 17.08000 42.44900
C  -13.65500 13.13100 43.95700
N  -10.82000 17.04300 41.88100
C  -9.54600 16.41900 41.85400
C  -8.45600 17.43700 41.34400
C  -9.29000 18.78100 41.31900
C  -10.74400 18.29900 41.51200
C  -9.01100 19.84300 42.32300
C  -7.88600 17.00600 39.97200
C  -6.33000 16.89800 39.77400
H  -5.79400 15.66400 39.11400
N  -13.86200 17.98500 41.99300
C  -13.23100 19.05700 41.48900
C  -14.24100 20.05000 41.19700
C  -15.48200 19.40800 41.40100
C  -15.16500 18.04800 41.89700
C  -14.02200 21.38400 40.59800
C  -16.83500 20.05200 41.15600
O  -16.91800 21.15100 40.61300
C  -18.12600 19.34600 41.49200
N  -14.64600 15.20100 43.13700
C  -15.82600 15.79000 42.96400
C  -16.95700 14.85500 43.36900
C  -16.21100 13.51000 43.90300
C  -14.79400 13.96100 43.70000
C  -18.04200 15.32900 44.30400
C  -16.65500 12.25800 43.12800
C  -15.74200 11.81400 41.98700
N  -11.77900 14.48300 43.08400
C  -12.26100 13.23800 43.53300
C  -11.18100 12.25600 43.65700
C  -10.10700 12.93400 43.03900
C  -10.46100 14.29800 42.76000
C  -11.28600 10.84900 44.29700
C  -8.68400 12.80800 42.67200
O  -7.95400 11.80100 42.84300
C  -8.17700 14.18800 42.08700
C  -7.14200 14.72900 43.09000
O  -7.30500 15.50900 43.99600
O  -5.95300 14.08600 42.81700
C  -4.78200 14.49300 43.58600
H  -11.53200 20.09700 40.77300
H  -17.12600 17.29700 42.34600
H  -13.73800 12.13300 44.39200
H  -7.56800 17.54400 41.96700
H  -8.96400 19.29900 40.41700
H  -8.06500 19.57000 42.79000
H  -9.76800 19.93400 43.10200
H  -9.06600 20.79300 41.79200
H  -8.20700 17.66900 39.16800
H  -8.36000 16.10700 39.57700
H  -5.84800 16.95100 40.75000
H  -5.88800 17.76100 39.27600
H  -14.34700 21.34900 39.55800
H  -12.95600 21.57000 40.72700
H  -14.59100 22.12100 41.16400
H  -19.04500 19.91500 41.35800
H  -17.99400 19.18700 42.56200
H  -18.07400 18.41900 40.92000
H  -17.50900 14.79300 42.43100
H  -16.41100 13.30800 44.95600
H  -17.66500 16.24400 44.76300
H  -18.38500 14.64300 45.07900
H  -18.94800 15.52800 43.73200
H  -17.63700 12.34500 42.66400
H  -16.67300 11.43200 43.83900
H  -15.15100 10.94500 42.27700
H  -15.01700 12.55900 41.66100
H  -16.38800 11.68900 41.11800
H  -11.63600 10.88900 45.32800
H  -10.29800 10.40300 44.18100
H  -12.07800 10.25600 43.84100
H  -7.75600 14.16100 41.08200
H  -4.34300 15.45000 43.30500
H  -3.98100 13.78800 43.35900
H  -5.05900 14.49800 44.64000

