158

Mg 16.10500 -2.09600 27.72600
C  15.02500 -0.16700 30.30000
C  18.16000 -3.93600 29.91000
C  17.34100 -3.62300 25.15400
C  14.23500 0.00300 25.50500
N  16.73900 -1.84500 29.83900
C  15.90600 -1.20300 30.71800
C  16.27200 -1.53500 32.22200
C  17.41800 -2.55800 32.00400
C  17.47300 -2.80400 30.49400
C  18.78900 -1.89500 32.48100
C  15.14500 -2.06300 33.09200
C  15.15100 -1.49000 34.53900
H  16.39700 -0.95000 35.34100
N  17.34800 -3.70600 27.50000
C  18.02400 -4.35800 28.53900
C  18.56700 -5.57300 28.01900
C  18.39500 -5.45700 26.59400
C  17.73100 -4.26100 26.34800
C  19.22500 -6.71600 28.82800
C  18.68700 -6.57500 25.51400
O  18.40700 -6.40800 24.32600
C  19.26400 -7.85500 25.89000
N  15.90400 -1.74700 25.59400
C  16.62200 -2.47100 24.72900
C  16.57700 -1.89500 23.26400
C  15.35900 -0.93400 23.40100
C  15.12900 -0.88900 24.94900
C  17.88300 -1.28100 22.67800
C  14.08900 -1.45700 22.76200
C  13.44000 -0.48400 21.86400
N  14.79700 -0.40700 27.80700
C  14.10100 0.26700 26.84200
C  13.28200 1.31000 27.48600
C  13.58900 1.16300 28.82000
C  14.57400 0.14000 28.96200
C  12.47100 2.30700 26.86500
C  13.30800 1.69500 30.20000
O  12.50000 2.54200 30.57900
C  14.21200 0.76700 31.19100
C  15.11300 1.65400 31.93800
O  16.20600 2.12400 31.56000
O  14.44900 2.16800 32.99500
C  14.99400 3.39000 33.57800
H  18.91500 -4.41000 30.54000
H  17.72500 -4.13700 24.27000
H  13.58100 0.52400 24.80300
H  16.72900 -0.63800 32.64000
H  17.27000 -3.45700 32.60200
H  18.76600 -0.80600 32.44600
H  19.59900 -2.34200 31.90500
H  18.81200 -2.13200 33.54500
H  15.03400 -3.14600 33.14300
H  14.21200 -1.61900 32.74700
H  14.57400 -2.19200 35.14100
H  14.51000 -0.61000 34.48500
H  18.58300 -7.59500 28.90000
H  19.47300 -6.46800 29.86000
H  20.25500 -6.91500 28.53300
H  18.61300 -8.37800 26.59100
H  20.29000 -7.75600 26.24600
H  19.23200 -8.49000 25.00400
H  16.27600 -2.69500 22.58700
H  15.66000 0.03200 22.99500
H  18.48700 -1.58000 23.53500
H  17.82100 -0.22400 22.42000
H  18.12800 -1.93800 21.84400
H  13.43400 -1.86600 23.53100
H  14.34600 -2.22500 22.03400
H  13.83000 0.52700 21.98300
H  12.36800 -0.39200 22.04200
H  13.53000 -0.78000 20.81900
H  11.83600 2.86900 27.55000
H  11.65600 1.89600 26.26900
H  13.08400 2.99200 26.28000
H  13.66200 0.36300 32.04100
H  15.63200 3.96900 32.91000
H  15.56700 3.16700 34.47900
H  14.11200 3.92300 33.93200
Mg 24.80500 1.32300 29.72900
C  27.16500 1.32000 32.33400
C  22.33700 1.44200 32.10200
C  22.60200 1.55600 27.27500
C  27.35100 0.72900 27.50900
N  24.79300 1.45800 31.97800
C  25.85100 1.39800 32.83600
C  25.38200 1.74200 34.27900
C  23.84000 1.51600 34.16000
C  23.63500 1.48200 32.65800
C  23.31300 0.23400 34.79500
C  25.72200 3.16800 34.74300
C  26.29000 3.36800 36.19600
H  25.49100 2.68500 37.31200
N  22.69400 1.33300 29.69400
C  21.86100 1.47800 30.75100
C  20.50600 1.66500 30.28000
C  20.60300 1.68200 28.84000
C  22.00100 1.56700 28.54400
C  19.37800 1.88700 31.25500
C  19.45200 1.72100 27.89100
O  19.57600 1.49800 26.71200
C  18.05800 1.76800 28.42700
N  24.87000 0.68900 27.66600
C  23.85400 1.10700 26.87300
C  24.34000 1.31400 25.37300
C  25.93100 1.03000 25.43500
C  26.08000 0.77800 26.95100
C  23.50700 0.57500 24.23000
C  26.88900 2.06700 24.78800
C  27.20400 3.39900 25.60700
N  26.85100 0.99600 29.88700
C  27.73600 0.71800 28.88300
C  29.04500 0.60200 29.41100
C  28.91400 0.88300 30.76200
C  27.55400 1.11800 30.97500
C  30.20000 0.19900 28.60900
C  29.60500 0.98500 32.00100
O  30.78900 0.78600 32.29500
C  28.47000 1.23800 33.09000
C  28.54200 0.27300 34.16500
O  28.14700 -0.87000 34.12800
O  29.19300 0.75800 35.26400
C  29.51200 -0.09900 36.41200
H  21.57200 1.59300 32.86600
H  21.94600 1.88800 26.46700
H  28.18800 0.60700 26.81800
H  25.94900 1.06700 34.92000
H  23.28700 2.36300 34.56800
H  23.94400 -0.07300 35.62900
H  23.19900 -0.57900 34.07800
H  22.30900 0.50800 35.11800
H  24.95500 3.89800 34.48600
H  26.62300 3.43900 34.19400
H  26.40800 4.43000 36.40900
H  27.32800 3.06400 36.33500
H  19.69200 1.90800 32.29900
H  18.62800 1.10200 31.16600
H  18.93100 2.85600 31.03200
H  17.75000 2.75300 28.77700
H  17.83000 0.95600 29.11700
H  17.59500 1.44300 27.49500
H  24.30400 2.37600 25.13000
H  26.11600 0.02300 25.06200
H  24.17900 -0.11500 23.71900
H  23.00800 1.28700 23.57300
H  22.79300 -0.13900 24.64000
H  26.43000 2.33800 23.83700
H  27.77000 1.47600 24.53400
H  26.92600 4.30100 25.06200
H  28.28700 3.31500 25.69200
H  26.76100 3.58700 26.58500
H  31.15500 0.22400 29.13400
H  30.33500 1.03400 27.92100
H  30.20100 -0.75800 28.08800
H  28.77700 2.16300 33.57800
H  30.56700 0.01800 36.65900
H  29.11300 -1.11300 36.43200
H  29.04400 0.43400 37.23900

