158

Mg 1.65600 -2.58100 44.28600
C  5.15500 -1.72200 43.76600
C  1.05800 0.43200 42.58000
C  -1.40400 -3.70100 43.75900
C  2.76000 -5.72800 45.38600
N  2.97900 -0.89200 43.16300
C  4.34000 -0.72700 43.23300
C  4.75900 0.57300 42.67500
C  3.42800 1.36000 42.52800
C  2.40100 0.28700 42.85700
C  3.42300 2.52800 43.54600
C  5.57000 0.28400 41.28300
C  6.95600 0.95500 41.22100
H  7.21000 2.01000 40.10800
N  0.04200 -1.69500 43.48600
C  -0.02800 -0.47900 42.86500
C  -1.39300 -0.21300 42.45300
C  -2.16900 -1.36500 42.89500
C  -1.14200 -2.34800 43.46100
C  -1.93100 1.03100 41.79700
C  -3.68200 -1.51600 42.84900
O  -4.41500 -0.66400 42.41600
C  -4.34800 -2.68900 43.55700
N  0.77600 -4.48500 44.47400
C  -0.52000 -4.73300 44.21400
C  -0.91700 -6.23300 44.46800
C  0.34200 -6.70000 45.25500
C  1.40300 -5.60300 45.02500
C  -2.28300 -6.55600 45.22900
C  0.81000 -8.11000 44.92500
C  1.21800 -8.25900 43.46000
N  3.52800 -3.57700 44.49200
C  3.75300 -4.80200 45.07800
C  5.20300 -4.89200 45.38700
C  5.72900 -3.68600 44.88700
C  4.74700 -2.95000 44.23900
C  5.98600 -6.02500 45.98900
C  7.00200 -2.92700 44.86500
O  8.10000 -3.14800 45.34500
C  6.70100 -1.58800 44.10700
C  6.99000 -0.46100 45.04600
O  6.46000 -0.27700 46.16100
O  7.79200 0.37300 44.35100
C  8.13000 1.62500 45.04100
H  0.77400 1.41700 42.20400
H  -2.37500 -4.19800 43.72100
H  3.09700 -6.62600 45.90800
H  5.40300 1.11600 43.36800
H  3.27800 1.82000 41.55100
H  3.39400 2.04500 44.52300
H  2.69000 3.32800 43.44300
H  4.40800 2.99600 43.54900
H  4.96800 0.62900 40.44300
H  5.67900 -0.78700 41.10900
H  7.60000 0.07900 41.30400
H  7.17800 1.54100 42.11300
H  -1.40100 1.22000 40.86400
H  -1.75400 1.95500 42.34700
H  -2.95900 1.02500 41.43600
H  -5.37700 -2.38700 43.75300
H  -3.87200 -2.87400 44.52000
H  -4.40000 -3.64500 43.03600
H  -0.94200 -6.61500 43.44800
H  0.24900 -6.73700 46.34100
H  -3.13700 -6.66600 44.56100
H  -2.58900 -5.71600 45.85300
H  -2.24900 -7.53700 45.70200
H  -0.07400 -8.72300 45.10100
H  1.55800 -8.49400 45.61800
H  1.34100 -7.31200 42.93300
H  0.49800 -8.86000 42.90600
H  2.15000 -8.82400 43.47200
H  6.76200 -5.66300 46.66400
H  6.47800 -6.54400 45.16700
H  5.46300 -6.70800 46.65800
H  7.43100 -1.54700 43.29800
H  9.19800 1.63500 45.26200
H  7.60000 1.77800 45.98100
H  7.81900 2.43300 44.38000
Mg 49.01500 35.07300 27.17300
C  46.82400 34.42000 29.84000
C  49.92000 38.00200 28.78100
C  50.86400 35.78300 24.59000
C  47.76900 32.18300 25.63300
N  48.52100 36.10100 29.14400
C  47.66200 35.58900 30.09600
C  47.55200 36.47700 31.32900
C  48.31300 37.79000 30.85200
C  49.00300 37.27900 29.50500
C  47.47600 39.08800 30.66300
C  48.23900 35.88500 32.63100
C  47.44500 35.77300 33.86600
H  47.60600 36.81900 34.99900
N  50.20400 36.69100 26.74800
C  50.50800 37.73000 27.55500
C  51.32300 38.70300 26.80000
C  51.67900 38.03600 25.62000
C  50.98400 36.77900 25.62000
C  51.77500 39.99000 27.33900
C  52.61100 38.54500 24.50900
O  52.85700 37.80300 23.54500
C  53.25700 39.93300 24.54800
N  49.28800 34.14200 25.25900
C  50.10900 34.63000 24.34600
C  50.18700 33.81400 23.10600
C  49.26600 32.56600 23.40900
C  48.79000 32.88800 24.85600
C  49.76800 34.59000 21.89600
C  49.93000 31.15400 23.42500
C  51.09900 30.77700 22.47300
N  47.43100 33.66700 27.50400
C  47.13900 32.51800 26.88400
C  46.07900 31.78000 27.63200
C  45.87100 32.59100 28.72900
C  46.74300 33.66400 28.64500
C  45.55800 30.38800 27.42500
C  45.16800 32.60200 29.98400
O  44.43100 31.74200 30.43000
C  45.70200 33.83500 30.71100
C  46.18800 33.27700 31.97300
O  47.29300 32.80000 32.13800
O  45.18100 33.30500 32.89500
C  45.46500 32.61700 34.18400
H  50.13600 38.93800 29.30000
H  51.43800 36.11500 23.72200
H  47.54000 31.24300 25.12700
H  46.53300 36.76500 31.58800
H  49.09400 38.07500 31.55700
H  46.46500 38.85900 31.00000
H  47.38400 39.45600 29.64100
H  47.91200 39.87300 31.28200
H  49.02500 36.57300 32.94200
H  48.79800 34.95500 32.52900
H  47.58100 34.83200 34.40000
H  46.39000 35.84400 33.60200
H  51.46700 40.76700 26.63900
H  52.85000 40.16500 27.34600
H  51.48600 40.20600 28.36800
H  52.42700 40.63800 24.51100
H  53.84000 39.97700 23.62900
H  53.90600 39.90500 25.42300
H  51.21200 33.44900 23.03000
H  48.39100 32.56100 22.76000
H  49.20000 35.47500 22.18200
H  49.07200 34.14100 21.18800
H  50.59300 35.01700 21.32500
H  49.05400 30.59300 23.09800
H  50.27100 30.94100 24.43800
H  51.18500 31.48000 21.64400
H  51.05500 29.75100 22.10900
H  51.93900 30.82200 23.16600
H  46.07200 30.02900 26.53400
H  44.55300 30.35300 27.00500
H  45.68500 29.70300 28.26300
H  44.88600 34.55100 30.81000
H  46.44800 32.16600 34.32400
H  44.60300 32.05400 34.54300
H  45.57600 33.47800 34.84300

