158

Mg 48.86400 35.98800 28.63500
C  46.69500 34.39900 30.91000
C  49.09100 38.68900 30.61400
C  50.54900 37.48000 26.18500
C  48.29900 33.33700 26.42900
N  47.97100 36.50900 30.60300
C  47.25300 35.63200 31.39900
C  47.09800 36.28600 32.78900
C  47.60200 37.77000 32.60400
C  48.24000 37.71400 31.18800
C  46.50200 38.80500 32.74800
C  47.68500 35.49500 33.93500
C  49.02600 34.81400 33.64100
H  50.31000 35.64900 33.74600
N  49.78300 37.78200 28.47300
C  49.75400 38.79900 29.38000
C  50.60800 39.87500 28.94500
C  51.16500 39.49300 27.73500
C  50.53500 38.16300 27.40000
C  50.80200 41.09500 29.80400
C  52.09700 40.27000 26.79200
O  52.48200 39.78800 25.75700
C  52.54600 41.62700 27.21300
N  49.38500 35.45200 26.55400
C  50.07500 36.22600 25.79200
C  50.37400 35.66400 24.39000
C  49.79300 34.18700 24.53500
C  49.14700 34.30700 25.97700
C  49.64600 36.43300 23.19900
C  50.71200 32.89400 24.49400
C  50.06200 31.59000 23.90300
N  47.81500 34.20600 28.69200
C  47.66800 33.25600 27.71000
C  46.88900 32.14900 28.24500
C  46.43800 32.58200 29.44800
C  46.98100 33.86000 29.66900
C  46.51700 30.78000 27.55600
C  45.64600 32.20600 30.51600
O  44.97200 31.16600 30.78200
C  45.63200 33.42700 31.44900
C  45.95300 32.93400 32.77800
O  46.90900 32.18400 33.10200
O  44.97600 33.23700 33.56100
C  44.85300 32.63400 34.90200
H  49.18700 39.53300 31.30100
H  50.96000 38.08300 25.37300
H  47.98400 32.51900 25.77800
H  46.04000 36.36300 33.03800
H  48.45800 37.91600 33.26300
H  46.69000 39.27600 33.71200
H  45.50100 38.38600 32.85900
H  46.46600 39.59100 31.99400
H  46.95900 34.87400 34.46000
H  47.99000 36.23400 34.67600
H  48.98400 34.52300 32.59100
H  49.16800 33.87800 34.18000
H  51.80800 41.31400 30.16000
H  50.22300 41.17500 30.72400
H  50.50800 41.93300 29.17200
H  51.71800 42.33100 27.30400
H  53.27900 42.03700 26.51800
H  52.94800 41.51500 28.21900
H  51.44700 35.70800 24.20600
H  48.98200 34.01900 23.82600
H  50.26700 36.71100 22.34700
H  49.01700 37.22200 23.61300
H  48.98500 35.71500 22.71300
H  50.97900 32.70000 25.53300
H  51.57500 33.13900 23.87500
H  50.53000 30.82100 24.51800
H  50.44400 31.52300 22.88400
H  48.97700 31.65700 23.98800
H  45.43500 30.66000 27.60800
H  46.87300 29.96100 28.18000
H  46.89000 30.65600 26.53900
H  44.66100 33.92200 31.46000
H  43.87200 32.15900 34.86700
H  45.00900 33.43500 35.62400
H  45.59100 31.85200 35.07900
Mg 43.10400 42.14200 26.97900
C  41.77900 44.37500 29.26100
C  44.41200 40.25900 29.39200
C  44.16100 40.03900 24.50000
C  42.11900 44.42300 24.32900
N  43.15300 42.36900 29.07900
C  42.34700 43.22500 29.82500
C  42.46800 42.90300 31.31800
C  43.59200 41.82700 31.33500
C  43.72000 41.39600 29.83500
C  44.89000 42.30000 32.01500
C  41.10500 42.47400 31.91400
C  40.70000 42.84500 33.37600
H  41.74000 43.33000 34.32900
N  44.11400 40.39100 26.95700
C  44.61700 39.74600 28.08000
C  45.22400 38.53900 27.65500
C  44.92500 38.33300 26.30100
C  44.45400 39.63600 25.82800
C  45.83400 37.56800 28.61800
C  45.17400 37.11800 25.37700
O  44.99400 37.15900 24.14300
C  45.57400 35.86900 26.00400
N  43.18000 42.24500 24.70400
C  43.59200 41.20000 24.00300
C  43.47600 41.38300 22.48400
C  42.80500 42.83000 22.42900
C  42.68600 43.20800 23.91600
C  44.78900 41.26300 21.66400
C  41.38400 42.74000 21.72400
C  40.33500 41.77100 22.21800
N  42.16400 43.94500 26.77000
C  41.89800 44.84500 25.69600
C  41.24600 46.05600 26.16300
C  41.19100 45.84500 27.56600
C  41.74400 44.57200 27.86500
C  40.75800 47.20600 25.30400
C  40.75600 46.49800 28.78900
O  40.27500 47.59600 28.91100
C  41.03100 45.54900 29.90200
C  41.80500 46.24000 30.92900
O  42.92700 46.71000 30.80300
O  40.95500 46.45200 31.93800
C  41.44800 47.24600 33.03800
H  44.80800 39.68300 30.23100
H  44.32400 39.32700 23.68900
H  41.78900 45.05400 23.50100
H  42.78100 43.78600 31.87500
H  43.27700 40.94200 31.88700
H  45.09000 41.72300 32.91900
H  44.81900 43.36700 32.22500
H  45.67400 42.13500 31.27700
H  41.01400 41.38900 31.87500
H  40.37300 42.80000 31.17500
H  40.31900 41.92900 33.82700
H  39.96300 43.64300 33.28800
H  45.73200 37.92000 29.64400
H  46.88300 37.44000 28.34800
H  45.36700 36.58700 28.53100
H  45.64900 35.04100 25.29900
H  44.82000 35.60200 26.74400
H  46.60600 35.87300 26.35600
H  42.77300 40.70800 21.99400
H  43.49400 43.49600 21.91000
H  44.82000 41.97900 20.84300
H  44.87900 40.23300 21.31600
H  45.73600 41.39000 22.18800
H  41.64200 42.56900 20.67900
H  40.89200 43.71000 21.65200
H  40.80500 41.28800 23.07500
H  40.10000 41.11300 21.38200
H  39.44800 42.32500 22.52500
H  40.22200 46.97400 24.38300
H  41.61700 47.84500 25.10100
H  40.12900 47.75200 26.00800
H  40.09600 45.11900 30.26100
H  41.94300 46.67000 33.81900
H  40.63900 47.85500 33.44200
H  42.12100 48.04700 32.73000

