158

Mg 40.81000 8.82700 29.83900
C  42.77900 9.89300 32.61400
C  38.72100 7.48000 31.96400
C  39.00300 7.88100 27.23800
C  43.22200 10.23900 27.67000
N  40.73700 8.80300 32.08500
C  41.60200 9.27300 33.01900
C  41.09500 9.01900 34.49000
C  39.74800 8.34000 34.23800
C  39.74900 8.10200 32.65900
C  39.50400 7.14600 35.01300
C  40.96000 10.36000 35.29000
C  40.03400 10.28100 36.58800
H  40.37600 11.13900 37.76800
N  39.12800 7.78100 29.63400
C  38.41200 7.27000 30.64900
C  37.26600 6.47200 30.23900
C  37.10200 6.84000 28.87700
C  38.46300 7.53700 28.50200
C  36.35600 5.68200 31.19300
C  36.00100 6.67200 27.87800
O  36.05800 7.24100 26.77800
C  34.76500 5.95400 28.25300
N  40.96700 9.21900 27.76000
C  40.16300 8.61400 26.86400
C  40.63800 8.80800 25.42200
C  41.91300 9.64500 25.63400
C  42.03500 9.73300 27.09600
C  40.91400 7.41900 24.66400
C  41.99000 11.05600 25.01100
C  41.47000 12.26800 25.76800
N  42.66200 9.80300 30.05900
C  43.50900 10.28200 29.08300
C  44.68500 10.88200 29.76900
C  44.43300 10.68300 31.16000
C  43.16600 10.12700 31.24300
C  45.87600 11.48300 29.05000
C  45.05300 10.85000 32.49100
O  46.17100 11.19500 32.78600
C  43.89800 10.47100 33.46400
C  44.47900 9.48900 34.39400
O  45.02900 8.46400 34.10000
O  44.39400 9.88500 35.68500
C  44.79700 8.98300 36.73600
H  37.96600 7.06100 32.63300
H  38.53900 7.45200 26.34800
H  44.00500 10.54200 26.97200
H  41.64400 8.25200 35.03700
H  38.96400 9.07800 34.40500
H  39.57500 6.27300 34.36500
H  38.49200 7.17100 35.41700
H  40.22500 6.88400 35.78800
H  40.48000 11.03000 34.57700
H  41.91400 10.76500 35.62700
H  39.93400 9.32200 37.09600
H  39.08800 10.48200 36.08400
H  35.69300 6.46100 31.56900
H  37.01800 5.24300 31.93900
H  35.75400 4.89800 30.73200
H  35.01000 4.98200 28.67900
H  34.20700 5.98600 27.31700
H  34.14100 6.45400 28.99300
H  39.86500 9.34800 24.87400
H  42.73700 8.99900 25.33100
H  41.67000 6.93200 25.28000
H  41.19900 7.61300 23.63000
H  40.06100 6.74100 24.69500
H  41.40300 11.05000 24.09300
H  43.06800 11.15400 24.88600
H  40.95300 12.03900 26.70000
H  40.79200 12.78400 25.08800
H  42.34100 12.89900 25.94700
H  46.73400 10.81600 28.96800
H  46.02000 12.33900 29.71000
H  45.56400 11.91600 28.09900
H  43.56400 11.36200 33.99600
H  45.33200 8.05300 36.54500
H  43.91900 8.74900 37.33800
H  45.42200 9.51300 37.45500
Mg -10.91800 40.41500 39.62900
C  -9.56000 37.31400 38.60500
C  -7.85500 41.84600 38.77600
C  -12.27400 43.39900 40.06000
C  -14.06000 38.87200 39.66900
N  -8.99000 39.69500 38.73300
C  -8.64100 38.38500 38.50600
C  -7.20200 38.25700 38.01000
C  -6.59500 39.64900 38.28700
C  -7.86000 40.42600 38.66500
C  -5.57700 39.80100 39.43600
C  -7.21000 37.91600 36.49900
C  -6.15800 37.04100 35.87900
H  -6.65900 36.20800 34.67500
N  -10.20300 42.37300 39.32400
C  -8.87000 42.79500 39.06800
C  -8.79200 44.20500 39.19800
C  -10.05700 44.69800 39.48100
C  -10.94000 43.47700 39.64800
C  -7.54300 45.09100 38.98300
C  -10.47000 46.16800 39.52100
O  -9.55900 46.99800 39.43000
C  -11.92200 46.60300 39.55600
N  -12.92000 40.97600 39.75900
C  -13.16800 42.33000 39.96000
C  -14.65200 42.56600 40.26100
C  -15.26700 41.16900 40.11200
C  -14.00900 40.25400 39.80600
C  -15.01500 43.09900 41.69800
C  -16.34500 41.13600 38.86300
C  -17.68700 41.76100 39.32200
N  -11.72400 38.41400 39.39400
C  -12.98400 37.97400 39.41800
C  -13.00000 36.54500 39.24500
C  -11.66300 36.23100 38.93700
C  -10.92900 37.45700 39.00900
C  -14.18600 35.60100 39.36500
C  -10.73900 35.17100 38.52100
O  -10.89300 33.98700 38.32900
C  -9.32200 35.82100 38.25500
C  -8.39500 35.12500 39.14400
O  -8.66000 34.76100 40.27200
O  -7.33800 34.69900 38.36600
C  -6.41400 33.78800 39.06800
H  -6.85300 42.26100 38.64800
H  -12.63300 44.34800 40.46400
H  -15.09300 38.58400 39.87300
H  -6.62700 37.49300 38.53400
H  -6.06800 40.10600 37.45000
H  -5.12100 40.77600 39.26600
H  -4.73200 39.11700 39.35500
H  -5.98700 39.81400 40.44600
H  -7.10700 38.83900 35.92900
H  -8.17900 37.52600 36.18700
H  -5.69100 36.40000 36.62600
H  -5.42200 37.69700 35.41500
H  -7.53600 45.47800 37.96400
H  -6.65700 44.45800 38.92800
H  -7.35000 45.81800 39.77200
H  -11.95300 47.45600 38.87800
H  -12.36500 46.77300 40.53700
H  -12.50500 45.87600 38.99000
H  -15.13100 43.27600 39.58600
H  -15.82000 40.84200 40.99300
H  -14.13000 43.50000 42.19300
H  -15.52700 42.53100 42.47400
H  -15.64100 43.95200 41.43700
H  -16.56800 40.22300 38.31000
H  -15.87500 41.80200 38.14000
H  -17.44100 42.65400 39.89700
H  -18.10300 40.98200 39.96100
H  -18.34600 42.03300 38.49800
H  -14.28500 35.01900 38.44900
H  -15.11700 36.16500 39.42600
H  -14.12200 34.84800 40.14900
H  -9.01100 35.66700 37.22200
H  -5.37100 34.03700 38.87300
H  -6.72400 32.74500 39.00100
H  -6.45200 33.92000 40.15000

