158

Mg 42.26600 41.59500 27.10500
C  41.30400 43.63200 29.66200
C  43.31300 39.24700 29.61100
C  43.36800 39.56900 24.68500
C  41.41700 43.98700 24.78800
N  42.40000 41.51800 29.46100
C  41.78200 42.47400 30.20100
C  41.82200 42.02100 31.71800
C  42.58400 40.58100 31.61400
C  42.67800 40.35800 30.14900
C  43.83400 40.57000 32.51000
C  40.36500 42.00600 32.30600
C  40.20100 42.74700 33.64200
H  39.57800 41.96700 34.85100
N  43.10000 39.65900 27.13800
C  43.47900 38.90600 28.24600
C  44.13200 37.70000 27.75600
C  44.17200 37.76100 26.31300
C  43.53200 39.05200 25.97600
C  44.63700 36.52800 28.70600
C  44.54400 36.75100 25.26600
O  44.60100 36.91600 24.06800
C  44.91200 35.33900 25.74500
N  42.45800 41.73400 25.04200
C  42.88700 40.75700 24.25800
C  42.77000 41.01200 22.73800
C  41.98800 42.36600 22.77600
C  41.83600 42.74500 24.28900
C  44.16700 41.00800 22.06500
C  40.58100 42.24400 22.26600
C  39.63600 41.23000 22.97200
N  41.63900 43.47000 27.09400
C  41.35100 44.34700 26.10200
C  40.88500 45.64600 26.68600
C  40.73300 45.32700 28.03900
C  41.30400 44.02600 28.27900
C  40.37000 46.90000 25.91800
C  40.37300 45.87000 29.23900
O  39.98200 47.00700 29.51000
C  40.80900 44.81700 30.39800
C  41.89100 45.58300 31.13000
O  42.88200 46.15700 30.61400
O  41.51500 45.69700 32.40000
C  42.59800 46.16200 33.36200
H  43.61000 38.52500 30.37400
H  43.76300 38.95000 23.87700
H  41.02400 44.71900 24.08000
H  42.42000 42.78700 32.21100
H  42.06100 39.73300 32.05600
H  44.72000 40.64200 31.87900
H  43.87800 39.68800 33.14900
H  44.00500 41.39400 33.20300
H  40.10700 40.96200 32.48400
H  39.79500 42.48200 31.50800
H  39.56100 43.61300 33.47300
H  41.16400 43.09300 34.01800
H  43.80700 35.82500 28.77900
H  45.08400 36.82200 29.65600
H  45.51400 36.17500 28.16400
H  44.18600 35.02600 26.49600
H  45.93100 35.49500 26.10000
H  44.83100 34.67000 24.88800
H  42.10100 40.26400 22.31200
H  42.50900 43.12300 22.19000
H  44.86800 40.29000 22.49000
H  44.47700 42.04700 21.95600
H  44.16700 40.78600 20.99800
H  40.50500 41.95500 21.21800
H  40.11900 43.22400 22.38400
H  40.15200 40.28400 23.13800
H  38.85800 40.91100 22.27800
H  39.12600 41.66600 23.83100
H  39.56300 46.60800 25.24700
H  41.14000 47.58600 25.56500
H  39.88000 47.39800 26.75500
H  39.91700 44.59400 30.98400
H  43.50700 46.47200 32.84600
H  43.05100 45.47000 34.07100
H  42.27000 47.01800 33.95200
Mg 17.03300 52.26900 25.87000
C  18.80300 51.20800 28.60600
C  14.43600 52.94100 27.92600
C  15.40600 53.42500 23.21100
C  19.73000 51.30000 23.84300
N  16.65000 52.06300 28.02800
C  17.57400 51.66700 28.94000
C  17.08900 51.98300 30.40200
C  15.52300 52.29200 30.17200
C  15.46300 52.45600 28.62900
C  14.57700 51.19300 30.78900
C  17.85200 53.11800 31.11500
C  18.18200 52.89900 32.62500
H  17.13600 51.92200 33.38900
N  15.12400 53.21100 25.66300
C  14.20100 53.29600 26.65300
C  13.13500 53.95600 26.06300
C  13.33200 54.12900 24.68400
C  14.66500 53.61200 24.45200
C  11.93700 54.41800 26.90400
C  12.46900 54.55100 23.51700
O  12.80300 54.89500 22.40400
C  11.03700 54.86300 23.77800
N  17.55600 52.54900 23.80300
C  16.69400 52.91100 22.92300
C  17.24600 52.88600 21.49100
C  18.67900 52.23400 21.71800
C  18.72600 52.07000 23.21500
C  16.29500 52.12200 20.52900
C  19.81300 53.17200 21.21100
C  21.00600 52.50000 20.46700
N  18.78700 51.22900 26.05100
C  19.84900 50.98700 25.17700
C  20.89500 50.28500 25.81900
C  20.55600 50.40400 27.18900
C  19.34100 50.98100 27.28800
C  22.19400 49.70300 25.27500
C  21.03300 50.21000 28.52100
O  22.07300 49.74800 28.91000
C  19.97400 50.78300 29.48000
C  19.63000 49.59100 30.20200
O  18.82000 48.72500 29.82600
O  20.33000 49.53900 31.36300
C  19.54200 49.12800 32.49500
H  13.61600 53.17300 28.60800
H  14.82300 53.65000 22.31600
H  20.50400 50.93400 23.16600
H  17.14300 51.01800 30.90600
H  15.27300 53.14400 30.80600
H  14.13400 50.66300 29.94600
H  13.75100 51.57900 31.38600
H  15.12800 50.55100 31.47600
H  17.24900 54.02600 31.12500
H  18.69700 53.25000 30.43900
H  18.24200 53.86800 33.12100
H  19.19800 52.50400 32.66400
H  11.70500 55.48000 26.82500
H  11.99800 54.26800 27.98200
H  11.13700 53.81000 26.48200
H  10.86700 55.77200 24.35600
H  10.48700 54.04300 24.23800
H  10.53900 55.07100 22.83100
H  17.40200 53.91200 21.15600
H  18.63800 51.25500 21.23900
H  15.35200 52.59100 20.24600
H  16.16200 51.16800 21.03800
H  16.74400 51.85300 19.57400
H  20.26400 53.76700 22.00500
H  19.40500 53.77000 20.39700
H  21.98900 52.76500 20.85500
H  21.01700 52.59100 19.38100
H  20.91000 51.41600 20.52900
H  23.02500 50.05000 25.88800
H  22.36300 50.09300 24.27100
H  21.97200 48.63600 25.27100
H  20.51000 51.49400 30.10900
H  20.04100 48.21600 32.82400
H  18.45900 49.00700 32.45600
H  19.56100 49.89600 33.26800

