158

Mg 0.27900 43.67000 26.30300
C  2.39400 43.09400 29.08700
C  -2.26800 42.35300 28.12800
C  -1.60400 43.67700 23.48000
C  3.14000 44.25200 24.40100
N  0.10100 42.89500 28.37100
C  1.03500 42.90300 29.41100
C  0.29700 42.82100 30.77000
C  -1.03700 42.08800 30.41000
C  -1.11200 42.46500 28.85300
C  -0.98600 40.50300 30.69400
C  0.19200 44.22200 31.30900
C  -0.20100 44.34200 32.75300
H  -0.54900 43.07300 33.60000
N  -1.75000 43.18800 25.89000
C  -2.63800 42.74900 26.83200
C  -3.93800 42.59900 26.14700
C  -3.76500 42.99800 24.78600
C  -2.34000 43.29400 24.67800
C  -5.11500 42.19800 26.97000
C  -4.71600 42.95000 23.65600
O  -4.46000 43.27100 22.52500
C  -6.14100 42.35400 23.82500
N  0.62800 43.81300 24.22000
C  -0.30500 43.96100 23.26100
C  0.27800 44.44100 21.95100
C  1.76200 44.74900 22.30000
C  1.87000 44.30300 23.75100
C  0.01200 43.42300 20.77700
C  2.24800 46.16900 22.01000
C  2.14600 47.16700 23.22900
N  2.37400 43.64600 26.61000
C  3.40700 43.84000 25.71500
C  4.66000 43.67900 26.42600
C  4.29900 43.42300 27.73800
C  2.89800 43.31900 27.78300
C  6.06900 43.77000 25.82800
C  4.84200 43.15400 29.04000
O  5.97300 42.98700 29.36000
C  3.63000 43.10400 29.95300
C  3.72400 41.97000 30.86200
O  3.75800 40.80500 30.55400
O  3.86400 42.44900 32.08500
C  3.88500 41.47600 33.16800
H  -3.10600 41.92000 28.67800
H  -2.09000 43.75400 22.50400
H  3.96200 44.56200 23.75300
H  0.89500 42.21300 31.44900
H  -1.97400 42.47700 30.80900
H  -0.12700 40.23100 31.30700
H  -0.85000 40.07800 29.69900
H  -1.91300 40.10800 31.10800
H  -0.51700 44.75400 30.67500
H  1.19500 44.64200 31.22900
H  -1.07600 44.98900 32.69200
H  0.56100 44.88400 33.31300
H  -5.06900 42.40200 28.04000
H  -5.24200 41.12900 26.80000
H  -5.97800 42.71200 26.54600
H  -6.77200 43.07100 24.35200
H  -5.94400 41.52600 24.50500
H  -6.52600 41.99000 22.87300
H  -0.23300 45.31000 21.53500
H  2.27600 44.09500 21.59600
H  -0.42000 42.49600 21.15300
H  0.86800 43.17400 20.15000
H  -0.66500 43.85100 20.03800
H  1.55600 46.61300 21.29400
H  3.29300 46.17600 21.70000
H  2.58900 46.75300 24.13400
H  1.12300 47.45900 23.46600
H  2.80900 48.02100 23.09000
H  6.70700 43.60100 26.69600
H  5.85600 44.82300 25.64100
H  6.33000 43.26800 24.89600
H  3.68200 44.03600 30.51600
H  3.23500 41.97200 33.88900
H  4.92600 41.46100 33.49100
H  3.54100 40.45700 32.98700
Mg -10.07200 17.05900 42.88900
C  -6.73700 17.94800 42.69600
C  -10.81200 20.41400 42.25400
C  -13.08200 16.14600 42.26800
C  -9.08400 13.68600 42.82600
N  -8.90900 18.90700 42.38100
C  -7.55100 19.02500 42.44400
C  -7.07900 20.46100 42.17800
C  -8.41500 21.21300 42.42600
C  -9.47500 20.15300 42.29900
C  -8.34700 21.96000 43.80100
C  -6.52200 20.60500 40.69500
C  -5.02000 20.83000 40.55600
H  -4.26800 19.85200 39.58200
N  -11.71800 18.15400 42.25000
C  -11.89900 19.52000 42.17800
C  -13.31700 19.79200 41.81700
C  -13.96700 18.50700 41.68000
C  -12.92300 17.53200 42.05300
C  -13.87100 21.24200 41.57000
C  -15.44500 18.38800 41.32600
O  -16.16800 19.36900 41.21700
C  -16.02200 16.97500 41.00200
N  -10.95700 15.17800 42.46300
C  -12.22600 15.09100 42.50200
C  -12.71700 13.76600 42.81700
C  -11.47900 12.89500 43.00900
C  -10.43000 13.95300 42.65000
C  -13.76200 13.79100 44.02200
C  -11.45200 11.58100 42.18100
C  -11.29900 10.26800 43.08800
N  -8.33600 16.01400 42.83200
C  -8.03000 14.63300 42.79600
C  -6.58400 14.38800 42.97000
C  -6.07900 15.64100 42.90400
C  -7.14800 16.60000 42.79300
C  -5.92000 13.00200 43.20500
C  -4.77500 16.38500 42.98200
O  -3.60400 15.86300 43.02800
C  -5.21500 17.91100 42.95400
C  -4.90700 18.49700 44.30000
O  -5.11500 18.00500 45.42400
O  -4.55500 19.79300 44.09900
C  -3.84700 20.39400 45.27100
H  -11.12900 21.44700 42.09600
H  -14.13100 15.84100 42.28200
H  -8.73800 12.67100 43.03400
H  -6.27700 20.86100 42.79800
H  -8.61900 22.04700 41.75500
H  -7.87800 22.93000 43.63800
H  -7.86700 21.36000 44.57500
H  -9.33100 22.16200 44.22400
H  -6.95800 21.46000 40.17700
H  -6.70600 19.66300 40.17800
H  -4.47300 20.88700 41.49700
H  -4.85000 21.83200 40.16200
H  -13.32100 22.00900 42.11500
H  -14.90400 21.30800 41.91100
H  -13.75900 21.53800 40.52700
H  -15.24500 16.39900 40.50000
H  -16.91900 17.25100 40.44600
H  -16.28600 16.56100 41.97500
H  -13.36500 13.40000 42.02000
H  -11.32600 12.71600 44.07300
H  -13.54500 14.57300 44.75000
H  -13.48400 12.85100 44.50000
H  -14.81700 13.92200 43.78200
H  -10.63600 11.50000 41.46300
H  -12.35000 11.54900 41.56400
H  -10.85600 10.55900 44.04000
H  -10.63000 9.54400 42.62300
H  -12.34200 9.95200 43.08400
H  -4.85300 13.05300 42.99200
H  -6.36700 12.30900 42.49200
H  -6.08700 12.62400 44.21300
H  -4.63900 18.45300 42.20500
H  -4.53500 20.53600 46.10500
H  -3.33300 21.33500 45.07700
H  -3.05900 19.71100 45.59000

