158

Mg -1.84300 16.82500 27.11100
C  -2.39100 14.56300 29.96800
C  -2.54200 19.36000 29.33200
C  -1.85700 18.75300 24.56800
C  -1.91000 13.92300 25.10800
N  -2.35200 16.98500 29.42700
C  -2.36700 15.94700 30.34100
C  -2.59300 16.50200 31.79700
C  -2.60500 18.04300 31.59800
C  -2.52000 18.16700 30.00600
C  -3.89500 18.78500 32.20300
C  -1.58600 15.94600 32.88200
C  -1.10500 16.83800 34.03100
H  -0.85000 16.17900 35.37500
N  -2.03600 18.79300 26.99400
C  -2.37900 19.69800 27.96500
C  -2.38000 21.06000 27.40800
C  -2.03100 20.90200 26.03800
C  -2.02100 19.46000 25.80400
C  -2.42100 22.29900 28.23400
C  -1.65100 21.95900 24.99500
O  -1.15600 21.70500 23.90300
C  -1.89200 23.35000 25.24400
N  -1.87500 16.40200 25.12800
C  -1.72300 17.45100 24.18900
C  -1.64300 16.85900 22.71100
C  -1.31800 15.33200 23.04100
C  -1.68300 15.15000 24.53200
C  -2.93600 17.04700 21.85900
C  0.11000 14.85900 22.82800
C  1.20800 15.83500 23.33200
N  -2.05200 14.70800 27.41600
C  -2.17300 13.69700 26.49800
C  -2.45700 12.50100 27.17900
C  -2.46600 12.75800 28.54700
C  -2.30200 14.14200 28.61800
C  -2.57800 11.24200 26.44500
C  -2.76400 12.21600 29.80500
O  -3.03900 11.03300 30.09700
C  -2.58000 13.32000 30.84300
C  -1.33400 12.94000 31.48600
O  -0.20400 13.13700 31.07300
O  -1.66400 12.45700 32.77000
C  -0.65000 12.40400 33.75700
H  -2.58100 20.30400 29.88100
H  -1.78200 19.36500 23.66600
H  -1.86000 13.04300 24.46400
H  -3.58800 16.11400 32.01800
H  -1.72200 18.52500 32.01700
H  -4.45900 18.13800 32.87500
H  -4.58800 19.15400 31.44700
H  -3.56200 19.69800 32.69700
H  -0.69000 15.54500 32.40800
H  -2.08300 15.07600 33.31000
H  -1.85800 17.62200 34.11300
H  -0.23000 17.39400 33.69400
H  -1.47100 22.83200 28.21000
H  -2.83100 22.18300 29.23700
H  -3.23600 22.89000 27.81600
H  -2.80300 23.45400 25.83300
H  -2.05000 23.81800 24.27200
H  -0.96000 23.78700 25.60200
H  -0.82900 17.41100 22.24200
H  -1.91900 14.73300 22.35700
H  -3.58300 17.60500 22.53500
H  -3.21300 16.04700 21.52600
H  -2.71000 17.51800 20.90200
H  0.26700 14.66100 21.76800
H  0.20500 13.89400 23.32400
H  1.52800 16.40100 22.45700
H  2.10300 15.30700 23.66100
H  0.97100 16.54500 24.12500
H  -1.67500 11.21000 25.83500
H  -3.40100 11.48700 25.77400
H  -2.75000 10.42500 27.14600
H  -3.53200 13.39600 31.36800
H  -1.11400 12.78800 34.66500
H  0.26200 12.96700 33.55400
H  -0.18500 11.44000 33.96400
Mg 53.72800 24.48900 44.58700
C  51.15500 26.95700 43.96000
C  51.62600 22.20900 43.08400
C  56.26800 22.56900 44.26900
C  55.83600 27.25800 45.37700
N  51.63400 24.63200 43.61400
C  50.76100 25.65400 43.56600
C  49.36400 25.16500 43.19100
C  49.47800 23.61300 43.13800
C  51.03400 23.44900 43.29800
C  48.66400 22.93800 44.24000
C  48.91000 25.82700 41.77900
C  49.90400 25.67600 40.63600
H  49.39700 25.44200 39.24900
N  53.90900 22.58000 43.97000
C  52.96000 21.80200 43.36700
C  53.54300 20.46300 43.09800
C  54.86100 20.50100 43.61900
C  55.05500 21.89200 44.02100
C  52.85700 19.26600 42.35800
C  55.75100 19.31700 43.69900
O  55.30400 18.16100 43.41400
C  57.12300 19.44600 44.33900
N  55.79700 24.94400 44.66900
C  56.63400 23.87700 44.57500
C  58.05700 24.26200 44.68700
C  57.99200 25.69200 45.34000
C  56.48000 25.97400 45.16100
C  58.96600 23.26100 45.49200
C  58.82600 26.78500 44.64500
C  59.43500 27.82100 45.66700
N  53.54800 26.66400 44.72100
C  54.46700 27.59900 45.18000
C  53.78700 28.82900 45.46900
C  52.45500 28.62300 44.99600
C  52.39000 27.33100 44.46700
C  54.33500 30.00400 46.09200
C  51.19900 29.22700 44.93200
O  50.90400 30.37000 45.35500
C  50.26800 28.21200 44.08600
C  49.90600 28.86800 42.79000
O  50.59200 28.75500 41.75900
O  48.75500 29.57800 42.86300
C  48.15200 30.03200 41.63800
H  51.01000 21.36300 42.77300
H  57.16600 22.02400 43.97300
H  56.41700 28.08700 45.78700
H  48.67500 25.60500 43.91200
H  49.16100 23.21400 42.17400
H  49.23700 22.44200 45.02300
H  47.95000 22.21300 43.85000
H  48.09500 23.71200 44.75500
H  48.50300 26.81500 41.99000
H  48.02400 25.26500 41.48300
H  50.58800 24.88400 40.94100
H  50.54200 26.56000 40.62000
H  53.55200 18.61900 41.82200
H  52.06100 19.63700 41.71400
H  52.34300 18.68200 43.12100
H  57.57600 18.46600 44.49100
H  56.98100 20.00600 45.26300
H  57.72700 20.12800 43.74200
H  58.53900 24.22600 43.71000
H  58.05100 25.67500 46.42900
H  58.31700 22.47700 45.87900
H  59.56700 23.77000 46.24600
H  59.60500 22.72500 44.79000
H  58.20400 27.42600 44.02000
H  59.58300 26.36400 43.98200
H  60.51600 27.74100 45.78200
H  59.03900 27.85500 46.68200
H  59.13000 28.79700 45.28900
H  53.49700 30.59700 46.45900
H  54.84000 30.60700 45.33800
H  54.93700 29.74200 46.96200
H  49.41100 27.93000 44.69800
H  47.06900 29.93200 41.70800
H  48.55800 29.43700 40.82000
H  48.25600 31.11200 41.53600

