158

Mg 47.85000 16.31800 29.23600
C  45.63000 15.88400 32.09900
C  49.68000 18.33900 31.12500
C  49.37100 17.17300 26.41600
C  45.56600 14.39900 27.41700
N  47.67100 16.85400 31.41700
C  46.76900 16.69700 32.37500
C  47.12800 17.29200 33.77000
C  48.22800 18.29800 33.33200
C  48.50600 17.83100 31.83800
C  47.81600 19.83100 33.39900
C  47.61200 16.29900 34.85600
C  47.69400 16.67500 36.34600
H  47.24400 18.10500 36.72200
N  49.39200 17.48100 28.88400
C  50.04400 18.19800 29.79800
C  51.23900 18.74800 29.23200
C  51.14700 18.50500 27.82000
C  49.95000 17.62300 27.64400
C  52.11100 19.69700 30.05900
C  51.99500 18.85300 26.61000
O  51.67500 18.81100 25.41800
C  53.41500 19.48400 26.88100
N  47.37300 15.93900 27.10200
C  48.27200 16.29900 26.18900
C  47.86600 15.81800 24.84100
C  46.74600 14.74800 25.16800
C  46.52800 14.98400 26.64800
C  47.32300 17.06600 24.02700
C  47.18800 13.31600 24.97600
C  46.06900 12.24900 24.90100
N  46.07800 15.31700 29.56900
C  45.34700 14.49200 28.79700
C  44.21400 13.95800 29.54800
C  44.32800 14.49800 30.80700
C  45.44600 15.32100 30.82100
C  43.16300 13.08900 28.95200
C  43.64800 14.51100 32.11900
O  42.77400 13.80700 32.59500
C  44.53900 15.45400 33.02200
C  43.77500 16.59500 33.47200
O  43.05800 17.32800 32.81500
O  43.77200 16.51000 34.86000
C  42.92000 17.47700 35.58700
H  50.26800 18.96700 31.79800
H  49.90800 17.35600 25.48200
H  44.90000 13.76100 26.83300
H  46.26100 17.82400 34.16200
H  49.15300 18.15200 33.89000
H  46.86000 19.92300 33.91500
H  47.73000 20.32600 32.43100
H  48.58400 20.33700 33.98400
H  48.60800 15.95100 34.58100
H  46.93200 15.45200 34.77800
H  48.72800 16.53000 36.65700
H  47.21100 15.83700 36.84900
H  52.53300 19.12200 30.88300
H  51.35000 20.35700 30.47600
H  52.84800 20.21700 29.44700
H  53.29200 20.50800 27.23400
H  53.83100 19.56900 25.87700
H  54.02900 18.80300 27.46900
H  48.67700 15.30700 24.32300
H  45.82900 14.87100 24.59200
H  47.38700 18.03600 24.51900
H  46.27500 16.95000 23.75300
H  47.82900 17.20000 23.07100
H  47.77400 13.06500 25.86000
H  47.88800 13.15000 24.15700
H  46.21200 11.68000 23.98200
H  45.09100 12.73100 24.90500
H  46.11800 11.50200 25.69300
H  42.81500 12.44100 29.75700
H  43.58100 12.50100 28.13400
H  42.30900 13.70700 28.67600
H  44.92300 14.81900 33.82000
H  42.13000 17.01100 36.17600
H  42.67100 18.36500 35.00500
H  43.61900 17.83700 36.34200
Mg 48.33700 35.36700 28.27900
C  46.79200 33.51600 30.79700
C  48.58300 38.00900 30.50200
C  49.95400 37.18200 25.79500
C  47.73300 32.80400 26.12900
N  47.93000 35.63700 30.50000
C  47.33300 34.73000 31.29100
C  47.52100 35.15400 32.70600
C  47.51800 36.70900 32.50000
C  47.99000 36.82200 31.04700
C  46.13000 37.33900 32.65200
C  48.80400 34.67900 33.34700
C  48.76000 34.59800 34.81100
H  47.70300 35.47100 35.57500
N  49.07700 37.32600 28.14200
C  49.09900 38.22400 29.18800
C  49.72900 39.46700 28.73600
C  50.18300 39.28700 27.35300
C  49.79800 37.82700 27.04400
C  49.65100 40.64500 29.68000
C  50.91400 40.25900 26.40100
O  51.30800 39.93100 25.26500
C  51.38200 41.60000 26.90700
N  48.71500 35.05200 26.28000
C  49.37600 35.90700 25.47100
C  49.49200 35.39500 24.02200
C  48.98300 33.91700 24.26100
C  48.52100 33.85200 25.68400
C  48.64000 36.15200 22.94800
C  50.00400 32.85500 23.99200
C  49.87500 32.19100 22.55800
N  47.36300 33.52600 28.37900
C  47.14500 32.63100 27.39000
C  46.41700 31.46600 27.86100
C  46.25400 31.79500 29.25100
C  46.78000 33.02100 29.47900
C  46.02000 30.29500 27.09800
C  45.68800 31.33700 30.56800
O  45.15000 30.23800 30.89500
C  45.87800 32.51700 31.57700
C  46.43700 31.94000 32.77200
O  47.54500 31.45600 32.85900
O  45.51900 32.11900 33.76500
C  45.95800 31.83700 35.17800
H  48.60500 38.80300 31.25100
H  50.41700 37.63800 24.91700
H  47.57400 31.97700 25.43300
H  46.60400 34.79000 33.16800
H  48.21000 37.15400 33.21600
H  45.47000 36.82600 33.35100
H  45.71400 37.47800 31.65400
H  46.24200 38.35100 33.04100
H  49.58200 35.39300 33.07600
H  49.16200 33.79900 32.81100
H  49.80500 34.72200 35.09600
H  48.57500 33.53500 34.96600
H  50.59400 40.68500 30.22500
H  48.75200 40.75700 30.28700
H  49.67700 41.52700 29.04000
H  52.27300 41.89000 26.35100
H  51.64200 41.65000 27.96400
H  50.56800 42.30500 26.74000
H  50.54700 35.40700 23.74800
H  48.09200 33.85600 23.63500
H  48.72000 37.23300 23.05400
H  47.60200 35.83200 23.04200
H  49.04600 35.83000 21.98900
H  50.03000 32.09800 24.77700
H  50.96900 33.35500 23.91400
H  49.36400 32.92200 21.93200
H  49.24700 31.30400 22.64000
H  50.85100 31.96000 22.13100
H  45.44700 29.61500 27.72700
H  46.93700 29.83800 26.72600
H  45.42000 30.70400 26.28500
H  44.87300 32.92300 31.69500
H  46.43800 32.75800 35.51000
H  46.60500 30.96800 35.29900
H  45.08700 31.68800 35.81500

