158

Mg -8.96300 41.38800 42.62100
C  -8.56400 38.12900 41.48100
C  -6.39400 42.39300 40.59000
C  -9.97200 44.62100 42.99100
C  -12.05200 40.32400 44.08900
N  -7.53000 40.35500 41.31000
C  -7.58100 39.04600 41.00600
C  -6.48200 38.65300 39.98600
C  -5.64900 39.92400 39.97400
C  -6.58600 40.98600 40.67000
C  -4.25900 39.84700 40.60800
C  -7.13700 38.21100 38.60900
C  -6.76000 36.77100 38.16600
H  -5.67100 36.69000 37.09700
N  -8.16700 43.29400 42.03000
C  -7.11400 43.45200 41.18300
C  -6.90500 44.82000 40.99800
C  -7.97900 45.56700 41.62700
C  -8.75900 44.43200 42.31600
C  -5.69900 45.42300 40.10700
C  -8.05800 47.04800 41.77600
O  -7.28500 47.84100 41.26200
C  -9.27300 47.68600 42.45600
N  -10.62700 42.40200 43.62700
C  -10.76800 43.71900 43.73200
C  -12.13100 44.14900 44.41200
C  -12.81200 42.73000 44.69200
C  -11.75600 41.69700 44.18400
C  -12.08300 45.07100 45.69300
C  -14.22200 42.69400 43.90400
C  -15.42300 42.14500 44.73800
N  -10.10900 39.61700 42.81000
C  -11.32000 39.28600 43.47600
C  -11.61800 37.90900 43.25200
C  -10.50400 37.42200 42.50800
C  -9.63900 38.46700 42.32300
C  -12.76200 37.14000 43.82900
C  -9.89800 36.14800 42.08700
O  -10.34400 34.99000 42.19100
C  -8.56200 36.57500 41.31700
C  -7.39700 35.90700 41.89800
O  -6.90600 36.14100 43.01700
O  -6.85900 34.93100 41.06600
C  -5.61300 34.27600 41.60200
H  -5.57200 42.60800 39.90400
H  -10.47700 45.58800 43.02500
H  -12.97900 40.03700 44.58900
H  -5.88200 37.80000 40.30200
H  -5.39900 40.28600 38.97700
H  -3.45600 40.29700 40.02400
H  -4.08700 38.77800 40.73300
H  -4.23500 40.33500 41.58200
H  -6.86800 38.94600 37.85000
H  -8.22500 38.23600 38.66400
H  -7.57300 36.16800 37.76100
H  -6.31200 36.14100 38.93500
H  -5.42200 44.71100 39.32900
H  -4.78000 45.46000 40.69200
H  -5.94000 46.43500 39.78200
H  -9.22300 47.35200 43.49200
H  -10.22100 47.43700 41.97900
H  -9.19100 48.77300 42.43400
H  -12.59200 44.83800 43.70500
H  -13.03600 42.58300 45.74900
H  -11.08800 45.46200 45.90300
H  -12.45300 44.54900 46.57600
H  -12.70100 45.94900 45.50300
H  -14.08900 42.15800 42.96400
H  -14.41100 43.67800 43.47500
H  -16.27300 42.82000 44.83300
H  -15.19800 41.88800 45.77400
H  -15.84400 41.26400 44.25400
H  -12.91700 36.12100 43.47500
H  -13.66800 37.71000 43.62000
H  -12.82600 37.15900 44.91700
H  -8.73300 36.34700 40.26500
H  -5.43200 33.42600 40.94400
H  -5.64100 33.99200 42.65300
H  -4.74200 34.93000 41.55200
Mg -3.27600 34.10200 26.55000
C  -4.33600 32.29800 29.38000
C  -1.97600 36.40400 28.67700
C  -3.00700 36.29100 23.89600
C  -5.07200 31.94000 24.44400
N  -3.20200 34.25300 28.77500
C  -3.46300 33.32600 29.75600
C  -3.01000 33.76400 31.13300
C  -2.26900 35.14500 30.84200
C  -2.48800 35.29500 29.32900
C  -2.50600 36.24500 31.86400
C  -2.19800 32.64600 31.86100
C  -2.72900 32.13600 33.22200
H  -1.80000 32.23500 34.40400
N  -2.40900 35.94800 26.34700
C  -1.81000 36.70700 27.32500
C  -1.11100 37.85200 26.72500
C  -1.43300 37.78200 25.32600
C  -2.35700 36.65200 25.11600
C  -0.26700 38.85200 27.54900
C  -0.86200 38.60800 24.20900
O  -1.05200 38.23700 23.05000
C  -0.09100 39.86700 24.48900
N  -4.00200 34.18100 24.43500
C  -3.77200 35.19800 23.62800
C  -4.11000 34.81100 22.16400
C  -4.63700 33.33100 22.32700
C  -4.52600 33.08000 23.80400
C  -5.21500 35.75900 21.74500
C  -3.74500 32.33500 21.53400
C  -2.35700 32.01500 22.09600
N  -4.40500 32.44100 26.79700
C  -5.06300 31.66900 25.84100
C  -5.92300 30.73500 26.54100
C  -5.58700 30.93300 27.89800
C  -4.68600 31.96700 27.99900
C  -6.97000 29.76000 25.97800
C  -5.95500 30.45500 29.23300
O  -6.67600 29.56800 29.62000
C  -4.98300 31.31000 30.22600
C  -5.93900 31.94900 31.10300
O  -6.53500 33.02100 30.89000
O  -5.99200 31.29100 32.27600
C  -6.52000 32.02900 33.43800
H  -1.46700 37.07500 29.37200
H  -2.88900 36.95600 23.03800
H  -5.77300 31.40300 23.80100
H  -3.90900 33.96300 31.71700
H  -1.21800 34.87000 30.94000
H  -1.53300 36.47700 32.29900
H  -3.24000 35.98400 32.62600
H  -2.88900 37.20200 31.50700
H  -1.16900 32.98900 31.96900
H  -2.13000 31.70700 31.31100
H  -2.81300 31.08700 32.93700
H  -3.65200 32.63800 33.51200
H  -0.30200 38.52900 28.58900
H  -0.81000 39.79600 27.52300
H  0.77000 38.87900 27.21200
H  -0.69200 40.49800 25.14300
H  0.10100 40.34000 23.52600
H  0.88500 39.61400 24.90500
H  -3.14200 34.91900 21.67300
H  -5.67400 33.20600 22.01500
H  -4.89700 36.28200 20.84300
H  -5.46400 36.42800 22.56800
H  -6.09400 35.12500 21.62300
H  -3.63100 32.84200 20.57600
H  -4.24100 31.40400 21.25900
H  -2.03500 32.67400 22.90300
H  -1.65900 32.05100 21.26000
H  -2.32700 30.96700 22.39500
H  -7.65700 29.26400 26.66400
H  -6.38300 29.08600 25.35400
H  -7.55000 30.27300 25.21100
H  -4.25900 30.78800 30.85200
H  -6.00800 32.97700 33.59800
H  -6.45400 31.39300 34.32100
H  -7.58000 32.16600 33.22300

