158

Mg 46.91300 24.53100 28.42600
C  47.48900 26.82900 31.15800
C  46.12400 22.16800 30.68500
C  46.57100 22.38600 25.78800
C  48.76400 26.68900 26.40900
N  46.91800 24.55100 30.66600
C  46.96300 25.57000 31.54300
C  46.50500 25.18400 32.98800
C  46.32100 23.63800 32.78400
C  46.55500 23.38100 31.29900
C  47.17600 22.80600 33.84500
C  45.26400 26.05900 33.48900
C  45.44900 26.69800 34.88900
H  46.19600 25.93600 35.99300
N  46.31100 22.65600 28.26400
C  46.01000 21.85800 29.30900
C  45.66600 20.52900 28.77700
C  45.65300 20.54500 27.37400
C  46.19900 21.89500 27.03900
C  45.43500 19.29900 29.67400
C  45.20400 19.56200 26.36600
O  45.31700 19.68300 25.12500
C  44.54400 18.39700 26.81300
N  47.61500 24.50800 26.39900
C  47.31400 23.55300 25.48100
C  47.80500 23.87400 24.03300
C  48.57500 25.18200 24.35500
C  48.26600 25.55000 25.83100
C  48.72000 22.74800 23.51000
C  48.24900 26.26100 23.27600
C  46.86100 26.92300 23.30200
N  47.97700 26.28500 28.65900
C  48.66500 27.09800 27.74900
C  49.13100 28.32500 28.32000
C  48.53800 28.26200 29.59600
C  47.95200 27.03100 29.82400
C  49.92500 29.48400 27.68300
C  48.37500 29.02200 30.77100
O  48.77100 30.23900 30.89100
C  47.70800 28.12700 31.89000
C  48.65400 27.92500 33.02100
O  49.65600 27.27100 33.02400
O  48.17000 28.72800 34.05100
C  49.00300 28.75000 35.27000
H  45.68800 21.47400 31.40600
H  46.36900 21.66900 24.98900
H  49.37300 27.29900 25.73800
H  47.40200 25.27800 33.60000
H  45.28700 23.33600 32.95400
H  48.10900 22.40500 33.44800
H  46.56500 22.01900 34.28700
H  47.36700 23.40300 34.73700
H  44.35200 25.46600 33.55500
H  45.11600 26.86500 32.77000
H  44.42800 26.80400 35.25500
H  45.83900 27.71500 34.87300
H  44.42400 18.93300 29.49700
H  45.56600 19.40700 30.75000
H  46.06800 18.50800 29.27200
H  43.77300 18.65200 27.54100
H  45.23900 17.68900 27.26400
H  43.99800 17.95100 25.98200
H  46.93900 24.15100 23.43200
H  49.65700 25.07600 24.27200
H  48.24400 22.27600 22.65100
H  48.98300 22.16800 24.39500
H  49.64800 23.15200 23.10500
H  48.51500 25.76000 22.34500
H  49.03100 27.01900 23.30400
H  46.94100 27.99900 23.45800
H  46.27200 26.45500 24.09100
H  46.28300 26.68000 22.41000
H  50.12300 29.28500 26.62900
H  50.83600 29.70700 28.23700
H  49.19900 30.29600 27.71900
H  46.81700 28.67300 32.20300
H  48.48700 28.52100 36.20200
H  49.37100 29.76400 35.42600
H  49.89400 28.12200 35.25100
Mg -3.42700 34.65100 25.99500
C  -4.94400 32.71200 28.64400
C  -2.08900 36.64800 28.50100
C  -2.33400 36.73300 23.65500
C  -5.18700 32.70400 23.74200
N  -3.62400 34.63900 28.26200
C  -4.08400 33.66500 29.13200
C  -3.68300 33.98600 30.65700
C  -2.79100 35.30000 30.46300
C  -2.81400 35.53400 28.96600
C  -3.26600 36.52400 31.31300
C  -3.04300 32.81000 31.44600
C  -3.70200 32.40000 32.80200
H  -2.84200 32.47200 33.98700
N  -2.23300 36.32000 26.09200
C  -1.73500 36.97600 27.20800
C  -0.81700 38.07900 26.76100
C  -0.81900 37.99700 25.30600
C  -1.84700 37.01400 24.93300
C  -0.05000 38.94700 27.73200
C  0.06700 38.83900 24.32300
O  0.04800 38.74800 23.10400
C  0.97600 39.91700 24.89500
N  -3.88300 34.75400 24.07900
C  -3.32300 35.78200 23.27300
C  -3.87300 35.68400 21.81900
C  -4.40500 34.19900 21.77900
C  -4.50000 33.86000 23.24500
C  -4.93000 36.82800 21.48600
C  -3.45300 33.22300 21.04100
C  -2.13200 32.83400 21.68800
N  -4.83200 33.03900 26.15300
C  -5.45200 32.34700 25.10300
C  -6.24600 31.25700 25.62100
C  -6.13200 31.33500 27.06600
C  -5.24500 32.49000 27.29500
C  -7.08400 30.31800 24.85400
C  -6.40500 30.68500 28.29700
O  -7.01000 29.66200 28.59100
C  -5.73300 31.64200 29.37700
C  -6.78900 32.14400 30.27500
O  -7.80200 32.77500 30.01800
O  -6.50400 31.74000 31.60600
C  -7.57400 31.93600 32.60300
H  -1.57200 37.21400 29.27800
H  -2.08400 37.47300 22.89200
H  -5.51800 31.95900 23.01600
H  -4.60700 34.28300 31.15400
H  -1.79300 35.05400 30.82700
H  -2.44500 37.04100 31.80900
H  -3.92700 36.16800 32.10400
H  -3.82200 37.28000 30.75900
H  -2.07200 33.14400 31.81300
H  -2.92600 31.85800 30.92800
H  -4.09500 31.39800 32.62500
H  -4.62400 32.89700 33.10300
H  -0.44900 39.96000 27.68000
H  1.02300 38.94300 27.53800
H  -0.14900 38.58400 28.75500
H  1.56500 40.33400 24.07800
H  1.73200 39.43000 25.51000
H  0.47700 40.65300 25.52500
H  -3.00600 35.89200 21.19200
H  -5.39500 34.13400 21.32800
H  -4.37400 37.61600 20.97900
H  -5.46200 37.15800 22.37800
H  -5.73300 36.47300 20.84000
H  -3.16300 33.60200 20.06200
H  -4.13900 32.39600 20.85800
H  -1.94100 31.76400 21.77400
H  -1.97800 33.29100 22.66500
H  -1.33000 33.33500 21.14600
H  -7.46300 29.71600 25.68000
H  -6.47900 29.86900 24.06600
H  -7.98000 30.70100 24.36500
H  -5.08700 30.95700 29.92700
H  -7.26900 31.51000 33.55800
H  -8.42100 31.33700 32.27000
H  -7.92400 32.96400 32.70400

