158

Mg 48.47700 34.96600 27.42000
C  46.29500 33.50400 29.74900
C  48.83900 37.68800 29.33800
C  49.89900 36.53400 24.78500
C  47.81900 32.20100 25.30300
N  47.65700 35.51300 29.30400
C  46.94200 34.68800 30.22900
C  47.09200 35.27300 31.60800
C  47.63600 36.74600 31.30400
C  48.14200 36.61300 29.90000
C  46.51000 37.80200 31.50700
C  48.10000 34.32400 32.44500
C  48.18200 34.39700 33.96900
H  47.20100 35.33400 34.68000
N  49.11800 36.90100 27.14500
C  49.20900 37.87500 28.02400
C  49.71200 39.02600 27.46000
C  50.06900 38.71100 26.12300
C  49.69700 37.32500 25.95500
C  49.83600 40.35700 28.20000
C  50.73600 39.69400 25.19400
O  50.92000 39.39200 23.99400
C  51.40200 41.04200 25.73300
N  48.88200 34.49100 25.35900
C  49.49400 35.28300 24.48700
C  49.83600 34.58700 23.15400
C  49.04500 33.21800 23.27700
C  48.58100 33.24500 24.73200
C  49.58900 35.31700 21.89400
C  49.85200 31.93100 22.89500
C  49.40400 31.05700 21.63400
N  47.39000 33.16800 27.51500
C  47.18600 32.15900 26.56800
C  46.20000 31.20000 27.01800
C  45.91000 31.58700 28.29400
C  46.56600 32.84200 28.51900
C  45.76100 29.90700 26.36500
C  45.08100 31.29600 29.44800
O  44.34200 30.40200 29.73600
C  45.21500 32.60900 30.39600
C  45.47000 32.13100 31.76600
O  46.29400 31.27300 32.16200
O  44.58300 32.65600 32.58800
C  44.51600 32.06700 33.89600
H  49.05500 38.50300 30.03200
H  50.53100 37.04600 24.05600
H  47.70800 31.34600 24.63300
H  46.09800 35.23800 32.05400
H  48.39300 36.95500 32.06000
H  45.60600 37.36100 31.92600
H  46.39000 38.48500 30.66500
H  46.88200 38.51500 32.24400
H  49.09000 34.44400 32.00600
H  47.98800 33.31400 32.05000
H  49.17600 34.72300 34.27600
H  47.92100 33.43300 34.40400
H  49.50800 41.25000 27.66700
H  50.89400 40.43700 28.44800
H  49.29000 40.44000 29.13900
H  52.19100 41.33000 25.03800
H  51.96500 40.81000 26.63700
H  50.74100 41.90000 25.85800
H  50.90400 34.37200 23.11900
H  48.14400 33.22400 22.66500
H  48.97200 34.68500 21.25600
H  50.49600 35.48100 21.31200
H  49.07500 36.26100 22.07200
H  50.04200 31.27700 23.74600
H  50.86800 32.23400 22.64200
H  49.37500 30.04100 22.03000
H  50.14200 31.16700 20.84000
H  48.43000 31.34700 21.24100
H  46.01600 29.02500 26.95200
H  46.00600 30.07800 25.31700
H  44.67300 29.84300 26.37800
H  44.22700 33.06800 30.42700
H  44.74500 31.00600 33.80300
H  43.55800 32.19100 34.40100
H  45.31000 32.57500 34.44400
Mg -2.48800 34.07700 27.29800
C  -4.14500 32.01900 29.53500
C  -0.91900 35.61400 29.87000
C  -1.10700 36.07500 25.00000
C  -4.28400 32.34600 24.69100
N  -2.59900 33.88200 29.46200
C  -3.36200 32.95600 30.17200
C  -3.15800 33.19100 31.70000
C  -2.27900 34.51800 31.86500
C  -1.82500 34.63500 30.34300
C  -2.87000 35.75000 32.46000
C  -2.45600 32.05200 32.43200
C  -3.31900 31.55700 33.63900
H  -2.54300 31.19500 34.91800
N  -1.08000 35.54700 27.41300
C  -0.52800 36.01500 28.53500
C  0.45500 36.99300 28.17200
C  0.35800 37.16200 26.77400
C  -0.68200 36.32000 26.29500
C  1.34500 37.78500 29.09700
C  1.13600 38.12500 25.81400
O  0.87800 38.20200 24.64400
C  2.34400 38.98300 26.41500
N  -2.65200 34.13700 25.11200
C  -2.08300 35.22900 24.46600
C  -2.43500 35.14700 22.96800
C  -3.11700 33.75000 22.81600
C  -3.46000 33.39400 24.29800
C  -3.14500 36.43800 22.55100
C  -2.34600 32.76000 22.02600
C  -1.40000 31.85000 22.70400
N  -3.83900 32.51300 27.05000
C  -4.39600 31.82600 25.98900
C  -5.24600 30.76200 26.49200
C  -5.07200 30.71400 27.89700
C  -4.31800 31.90300 28.16400
C  -6.14800 29.95000 25.68000
C  -5.54600 30.09100 29.15500
O  -6.28900 29.13300 29.35300
C  -4.93700 30.92500 30.31100
C  -6.01400 31.59000 31.13700
O  -6.68000 32.54100 30.81000
O  -6.16500 30.96900 32.33800
C  -7.27700 31.51700 33.11400
H  -0.31300 35.94100 30.71800
H  -0.79200 36.65200 24.12800
H  -4.83100 31.88800 23.86500
H  -4.19700 33.33500 31.99600
H  -1.45500 34.36400 32.56200
H  -3.87900 35.86400 32.06300
H  -2.22000 36.59000 32.21400
H  -2.98200 35.48400 33.51100
H  -1.41100 32.31200 32.60400
H  -2.40800 31.26000 31.68500
H  -3.66700 30.53800 33.47300
H  -4.16800 32.17600 33.92700
H  2.36000 37.44700 28.88900
H  1.09000 37.51000 30.12000
H  1.42900 38.87100 29.09000
H  2.06200 39.73500 27.15200
H  2.82000 39.44900 25.55200
H  3.03700 38.23000 26.79200
H  -1.44800 35.07800 22.51000
H  -4.09600 33.89700 22.36100
H  -2.79600 37.23300 23.21000
H  -4.18300 36.36800 22.22400
H  -2.71900 36.77300 21.60600
H  -1.89300 33.29500 21.19100
H  -3.12400 32.17300 21.53800
H  -1.63000 30.85100 22.33500
H  -1.65700 31.78300 23.76100
H  -0.36900 32.12700 22.48400
H  -5.89500 28.91400 25.45600
H  -6.37200 30.37800 24.70300
H  -7.08300 29.97800 26.23900
H  -4.29700 30.29700 30.93100
H  -7.79800 30.56600 33.22800
H  -7.94800 32.31000 32.78400
H  -6.76500 31.79800 34.03400

