158

Mg 25.26500 1.31100 29.68400
C  27.26100 1.00700 32.54500
C  22.58000 1.62400 31.66200
C  23.47500 1.23200 26.80700
C  28.10600 0.11800 27.84100
N  24.96300 1.40400 31.88500
C  25.91500 1.27400 32.84600
C  25.25800 1.33000 34.30700
C  23.71900 1.28100 33.98600
C  23.72700 1.46600 32.43800
C  23.02500 -0.08100 34.38000
C  25.81600 2.51000 35.17000
C  26.62600 2.18300 36.42900
H  26.45800 3.18400 37.54800
N  23.28200 1.55300 29.30100
C  22.29900 1.71700 30.28200
C  21.01500 1.90600 29.59300
C  21.28500 1.68600 28.15600
C  22.74200 1.54000 28.06500
C  19.69000 1.99100 30.36300
C  20.32300 1.65500 26.93900
O  20.62700 1.40900 25.77500
C  18.89100 1.88400 27.29100
N  25.70900 0.61200 27.69000
C  24.80100 0.86400 26.69900
C  25.45700 0.91800 25.29400
C  26.90100 0.69200 25.60200
C  26.98900 0.49900 27.16300
C  24.97400 -0.19200 24.35600
C  27.85800 1.77300 25.09300
C  27.92100 3.01000 25.93900
N  27.28400 0.68000 30.10100
C  28.27000 0.13900 29.27000
C  29.48300 -0.03600 30.07600
C  29.13900 0.37100 31.36900
C  27.82300 0.71300 31.29300
C  30.75700 -0.61400 29.53700
C  29.66600 0.57900 32.70700
O  30.78200 0.37400 33.19100
C  28.41400 0.94600 33.54100
C  28.26000 -0.11100 34.60300
O  27.64400 -1.14100 34.46300
O  29.00500 0.14600 35.73100
C  28.72100 -0.70600 36.88000
H  21.65500 1.61300 32.24300
H  22.93000 1.29200 25.86300
H  29.01600 -0.14700 27.29800
H  25.38800 0.35800 34.78200
H  23.16000 2.13800 34.36200
H  23.67900 -0.47100 35.16000
H  22.94100 -0.77600 33.54400
H  22.07700 0.17400 34.85400
H  24.90800 2.97500 35.55500
H  26.38000 3.31200 34.69500
H  27.67900 2.19000 36.14800
H  26.34300 1.19300 36.78500
H  19.27200 2.96000 30.08900
H  19.69900 1.73600 31.42300
H  18.98400 1.24400 30.00100
H  18.53900 0.98500 27.79900
H  18.25600 2.02700 26.41700
H  18.87500 2.79900 27.88200
H  25.31900 1.93200 24.91800
H  27.29800 -0.24800 25.21800
H  24.09800 0.26800 23.89900
H  24.73900 -1.17900 24.75300
H  25.67100 -0.41200 23.54800
H  27.52400 2.14100 24.12300
H  28.85000 1.32200 25.07500
H  27.27100 3.00400 26.81400
H  27.51700 3.84000 25.36100
H  28.92900 3.30000 26.23700
H  31.37800 0.24500 29.28200
H  30.63100 -1.26900 28.67500
H  31.14400 -1.29800 30.29200
H  28.81700 1.84800 34.00200
H  28.91100 -1.76600 36.71100
H  27.72100 -0.68600 37.31400
H  29.31700 -0.36100 37.72500
Mg 5.66700 54.50300 40.93300
C  4.94000 51.04300 40.80000
C  9.05900 53.76600 40.72500
C  6.20900 57.76900 40.68500
C  2.15300 55.12000 41.19200
N  6.80000 52.69400 40.61800
C  6.35400 51.37200 40.69400
C  7.54500 50.40400 40.81400
C  8.68500 51.39400 41.28600
C  8.17400 52.71100 40.82600
C  9.15200 51.31100 42.77100
C  7.82800 49.74700 39.38300
C  7.73600 50.69100 38.16000
H  6.65000 50.29700 37.12600
N  7.41800 55.65800 40.59100
C  8.69000 55.14800 40.50100
C  9.55300 56.29300 40.38800
C  8.81300 57.54100 40.34500
C  7.40900 57.01900 40.56700
C  11.09800 56.15400 40.33100
C  9.30700 58.92600 40.13300
O  10.52500 59.02800 40.13900
C  8.39500 60.14800 39.97700
N  4.36000 56.25800 41.01400
C  4.80400 57.49700 40.87800
C  3.59800 58.55300 41.02400
C  2.34900 57.63100 41.18900
C  2.97300 56.26400 41.06500
C  3.84100 59.48700 42.23100
C  1.14600 57.91800 40.18000
C  -0.31000 58.07900 40.75200
N  3.85100 53.44900 40.81500
C  2.53500 53.76200 41.11500
C  1.69900 52.54800 41.24300
C  2.62000 51.52200 41.23800
C  3.90200 52.08300 40.92800
C  0.21900 52.46200 41.43400
C  2.78000 50.12000 41.44800
O  1.92700 49.31400 41.85100
C  4.24300 49.75700 41.06100
C  4.13400 48.84500 39.86100
O  3.45700 48.95100 38.84600
O  4.88000 47.68800 40.11400
C  5.00700 46.54500 39.17400
H  10.14200 53.64000 40.78700
H  6.42800 58.83000 40.82700
H  1.08700 55.34500 41.26500
H  7.34500 49.63200 41.55700
H  9.54100 50.97900 40.75400
H  10.16100 50.90900 42.68000
H  8.46900 50.93600 43.53400
H  9.29400 52.36000 43.03200
H  7.12300 48.92800 39.24400
H  8.84500 49.35500 39.34700
H  8.75700 50.57700 37.79600
H  7.66700 51.76500 38.33100
H  11.49500 56.43900 39.35700
H  11.52200 55.15600 40.22200
H  11.60800 56.64300 41.16000
H  9.04100 60.94600 39.61200
H  8.09700 60.53400 40.95200
H  7.55200 59.95800 39.31300
H  3.37500 59.18600 40.16600
H  1.90400 57.73300 42.17800
H  4.90900 59.40800 42.43300
H  3.22600 59.31600 43.11500
H  3.61800 60.50400 41.90700
H  1.13800 57.18200 39.37700
H  1.43900 58.79800 39.60900
H  -0.99200 57.34400 40.32400
H  -0.69800 59.09300 40.65600
H  -0.26800 57.85900 41.81800
H  0.02900 51.38900 41.41700
H  -0.25700 52.87200 40.54400
H  -0.10300 52.82400 42.41100
H  4.67400 49.12800 41.84000
H  4.10400 45.94500 39.05600
H  5.61000 45.85300 39.76300
H  5.64800 46.58800 38.29400

