158

Mg 25.98300 0.98900 29.39800
C  27.94400 0.45900 32.30100
C  23.24700 1.51600 31.48100
C  23.98600 1.27900 26.63500
C  28.62200 0.05800 27.50800
N  25.61200 0.93200 31.60900
C  26.60000 0.74100 32.57600
C  25.96800 0.88600 33.94500
C  24.43300 1.01600 33.69700
C  24.38700 1.14500 32.20200
C  23.59400 -0.16500 34.20900
C  26.63400 2.03400 34.73000
C  27.30000 1.59300 36.03300
H  26.93600 2.28500 37.39200
N  23.94300 1.44100 29.06700
C  22.99000 1.64100 30.11700
C  21.73600 1.85100 29.48600
C  21.92400 1.67600 28.09400
C  23.30700 1.45100 27.87400
C  20.37300 1.86100 30.24800
C  20.88500 1.59600 26.99900
O  21.09600 1.28100 25.83900
C  19.49200 2.02900 27.25500
N  26.31300 0.68200 27.34200
C  25.35600 0.97900 26.38500
C  25.91100 0.58200 24.97600
C  27.44700 0.35400 25.22500
C  27.48400 0.31300 26.77500
C  25.11400 -0.54700 24.22500
C  28.33900 1.46900 24.58700
C  28.91700 2.56900 25.50900
N  27.98800 0.48100 29.76300
C  28.91700 0.10300 28.88600
C  30.06400 -0.37200 29.64300
C  29.80500 -0.14500 30.96600
C  28.49900 0.27000 30.99500
C  31.35300 -0.99500 29.13900
C  30.28100 -0.27800 32.31100
O  31.34500 -0.67000 32.71700
C  29.06700 0.12700 33.24700
C  28.72100 -0.96300 34.08400
O  27.99000 -1.87700 33.77400
O  29.48100 -0.96400 35.22400
C  29.18900 -2.05300 36.21600
H  22.36600 1.71900 32.09400
H  23.47500 1.69900 25.76600
H  29.46400 -0.15600 26.84600
H  26.15200 -0.05000 34.47100
H  24.02600 1.93600 34.11700
H  24.14900 -0.97300 34.68600
H  23.00500 -0.59600 33.39900
H  22.84800 0.23500 34.89500
H  25.97300 2.78000 35.17100
H  27.30900 2.58600 34.07500
H  28.33900 1.89900 35.90800
H  27.21100 0.50700 36.03100
H  19.79800 1.02400 29.85200
H  19.96700 2.84200 30.00100
H  20.39100 1.74500 31.33200
H  19.09500 1.19900 27.84000
H  19.02400 2.12900 26.27500
H  19.55300 3.02200 27.70000
H  25.79900 1.49400 24.39000
H  27.85300 -0.52600 24.72700
H  25.92200 -1.18300 23.86500
H  24.54200 -0.19300 23.36700
H  24.58900 -1.10300 25.00200
H  27.69700 1.99100 23.87800
H  29.10700 1.04500 23.93900
H  28.40900 2.70700 26.46400
H  28.71100 3.52100 25.02000
H  29.96500 2.27300 25.55500
H  31.99200 -1.23900 29.98800
H  31.98900 -0.30700 28.58300
H  31.25400 -1.98500 28.69400
H  29.33500 1.02400 33.80500
H  29.00600 -3.00800 35.72300
H  28.35600 -1.71400 36.83100
H  30.16300 -2.14700 36.69500
Mg 47.30300 34.57600 26.54800
C  45.89900 33.13100 29.45200
C  47.58300 37.49400 28.14400
C  48.33700 35.71200 23.70300
C  46.57600 31.42800 25.00900
N  46.99400 35.12100 28.65200
C  46.43800 34.43200 29.65100
C  46.26200 35.26500 30.96000
C  46.67200 36.71700 30.45700
C  47.09600 36.47900 29.01100
C  45.49600 37.77200 30.70500
C  47.22900 34.75600 32.05800
C  46.75000 34.64000 33.59900
H  45.76500 35.70000 34.10500
N  47.78500 36.42200 26.02700
C  47.89000 37.47800 26.78100
C  48.50100 38.58100 25.95900
C  48.84600 37.98000 24.71400
C  48.35100 36.68300 24.79400
C  48.74100 40.07100 26.46900
C  49.53100 38.57600 23.53600
O  49.91200 37.93600 22.55000
C  49.89600 40.08400 23.64900
N  47.40100 33.69400 24.61900
C  47.89200 34.40300 23.57000
C  47.97700 33.61900 22.29100
C  47.74900 32.15600 22.78000
C  47.22400 32.40200 24.19200
C  46.90700 34.25400 21.32400
C  48.86000 31.21500 22.60600
C  50.05100 31.57100 23.47300
N  46.45700 32.60000 27.04400
C  46.26800 31.50800 26.32800
C  45.66700 30.44300 27.15200
C  45.35900 31.12100 28.33700
C  45.86200 32.43000 28.22600
C  45.18000 29.05300 26.73600
C  44.55300 31.07000 29.52400
O  43.79600 30.21800 30.01900
C  44.83200 32.37100 30.28100
C  45.03800 32.15600 31.72200
O  45.84000 31.51300 32.24500
O  43.85300 32.57000 32.35900
C  43.74600 32.31100 33.78100
H  47.75000 38.47000 28.60600
H  48.68900 36.10600 22.74700
H  46.33100 30.42600 24.65000
H  45.21600 35.26000 31.26500
H  47.58500 37.03200 30.96300
H  44.59300 37.28000 31.06500
H  45.35600 38.38700 29.81600
H  45.88200 38.41800 31.49400
H  48.18000 35.28900 32.06300
H  47.53900 33.73100 31.85600
H  47.68000 34.78700 34.14900
H  46.45400 33.62700 33.87000
H  48.21200 40.71300 25.76400
H  49.82700 40.16400 26.46100
H  48.31600 40.17300 27.46800
H  50.39500 40.34300 22.71500
H  50.63600 40.11700 24.44900
H  49.04700 40.76100 23.74100
H  48.94300 33.85600 21.84600
H  47.00600 31.66700 22.15000
H  47.36500 34.97900 20.65100
H  45.99100 34.65000 21.76100
H  46.63700 33.44300 20.64700
H  49.08500 31.36700 21.55000
H  48.49000 30.19800 22.73600
H  49.93600 32.56900 23.89500
H  50.93300 31.62700 22.83500
H  50.33100 30.80800 24.20000
H  46.06700 28.54800 26.35300
H  44.37200 29.26900 26.03700
H  44.75500 28.45300 27.54200
H  43.90900 32.94400 30.18400
H  44.24600 31.37900 34.04100
H  42.71300 32.17600 34.09900
H  44.19200 33.08900 34.40100

