158

Mg 24.08800 -4.74900 45.35000
C  26.43800 -2.52000 43.89300
C  21.73500 -3.35400 43.31300
C  22.23300 -7.51200 45.85900
C  26.86600 -6.36700 46.84000
N  24.11300 -3.04000 43.80900
C  25.13500 -2.21800 43.47400
C  24.65200 -1.12100 42.52300
C  23.08400 -1.24200 42.72100
C  22.93000 -2.64400 43.30800
C  22.51100 -0.24000 43.76700
C  25.16200 -1.35600 41.11300
C  25.52000 -0.09900 40.24300
H  25.02700 -0.15200 38.79600
N  22.15600 -5.32300 44.77700
C  21.34600 -4.55100 43.90300
C  20.18800 -5.31900 43.68400
C  20.14600 -6.45700 44.53400
C  21.55100 -6.50400 45.12400
C  19.04600 -4.95000 42.68200
C  18.98000 -7.38500 44.64400
O  17.98700 -7.25500 43.93000
C  19.02800 -8.44000 45.69500
N  24.45100 -6.62000 46.36600
C  23.51300 -7.61800 46.49400
C  24.07100 -8.91500 47.08600
C  25.57200 -8.49300 47.37800
C  25.65500 -7.03200 46.86000
C  23.35400 -9.53500 48.32900
C  26.57900 -9.42200 46.75800
C  26.24700 -10.97800 46.89300
N  26.18100 -4.41000 45.57900
C  27.11800 -5.13000 46.26100
C  28.45500 -4.62100 46.03200
C  28.28100 -3.56900 45.10400
C  26.84800 -3.50100 44.84200
C  29.75400 -5.08200 46.67600
C  28.91800 -2.57100 44.30000
O  30.09900 -2.19800 44.29500
C  27.75500 -1.87400 43.45400
C  27.83100 -0.41700 43.96400
O  27.21600 0.02900 44.91700
O  28.77400 0.24200 43.20600
C  29.17000 1.51800 43.77000
H  20.95000 -3.06800 42.61000
H  21.62500 -8.38900 46.09000
H  27.75900 -6.87000 47.21800
H  25.09700 -0.19200 42.87800
H  22.47500 -1.28700 41.81800
H  23.31600 0.30500 44.25900
H  21.92500 -0.70800 44.55800
H  21.90000 0.54400 43.31900
H  24.35200 -1.88000 40.60600
H  26.00300 -2.04200 41.21900
H  26.60700 -0.02400 40.20900
H  24.99800 0.76600 40.65200
H  18.04700 -5.02300 43.11200
H  19.18500 -5.41800 41.70700
H  18.94800 -3.86600 42.62600
H  19.66900 -8.10100 46.51000
H  19.52500 -9.27800 45.20600
H  18.08300 -8.90100 45.98500
H  24.18200 -9.58300 46.23200
H  25.89500 -8.37200 48.41100
H  22.54600 -8.98600 48.81200
H  24.04900 -9.93200 49.06900
H  22.82200 -10.43600 48.02200
H  27.47000 -9.23600 47.35700
H  26.70000 -9.12300 45.71700
H  25.69600 -11.11400 47.82400
H  27.09200 -11.66600 46.89500
H  25.55700 -11.17900 46.07300
H  30.44300 -4.23800 46.70700
H  30.20600 -5.76200 45.95400
H  29.64100 -5.62600 47.61400
H  27.97300 -1.78100 42.39000
H  29.92200 1.94700 43.10900
H  29.60300 1.33900 44.75400
H  28.34200 2.21900 43.88100
Mg 27.74000 56.65800 40.61400
C  25.88000 53.77100 39.58300
C  30.50900 55.14200 38.98600
C  29.50200 59.53100 40.81200
C  24.83200 58.26500 41.33700
N  28.15800 54.68000 39.35700
C  27.22600 53.69200 39.16000
C  27.83700 52.53300 38.33400
C  29.37500 52.96000 38.30200
C  29.32300 54.33800 38.99700
C  30.40300 51.89400 38.90100
C  27.06600 52.24300 36.98700
C  27.06800 53.39800 36.05300
H  27.33700 53.12200 34.53600
N  29.77400 57.21000 40.25200
C  30.65800 56.43300 39.52800
C  31.90700 57.19800 39.55400
C  31.67900 58.42400 40.13000
C  30.27800 58.48400 40.36900
C  33.20300 56.76800 38.83600
C  32.71700 59.55900 40.26700
O  33.89300 59.37500 39.99300
C  32.39600 60.83600 40.97500
N  27.31400 58.58000 41.03700
C  28.16500 59.61100 41.05600
C  27.47800 60.88100 41.48300
C  25.95000 60.53600 41.41200
C  26.01200 59.05600 41.25800
C  28.06000 61.52300 42.81100
C  25.25800 61.16400 40.19300
C  25.63100 60.50500 38.89700
N  25.77000 56.24100 40.52400
C  24.69000 56.94200 40.85500
C  23.49100 56.08300 40.72800
C  23.99100 54.87100 40.34500
C  25.34400 54.97700 40.16500
C  21.99200 56.37900 40.95100
C  23.50700 53.51300 40.09800
O  22.35500 52.96700 40.17900
C  24.66500 52.80200 39.44200
C  24.83800 51.53000 40.26200
O  24.11800 50.49900 40.12000
O  25.73300 51.69400 41.26100
C  26.01500 50.56200 42.13700
H  31.39700 54.76800 38.47300
H  29.97900 60.50700 40.92000
H  23.96300 58.89200 41.54600
H  27.81700 51.63200 38.94600
H  29.67800 53.01900 37.25700
H  30.92100 51.35500 38.10800
H  29.80100 51.14700 39.41800
H  31.03300 52.28200 39.70100
H  26.09500 51.77400 37.14600
H  27.78300 51.57600 36.51000
H  27.83600 54.12800 36.30900
H  26.06400 53.82000 36.07500
H  33.27300 55.68000 38.81700
H  34.16600 57.02400 39.27800
H  33.23600 57.12100 37.80500
H  31.89800 60.41500 41.84900
H  31.83300 61.55300 40.37800
H  33.29400 61.30600 41.37600
H  27.72100 61.60500 40.70500
H  25.52000 60.91200 42.34100
H  28.36900 62.52500 42.51400
H  28.88400 61.03800 43.33300
H  27.35000 61.55700 43.63800
H  25.48300 62.22900 40.25000
H  24.18900 60.97300 40.28400
H  24.77000 60.09200 38.37200
H  26.38800 59.72200 38.88600
H  26.02100 61.30600 38.26900
H  21.56500 56.84400 40.06200
H  21.88900 57.12100 41.74300
H  21.37900 55.54400 41.28900
H  24.47500 52.47100 38.42100
H  25.13900 50.09100 42.58500
H  26.83700 50.93300 42.74900
H  26.56100 49.84300 41.52700

