158

Mg 47.62200 16.47000 28.73600
C  45.88300 15.74800 31.73000
C  49.91900 18.21600 30.57900
C  49.31700 16.98700 25.96500
C  44.98400 14.79200 27.00500
N  47.80700 16.92500 30.86600
C  47.04100 16.50600 31.89500
C  47.67800 16.83400 33.23300
C  48.63800 18.09700 32.81400
C  48.80500 17.71500 31.29300
C  47.86400 19.48200 33.01800
C  48.36000 15.64500 33.96400
C  48.28000 15.74200 35.51900
H  47.90300 17.16700 36.20900
N  49.43500 17.25800 28.36200
C  50.28900 17.96800 29.20900
C  51.52000 18.32600 28.47400
C  51.23100 18.10800 27.15900
C  49.93500 17.46000 27.12600
C  52.81800 18.97700 29.18500
C  52.12600 18.53700 25.95900
O  51.89600 18.31100 24.79100
C  53.39700 19.37200 26.14800
N  47.08100 16.13900 26.74600
C  48.01200 16.40400 25.77200
C  47.54600 15.82800 24.46800
C  46.34200 14.96000 24.76900
C  46.10900 15.26700 26.26800
C  47.28000 16.96800 23.38500
C  46.55700 13.55700 24.35400
C  45.32500 12.69400 24.19800
N  45.71300 15.52300 29.24600
C  44.81300 14.85900 28.47000
C  43.77100 14.25700 29.26600
C  44.19600 14.54900 30.58200
C  45.31100 15.32400 30.50200
C  42.53100 13.69200 28.82900
C  43.90500 14.34600 31.97400
O  43.14100 13.63100 32.54100
C  44.94300 15.19100 32.75500
C  44.22300 16.33500 33.47600
O  44.13300 17.48900 33.14300
O  43.80600 15.85900 34.67400
C  43.29400 16.81400 35.66400
H  50.66500 18.70700 31.20700
H  49.70100 17.17600 24.96000
H  44.35400 14.17200 26.36300
H  46.84400 17.07000 33.89300
H  49.60600 18.18000 33.30800
H  47.91900 19.95600 33.99800
H  46.81800 19.25400 32.81300
H  48.14900 20.22900 32.27700
H  49.41800 15.64500 33.70300
H  47.81800 14.75200 33.65400
H  49.27400 15.48800 35.88600
H  47.69800 14.90000 35.89400
H  53.68500 18.31900 29.12200
H  52.57200 18.88800 30.24300
H  52.93800 20.03400 28.94500
H  53.24900 20.27300 26.74400
H  53.77300 19.74300 25.19500
H  54.17900 18.79900 26.64600
H  48.31800 15.23100 23.98200
H  45.52000 15.32900 24.15400
H  47.55800 17.99400 23.62600
H  46.22800 16.99900 23.10100
H  47.84400 16.76400 22.47500
H  47.16800 13.05800 25.10600
H  47.18400 13.42900 23.47200
H  45.46800 11.82000 24.83300
H  45.23700 12.48800 23.13100
H  44.40100 13.15600 24.54500
H  42.71200 12.64200 28.60100
H  42.15400 14.24000 27.96500
H  41.78900 13.88200 29.60400
H  45.42300 14.48500 33.43300
H  42.25600 16.61200 35.93000
H  43.42200 17.87600 35.45400
H  43.82500 16.68600 36.60700
Mg 26.16800 50.32700 26.94600
C  24.04600 51.78900 29.56200
C  28.08500 49.14100 29.46800
C  28.26800 49.26300 24.68900
C  24.50200 52.25300 24.65100
N  25.99200 50.32200 29.26500
C  25.00000 50.91900 30.03500
C  25.19100 50.50900 31.48900
C  26.64400 50.03100 31.51200
C  27.03000 49.88700 29.98000
C  27.66500 51.01900 32.17500
C  24.04900 49.52300 31.98800
C  23.62500 49.62200 33.53100
H  24.44200 50.25200 34.67400
N  27.95500 49.30000 27.01200
C  28.57000 48.90700 28.17200
C  29.76400 48.15500 27.78100
C  29.88900 48.16200 26.38700
C  28.69100 48.86700 25.96200
C  30.60900 47.45000 28.77400
C  30.91100 47.62500 25.45400
O  30.71000 47.63900 24.19400
C  32.19900 47.03700 26.02600
N  26.34400 50.70200 25.00200
C  27.22200 50.03400 24.21600
C  26.96300 50.17200 22.71500
C  25.69200 51.02200 22.74100
C  25.51500 51.39300 24.21900
C  27.99600 50.57500 21.66300
C  24.46600 50.44500 22.08100
C  23.41500 51.40700 21.37000
N  24.56500 51.68000 27.02200
C  23.97500 52.47500 25.98300
C  22.82400 53.18200 26.44600
C  22.90500 53.00700 27.86700
C  23.96100 52.08700 28.20100
C  21.93300 53.98100 25.59700
C  22.19200 53.35200 29.12800
O  21.17200 53.98400 29.28300
C  23.01800 52.63600 30.29100
C  23.71100 53.59100 31.28400
O  24.65300 54.32500 30.99600
O  23.00100 53.68400 32.48300
C  23.65400 54.45700 33.48700
H  28.65900 48.71400 30.29300
H  28.77600 48.84200 23.81900
H  23.88000 52.65900 23.85000
H  25.17900 51.46300 32.01600
H  26.67900 49.03400 31.95100
H  27.10400 51.52800 32.95900
H  28.05800 51.82500 31.55600
H  28.42400 50.45700 32.71900
H  24.26200 48.45700 31.91500
H  23.15500 49.66300 31.38100
H  23.21500 48.63500 33.74900
H  22.83100 50.36400 33.44700
H  31.62600 47.81000 28.62200
H  30.59000 46.37900 28.57100
H  30.29000 47.59100 29.80700
H  32.69100 47.77200 26.66300
H  32.76800 46.59300 25.21000
H  31.81900 46.26400 26.69400
H  26.65300 49.14600 22.51600
H  25.74200 51.99900 22.26000
H  27.79700 51.56700 21.25800
H  27.79900 49.83400 20.88900
H  29.02100 50.49900 22.02700
H  23.90500 49.80400 22.76100
H  24.74300 49.69800 21.33700
H  23.28800 51.11700 20.32700
H  23.80700 52.42400 21.36700
H  22.45500 51.31300 21.87700
H  22.02200 53.77900 24.53000
H  22.01800 55.01600 25.92800
H  20.93600 53.69700 25.93300
H  22.35100 51.91300 30.75900
H  23.95100 55.43400 33.10500
H  24.62900 53.98400 33.61000
H  23.02100 54.48700 34.37400

