158

Mg 1.74700 -1.78400 43.42700
C  5.21300 -0.90000 42.99000
C  1.07400 1.12300 41.39500
C  -1.29400 -2.99300 42.72300
C  2.81900 -4.92800 44.61700
N  2.99000 -0.06900 42.39300
C  4.40000 0.04200 42.40800
C  4.81700 1.32500 41.64400
C  3.48800 1.91900 41.12300
C  2.42600 0.96600 41.71700
C  3.27600 3.37200 41.67900
C  5.89300 1.33700 40.58500
C  6.00300 0.14700 39.56000
H  5.46800 0.48400 38.12300
N  0.03600 -0.85600 42.53100
C  -0.04400 0.32700 41.79000
C  -1.40700 0.53800 41.41200
C  -2.16300 -0.66400 41.85800
C  -1.14400 -1.58900 42.41800
C  -1.87800 1.77700 40.62800
C  -3.75200 -0.82700 41.64600
O  -4.37200 0.09600 41.05600
C  -4.49400 -1.97000 42.17200
N  0.93000 -3.73400 43.50200
C  -0.40900 -3.90800 43.28700
C  -0.92600 -5.32600 43.81900
C  0.38400 -5.86100 44.48700
C  1.46800 -4.79500 44.15300
C  -2.18600 -5.21200 44.78800
C  0.67700 -7.25500 43.77700
C  0.07300 -8.45700 44.54900
N  3.67100 -2.83600 43.83000
C  3.87300 -4.02000 44.41400
C  5.32400 -4.17900 44.69800
C  5.89300 -2.93300 44.14400
C  4.81700 -2.17400 43.59700
C  5.87100 -5.43000 45.25500
C  7.07900 -2.18900 43.85200
O  8.29800 -2.47400 43.97100
C  6.68200 -0.84500 43.19900
C  7.10300 0.26900 44.08200
O  8.21500 0.82100 43.98300
O  6.16200 0.64000 45.05400
C  6.49200 1.79900 45.81300
H  0.82800 1.91400 40.68400
H  -2.25500 -3.46800 42.51700
H  3.11200 -5.93900 44.90700
H  5.30200 1.85400 42.46400
H  3.25300 1.84500 40.06100
H  3.96400 3.63100 42.48400
H  2.31100 3.35400 42.18600
H  3.26300 4.11100 40.87900
H  6.89000 1.24300 41.01600
H  5.93300 2.29400 40.06600
H  5.47200 -0.67900 40.03300
H  7.02900 -0.21400 39.50000
H  -2.42200 1.59100 39.70200
H  -1.12200 2.52600 40.39200
H  -2.57700 2.29300 41.28700
H  -5.52900 -1.63700 42.25000
H  -4.10600 -2.18000 43.16900
H  -4.30300 -2.79100 41.48100
H  -1.29500 -5.85900 42.94300
H  0.27100 -5.93200 45.56900
H  -2.33300 -4.17400 45.08700
H  -2.04200 -5.85500 45.65500
H  -3.08800 -5.49200 44.24300
H  1.74000 -7.29700 43.54100
H  0.33600 -7.28500 42.74200
H  -0.29100 -9.26900 43.92000
H  -0.71700 -8.21900 45.26200
H  0.86700 -8.91400 45.13900
H  5.77300 -6.23200 44.52300
H  5.18600 -5.68600 46.06300
H  6.85700 -5.34700 45.71300
H  7.09700 -0.79400 42.19200
H  7.13400 1.53400 46.65300
H  5.56500 2.16300 46.25600
H  6.96500 2.58100 45.22000
Mg 8.13500 3.03300 28.46000
C  9.44300 1.36500 31.29800
C  5.92500 4.57600 30.19500
C  6.65200 3.97400 25.48500
C  10.06500 0.60100 26.53500
N  7.73000 2.83900 30.44800
C  8.34400 2.16500 31.50900
C  7.71500 2.54200 32.86700
C  6.54300 3.52100 32.41100
C  6.71300 3.65500 30.91300
C  5.07400 3.09800 32.89500
C  8.76400 3.19300 33.88000
C  8.10900 3.70000 35.15600
H  8.67100 3.30400 36.48500
N  6.66700 4.29000 27.91900
C  5.86400 4.91400 28.84800
C  4.99200 5.81100 28.18000
C  5.22600 5.64000 26.79800
C  6.20700 4.60800 26.64300
C  4.09400 6.70600 28.91300
C  4.59200 6.35900 25.62400
O  4.83400 5.98300 24.48900
C  3.47500 7.37800 25.84700
N  8.27500 2.38900 26.31400
C  7.62800 2.97500 25.30500
C  7.98300 2.44800 23.93800
C  9.25400 1.57000 24.32400
C  9.13700 1.46600 25.86600
C  6.92700 1.67600 23.15200
C  10.67200 1.91300 23.71300
C  11.60500 2.76100 24.60700
N  9.55600 1.49600 28.79600
C  10.34500 0.67200 27.94700
C  11.23500 -0.20500 28.64000
C  10.89400 0.04100 29.98200
C  9.92500 1.09300 29.99900
C  12.16900 -1.20300 28.14600
C  11.19800 -0.28200 31.37600
O  12.05500 -1.05300 31.84600
C  10.25700 0.56600 32.28900
C  9.40900 -0.40100 33.05200
O  8.59800 -1.23800 32.64500
O  9.60300 -0.07800 34.33800
C  8.71700 -0.83200 35.21300
H  5.45900 5.24200 30.92400
H  6.16000 4.20500 24.53800
H  10.75900 0.10300 25.85400
H  7.28200 1.61800 33.25000
H  6.65300 4.50900 32.85900
H  4.75000 3.88400 33.57800
H  5.12300 2.22600 33.54700
H  4.29400 2.98600 32.14300
H  9.18400 4.08600 33.41800
H  9.58700 2.49900 34.05600
H  7.06400 3.39200 35.11900
H  8.22500 4.78400 35.17100
H  4.33000 7.75100 28.71200
H  4.26100 6.72600 29.99000
H  3.05800 6.40500 28.75600
H  3.43000 7.94700 24.91800
H  3.85100 8.04600 26.62100
H  2.47300 6.95400 25.92400
H  8.32800 3.28400 23.33000
H  9.13900 0.54800 23.96400
H  5.98600 1.83100 23.67900
H  7.11300 0.60900 23.27500
H  6.82000 2.21500 22.21100
H  10.46400 2.53400 22.84300
H  11.16700 1.05900 23.24900
H  11.33200 3.07200 25.61500
H  11.83400 3.68700 24.07800
H  12.60600 2.33100 24.63700
H  12.68600 -0.85600 27.25200
H  11.61400 -2.12600 27.97500
H  12.83400 -1.42200 28.98200
H  10.84400 1.11000 33.02900
H  7.85600 -0.17600 35.34700
H  9.17500 -0.97500 36.19200
H  8.39400 -1.82800 34.90900

