158

Mg 50.02900 44.96300 40.86400
C  47.11600 45.72200 39.06000
C  49.89900 41.76300 39.56100
C  53.41800 44.72800 41.50300
C  50.25200 48.29900 41.77500
N  48.61000 43.86100 39.51400
C  47.52500 44.42300 38.85100
C  46.74900 43.34100 38.08800
C  47.55900 42.02800 38.48700
C  48.79400 42.54100 39.18100
C  46.71000 40.99100 39.36300
C  46.76300 43.63500 36.51000
C  45.35200 43.56800 35.86400
H  45.05800 44.41600 34.59900
N  51.38700 43.39100 40.71400
C  51.11200 42.15300 40.08800
C  52.33900 41.35800 40.11400
C  53.33600 42.15200 40.84600
C  52.73600 43.49700 41.01200
C  52.47200 39.95200 39.54600
C  54.79700 41.70600 41.24000
O  55.17800 40.55400 40.91600
C  55.73500 42.51200 41.99700
N  51.52900 46.26100 41.68700
C  52.80700 45.94400 41.78900
C  53.68400 47.05100 42.26200
C  52.64300 48.21900 42.52300
C  51.35200 47.53500 42.00100
C  54.86000 46.76500 43.32800
C  53.02000 49.61000 42.01500
C  53.21000 50.63300 43.22000
N  48.81700 46.67900 40.75500
C  49.04300 47.98400 41.09700
C  48.04200 48.83900 40.62100
C  47.20900 48.03700 39.86800
C  47.70500 46.72800 39.91500
C  47.92300 50.31200 41.01500
C  46.04100 48.04500 38.99500
O  45.22300 48.89800 38.58800
C  45.93000 46.55200 38.49400
C  44.67100 45.99600 39.06000
O  43.66800 45.70600 38.36400
O  44.64100 45.98200 40.40100
C  43.33700 46.19500 41.15300
H  49.83900 40.72000 39.24300
H  54.48400 44.65700 41.73300
H  50.17200 49.35900 42.02500
H  45.73200 43.30800 38.47900
H  48.00300 41.51100 37.63600
H  46.88700 39.95400 39.07800
H  45.64300 41.17200 39.23400
H  47.00200 41.13900 40.40200
H  47.40600 42.86600 36.08300
H  47.23900 44.56800 36.20900
H  44.59600 43.84100 36.60100
H  45.15900 42.51800 35.64500
H  53.16200 39.89100 38.70400
H  51.51100 39.74800 39.07300
H  52.70000 39.16900 40.27000
H  55.22200 42.99500 42.82900
H  56.16900 43.25700 41.33100
H  56.59100 41.99700 42.43200
H  54.12200 47.36300 41.31300
H  52.49800 48.25900 43.60300
H  55.78100 46.70300 42.74900
H  54.58200 45.77400 43.68800
H  54.88000 47.53500 44.09900
H  52.19200 50.02700 41.44100
H  53.87700 49.62200 41.34200
H  52.51000 51.46800 43.18300
H  54.24000 50.98500 43.27700
H  53.10200 50.07300 44.14900
H  48.81100 50.92200 40.84700
H  47.80100 50.25700 42.09700
H  47.08200 50.80400 40.52700
H  45.92800 46.51700 37.40500
H  43.45000 47.11800 41.72100
H  43.08500 45.34300 41.78400
H  42.42900 46.32300 40.56300
Mg 8.48300 48.10300 26.29300
C  6.15200 48.15700 28.96300
C  10.93800 48.66200 28.60500
C  10.71100 48.38300 23.78100
C  5.84000 47.59500 24.05300
N  8.53500 48.20600 28.58800
C  7.43800 48.16000 29.44500
C  7.94500 48.13100 30.86000
C  9.44300 48.66600 30.71500
C  9.72600 48.49000 29.21800
C  9.62800 50.10800 31.19800
C  7.84000 46.71700 31.62000
C  7.34000 46.90400 33.03200
H  8.02700 46.28800 34.31400
N  10.55700 48.45600 26.16500
C  11.39100 48.77100 27.25800
C  12.68900 49.15800 26.77100
C  12.66700 48.91700 25.38400
C  11.28200 48.53600 25.03200
C  13.77500 49.54800 27.73000
C  13.77300 48.94500 24.33700
O  13.61400 48.65800 23.12500
C  15.18700 49.18200 24.81700
N  8.33200 48.05000 24.19700
C  9.42100 48.13500 23.31200
C  9.01200 47.71800 21.86600
C  7.43400 47.48100 22.02000
C  7.17600 47.67400 23.52600
C  9.44900 48.70200 20.75500
C  6.96300 46.12300 21.46300
C  5.66900 46.12100 20.66300
N  6.46000 48.00600 26.35700
C  5.51500 47.82400 25.35000
C  4.22400 47.84000 25.89300
C  4.36900 47.96100 27.31000
C  5.78600 48.00800 27.56700
C  2.89800 47.65300 25.28100
C  3.63300 47.99500 28.62800
O  2.44700 47.85900 28.89300
C  4.80000 48.46900 29.67200
C  4.46900 47.84700 30.94500
O  4.55800 46.64900 31.18800
O  4.17600 48.69300 31.89700
C  3.77700 48.26300 33.20800
H  11.71200 48.90100 29.33800
H  11.38400 48.32700 22.92300
H  5.07600 47.20000 23.38100
H  7.48100 48.91300 31.46100
H  10.16200 48.16600 31.36400
H  8.72700 50.55500 31.61800
H  9.99500 50.76000 30.40500
H  10.37400 50.15300 31.99200
H  8.84200 46.28900 31.65600
H  7.11600 46.14400 31.04000
H  6.37400 46.40600 32.94300
H  7.27000 47.95300 33.32000
H  13.68700 48.81100 28.52800
H  13.47300 50.55900 28.00200
H  14.78400 49.49200 27.32100
H  15.42900 48.31200 25.42800
H  15.21400 50.16600 25.28400
H  15.92200 49.28100 24.01700
H  9.41100 46.72400 21.66400
H  6.86200 48.24200 21.49000
H  10.33100 49.29400 20.99900
H  8.63600 49.41300 20.60600
H  9.68400 48.21300 19.81000
H  6.69900 45.50800 22.32400
H  7.77800 45.74400 20.84700
H  5.29600 45.17000 20.28200
H  5.84300 46.79300 19.82300
H  4.86600 46.52200 21.28200
H  2.55200 48.66000 25.05000
H  2.19100 47.12700 25.92300
H  3.02400 47.23600 24.28200
H  4.83700 49.55800 29.69100
H  3.24300 49.14900 33.55000
H  4.69900 48.19700 33.78500
H  3.18600 47.35000 33.28700

