158

Mg -10.56500 40.04800 39.96900
C  -9.00800 36.94500 39.16200
C  -7.78600 41.66100 38.93700
C  -12.32100 42.97100 39.65500
C  -13.68800 38.21800 40.30200
N  -8.67000 39.39100 39.16100
C  -8.23100 38.08300 38.81600
C  -6.92200 38.11200 38.08400
C  -6.45200 39.58700 38.38100
C  -7.75200 40.27600 38.81000
C  -5.34500 39.78200 39.46600
C  -7.04000 37.71900 36.55600
C  -6.22000 36.53500 35.94100
H  -6.87700 35.93000 34.65500
N  -10.02900 42.06100 39.69600
C  -8.80400 42.53800 39.31400
C  -8.74000 44.01300 39.42600
C  -10.11000 44.40200 39.70700
C  -10.89000 43.13600 39.74800
C  -7.48200 44.85700 39.23100
C  -10.57600 45.80600 39.91800
O  -9.77900 46.73600 39.80500
C  -12.00900 46.07700 40.34100
N  -12.68900 40.56800 39.98200
C  -13.10500 41.82300 39.69900
C  -14.64500 41.98000 39.68100
C  -15.10000 40.46600 39.98900
C  -13.75100 39.63900 40.12300
C  -15.07600 43.05600 40.65600
C  -16.01500 39.75100 38.83800
C  -17.29300 38.98500 39.16700
N  -11.25700 38.08000 39.89200
C  -12.48600 37.48000 40.16400
C  -12.34000 36.00100 40.25400
C  -11.02800 35.79000 39.93200
C  -10.40600 37.03600 39.68100
C  -13.46900 35.06900 40.55100
C  -10.04000 34.80100 39.57100
O  -10.12200 33.59000 39.49200
C  -8.74900 35.49900 39.11200
C  -7.62200 35.02200 39.98200
O  -7.63000 35.03800 41.19000
O  -6.57200 34.62500 39.17500
C  -5.60300 33.81800 39.80500
H  -6.88700 42.21900 38.66700
H  -12.97400 43.83900 39.54000
H  -14.64800 37.73100 40.48700
H  -6.18200 37.53600 38.63900
H  -6.10300 40.10300 37.48700
H  -5.71800 40.18800 40.40600
H  -4.66200 40.54000 39.08100
H  -4.69900 38.95300 39.75500
H  -6.73400 38.60800 36.00300
H  -8.09500 37.60700 36.30400
H  -6.34300 35.77600 36.71400
H  -5.17900 36.84200 35.84000
H  -7.31600 45.13800 38.19100
H  -6.59000 44.31100 39.53700
H  -7.63600 45.76000 39.82200
H  -12.07100 47.11400 40.66900
H  -12.18100 45.34400 41.13000
H  -12.66500 46.01800 39.47300
H  -14.98900 42.21500 38.67400
H  -15.56600 40.38200 40.97100
H  -14.78900 44.07600 40.40000
H  -14.50500 42.90200 41.57100
H  -16.16100 43.07300 40.76400
H  -15.45600 39.06000 38.20600
H  -16.26300 40.50700 38.09300
H  -18.18700 39.35600 38.66400
H  -17.50000 39.01600 40.23700
H  -17.17700 37.95400 38.83100
H  -14.02100 35.36500 41.44300
H  -13.03600 34.09700 40.79000
H  -14.21100 35.04500 39.75400
H  -8.59600 35.11500 38.10400
H  -5.53100 33.77000 40.89200
H  -4.60900 34.20700 39.58300
H  -5.47700 32.80600 39.41900
Mg -10.86900 17.59300 41.33000
C  -7.25600 17.43100 41.87100
C  -10.48700 20.92700 40.59200
C  -14.12500 17.51800 40.36200
C  -10.72100 14.06200 41.28100
N  -9.04700 18.93800 41.30700
C  -7.74000 18.70400 41.50000
C  -6.86500 19.92000 41.31700
C  -7.98200 21.03000 41.42400
C  -9.26700 20.26600 41.06200
C  -8.10000 21.77800 42.71400
C  -6.35400 19.97100 39.78600
C  -4.90400 19.55700 39.47900
H  -4.72200 18.59900 38.30500
N  -12.11300 19.05800 40.65700
C  -11.77700 20.34800 40.49400
C  -12.92900 21.10700 40.07900
C  -14.05400 20.18300 40.03700
C  -13.52800 18.83400 40.33200
C  -12.84300 22.62300 39.69300
C  -15.42600 20.61200 39.45800
O  -15.72700 21.78700 39.31700
C  -16.46000 19.54200 39.16300
N  -12.26100 15.96000 40.86600
C  -13.60600 16.20500 40.55300
C  -14.39300 14.90500 40.41000
C  -13.23000 13.85600 40.43000
C  -11.96800 14.63700 40.94400
C  -15.37200 14.56500 41.59400
C  -12.94400 13.06200 39.16800
C  -13.88500 12.01400 38.82000
N  -9.30700 16.01500 41.61900
C  -9.46800 14.65400 41.61500
C  -8.23300 14.03200 42.07000
C  -7.37200 15.08600 42.10500
C  -8.06100 16.24500 41.85700
C  -7.82700 12.62400 42.39900
C  -5.99900 15.39200 42.36500
O  -5.00100 14.66900 42.49400
C  -5.86200 16.99300 42.31600
C  -5.48700 17.57200 43.64200
O  -4.51500 18.34900 43.71000
O  -6.24100 17.11500 44.66800
C  -6.03800 17.81100 45.89900
H  -10.24800 21.97500 40.39900
H  -15.19200 17.49900 40.13100
H  -10.77200 12.98900 41.47700
H  -6.15500 20.09600 42.12500
H  -7.91800 21.72400 40.58600
H  -8.87500 21.31600 43.32600
H  -8.49300 22.77000 42.49000
H  -7.11400 21.75400 43.17700
H  -6.32300 21.02200 39.49800
H  -6.99000 19.35100 39.15300
H  -4.49700 19.12200 40.39100
H  -4.34500 20.48600 39.36700
H  -13.10500 22.48300 38.64400
H  -11.84900 22.97500 39.97200
H  -13.57700 23.15300 40.30000
H  -15.96300 18.79500 38.54400
H  -17.24100 19.93100 38.51000
H  -16.74800 19.06700 40.10100
H  -14.92400 14.85200 39.46000
H  -13.21500 13.07000 41.18600
H  -15.09900 15.31700 42.33500
H  -15.18700 13.53300 41.89000
H  -16.38000 14.64000 41.18700
H  -11.98700 12.59800 39.40700
H  -12.75100 13.66900 38.28400
H  -14.41500 11.54900 39.65100
H  -13.27600 11.24600 38.34300
H  -14.65200 12.33000 38.11200
H  -7.44900 12.00100 41.58900
H  -8.58700 12.09100 42.97000
H  -6.95400 12.73400 43.04300
H  -5.08500 17.20700 41.58200
H  -5.80900 17.02600 46.62000
H  -6.95900 18.30000 46.21400
H  -5.17500 18.46800 46.00700

