158

Mg 25.81200 0.83100 29.29900
C  27.84800 0.31500 32.18400
C  23.10800 0.91800 31.38600
C  23.98400 1.28000 26.61400
C  28.71100 0.19100 27.22200
N  25.56000 0.61600 31.48300
C  26.50700 0.57000 32.46100
C  25.83600 0.74100 33.89200
C  24.25300 0.58900 33.55100
C  24.34200 0.73200 32.03200
C  23.57100 -0.71800 34.10300
C  26.34600 2.03500 34.67000
C  26.50900 1.80100 36.21800
H  25.78200 2.82400 37.16300
N  23.78400 1.18300 29.11200
C  22.80900 1.21700 30.02000
C  21.54500 1.48700 29.42700
C  21.76800 1.46800 28.02200
C  23.24600 1.23000 27.83400
C  20.20600 1.47600 30.14800
C  20.71300 1.58900 26.91800
O  20.99000 1.47900 25.70400
C  19.22500 1.81600 27.19200
N  26.31400 0.70200 27.20000
C  25.30700 1.07300 26.31000
C  25.82300 1.29900 24.87500
C  27.25800 0.73900 25.05400
C  27.48000 0.48000 26.56300
C  24.99000 0.73500 23.69200
C  28.36700 1.61100 24.43800
C  28.42400 3.04900 24.96700
N  27.84000 0.20500 29.59000
C  28.86900 0.06200 28.66900
C  30.12600 -0.22800 29.42100
C  29.75900 0.01600 30.82200
C  28.42100 0.24400 30.84300
C  31.38000 -0.54800 28.79800
C  30.31500 0.04900 32.20500
O  31.44600 -0.08000 32.61700
C  29.04800 0.38400 33.07800
C  29.07000 -0.49700 34.27100
O  28.58000 -1.61400 34.28900
O  29.77700 0.03200 35.27300
C  29.87600 -0.83300 36.46300
H  22.20100 0.96400 31.99200
H  23.31600 1.61200 25.81600
H  29.67300 0.15100 26.70800
H  26.09700 -0.15300 34.45800
H  23.66000 1.45200 33.85300
H  24.33600 -1.39100 34.49200
H  22.80800 -1.22600 33.51400
H  22.98900 -0.45500 34.98600
H  25.61800 2.84600 34.70700
H  27.27400 2.38800 34.22000
H  27.59600 1.85100 36.28100
H  26.17200 0.80200 36.49500
H  19.55400 2.33800 30.01200
H  20.30200 1.42300 31.23300
H  19.65300 0.65300 29.69500
H  18.76000 1.04800 27.81000
H  18.53000 1.96600 26.36600
H  19.03400 2.75100 27.71900
H  25.84600 2.38700 24.81700
H  27.28300 -0.17200 24.45700
H  24.36900 -0.08500 24.05200
H  25.62700 0.32500 22.90800
H  24.36100 1.49900 23.23600
H  28.00400 1.64100 23.41000
H  29.31900 1.08300 24.37400
H  29.49700 3.24200 24.98000
H  27.96600 3.07000 25.95600
H  27.79700 3.67800 24.33600
H  31.56400 -0.19400 27.78400
H  31.46700 -1.63300 28.74600
H  32.15200 -0.06400 29.39700
H  29.09100 1.38700 33.50200
H  30.63000 -0.36200 37.09400
H  30.12400 -1.87700 36.27400
H  28.97600 -0.94500 37.06800
Mg 17.24500 51.33100 26.35400
C  19.21800 49.90900 28.86600
C  14.95300 52.26000 28.81200
C  15.27900 52.44700 23.92700
C  19.34300 49.78300 23.95500
N  17.04700 50.99700 28.62700
C  18.01500 50.48700 29.38300
C  17.66700 50.60300 30.85300
C  16.23600 51.29700 30.86500
C  15.97600 51.48400 29.33900
C  15.19300 50.48600 31.66300
C  18.74200 51.48300 31.62500
C  18.33000 52.35600 32.85400
H  17.53800 51.55400 33.88400
N  15.43000 52.32000 26.38600
C  14.64900 52.67300 27.44500
C  13.51400 53.39900 26.96200
C  13.59700 53.51500 25.55400
C  14.78900 52.72700 25.18800
C  12.43400 54.02500 27.88100
C  12.70400 54.18300 24.59300
O  12.91900 54.16100 23.40400
C  11.41300 54.85400 25.08900
N  17.41900 51.19400 24.27000
C  16.45600 51.80200 23.50300
C  16.69100 51.50200 21.95600
C  18.06700 50.78700 21.90300
C  18.30100 50.57000 23.45300
C  15.45600 50.80100 21.32900
C  19.21400 51.54600 21.06500
C  20.18000 50.66200 20.24000
N  18.93000 50.13700 26.28100
C  19.73200 49.64600 25.30100
C  20.81300 48.86400 25.86900
C  20.60200 48.97500 27.22800
C  19.49600 49.78000 27.48600
C  21.91800 48.28900 25.12000
C  21.27100 48.63700 28.51800
O  22.34600 48.08000 28.72200
C  20.39100 49.31000 29.62900
C  20.08600 48.30300 30.66000
O  19.25600 47.36300 30.45800
O  20.91000 48.55300 31.73600
C  20.68500 47.64200 32.89600
H  14.18000 52.60800 29.50000
H  14.60900 52.73700 23.11500
H  19.95900 49.23100 23.24200
H  17.62100 49.59300 31.26200
H  16.32300 52.28100 31.32700
H  14.40500 50.06000 31.04200
H  14.69600 51.05800 32.44600
H  15.68100 49.69100 32.22500
H  19.41500 52.05700 30.98700
H  19.30700 50.69600 32.12400
H  17.94000 53.30100 32.47500
H  19.23300 52.42700 33.45900
H  12.34100 55.07900 27.61700
H  12.87100 54.18400 28.86700
H  11.44800 53.56800 27.96200
H  10.82800 54.11800 25.64000
H  10.75200 55.24900 24.31800
H  11.56700 55.68600 25.77700
H  16.66400 52.45600 21.43000
H  17.91700 49.78000 21.51400
H  14.62600 50.76700 22.03400
H  15.78100 49.78900 21.08600
H  15.06900 51.28600 20.43300
H  19.81200 52.21200 21.68700
H  18.66900 52.24800 20.43400
H  21.16500 51.01400 20.54500
H  20.08300 50.70900 19.15500
H  20.03200 49.65900 20.64000
H  21.53600 47.83400 24.20600
H  22.44000 47.52400 25.69500
H  22.65000 49.05100 24.85200
H  20.90500 50.11000 30.16300
H  19.65200 47.82600 33.19100
H  21.38700 48.00500 33.64700
H  20.93900 46.65900 32.49900

