158

Mg 49.80000 46.30600 41.98400
C  46.90500 48.06800 41.11700
C  48.56700 43.60300 40.26100
C  52.78200 44.89400 41.95500
C  51.20600 49.31800 43.17000
N  47.81600 45.88100 40.95200
C  46.79100 46.73000 40.72300
C  45.65500 46.01900 39.92800
C  46.33300 44.58400 39.75100
C  47.68900 44.63400 40.34200
C  45.47500 43.42600 40.26800
C  45.29900 46.71300 38.53300
C  43.97800 46.19000 37.88900
H  44.00500 45.02500 36.90100
N  50.49400 44.38100 41.43900
C  49.80700 43.41200 40.79900
C  50.64500 42.24100 40.65300
C  51.94700 42.61700 41.11000
C  51.78200 44.01200 41.57100
C  50.15800 40.85800 40.04000
C  53.09100 41.69100 41.24300
O  53.00500 40.49700 40.80200
C  54.37600 41.96400 41.95600
N  51.75700 47.08600 42.54900
C  52.84500 46.25200 42.36900
C  54.08800 47.07400 42.76800
C  53.58400 48.47100 43.18200
C  52.10000 48.30000 43.02900
C  55.08300 46.27700 43.65200
C  54.32600 49.72000 42.49700
C  55.71500 50.06700 43.16700
N  49.16000 48.27200 42.18600
C  49.88900 49.36000 42.69700
C  48.90600 50.50600 42.79600
C  47.76000 49.98200 42.21100
C  47.94100 48.63400 41.85800
C  49.09100 51.91200 43.31200
C  46.40900 50.31600 41.83000
O  45.76100 51.31200 41.95700
C  45.93600 49.12000 40.93900
C  44.67300 48.63300 41.45400
O  44.48900 48.14300 42.55100
O  43.73700 48.68700 40.47600
C  42.36400 48.42000 41.03400
H  48.11200 42.73500 39.77900
H  53.73500 44.36500 41.89000
H  51.66300 50.25700 43.49000
H  44.77400 46.05500 40.56800
H  46.42200 44.34500 38.69100
H  45.33300 42.73000 39.44100
H  44.49900 43.74800 40.63200
H  46.09100 42.90100 40.99900
H  46.12100 46.43400 37.87400
H  45.36900 47.79900 38.57700
H  43.46000 47.04300 37.45000
H  43.31500 45.80300 38.66200
H  50.78700 40.69100 39.16500
H  49.09400 40.80000 39.81200
H  50.25300 40.06900 40.78600
H  54.92500 41.02200 41.94400
H  54.15200 42.34200 42.95400
H  54.98000 42.62500 41.33600
H  54.62900 47.36600 41.86900
H  53.65800 48.61900 44.25900
H  54.48800 45.43800 44.01100
H  55.43400 46.81800 44.53000
H  55.85100 45.91800 42.96700
H  53.62200 50.54800 42.58500
H  54.53500 49.51500 41.44700
H  56.53900 50.11900 42.45600
H  55.96400 49.30200 43.90200
H  55.61300 51.02600 43.67500
H  50.01500 52.34500 42.92900
H  49.14300 51.85000 44.39900
H  48.29400 52.48700 42.84100
H  45.82400 49.49600 39.92200
H  42.24500 47.68100 41.82600
H  41.93300 47.92700 40.16200
H  41.91800 49.40200 41.19200
Mg 9.44300 48.92800 25.82300
C  7.40600 48.66900 28.74400
C  12.15300 49.52600 27.60800
C  11.23300 48.81700 22.96500
C  6.51900 48.01400 23.91800
N  9.69200 49.23400 27.90700
C  8.75100 49.12800 28.96900
C  9.49400 49.43700 30.26600
C  10.85300 49.99300 29.78000
C  10.93700 49.48100 28.31800
C  10.98200 51.50400 29.79500
C  9.59400 48.21400 31.27600
C  8.81000 48.53300 32.64700
H  8.87000 47.61500 33.88700
N  11.41400 49.27300 25.34600
C  12.40000 49.42600 26.27500
C  13.66700 49.48700 25.58800
C  13.39900 49.37700 24.22500
C  11.97800 49.09900 24.11400
C  15.06100 49.72500 26.33900
C  14.28600 49.37800 23.02500
O  13.93600 49.21900 21.87800
C  15.80000 49.54300 23.16200
N  8.90000 48.51100 23.78600
C  9.88000 48.53100 22.81700
C  9.40400 47.89100 21.52300
C  8.03300 47.43800 21.93400
C  7.76800 48.04800 23.27800
C  9.46100 48.73300 20.20500
C  7.89900 45.82500 21.95100
C  7.83200 44.96300 23.21300
N  7.31300 48.48900 26.21600
C  6.23900 48.19300 25.28100
C  5.07100 47.89600 26.08000
C  5.44600 48.08300 27.40000
C  6.84500 48.42000 27.43600
C  3.78200 47.47900 25.59500
C  4.99900 47.98300 28.79300
O  3.88200 47.63900 29.21900
C  6.21300 48.30400 29.77800
C  6.35500 47.07800 30.51700
O  6.95300 46.11600 30.11200
O  5.67700 47.26400 31.70700
C  5.80700 46.35400 32.79700
H  12.94800 49.98200 28.20100
H  11.74900 48.83500 22.00300
H  5.76600 47.49600 23.32000
H  9.04700 50.25900 30.82500
H  11.66100 49.67900 30.44000
H  10.03400 51.92200 30.13300
H  11.16400 51.98100 28.83200
H  11.75900 51.79200 30.50300
H  10.62800 47.96900 31.51800
H  9.20600 47.36200 30.71700
H  7.79600 48.61300 32.25600
H  9.10400 49.53100 32.97000
H  15.77500 48.99800 25.95300
H  14.87600 49.64000 27.41000
H  15.47800 50.71400 26.14900
H  16.18600 49.71700 22.15800
H  16.24000 48.58600 23.44400
H  16.17100 50.37100 23.76600
H  10.17800 47.13800 21.37700
H  7.36800 47.87500 21.18900
H  9.22100 49.74500 20.53400
H  8.71800 48.40500 19.47900
H  10.44400 48.82800 19.74500
H  8.74100 45.32500 21.47300
H  7.04700 45.54400 21.33200
H  7.84600 45.67500 24.03800
H  8.67600 44.28100 23.30900
H  6.92600 44.35700 23.21200
H  3.74800 46.39100 25.52800
H  3.58800 47.98500 24.64900
H  3.03000 47.64900 26.36600
H  6.08900 49.10500 30.50700
H  5.07100 45.59800 32.52400
H  5.56800 46.77800 33.77200
H  6.79000 45.88700 32.74000

