158

Mg -0.23700 7.04100 25.97100
C  0.68300 8.88800 28.87600
C  -0.74000 4.25800 27.95600
C  -0.69300 5.25200 23.26100
C  0.08600 9.87700 24.17500
N  -0.08300 6.62200 28.16500
C  0.33900 7.50200 29.09000
C  0.22000 6.78500 30.56400
C  -0.21000 5.32400 30.20100
C  -0.37100 5.42400 28.66600
C  0.68600 4.19100 30.74700
C  -0.71300 7.54800 31.56500
C  -0.14400 7.80600 32.96500
H  1.04800 6.97500 33.53200
N  -0.57300 5.03200 25.65200
C  -0.78100 4.03100 26.56700
C  -1.06900 2.72700 25.88500
C  -0.90300 3.03800 24.48100
C  -0.70300 4.46900 24.40900
C  -1.26700 1.38600 26.61800
C  -0.89200 2.08400 23.27300
O  -0.68800 2.47200 22.12100
C  -1.02600 0.48900 23.46500
N  -0.32900 7.53600 24.00400
C  -0.44700 6.61000 23.06300
C  -0.38600 7.20400 21.64100
C  -0.52300 8.72700 21.97100
C  -0.28700 8.70100 23.48000
C  0.93400 6.90700 20.89400
C  -1.89400 9.38000 21.65500
C  -1.78700 10.82800 21.14000
N  0.39600 8.95000 26.29400
C  0.48500 10.00700 25.52400
C  1.01200 11.15000 26.17900
C  1.15200 10.76200 27.48600
C  0.72500 9.43000 27.56200
C  1.30900 12.51300 25.57400
C  1.49300 11.22200 28.77200
O  1.87800 12.32300 29.20400
C  1.18100 10.02000 29.75600
C  2.43100 9.46700 30.40700
O  3.18200 8.56600 30.05500
O  2.76400 10.33200 31.41900
C  3.93000 10.08800 32.24200
H  -1.11600 3.39000 28.50200
H  -0.95000 4.77200 22.31400
H  0.15600 10.77900 23.56300
H  1.23300 6.66500 30.94800
H  -1.22900 5.16500 30.55400
H  0.13200 3.54100 31.42500
H  1.56400 4.53900 31.29100
H  0.88100 3.65200 29.82000
H  -1.60600 6.94300 31.72500
H  -0.94800 8.52000 31.13300
H  -1.01800 7.59200 33.58000
H  0.10800 8.82800 33.24700
H  -2.33200 1.18200 26.73200
H  -0.82300 1.38100 27.61300
H  -0.78700 0.62200 26.00600
H  -1.18800 0.06100 22.47500
H  -1.92300 0.13700 23.97600
H  -0.15300 0.02300 23.92100
H  -1.19500 6.75100 21.06900
H  0.32400 9.21200 21.48700
H  0.64500 6.15900 20.15500
H  1.67600 6.59100 21.62800
H  1.35500 7.75400 20.35200
H  -2.54500 9.39000 22.53000
H  -2.35600 8.76900 20.88000
H  -0.73900 11.12100 21.09300
H  -2.28500 11.50500 21.83500
H  -2.23900 10.82100 20.14900
H  2.26600 12.91400 25.90600
H  0.46000 13.19200 25.65800
H  1.30400 12.28700 24.50800
H  0.59600 10.24100 30.64900
H  4.44800 10.99100 32.56400
H  4.64800 9.57100 31.60600
H  3.72200 9.30500 32.97100
Mg 43.85900 4.92500 47.00300
C  41.93700 7.80500 47.00300
C  40.94700 3.02800 47.06400
C  45.68200 2.24100 46.24000
C  46.70400 6.93800 46.96900
N  41.67500 5.39400 46.79800
C  41.15300 6.61500 46.97600
C  39.59700 6.61800 47.16800
C  39.38800 4.99300 47.24000
C  40.76800 4.43500 47.04700
C  38.79900 4.50300 48.53900
C  38.59300 7.32900 46.21500
C  39.17300 7.71800 44.86900
H  38.81500 6.87000 43.69900
N  43.43600 2.91500 46.68700
C  42.16900 2.31600 46.74900
C  42.29000 0.96600 46.39900
C  43.57900 0.74400 45.88900
C  44.32700 2.01200 46.23600
C  41.12000 0.02300 46.43300
C  44.19300 -0.56000 45.19800
O  43.60600 -1.65200 45.22200
C  45.41300 -0.45900 44.37600
N  45.97900 4.59100 46.76700
C  46.46700 3.32100 46.48200
C  47.94800 3.37200 46.13100
C  48.31300 4.94300 46.52300
C  46.92800 5.54000 46.76700
C  48.69900 2.26100 46.80800
C  49.42000 5.68100 45.69000
C  50.57800 6.22000 46.51800
N  44.31100 6.95400 47.11200
C  45.47700 7.62800 47.01400
C  45.23600 9.11400 46.95300
C  43.82300 9.17700 46.95500
C  43.35100 7.89500 47.02900
C  46.26500 10.17700 46.74200
C  42.72200 10.07100 46.97300
O  42.68000 11.27100 46.86800
C  41.37700 9.26000 47.06300
C  40.56900 9.67800 48.25200
O  40.65300 9.29000 49.41700
O  39.65700 10.66600 47.90600
C  38.88000 11.21000 48.98400
H  40.07000 2.39200 47.19300
H  46.27600 1.34900 46.03300
H  47.60800 7.54400 47.05700
H  39.42700 7.01300 48.17000
H  38.82200 4.66400 46.36800
H  38.06800 3.72600 48.31600
H  38.29300 5.26800 49.12800
H  39.56600 4.09700 49.19800
H  38.31800 8.27800 46.67500
H  37.70500 6.69500 46.21700
H  40.25700 7.61500 44.89700
H  38.81100 8.71700 44.62500
H  41.49300 -0.98100 46.63800
H  40.57900 0.05700 45.48700
H  40.43600 0.40500 47.19200
H  45.43600 -1.43200 43.88600
H  46.28600 -0.33600 45.01600
H  45.25900 0.30500 43.61300
H  48.08100 3.36600 45.04900
H  48.78100 4.83600 47.50100
H  48.76200 1.44200 46.09100
H  48.18100 1.89700 47.69600
H  49.70600 2.59500 47.05900
H  48.98600 6.57900 45.25100
H  49.86700 5.10100 44.88200
H  51.51500 5.69100 46.34000
H  50.50000 6.21200 47.60500
H  50.74600 7.26400 46.25500
H  46.35200 10.75300 47.66400
H  45.91200 10.77000 45.89900
H  47.22200 9.75000 46.44200
H  40.78100 9.40900 46.16300
H  39.50400 11.81400 49.64200
H  38.29700 10.39600 49.41400
H  38.21400 11.97100 48.57500

