158

Mg 0.59000 6.94200 25.93400
C  1.56400 9.16100 28.53300
C  0.74300 4.38200 28.29500
C  -0.25200 4.85300 23.54500
C  1.12600 9.53700 23.68700
N  1.04600 6.84400 28.21700
C  1.32900 7.85900 29.04500
C  1.35800 7.39600 30.50300
C  1.39600 5.86200 30.30900
C  1.06400 5.65900 28.86400
C  2.79300 5.42200 30.66200
C  0.07700 7.83400 31.32200
C  0.34700 8.08400 32.84800
H  1.62500 7.62000 33.56600
N  0.23000 4.98200 25.96600
C  0.40100 4.07700 26.98400
C  0.06600 2.73700 26.52500
C  -0.16700 2.81800 25.08100
C  -0.14200 4.27900 24.80000
C  0.05500 1.65900 27.51800
C  -0.47800 1.76700 24.13500
O  -0.78400 2.00800 22.95700
C  -0.26200 0.32100 24.50500
N  0.65200 7.09200 23.84000
C  0.14500 6.10900 23.07400
C  -0.19900 6.66600 21.67200
C  0.57300 8.01700 21.61200
C  0.71200 8.27900 23.17500
C  0.12900 5.77800 20.36600
C  -0.24300 9.25300 20.91300
C  0.51800 10.12600 19.84800
N  1.21200 9.00900 25.99100
C  1.37100 9.94700 24.97700
C  1.71100 11.27500 25.55400
C  1.84500 10.97400 26.89400
C  1.51000 9.64700 27.14700
C  2.02700 12.50100 24.84200
C  2.15800 11.52400 28.17400
O  2.59100 12.64000 28.38300
C  1.96500 10.44200 29.31400
C  3.23900 10.40800 30.18400
O  4.27300 9.79900 29.84000
O  3.15200 11.19900 31.30000
C  4.31800 11.28100 32.12800
H  0.78200 3.51100 28.95300
H  -0.54800 4.25800 22.67900
H  1.46900 10.25800 22.94200
H  2.15300 7.86900 31.08000
H  0.70900 5.40100 31.01900
H  3.53900 5.36000 29.87000
H  2.71800 4.43900 31.12700
H  3.18700 6.03400 31.47400
H  -0.78400 7.16600 31.29300
H  -0.16600 8.85100 31.01300
H  -0.42800 7.50700 33.35200
H  0.15000 9.13800 33.04300
H  -0.50600 0.79900 27.15000
H  -0.40200 2.04500 28.42900
H  1.02000 1.36700 27.93100
H  0.65300 0.34200 25.09800
H  -0.02500 -0.23600 23.59800
H  -1.18800 -0.01200 24.97100
H  -1.25500 6.93600 21.66700
H  1.57600 7.96800 21.18700
H  0.42400 6.46500 19.57300
H  -0.78700 5.31500 19.99700
H  0.96500 5.09100 20.49200
H  -0.51500 9.95700 21.69900
H  -1.17900 8.84500 20.53200
H  0.41500 11.09500 20.33700
H  0.06900 10.21700 18.85900
H  1.58500 9.93600 19.73900
H  2.90100 12.37700 24.20200
H  2.44300 13.08900 25.66100
H  1.15600 12.86200 24.29600
H  1.15600 10.77200 29.96600
H  5.28000 11.10800 31.64600
H  4.35300 10.52600 32.91300
H  4.40800 12.27400 32.56900
Mg 47.42700 24.91600 28.50200
C  48.37600 27.11800 31.04300
C  46.42200 22.64000 31.00300
C  47.19600 22.59400 26.10700
C  49.17200 26.96500 26.20400
N  47.41700 24.97500 30.75500
C  47.72100 25.98400 31.53500
C  47.42600 25.66400 32.95400
C  47.00900 24.18400 32.96100
C  46.86700 23.87500 31.46500
C  47.90900 23.22200 33.72500
C  46.30200 26.64800 33.58100
C  46.64600 27.27400 34.97200
H  45.55200 27.17100 36.02100
N  46.66700 22.97200 28.53200
C  46.31900 22.21700 29.65400
C  45.84500 20.89400 29.15400
C  45.99800 20.96400 27.73300
C  46.66900 22.17900 27.42200
C  45.34700 19.80200 30.02800
C  45.62000 19.87700 26.69700
O  45.53200 19.98000 25.48500
C  45.24600 18.52200 27.22600
N  48.24200 24.72100 26.47000
C  47.96800 23.64500 25.69600
C  48.27200 23.83900 24.22800
C  48.86400 25.35700 24.23700
C  48.75200 25.73500 25.72000
C  49.25800 22.78200 23.70300
C  48.17300 26.31400 23.25100
C  46.81400 26.91900 23.66100
N  48.56400 26.71100 28.54100
C  49.15600 27.41500 27.52600
C  49.51300 28.72300 27.97800
C  49.39200 28.62600 29.39200
C  48.80500 27.33600 29.67100
C  49.85500 29.92000 27.14700
C  49.48200 29.35800 30.61700
O  49.88400 30.47000 30.80600
C  48.79800 28.39800 31.78200
C  49.85400 28.17500 32.74000
O  50.71900 27.28800 32.70600
O  49.63800 28.99200 33.82800
C  50.64900 28.80500 34.91300
H  46.13500 21.94500 31.79600
H  46.96200 21.92600 25.27500
H  49.73800 27.64500 25.56400
H  48.37400 25.83600 33.46300
H  46.00600 24.10200 33.37900
H  48.75600 23.72000 34.19700
H  48.33500 22.42300 33.11900
H  47.24000 22.76100 34.45200
H  45.39500 26.08200 33.79300
H  46.06900 27.53400 32.99100
H  46.75400 28.35100 34.84600
H  47.62400 26.94400 35.32200
H  45.86400 18.85800 29.85100
H  44.31800 19.70300 29.68300
H  45.33200 20.11500 31.07200
H  44.86000 17.84400 26.46500
H  44.37500 18.54500 27.88000
H  46.15600 18.07500 27.62800
H  47.34400 23.74500 23.66400
H  49.90600 25.30300 23.92200
H  48.86100 22.41600 22.75600
H  49.61800 21.93600 24.28800
H  50.20400 23.28800 23.50500
H  47.98800 25.74400 22.34100
H  48.90600 27.08000 22.99900
H  46.03000 26.66100 22.95000
H  46.88200 28.00600 23.71500
H  46.47700 26.56000 24.63300
H  49.82900 30.83000 27.74600
H  49.08400 29.91900 26.37700
H  50.86600 29.73800 26.78200
H  47.96100 28.92200 32.24400
H  50.46600 27.77400 35.21700
H  50.57600 29.52400 35.72900
H  51.67800 28.83500 34.55500

