158

Mg 25.03600 -7.14600 47.82800
C  27.55200 -5.01300 46.72400
C  23.01200 -6.19200 45.29400
C  23.25500 -9.93700 48.37300
C  27.73600 -8.85000 49.63100
N  25.39400 -5.84000 46.10400
C  26.45700 -5.05700 45.90900
C  26.20300 -4.10600 44.68400
C  24.64800 -4.41600 44.37900
C  24.30100 -5.60200 45.27700
C  23.61600 -3.31000 44.56600
C  27.26800 -4.40200 43.63700
C  27.96300 -3.20600 43.06500
H  27.60500 -2.86300 41.64200
N  23.21300 -7.83200 47.08500
C  22.56800 -7.31000 45.97200
C  21.32200 -7.97600 45.87000
C  21.29700 -9.10800 46.77300
C  22.64600 -9.04800 47.44300
C  20.37100 -7.58900 44.81500
C  20.18900 -10.15800 46.85700
O  19.27600 -10.09900 46.04500
C  20.13600 -11.17400 47.97400
N  25.43800 -9.13600 48.83600
C  24.45200 -10.09100 49.02500
C  24.87700 -11.31600 49.83100
C  26.44900 -10.96200 50.03100
C  26.53000 -9.57500 49.48500
C  24.17700 -11.55300 51.18200
C  27.44300 -11.89600 49.28900
C  27.82500 -11.76300 47.75900
N  27.11700 -6.90500 48.31700
C  28.02800 -7.61300 49.06300
C  29.35100 -6.84800 49.12500
C  29.14900 -5.77900 48.32200
C  27.86500 -5.96800 47.72100
C  30.58300 -7.21700 49.94800
C  29.75100 -4.62300 47.85200
O  30.76600 -4.02900 48.06700
C  28.71700 -4.01100 46.75200
C  28.36500 -2.62900 47.09500
O  28.20600 -2.19300 48.20400
O  28.34300 -1.84300 45.98700
C  27.93400 -0.44000 46.36400
H  22.23000 -5.88800 44.59600
H  22.72700 -10.86000 48.62100
H  28.54400 -9.38600 50.13200
H  26.22700 -3.13300 45.17500
H  24.56300 -4.94600 43.43100
H  24.18300 -2.38600 44.67600
H  23.04100 -3.47500 45.47700
H  22.97100 -3.22300 43.69100
H  26.73200 -4.99200 42.89300
H  28.05900 -5.02200 44.05800
H  29.03700 -3.31300 43.21800
H  27.70200 -2.29400 43.60200
H  19.82900 -6.64700 44.90500
H  19.59100 -8.30800 44.56800
H  20.93700 -7.54900 43.88300
H  20.52800 -10.82700 48.93000
H  20.61800 -12.11100 47.69500
H  19.10100 -11.44600 48.18100
H  24.76600 -12.26100 49.29900
H  26.64600 -10.84400 51.09700
H  24.79900 -11.45400 52.07100
H  23.76200 -12.56100 51.17000
H  23.35500 -10.83900 51.23800
H  27.16400 -12.94800 49.34500
H  28.31800 -11.89200 49.93900
H  27.73900 -12.75700 47.32000
H  28.78400 -11.24600 47.71900
H  27.13800 -11.07100 47.27200
H  30.73200 -8.28500 50.11000
H  30.58000 -6.78100 50.94700
H  31.55400 -7.01800 49.49400
H  29.24300 -4.00700 45.79800
H  26.96300 -0.39000 46.85800
H  27.77500 0.01800 45.38800
H  28.76900 -0.00200 46.91100
Mg -8.90200 40.78400 41.15400
C  -8.14700 37.48900 40.47000
C  -5.96600 41.71500 39.58500
C  -10.04400 43.82900 41.07800
C  -12.18900 39.57300 42.22000
N  -7.28800 39.76900 40.05600
C  -7.22500 38.41000 39.94300
C  -5.97700 37.98400 39.12000
C  -5.11800 39.27500 39.19100
C  -6.19400 40.34700 39.56700
C  -3.98500 39.25800 40.33100
C  -6.34700 37.56200 37.73200
C  -5.87300 36.20100 37.29000
H  -4.91100 36.29600 36.04400
N  -8.12200 42.54100 40.50100
C  -6.86000 42.73600 40.02200
C  -6.64800 44.20400 39.97400
C  -7.76000 44.81800 40.45100
C  -8.73200 43.69300 40.65000
C  -5.35000 44.71300 39.48500
C  -8.02600 46.35800 40.65800
O  -7.14900 47.15800 40.41700
C  -9.28000 46.90600 41.18000
N  -10.94100 41.56400 41.54300
C  -11.02400 42.93900 41.47200
C  -12.46500 43.28600 41.65700
C  -13.22700 41.97000 42.18300
C  -12.09500 40.96200 41.96500
C  -12.86300 44.53800 42.46000
C  -14.56000 41.78500 41.44100
C  -15.79400 41.38800 42.29900
N  -9.88500 38.90600 41.47700
C  -11.18200 38.59400 41.89800
C  -11.26100 37.19300 42.08000
C  -10.07700 36.66900 41.50700
C  -9.31800 37.78100 41.17500
C  -12.48700 36.44600 42.63500
C  -9.32400 35.51100 41.19100
O  -9.52100 34.35200 41.49300
C  -8.05600 35.98600 40.45200
C  -6.88700 35.39800 41.13900
O  -6.38800 35.80100 42.17900
O  -6.65300 34.16000 40.54200
C  -5.60700 33.30300 41.12000
H  -4.92800 42.00500 39.41200
H  -10.53100 44.79200 40.91000
H  -13.20600 39.20500 42.36800
H  -5.48400 37.15200 39.62300
H  -4.61400 39.56600 38.26900
H  -3.99800 38.27200 40.79400
H  -4.22700 40.00200 41.09100
H  -3.01000 39.41700 39.87100
H  -6.00600 38.34800 37.05900
H  -7.40400 37.70000 37.50500
H  -6.72000 35.52200 37.19800
H  -5.23600 35.68500 38.00800
H  -4.56700 44.37800 40.16500
H  -5.35100 45.80000 39.40900
H  -5.15000 44.46800 38.44100
H  -9.64400 46.46400 42.10700
H  -10.08800 46.87500 40.44900
H  -9.08300 47.97000 41.31300
H  -12.83000 43.59800 40.67900
H  -13.39800 42.18200 43.23800
H  -11.98100 45.02100 42.88100
H  -13.50900 44.41600 43.33000
H  -13.23800 45.35600 41.84400
H  -14.47000 41.02800 40.66200
H  -14.77200 42.71900 40.92000
H  -16.03100 40.38000 41.96000
H  -16.61700 42.04200 42.01000
H  -15.49900 41.37100 43.34900
H  -13.31800 36.48200 41.93100
H  -12.75300 36.91500 43.58200
H  -12.36900 35.41400 42.96700
H  -8.02200 35.72500 39.39500
H  -5.09600 33.82300 41.93100
H  -4.88600 33.12200 40.32300
H  -6.04200 32.37100 41.47900

