158

Mg 1.70500 -2.13800 43.76100
C  5.26800 -1.44800 43.92600
C  1.37800 0.77900 42.06100
C  -1.28900 -3.17600 43.08800
C  2.47800 -5.14600 45.42800
N  3.25500 -0.51400 43.05500
C  4.59000 -0.46800 43.19500
C  5.13500 0.73800 42.34700
C  3.83100 1.65000 42.18500
C  2.76500 0.54000 42.28300
C  3.62200 2.79900 43.27800
C  5.92400 0.37700 41.07900
C  5.24000 -0.48200 39.98700
H  4.92800 0.19900 38.70700
N  0.17400 -1.24100 42.88700
C  0.20700 -0.06200 42.23100
C  -1.05800 0.24300 41.76000
C  -1.92600 -0.86000 41.99600
C  -1.00600 -1.82400 42.64400
C  -1.41600 1.64200 41.18100
C  -3.40500 -1.05100 41.75600
O  -4.08600 -0.16800 41.26900
C  -4.22300 -2.20600 42.13800
N  0.77800 -3.90300 44.19100
C  -0.50100 -4.12700 43.79300
C  -1.02200 -5.49000 44.18600
C  0.13700 -6.08600 45.04200
C  1.22400 -5.00400 44.80600
C  -2.36800 -5.49300 44.88300
C  0.50500 -7.55400 44.55200
C  -0.00300 -8.68900 45.48200
N  3.47200 -3.16300 44.44900
C  3.61400 -4.35800 45.21800
C  5.01600 -4.65300 45.51800
C  5.64500 -3.48500 44.99800
C  4.68300 -2.61400 44.43000
C  5.56700 -5.83000 46.30600
C  6.91100 -2.82500 44.92000
O  8.00400 -3.25100 45.36000
C  6.79000 -1.50700 44.25600
C  7.22600 -0.35900 45.12100
O  6.58300 0.33300 45.91400
O  8.43800 0.01100 44.65800
C  8.96800 1.39500 44.79900
H  1.17100 1.75600 41.62100
H  -2.27200 -3.53800 42.78000
H  2.60600 -6.05300 46.02200
H  5.95200 1.17400 42.92200
H  3.90200 2.10600 41.19700
H  3.25000 3.74600 42.88700
H  4.42700 3.00400 43.98400
H  2.85300 2.35900 43.91300
H  6.83500 -0.16100 41.34300
H  6.21700 1.35400 40.69500
H  4.24100 -0.63700 40.39400
H  5.84800 -1.38300 39.90200
H  -0.78200 1.84900 40.31900
H  -1.41900 2.32000 42.03400
H  -2.42400 1.59500 40.77000
H  -5.29500 -2.06900 41.99500
H  -4.13300 -2.46600 43.19200
H  -3.77700 -2.93000 41.45600
H  -1.16600 -6.15600 43.33600
H  -0.02700 -5.98100 46.11400
H  -2.65600 -4.44600 44.97400
H  -2.23500 -6.02200 45.82800
H  -3.15700 -5.89900 44.25000
H  1.57900 -7.71600 44.46300
H  0.17000 -7.95800 43.59700
H  -0.73600 -8.31500 46.19700
H  0.90300 -9.05200 45.96800
H  -0.45000 -9.48700 44.88900
H  5.73500 -6.70100 45.67400
H  4.98400 -6.07500 47.19400
H  6.53100 -5.55400 46.73600
H  7.38300 -1.51600 43.34100
H  8.35800 1.88700 45.55600
H  8.80600 1.87900 43.83600
H  10.03300 1.48200 45.01500
Mg 54.74100 24.49400 44.03400
C  52.35400 26.96300 43.41700
C  52.62300 22.15200 43.18300
C  57.46500 22.50400 43.84400
C  57.03000 27.27500 44.43900
N  52.75400 24.56100 43.26600
C  51.93500 25.65900 43.15300
C  50.54000 25.21200 42.76300
C  50.58500 23.69500 43.19300
C  52.07800 23.39800 43.13200
C  49.90300 23.28700 44.56300
C  50.26600 25.42600 41.28500
C  48.82200 25.74000 40.88000
H  48.23300 25.27200 39.51800
N  55.01400 22.57400 43.50700
C  53.97300 21.71000 43.36300
C  54.57100 20.33700 43.35900
C  55.94600 20.42500 43.66600
C  56.18800 21.85400 43.76900
C  53.81900 19.08000 42.98000
C  56.86800 19.15800 43.82200
O  56.50800 17.97900 43.65500
C  58.30200 19.38600 43.96100
N  57.04500 24.86300 43.91100
C  57.91500 23.81000 43.88300
C  59.36900 24.29600 44.10800
C  59.14500 25.80300 44.55900
C  57.61900 26.06700 44.28400
C  60.39300 23.47400 44.91100
C  60.00000 26.92900 43.94500
C  60.68400 27.96700 44.83200
N  54.74400 26.66000 44.05300
C  55.70900 27.60500 44.36900
C  55.07300 28.91300 44.68900
C  53.78600 28.68600 44.14900
C  53.65100 27.34600 43.87800
C  55.81000 30.09600 45.02900
C  52.50700 29.31100 43.87400
O  52.14800 30.45900 43.93300
C  51.58200 28.27200 43.19800
C  51.55500 28.75200 41.83900
O  52.44300 28.86500 41.03300
O  50.31000 29.25000 41.60100
C  49.93200 29.76400 40.24000
H  51.85600 21.37500 43.19000
H  58.33400 21.84600 43.90900
H  57.71800 28.10000 44.63200
H  49.84800 25.68300 43.46100
H  50.14200 23.09500 42.39800
H  49.20200 22.47100 44.38500
H  49.45400 24.15200 45.05200
H  50.68300 23.00600 45.27000
H  50.60100 24.56300 40.70900
H  50.78600 26.32200 40.94700
H  48.60500 26.79200 41.06900
H  48.21900 25.20900 41.61700
H  52.79000 19.40300 42.82500
H  53.82900 18.58600 43.95100
H  54.18700 18.60200 42.07200
H  58.71900 19.67800 42.99700
H  58.66200 18.41600 44.30400
H  58.63300 20.11200 44.70300
H  59.66800 24.26100 43.06100
H  59.39400 25.81500 45.62000
H  61.23200 23.00400 44.39800
H  59.83700 22.68000 45.41000
H  60.86800 24.11200 45.65500
H  59.55200 27.48600 43.12100
H  60.79800 26.36600 43.46100
H  61.57700 28.20100 44.25200
H  60.93100 27.69000 45.85700
H  59.96300 28.78400 44.86600
H  56.81500 29.85300 45.37300
H  55.14900 30.38800 45.84500
H  55.75700 30.77400 44.17700
H  50.59900 28.25000 43.66800
H  50.85900 29.97800 39.70900
H  49.34200 30.67600 40.32900
H  49.24600 29.06200 39.76500

