158

Mg 35.95700 1.37800 29.60300
C  33.79300 2.11500 32.22200
C  38.58600 1.30700 31.82800
C  38.06500 0.73200 27.10400
C  33.36900 1.99200 27.47400
N  36.12600 1.54500 31.83500
C  35.08200 1.84600 32.70500
C  35.61700 2.03100 34.05300
C  37.15800 2.07000 33.85800
C  37.34000 1.64100 32.39900
C  37.84500 3.35000 34.21300
C  35.09900 0.92000 35.05000
C  34.82300 1.35500 36.50700
H  35.57000 2.42200 37.25100
N  38.03800 0.92700 29.47800
C  38.89300 0.87100 30.55400
C  40.25100 0.37000 30.06600
C  40.12900 0.30000 28.63000
C  38.69200 0.59800 28.35900
C  41.44300 0.20400 31.00500
C  41.25700 -0.05600 27.60600
O  41.12000 0.00400 26.40900
C  42.62000 -0.50700 28.20300
N  35.70300 1.19500 27.61800
C  36.71900 1.00500 26.74800
C  36.25300 0.94200 25.27400
C  34.72500 1.20300 25.42200
C  34.57000 1.48200 26.97200
C  36.97900 1.90700 24.27400
C  33.88700 0.06300 24.81700
C  33.17100 -0.97400 25.69900
N  34.00700 2.00100 29.75200
C  33.05200 2.20600 28.78000
C  31.73200 2.48100 29.34800
C  32.03100 2.49700 30.72500
C  33.35500 2.22800 30.88700
C  30.52900 2.63000 28.64200
C  31.45300 2.73200 32.03400
O  30.31000 3.11800 32.26000
C  32.55100 2.50800 33.04000
C  32.72200 3.70300 33.93300
O  33.07300 4.76500 33.52000
O  32.23000 3.43200 35.20800
C  32.17200 4.60500 36.09200
H  39.35700 1.24000 32.59800
H  38.84800 0.56300 26.36100
H  32.54100 2.12400 26.77400
H  35.16600 2.92600 34.48200
H  37.58700 1.33500 34.53900
H  38.57600 3.21500 35.01000
H  37.26100 4.14500 34.67500
H  38.33800 3.73600 33.32100
H  35.71500 0.02200 35.00300
H  34.10800 0.62800 34.70400
H  34.95200 0.41400 37.04200
H  33.81100 1.75900 36.49500
H  42.12100 0.91100 30.52800
H  41.88100 -0.79100 30.92700
H  41.13700 0.61400 31.96800
H  43.12000 0.38000 28.59200
H  43.25500 -0.92600 27.42300
H  42.54600 -1.23500 29.01100
H  36.32300 -0.08400 24.91400
H  34.43100 2.13500 24.94000
H  37.92500 2.29500 24.65100
H  36.45700 2.84600 24.09200
H  37.21100 1.29600 23.40200
H  34.52400 -0.42300 24.07900
H  33.05100 0.62600 24.40000
H  32.12100 -0.83000 25.44300
H  33.41100 -0.88100 26.75800
H  33.32800 -2.03500 25.50900
H  30.39200 1.84300 27.90000
H  30.41800 3.53500 28.04400
H  29.79500 2.54600 29.44300
H  32.22600 1.77800 33.78100
H  31.18800 4.65900 36.55800
H  32.33300 5.52700 35.53300
H  32.97100 4.55300 36.83100
Mg -2.76700 34.94700 26.47500
C  -3.60300 33.40000 29.50500
C  -0.88500 37.20400 28.26900
C  -2.45500 36.83300 23.67800
C  -5.20700 32.94900 24.81300
N  -2.36400 35.19300 28.68500
C  -2.87200 34.52800 29.74700
C  -2.31000 35.18200 31.09600
C  -1.37200 36.32400 30.66100
C  -1.58100 36.30200 29.11900
C  -1.55900 37.66300 31.30000
C  -1.61700 34.17000 32.10200
C  -2.26200 34.22000 33.59200
H  -1.36400 34.16800 34.80700
N  -1.64700 36.60800 25.98700
C  -0.98300 37.39300 26.89600
C  -0.39700 38.52300 26.24500
C  -0.80200 38.48700 24.80200
C  -1.69000 37.27200 24.78100
C  0.39000 39.49400 27.02100
C  -0.49500 39.34800 23.57200
O  -0.83100 39.09300 22.42300
C  0.30300 40.62500 23.77400
N  -3.64900 34.78700 24.57400
C  -3.29500 35.73700 23.53600
C  -4.18300 35.47200 22.23600
C  -4.69600 34.00300 22.54100
C  -4.57300 33.95800 24.07500
C  -5.25400 36.59400 21.99800
C  -3.89100 32.83800 21.84800
C  -4.28600 32.63700 20.39400
N  -4.12800 33.47800 26.98100
C  -4.98800 32.70100 26.19000
C  -5.53000 31.62700 26.98900
C  -5.05200 31.88700 28.28100
C  -4.16400 32.99700 28.22700
C  -6.51400 30.56600 26.55800
C  -5.05200 31.40200 29.59800
O  -5.51900 30.40500 30.09900
C  -4.35300 32.47700 30.51300
C  -5.37800 33.11700 31.47500
O  -6.07000 34.06800 31.21800
O  -5.34100 32.42900 32.65300
C  -6.10200 32.98600 33.78800
H  -0.23300 37.80200 28.90900
H  -2.39800 37.27100 22.67900
H  -5.91800 32.28300 24.32100
H  -3.16600 35.54400 31.66600
H  -0.34200 36.13900 30.96600
H  -1.63500 38.48900 30.59300
H  -0.81300 37.97100 32.03300
H  -2.42000 37.68900 31.96800
H  -0.54400 34.31200 32.23100
H  -1.73500 33.15200 31.73100
H  -3.01500 33.43200 33.59900
H  -2.73400 35.20100 33.64500
H  1.00700 40.09800 26.35400
H  1.10700 39.15600 27.77000
H  -0.31100 40.25600 27.35900
H  0.03900 41.28000 24.60500
H  0.53100 41.15300 22.84800
H  1.23500 40.16200 24.09900
H  -3.58200 35.46200 21.32600
H  -5.77200 34.04200 22.36900
H  -5.16500 37.26800 22.85000
H  -6.26600 36.18900 22.01300
H  -5.07400 37.12600 21.06400
H  -3.89300 31.90900 22.41700
H  -2.84600 33.11400 21.70800
H  -5.13200 33.27300 20.13200
H  -4.72300 31.64000 20.32900
H  -3.43900 32.81100 19.73100
H  -6.10300 29.55600 26.53400
H  -7.06800 30.78600 25.64600
H  -7.28900 30.63600 27.32200
H  -3.55700 32.01900 31.10000
H  -7.01300 33.43100 33.38800
H  -5.44600 33.79900 34.10000
H  -6.37100 32.24800 34.54400

