158

Mg -1.46800 18.14100 26.80500
C  -2.07900 15.82200 29.57600
C  -1.95500 20.67000 29.00800
C  -1.55800 20.00100 24.13700
C  -1.58000 15.13300 24.72700
N  -2.02600 18.13000 29.05200
C  -1.99500 17.17500 30.00900
C  -2.07800 17.75800 31.42900
C  -1.99100 19.30200 31.15600
C  -2.03900 19.39000 29.63600
C  -3.08700 20.19200 31.73700
C  -0.97900 17.15900 32.43200
C  -0.64500 17.98800 33.71700
H  -0.75800 17.40900 35.18300
N  -1.72800 20.14500 26.65000
C  -1.90500 21.04100 27.61900
C  -1.89000 22.37300 26.98300
C  -1.87900 22.13700 25.59300
C  -1.74300 20.70400 25.37000
C  -2.00200 23.67900 27.72400
C  -1.90300 23.08500 24.45600
O  -2.09100 22.78600 23.28000
C  -1.70300 24.50300 24.76800
N  -1.63100 17.67100 24.70100
C  -1.45200 18.65800 23.82400
C  -1.52500 18.11500 22.37300
C  -1.64400 16.54100 22.56900
C  -1.57900 16.41500 24.11900
C  -2.77300 18.74900 21.64100
C  -0.56900 15.70900 21.68800
C  0.89800 15.77900 21.98500
N  -1.73700 15.98800 27.01500
C  -1.72300 14.89400 26.08800
C  -1.75100 13.68800 26.78900
C  -1.86300 14.00200 28.08700
C  -1.95500 15.37700 28.22200
C  -1.82200 12.29900 26.16300
C  -1.89600 13.35800 29.38500
O  -1.75800 12.16900 29.70700
C  -2.20700 14.50300 30.39600
C  -1.12100 14.27600 31.42500
O  0.02400 14.56000 31.27700
O  -1.56700 13.61400 32.51900
C  -0.58400 13.32000 33.64300
H  -2.15200 21.42800 29.76900
H  -1.46600 20.61700 23.24000
H  -1.71500 14.26300 24.08100
H  -3.03100 17.50100 31.89200
H  -1.02900 19.74700 31.41000
H  -2.51500 20.97000 32.24400
H  -3.70100 19.58400 32.40100
H  -3.85600 20.63800 31.10700
H  -0.05200 16.97800 31.88800
H  -1.44300 16.28400 32.88800
H  -1.42100 18.75300 33.67600
H  0.26400 18.57500 33.58800
H  -1.06900 24.24000 27.66100
H  -2.26400 23.54500 28.77300
H  -2.83700 24.25500 27.32600
H  -2.50600 25.02800 25.28500
H  -1.61000 24.89600 23.75600
H  -0.80000 24.55800 25.37600
H  -0.52800 18.30300 21.97500
H  -2.59000 16.20800 22.14000
H  -3.48700 17.96300 21.39400
H  -2.39800 19.17500 20.71000
H  -3.15400 19.51600 22.31500
H  -0.86900 16.05900 20.70000
H  -0.95500 14.69700 21.80700
H  1.14300 16.61100 22.64500
H  1.57800 15.98100 21.15800
H  1.33200 14.87100 22.40400
H  -1.06600 12.32600 25.37700
H  -2.80200 12.04900 25.75700
H  -1.39400 11.63200 26.91000
H  -3.10800 14.39600 30.99900
H  -0.97400 13.76500 34.55900
H  0.36400 13.85300 33.71000
H  -0.57300 12.26800 33.93000
Mg 47.30300 34.57600 26.54800
C  45.89900 33.13100 29.45200
C  47.58300 37.49400 28.14400
C  48.33700 35.71200 23.70300
C  46.57600 31.42800 25.00900
N  46.99400 35.12100 28.65200
C  46.43800 34.43200 29.65100
C  46.26200 35.26500 30.96000
C  46.67200 36.71700 30.45700
C  47.09600 36.47900 29.01100
C  45.49600 37.77200 30.70500
C  47.22900 34.75600 32.05800
C  46.75000 34.64000 33.59900
H  45.76500 35.70000 34.10500
N  47.78500 36.42200 26.02700
C  47.89000 37.47800 26.78100
C  48.50100 38.58100 25.95900
C  48.84600 37.98000 24.71400
C  48.35100 36.68300 24.79400
C  48.74100 40.07100 26.46900
C  49.53100 38.57600 23.53600
O  49.91200 37.93600 22.55000
C  49.89600 40.08400 23.64900
N  47.40100 33.69400 24.61900
C  47.89200 34.40300 23.57000
C  47.97700 33.61900 22.29100
C  47.74900 32.15600 22.78000
C  47.22400 32.40200 24.19200
C  46.90700 34.25400 21.32400
C  48.86000 31.21500 22.60600
C  50.05100 31.57100 23.47300
N  46.45700 32.60000 27.04400
C  46.26800 31.50800 26.32800
C  45.66700 30.44300 27.15200
C  45.35900 31.12100 28.33700
C  45.86200 32.43000 28.22600
C  45.18000 29.05300 26.73600
C  44.55300 31.07000 29.52400
O  43.79600 30.21800 30.01900
C  44.83200 32.37100 30.28100
C  45.03800 32.15600 31.72200
O  45.84000 31.51300 32.24500
O  43.85300 32.57000 32.35900
C  43.74600 32.31100 33.78100
H  47.75000 38.47000 28.60600
H  48.68900 36.10600 22.74700
H  46.33100 30.42600 24.65000
H  45.21600 35.26000 31.26500
H  47.58500 37.03200 30.96300
H  44.59300 37.28000 31.06500
H  45.35600 38.38700 29.81600
H  45.88200 38.41800 31.49400
H  48.18000 35.28900 32.06300
H  47.53900 33.73100 31.85600
H  47.68000 34.78700 34.14900
H  46.45400 33.62700 33.87000
H  48.21200 40.71300 25.76400
H  49.82700 40.16400 26.46100
H  48.31600 40.17300 27.46800
H  50.39500 40.34300 22.71500
H  50.63600 40.11700 24.44900
H  49.04700 40.76100 23.74100
H  48.94300 33.85600 21.84600
H  47.00600 31.66700 22.15000
H  47.36500 34.97900 20.65100
H  45.99100 34.65000 21.76100
H  46.63700 33.44300 20.64700
H  49.08500 31.36700 21.55000
H  48.49000 30.19800 22.73600
H  49.93600 32.56900 23.89500
H  50.93300 31.62700 22.83500
H  50.33100 30.80800 24.20000
H  46.06700 28.54800 26.35300
H  44.37200 29.26900 26.03700
H  44.75500 28.45300 27.54200
H  43.90900 32.94400 30.18400
H  44.24600 31.37900 34.04100
H  42.71300 32.17600 34.09900
H  44.19200 33.08900 34.40100

