158

Mg 44.56200 4.04500 47.29700
C  42.40700 6.75400 47.00800
C  41.74500 1.88100 47.21800
C  46.61800 1.42000 47.22300
C  47.23500 6.23900 47.26800
N  42.37700 4.33200 47.01000
C  41.75700 5.49900 46.86800
C  40.32200 5.26800 46.68700
C  39.93600 3.77200 47.02600
C  41.41300 3.21100 47.11000
C  39.03900 3.56100 48.24000
C  40.01600 5.60800 45.14400
C  39.06300 6.67600 44.80100
H  39.42100 7.64300 43.66800
N  44.20900 2.00200 47.28200
C  43.05700 1.30600 47.28200
C  43.29500 -0.11800 47.08900
C  44.69800 -0.27100 47.19100
C  45.22000 1.10700 47.17600
C  42.30500 -1.15900 46.79900
C  45.44000 -1.60500 47.11100
O  44.88100 -2.67500 47.24900
C  46.88300 -1.73600 46.81200
N  46.67300 3.86400 47.25800
C  47.30000 2.65700 47.18800
C  48.86100 2.84500 47.20100
C  49.02200 4.37900 47.11500
C  47.59400 4.89700 47.25700
C  49.50800 2.34800 48.48100
C  49.62500 4.92000 45.76800
C  51.10300 5.43000 45.89600
N  44.83100 6.17400 47.12300
C  45.98600 6.90100 47.15100
C  45.56000 8.30200 47.14100
C  44.17100 8.34300 47.14200
C  43.77500 6.97700 47.12000
C  46.48000 9.55500 47.28000
C  42.97300 9.17700 47.16000
O  42.84200 10.36300 47.20900
C  41.80700 8.16000 47.05200
C  40.91100 8.25400 48.27100
O  41.07200 7.62000 49.33000
O  40.01500 9.25200 48.04900
C  39.01200 9.52500 49.05300
H  40.82900 1.28900 47.18200
H  47.32300 0.58700 47.18400
H  48.04600 6.95500 47.42000
H  39.70800 5.95800 47.26600
H  39.58400 3.14200 46.20900
H  38.57500 2.57500 48.23200
H  38.35600 4.40100 48.37300
H  39.76000 3.63300 49.05400
H  39.66500 4.73000 44.60200
H  40.95600 5.85500 44.65100
H  38.99100 7.42400 45.59000
H  38.12300 6.16500 44.59200
H  42.31100 -1.68900 45.84600
H  41.28300 -0.88200 47.05800
H  42.53400 -2.01800 47.42900
H  46.98200 -1.00100 46.01300
H  47.24700 -2.65800 46.35800
H  47.53200 -1.47500 47.64800
H  49.17600 2.19800 46.38100
H  49.47900 4.86100 47.97900
H  50.16700 1.52000 48.22200
H  48.75200 1.94700 49.15600
H  50.14900 3.10600 48.93200
H  48.92700 5.69300 45.44500
H  49.67000 4.13100 45.01700
H  51.61900 5.41700 44.93600
H  51.64800 4.75900 46.56000
H  51.09600 6.46400 46.24100
H  46.78800 9.75700 48.30600
H  46.08000 10.47400 46.85100
H  47.34200 9.27800 46.67300
H  41.30400 8.41900 46.12000
H  38.76100 10.58600 49.03700
H  39.34400 9.30700 50.06700
H  38.06000 9.01800 48.89400
Mg 17.15100 53.23800 26.58300
C  19.23300 51.56900 28.74700
C  14.72700 53.28700 28.99500
C  15.14400 54.46500 24.29800
C  19.33400 52.21900 23.88000
N  17.00300 52.55000 28.68400
C  18.01600 51.97800 29.37400
C  17.59500 51.94100 30.89800
C  16.04200 52.26300 30.84400
C  15.89500 52.70000 29.44600
C  15.09800 51.13200 31.32300
C  18.43900 52.98900 31.76800
C  19.12100 52.51700 33.03200
H  18.16800 51.93100 34.08800
N  15.28300 54.05800 26.72600
C  14.43600 53.87900 27.76500
C  13.12100 54.46000 27.39500
C  13.19000 54.82800 26.05200
C  14.59400 54.49000 25.63300
C  11.87600 54.19400 28.19900
C  12.19400 55.42300 25.16500
O  12.50100 55.66200 24.02400
C  10.82300 55.71700 25.66700
N  17.15000 53.23100 24.44200
C  16.31100 53.97900 23.81700
C  16.52300 54.05000 22.23900
C  17.92700 53.45200 22.11000
C  18.22100 53.00100 23.59200
C  15.46700 53.22700 21.41500
C  19.01600 54.28200 21.41700
C  19.48200 55.49700 22.23200
N  18.94300 52.20300 26.35000
C  19.76100 51.91400 25.21800
C  20.89100 51.19400 25.61600
C  20.76800 51.09800 27.03400
C  19.57100 51.66300 27.40300
C  21.95200 50.71900 24.66100
C  21.44900 50.48800 28.19200
O  22.51100 49.90600 28.43600
C  20.43300 50.91600 29.38600
C  20.13200 49.65000 30.14300
O  19.34500 48.73300 29.81500
O  20.70600 49.79500 31.37700
C  20.52900 48.83000 32.44100
H  13.96000 53.30500 29.77100
H  14.59600 54.94900 23.48700
H  19.92000 52.02900 22.97800
H  17.76300 50.91700 31.23100
H  15.78600 53.17600 31.38100
H  14.35400 51.69200 31.89000
H  15.67600 50.41600 31.90700
H  14.63800 50.67300 30.44800
H  17.76700 53.77500 32.11400
H  19.15100 53.50100 31.12100
H  19.75100 53.30300 33.44900
H  19.77300 51.67900 32.78700
H  11.61500 55.05300 28.81800
H  12.04600 53.33600 28.85000
H  11.02400 53.97700 27.55600
H  10.26700 56.18600 24.85500
H  10.89100 56.37600 26.53300
H  10.33000 54.74900 25.75000
H  16.44300 55.12500 22.08000
H  17.88200 52.49600 21.58900
H  15.92100 52.53700 20.70400
H  14.94500 53.93300 20.76900
H  14.75600 52.72900 22.07400
H  18.77800 54.59900 20.40100
H  19.91100 53.70400 21.18500
H  19.85400 56.32200 21.62500
H  20.23800 55.10000 22.91000
H  18.67200 55.95800 22.79700
H  21.92000 51.39900 23.81000
H  21.84200 49.65300 24.46100
H  22.91900 50.73400 25.16600
H  20.93700 51.62500 30.04200
H  19.46500 48.62500 32.55500
H  20.83600 49.42900 33.29900
H  21.03100 47.88700 32.22600

