158

Mg 2.62700 -0.63700 44.85600
C  5.99800 0.04600 43.88200
C  1.67600 2.27200 43.02000
C  -0.49300 -1.89300 44.63300
C  3.81000 -3.87000 45.96600
N  3.68500 0.93100 43.51300
C  5.08700 1.11700 43.41100
C  5.46100 2.43400 42.75700
C  4.06900 3.19100 42.62300
C  3.04700 2.07500 43.17200
C  3.94200 4.51000 43.47100
C  6.02100 2.11000 41.37200
C  7.20200 3.04900 40.91000
H  6.86600 4.06100 39.70500
N  0.80500 0.17100 44.09400
C  0.65900 1.39400 43.44500
C  -0.75200 1.63000 43.35800
C  -1.41800 0.48800 43.83500
C  -0.35200 -0.53400 44.22100
C  -1.31900 2.83300 42.73100
C  -2.92900 0.29300 43.90400
O  -3.70500 1.22200 43.57000
C  -3.55500 -0.95800 44.59000
N  1.74400 -2.68600 45.06600
C  0.41100 -2.82000 45.11200
C  0.03600 -4.23000 45.56100
C  1.39600 -4.71500 46.18200
C  2.45500 -3.78700 45.66200
C  -1.24700 -4.36600 46.44200
C  1.60500 -6.23700 45.76400
C  1.87500 -7.15600 46.94000
N  4.48700 -1.70500 45.12100
C  4.78000 -2.92200 45.57700
C  6.23900 -3.13200 45.49300
C  6.79500 -1.97800 44.92900
C  5.68600 -1.14300 44.60900
C  6.87100 -4.37600 46.00800
C  7.97400 -1.30600 44.48200
O  9.15800 -1.56600 44.67000
C  7.54600 0.04600 43.81900
C  8.26400 1.16600 44.59100
O  7.98600 1.50800 45.73900
O  9.15300 1.89200 43.88300
C  9.68600 3.13900 44.54500
H  1.48700 3.26700 42.61200
H  -1.51500 -2.27200 44.69500
H  4.22400 -4.77000 46.42500
H  6.17200 3.03700 43.32200
H  3.82000 3.55200 41.62500
H  4.89900 4.60800 43.98300
H  3.14700 4.55000 44.21600
H  3.74300 5.39000 42.85900
H  5.42200 2.10300 40.46100
H  6.35600 1.07300 41.38000
H  8.10200 2.50100 40.63100
H  7.49300 3.66100 41.76500
H  -1.38000 2.77200 41.64400
H  -0.77000 3.65400 43.19100
H  -2.34400 3.10200 42.98500
H  -4.62300 -0.79000 44.72900
H  -3.05400 -1.13500 45.54200
H  -3.34700 -1.82000 43.95700
H  -0.16600 -4.80500 44.65700
H  1.43600 -4.64700 47.26900
H  -1.42600 -3.41800 46.95000
H  -1.05300 -5.06900 47.25200
H  -2.16500 -4.64900 45.92800
H  2.52200 -6.32800 45.18200
H  0.80500 -6.64700 45.14700
H  2.95700 -7.29100 46.95700
H  1.37700 -8.12500 46.91000
H  1.64300 -6.62000 47.86000
H  6.89900 -4.33000 47.09600
H  7.92100 -4.22800 45.75800
H  6.25900 -5.24700 45.77300
H  8.09900 -0.03600 42.88300
H  9.47800 3.89400 43.78700
H  10.76400 3.10100 44.70600
H  9.20500 3.50800 45.45000
Mg 1.35900 8.51300 27.48100
C  2.12500 10.18200 30.34500
C  2.02100 5.50800 29.20500
C  1.28300 6.72600 24.55100
C  1.75800 11.41200 25.60200
N  1.84300 7.96100 29.59100
C  2.04800 8.80600 30.63700
C  2.05400 8.05100 31.98600
C  2.15400 6.50800 31.52900
C  2.09400 6.67100 29.98800
C  3.41000 5.73600 31.95700
C  0.78400 8.46300 32.90300
C  1.05600 9.00700 34.28100
H  2.26000 8.54100 35.09500
N  1.44100 6.47400 26.97800
C  1.72000 5.40600 27.83300
C  1.51100 4.15200 27.10400
C  1.09700 4.47000 25.74800
C  1.29000 5.92900 25.70800
C  1.82800 2.79300 27.72700
C  0.65800 3.57000 24.59800
O  0.20800 4.04800 23.55800
C  0.69600 2.13400 24.87600
N  1.46200 9.01000 25.31700
C  1.45300 8.10000 24.30400
C  1.85700 8.77000 22.94000
C  1.69600 10.31900 23.31500
C  1.61600 10.28800 24.82700
C  3.26800 8.18600 22.53700
C  0.58600 11.12000 22.58500
C  -0.88700 10.73300 23.10800
N  1.78000 10.46200 27.86900
C  1.86600 11.56000 27.02800
C  2.14000 12.74000 27.81700
C  2.22100 12.28000 29.15300
C  2.03800 10.87300 29.11400
C  2.37300 14.10300 27.19700
C  2.51800 12.66100 30.55600
O  2.79300 13.71800 31.12500
C  2.29500 11.35800 31.40000
C  3.48600 11.28400 32.27000
O  4.60500 10.93100 31.93800
O  3.21800 11.80400 33.50200
C  4.44700 12.00200 34.33100
H  2.05300 4.56800 29.76000
H  1.27700 6.14900 23.62400
H  1.76800 12.36200 25.06300
H  2.88300 8.30000 32.64800
H  1.23600 6.01400 31.84800
H  4.28700 6.37300 32.06500
H  3.73500 5.05200 31.17300
H  3.17800 5.00600 32.73300
H  0.09900 7.61700 32.96600
H  0.23500 9.25400 32.39300
H  0.14100 8.92400 34.86600
H  1.24400 10.07800 34.20300
H  0.92400 2.22600 27.94900
H  2.48300 2.83800 28.59700
H  2.37600 2.31800 26.91300
H  0.33900 1.39300 24.16100
H  0.06100 1.79300 25.69400
H  1.74300 1.83400 24.93600
H  1.10700 8.46000 22.21200
H  2.54900 10.95200 23.07000
H  3.27100 7.71500 21.55400
H  3.54700 7.40600 23.24600
H  3.99600 8.99600 22.58200
H  0.64000 10.73700 21.56600
H  0.82800 12.18000 22.66200
H  -1.57700 10.66600 22.26700
H  -1.21900 11.61000 23.66400
H  -0.97500 9.84200 23.72900
H  1.63800 14.22600 26.40100
H  3.40200 14.31200 26.90400
H  2.09300 14.72300 28.04800
H  1.35600 11.58000 31.90600
H  4.71800 13.04500 34.49800
H  5.34000 11.44500 34.04900
H  4.14000 11.66600 35.32200

