158

Mg 24.15300 -4.54000 45.59100
C  26.32000 -2.34600 44.03600
C  21.52700 -3.29500 43.73100
C  22.49200 -7.45500 45.96600
C  27.03700 -6.15800 47.16400
N  23.97800 -2.95000 44.09300
C  24.97500 -2.19000 43.51700
C  24.44500 -1.29200 42.39100
C  22.89400 -1.49600 42.50500
C  22.77100 -2.70100 43.53400
C  22.02800 -0.24800 42.88100
C  25.16900 -1.64200 41.05900
C  25.56500 -0.48000 40.20900
H  25.03900 -0.55000 38.84600
N  22.19300 -5.30200 45.03100
C  21.27000 -4.52700 44.34200
C  20.02500 -5.25000 44.32300
C  20.26700 -6.52100 44.97200
C  21.67000 -6.45200 45.36300
C  18.74500 -4.64700 43.65800
C  19.23800 -7.61200 45.16600
O  18.15100 -7.50200 44.63800
C  19.42300 -8.79600 46.02900
N  24.73400 -6.55200 46.27000
C  23.81500 -7.49700 46.44200
C  24.46100 -8.88800 46.87600
C  25.89100 -8.42900 47.30200
C  25.93700 -6.99400 46.89200
C  23.76100 -9.63800 48.06600
C  27.04000 -9.29200 46.73600
C  28.12800 -10.00900 47.55200
N  26.14700 -4.23800 45.87300
C  27.10600 -4.90100 46.57000
C  28.38400 -4.18900 46.35700
C  28.09300 -3.18400 45.43700
C  26.70000 -3.30600 45.09600
C  29.71500 -4.68000 46.81200
C  28.67000 -2.15900 44.63200
O  29.87800 -1.84500 44.44300
C  27.53100 -1.56300 43.73500
C  27.32500 -0.12400 43.92400
O  26.63000 0.39500 44.83300
O  28.00500 0.53000 42.94500
C  28.11900 1.95800 42.97200
H  20.76300 -2.79300 43.13300
H  22.10100 -8.43700 46.23700
H  27.88400 -6.49200 47.76700
H  24.77200 -0.31800 42.75700
H  22.58500 -1.77100 41.49700
H  22.32300 0.69300 42.41700
H  21.98000 -0.12600 43.96300
H  21.00000 -0.33100 42.52900
H  24.43300 -2.19400 40.47400
H  25.80700 -2.48000 41.34100
H  26.64900 -0.36900 40.19100
H  25.14600 0.45000 40.59300
H  18.28300 -5.36300 42.97900
H  18.96100 -3.70800 43.14800
H  18.01300 -4.55500 44.46000
H  19.68500 -8.38400 47.00300
H  20.25600 -9.26700 45.50800
H  18.51400 -9.39500 46.08800
H  24.62100 -9.54700 46.02300
H  25.87400 -8.30000 48.38400
H  24.45500 -9.58000 48.90500
H  23.46800 -10.68200 47.94600
H  22.83200 -9.10600 48.26800
H  27.56700 -8.71500 45.97600
H  26.62400 -10.02500 46.04500
H  29.02100 -9.40300 47.70700
H  28.34000 -11.01900 47.20100
H  27.75200 -9.98900 48.57500
H  29.90600 -5.60100 46.26100
H  29.63000 -4.75600 47.89600
H  30.47600 -3.95100 46.53400
H  27.83100 -1.74800 42.70400
H  28.64200 2.21200 43.89400
H  27.10300 2.35200 42.94800
H  28.55200 2.30300 42.03300
Mg -12.00100 38.23700 42.43400
C  -9.99200 35.54000 41.25600
C  -9.76100 40.33200 40.83400
C  -14.23500 40.67100 43.01500
C  -14.24200 35.86900 43.65000
N  -10.01500 37.93700 41.21700
C  -9.50100 36.78000 40.85200
C  -8.22000 36.96400 40.09200
C  -7.96700 38.48500 40.10300
C  -9.27500 39.00400 40.77800
C  -6.72800 38.92400 40.82100
C  -8.22200 36.27700 38.67200
C  -6.99200 35.41100 38.37800
H  -5.95300 35.91300 37.33500
N  -11.96900 40.27300 42.00700
C  -10.96500 40.93000 41.35000
C  -11.29500 42.32900 41.30700
C  -12.63500 42.44200 41.79700
C  -13.02900 41.12100 42.25900
C  -10.42100 43.33600 40.68800
C  -13.34800 43.72700 41.85000
O  -12.91600 44.74000 41.35800
C  -14.67600 43.88200 42.43100
N  -13.95500 38.25800 43.28800
C  -14.68400 39.40600 43.40800
C  -16.08000 39.09900 44.04400
C  -15.95700 37.61400 44.47300
C  -14.60300 37.19800 43.76500
C  -16.54700 40.12300 45.10800
C  -17.05400 36.61100 44.17700
C  -17.57300 35.72300 45.28600
N  -12.12200 36.08700 42.48100
C  -13.11100 35.29800 43.06000
C  -12.68700 33.88200 42.95200
C  -11.45100 33.87900 42.20400
C  -11.18200 35.27700 41.99900
C  -13.45700 32.66300 43.47000
C  -10.39400 33.08600 41.53600
O  -10.21300 31.90600 41.50100
C  -9.37600 34.16700 40.95500
C  -8.02500 33.88700 41.52100
O  -7.16400 33.24900 40.94700
O  -7.79000 34.61500 42.69200
C  -6.45000 34.54300 43.28200
H  -9.01700 41.04600 40.47300
H  -15.03900 41.37300 43.24700
H  -14.95900 35.09900 43.94000
H  -7.45400 36.45100 40.67200
H  -7.87700 38.90900 39.10200
H  -6.95100 39.78800 41.44700
H  -6.01500 39.29400 40.08400
H  -6.39600 38.14000 41.50200
H  -8.20800 37.06700 37.92100
H  -9.09800 35.68500 38.40800
H  -7.37900 34.41200 38.17300
H  -6.40400 35.27300 39.28500
H  -10.67100 43.44300 39.63300
H  -9.34800 43.20000 40.82500
H  -10.56000 44.33200 41.10800
H  -14.76300 43.47700 43.43900
H  -15.33800 43.32500 41.76900
H  -15.02000 44.91000 42.54700
H  -16.79000 39.20900 43.22400
H  -15.72600 37.53100 45.53500
H  -16.96000 39.63600 45.99100
H  -17.33300 40.75300 44.69100
H  -15.72100 40.75600 45.43400
H  -16.83300 35.98200 43.31400
H  -17.86800 37.19200 43.74500
H  -17.48700 34.64600 45.13800
H  -18.58500 36.04700 45.53000
H  -17.03100 35.93300 46.20800
H  -14.32400 32.44100 42.84700
H  -14.03600 32.89900 44.36200
H  -12.80000 31.81800 43.67300
H  -9.33300 34.00600 39.87800
H  -5.57900 34.34100 42.65800
H  -6.45800 33.75000 44.02900
H  -6.29300 35.48400 43.81000

