158

Mg 51.23300 45.28000 42.77100
C  47.93300 45.89800 42.14200
C  50.68700 41.90900 42.01700
C  54.68200 44.84100 42.37100
C  51.87700 48.73400 42.88000
N  49.52800 44.03900 42.12400
C  48.27600 44.53300 41.97700
C  47.28900 43.38400 41.59700
C  48.10800 42.03700 41.85800
C  49.51100 42.68600 42.01700
C  47.65100 41.06000 42.97000
C  46.76900 43.47800 40.13600
C  47.61800 43.95000 38.98100
H  47.60100 43.04400 37.72600
N  52.50300 43.53800 42.40800
C  52.03700 42.25900 42.13500
C  53.24800 41.45000 42.03200
C  54.35500 42.27400 42.29400
C  53.89300 43.63000 42.33700
C  53.16600 40.00300 41.60800
C  55.87600 41.80500 42.52600
O  56.14800 40.60800 42.20200
C  56.94900 42.66300 43.13100
N  52.96000 46.57000 42.71100
C  54.22000 46.11000 42.47600
C  55.13800 47.25200 42.08000
C  54.36500 48.55000 42.61500
C  52.94600 47.89800 42.69100
C  56.63500 47.27000 42.66900
C  54.50200 49.84000 41.71300
C  54.89100 51.11100 42.45600
N  50.16500 46.96200 42.71200
C  50.51400 48.25300 42.82600
C  49.25100 49.06700 42.82900
C  48.23800 48.15700 42.62800
C  48.84500 46.92100 42.41300
C  49.07400 50.44800 43.14400
C  46.78900 48.06000 42.46400
O  45.92100 48.91900 42.56100
C  46.52400 46.57900 42.01000
C  45.48800 46.03000 43.03600
O  44.30200 46.08400 42.87700
O  46.03400 45.42200 44.05000
C  45.19900 45.15400 45.22100
H  50.59200 40.85500 41.74700
H  55.71500 44.56800 42.14500
H  51.98100 49.81800 42.96900
H  46.42700 43.49600 42.25400
H  48.18600 41.34900 41.01600
H  47.17300 40.15700 42.59000
H  47.04500 41.52500 43.74700
H  48.52200 40.75800 43.55300
H  45.88800 44.11800 40.18300
H  46.48900 42.44700 39.92000
H  48.61100 44.07500 39.41300
H  47.12400 44.86600 38.65600
H  53.03200 39.42400 42.52200
H  53.95900 39.59200 40.98300
H  52.34100 39.70400 40.96200
H  57.25700 43.23700 42.25700
H  57.85900 42.13200 43.41200
H  56.65000 43.38200 43.89500
H  55.23900 47.35000 40.99900
H  54.51600 48.78200 43.66900
H  57.33800 47.22400 41.83700
H  56.88300 46.41600 43.30000
H  56.81400 48.13700 43.30400
H  53.56900 49.96100 41.16300
H  55.25700 49.62300 40.95700
H  54.25100 51.95000 42.18400
H  55.86100 51.43200 42.07500
H  55.14300 50.97200 43.50700
H  48.31500 50.87700 42.49000
H  50.02600 50.97500 43.08500
H  48.74400 50.51500 44.18000
H  46.05900 46.59100 41.02400
H  45.24000 45.90400 46.01100
H  45.50300 44.20700 45.66800
H  44.13100 45.19500 45.00700
Mg 10.11900 47.78200 25.95800
C  7.87600 47.72800 28.58900
C  12.42800 49.19600 28.15100
C  12.56500 47.95300 23.48600
C  7.74800 47.03000 23.72600
N  10.07300 48.65500 28.13100
C  9.11600 48.21700 29.00200
C  9.67200 48.65200 30.41800
C  10.77200 49.72500 30.18300
C  11.13100 49.23900 28.72600
C  10.34200 51.20400 30.25300
C  10.22600 47.37700 31.22100
C  9.77100 47.34300 32.68900
H  10.03300 46.07400 33.58300
N  12.17700 48.36800 25.90700
C  12.95300 48.79800 26.91300
C  14.34500 48.76200 26.58200
C  14.46000 48.35600 25.19500
C  13.06400 48.14900 24.78500
C  15.51100 49.09100 27.50800
C  15.61600 48.18100 24.25000
O  15.54800 47.97000 23.02800
C  16.99700 48.29000 24.70300
N  10.12900 47.61200 23.88500
C  11.22500 47.67600 23.06700
C  10.89000 47.52200 21.63100
C  9.38100 47.18500 21.71900
C  9.04900 47.18600 23.19000
C  11.23300 48.88000 20.80000
C  9.02400 45.86300 21.05600
C  8.76900 44.55400 21.93100
N  8.13300 47.43300 26.07600
C  7.27000 47.07100 25.04200
C  5.92600 46.91400 25.66600
C  6.13100 47.08900 27.05100
C  7.48400 47.42300 27.19600
C  4.63300 46.60300 24.88800
C  5.49900 47.09200 28.37100
O  4.37300 46.73100 28.71800
C  6.56200 47.58700 29.37800
C  6.74600 46.59400 30.51400
O  7.36900 45.54600 30.44700
O  6.00000 47.03800 31.48300
C  6.00300 46.30600 32.82000
H  13.20500 49.64700 28.77300
H  13.28900 48.00800 22.67000
H  6.91400 46.87300 23.03900
H  8.89100 49.15600 30.98700
H  11.57000 49.59100 30.91300
H  9.29000 51.33100 30.51000
H  10.49000 51.66300 29.27500
H  10.98000 51.73500 30.95900
H  11.31100 47.48200 31.23400
H  9.96700 46.51300 30.61000
H  8.68300 47.40200 32.68200
H  10.09500 48.23800 33.22100
H  15.31500 49.46200 28.51400
H  16.02900 49.97800 27.14300
H  16.25100 48.29900 27.62600
H  17.44800 47.33200 24.96000
H  17.14900 49.09300 25.42500
H  17.62400 48.53700 23.84600
H  11.49700 46.71900 21.21300
H  8.84700 48.01100 21.24900
H  10.98300 49.85500 21.22000
H  10.78100 48.81600 19.81000
H  12.28200 49.05800 20.56700
H  9.70800 45.68300 20.22700
H  8.04400 46.00000 20.59900
H  9.54800 43.83700 21.67200
H  7.75200 44.16500 21.86800
H  8.93200 44.63800 23.00600
H  4.29800 47.50300 24.37100
H  3.87000 46.34300 25.62100
H  4.87200 45.76600 24.23200
H  6.15700 48.50400 29.80600
H  5.35600 45.43300 32.74100
H  5.53300 46.94100 33.57100
H  6.90600 45.86400 33.24300

