158

Mg -2.42900 17.02000 26.14100
C  -2.84200 14.72900 28.74100
C  -2.94700 19.61800 28.31400
C  -2.23000 19.15900 23.53200
C  -2.55300 14.37900 23.80600
N  -2.69400 17.12100 28.31900
C  -2.79400 16.07900 29.19600
C  -2.78500 16.56900 30.69900
C  -2.90400 18.16000 30.49900
C  -2.92600 18.34300 28.95500
C  -4.13400 18.82200 31.12200
C  -1.46700 16.13000 31.48500
C  -0.99400 16.81500 32.77200
H  -0.53200 15.96100 33.97200
N  -2.63100 19.04800 25.98600
C  -2.73600 19.99200 27.00700
C  -2.78200 21.33800 26.47400
C  -2.57200 21.13100 25.13300
C  -2.39400 19.73300 24.80100
C  -3.03800 22.63500 27.24000
C  -2.44500 22.17400 24.02200
O  -2.31700 22.02100 22.79200
C  -2.43700 23.57800 24.43300
N  -2.36800 16.76400 23.97400
C  -2.32900 17.82500 23.11600
C  -2.28300 17.37600 21.66400
C  -2.67100 15.86500 21.78400
C  -2.46000 15.66700 23.27100
C  -3.15500 18.05900 20.67800
C  -2.04500 14.87900 20.72300
C  -2.96500 14.26100 19.65800
N  -2.58100 14.99300 26.18800
C  -2.59300 13.99100 25.17700
C  -2.93600 12.69200 25.72500
C  -3.00300 12.89200 27.14500
C  -2.78200 14.29400 27.35100
C  -3.19100 11.49100 24.95600
C  -3.25900 12.28500 28.39800
O  -3.57700 11.14300 28.64400
C  -3.07600 13.42300 29.44500
C  -1.93600 13.09000 30.26300
O  -0.75400 13.36600 29.95300
O  -2.32900 12.46500 31.38800
C  -1.27300 12.08500 32.35700
H  -3.03200 20.38100 29.09100
H  -2.17000 19.76700 22.62800
H  -2.86100 13.59800 23.10700
H  -3.62800 16.13700 31.24000
H  -1.99900 18.60900 30.90900
H  -5.05300 18.82800 30.53700
H  -3.85100 19.82700 31.43500
H  -4.42200 18.39800 32.08400
H  -0.59400 16.19000 30.83500
H  -1.53300 15.08200 31.77600
H  -1.84600 17.42400 33.07500
H  -0.21200 17.45700 32.36800
H  -3.28400 22.39300 28.27400
H  -3.85900 23.20500 26.80400
H  -2.11700 23.21700 27.26200
H  -3.46100 23.75500 24.76100
H  -2.15500 24.25700 23.62800
H  -1.81300 23.79700 25.29900
H  -1.29100 17.44600 21.21700
H  -3.75000 15.83100 21.63300
H  -3.56900 17.41000 19.90600
H  -2.65800 18.82500 20.08300
H  -3.96500 18.55200 21.21700
H  -1.49300 14.02100 21.10800
H  -1.33900 15.47900 20.14800
H  -3.98100 14.58200 19.89000
H  -2.77400 13.18800 19.63700
H  -2.84900 14.73100 18.68100
H  -3.81300 10.75300 25.46400
H  -2.20100 11.08500 24.74800
H  -3.73100 11.80700 24.06300
H  -3.93400 13.47000 30.11400
H  -1.21500 10.99900 32.42900
H  -1.52300 12.63900 33.26200
H  -0.29400 12.49800 32.11300
Mg 47.18900 16.16200 27.95000
C  45.25800 15.82600 30.97900
C  49.32600 18.13900 29.85000
C  48.39500 17.41000 25.17800
C  44.41200 14.79600 26.28200
N  47.31900 16.87600 30.22400
C  46.47300 16.54900 31.21500
C  47.01700 17.02700 32.56800
C  48.30000 17.83300 32.16700
C  48.38200 17.52400 30.63800
C  48.18800 19.38000 32.44300
C  47.45000 15.90800 33.53800
C  46.75200 16.01000 34.93700
H  46.33800 17.46000 35.46200
N  48.75800 17.52400 27.50500
C  49.47100 18.21200 28.45400
C  50.56100 18.93800 27.78400
C  50.30700 18.77900 26.37300
C  49.11300 17.84000 26.30000
C  51.79500 19.56900 28.43800
C  50.97300 19.39900 25.13400
O  50.82200 18.99000 24.02700
C  51.89600 20.57600 25.28600
N  46.58600 16.02800 26.08400
C  47.28500 16.55500 25.08000
C  46.66600 16.15000 23.69100
C  45.68900 15.01100 24.10600
C  45.50500 15.29200 25.59800
C  46.09200 17.43500 22.95100
C  46.12200 13.53900 23.85200
C  47.45700 13.16200 24.39000
N  45.30100 15.38600 28.46800
C  44.24100 14.84000 27.67000
C  43.08900 14.51900 28.44900
C  43.46000 14.87400 29.73500
C  44.78000 15.34800 29.72300
C  41.90100 13.98600 27.90600
C  43.03700 14.80700 31.14400
O  41.96900 14.37300 31.55700
C  44.16700 15.48900 31.97000
C  43.57100 16.59800 32.69400
O  43.82800 17.76400 32.54200
O  42.76400 16.16800 33.71100
C  41.98300 17.14700 34.47000
H  49.97000 18.83400 30.39200
H  48.67600 17.81700 24.20400
H  43.61200 14.39000 25.66000
H  46.21900 17.65800 32.96000
H  49.26000 17.51900 32.57600
H  47.39600 19.51600 33.17900
H  47.77300 19.80300 31.52800
H  49.17000 19.81800 32.62500
H  48.50900 15.87700 33.79400
H  47.20100 14.93500 33.11400
H  47.34500 15.45200 35.66200
H  45.78600 15.50700 34.92200
H  51.69800 19.48400 29.52000
H  51.74600 20.63500 28.21500
H  52.75800 19.22700 28.06100
H  51.51100 21.23000 26.06800
H  51.87200 21.13900 24.35300
H  52.93900 20.28300 25.40800
H  47.44300 15.73700 23.04800
H  44.72200 15.13500 23.61800
H  46.91700 17.97300 22.48300
H  45.48300 17.98700 23.66600
H  45.35700 17.11800 22.21200
H  46.09200 13.29200 22.79100
H  45.34100 12.91100 24.28100
H  48.11300 12.81900 23.59000
H  47.36100 12.25900 24.99300
H  47.91900 13.95000 24.98500
H  41.48900 14.55000 27.07000
H  41.10600 14.06900 28.64600
H  42.07600 12.95400 27.60000
H  44.33200 14.60300 32.58300
H  41.43300 17.75300 33.75000
H  42.62900 17.67200 35.17300
H  41.32800 16.47400 35.02500

