158

Mg 0.67600 8.20900 27.59400
C  1.45900 10.38900 30.35100
C  0.70400 5.55200 29.72800
C  0.15800 6.30900 24.94900
C  1.29200 11.07000 25.47600
N  1.06100 8.08000 29.66600
C  1.06800 9.05700 30.67900
C  0.90500 8.51600 32.06000
C  1.01700 6.93500 31.79600
C  0.91200 6.80000 30.31600
C  2.34900 6.26700 32.19900
C  -0.48300 9.00300 32.62000
C  -0.71900 8.84900 34.20400
H  0.49300 8.30500 35.06300
N  0.37000 6.12200 27.38400
C  0.44000 5.23200 28.43400
C  0.21200 3.96200 27.80200
C  -0.08800 4.17500 26.40000
C  0.15900 5.57800 26.18400
C  0.47000 2.68100 28.54700
C  -0.50800 3.23600 25.40900
O  -0.60300 3.47000 24.18100
C  -0.88300 1.84500 25.69800
N  0.71500 8.61800 25.55100
C  0.44400 7.62200 24.68800
C  0.41100 8.14900 23.26100
C  0.73900 9.57100 23.39800
C  0.90000 9.81600 24.91400
C  1.31100 7.33700 22.32400
C  -0.17100 10.63200 22.67900
C  -1.62200 10.66800 23.20200
N  1.32400 10.25900 27.80700
C  1.47600 11.27700 26.84200
C  1.95000 12.44300 27.49400
C  1.91900 12.14100 28.85700
C  1.56500 10.83800 29.00400
C  2.15900 13.78100 26.80800
C  2.13200 12.77000 30.16800
O  2.51500 13.91500 30.40200
C  1.72300 11.67300 31.17100
C  2.80000 11.55700 32.12200
O  3.84400 11.00900 31.95000
O  2.43500 12.12700 33.34600
C  3.32800 11.73700 34.46700
H  0.59600 4.71400 30.41900
H  -0.11500 5.78500 24.03100
H  1.38100 11.87600 24.74400
H  1.68700 8.82300 32.75500
H  0.15800 6.53500 32.33500
H  2.31900 5.27800 32.65800
H  2.78100 6.90400 32.97100
H  2.97200 6.19200 31.30800
H  -1.27900 8.36800 32.22900
H  -0.71500 10.03200 32.34500
H  -1.60800 8.23100 34.32700
H  -1.03000 9.77400 34.69000
H  -0.39700 2.02100 28.53600
H  0.77300 2.94700 29.56000
H  1.27200 2.19600 27.99100
H  -0.01800 1.18800 25.78800
H  -1.52900 1.50700 24.88700
H  -1.50700 1.89100 26.59100
H  -0.61900 7.97100 22.95300
H  1.71200 9.71600 22.92900
H  1.91000 7.96600 21.66500
H  0.76700 6.66000 21.66600
H  1.89900 6.66900 22.95300
H  -0.23800 10.48500 21.60100
H  0.28200 11.61700 22.79600
H  -2.27800 10.07500 22.56500
H  -2.00700 11.68700 23.24200
H  -1.71000 10.12900 24.14500
H  2.37100 14.46200 27.63200
H  1.23900 14.06000 26.29400
H  2.93600 13.73800 26.04500
H  0.84600 11.99500 31.73300
H  3.97400 10.89100 34.23300
H  2.72100 11.64500 35.36800
H  3.91900 12.62800 34.67900
Mg 30.28100 58.25700 39.91000
C  27.52800 56.39700 38.93900
C  32.32300 55.60000 39.02400
C  33.02900 60.43000 39.83300
C  28.14400 60.97200 40.32200
N  29.93900 56.15600 39.08000
C  28.74100 55.67300 38.71800
C  28.86700 54.23600 38.28700
C  30.43300 53.90200 38.41000
C  30.95500 55.30700 38.84300
C  30.89100 52.77900 39.40700
C  28.30200 53.96900 36.83600
C  28.85100 54.93900 35.79000
H  27.79800 55.80800 34.98400
N  32.44300 57.99400 39.68700
C  32.98200 56.85400 39.28300
C  34.41100 57.05600 39.22000
C  34.71500 58.49100 39.46800
C  33.34600 59.05300 39.67500
C  35.37500 55.87800 38.88000
C  36.06700 59.06200 39.42000
O  37.01600 58.32500 39.27800
C  36.37900 60.55400 39.50100
N  30.57700 60.35700 40.04600
C  31.79200 61.05800 40.04200
C  31.55200 62.49300 40.27000
C  30.05900 62.56900 40.77800
C  29.53000 61.21600 40.34500
C  32.63600 63.22400 41.06900
C  29.43900 63.92900 40.24100
C  29.03900 65.03900 41.28200
N  28.25700 58.60200 39.78700
C  27.51700 59.74100 39.98800
C  26.15400 59.45200 39.87600
C  26.07900 58.07200 39.51600
C  27.42600 57.61700 39.44700
C  24.98600 60.36200 40.06600
C  25.19200 57.05100 39.15200
O  23.99300 57.02500 39.01600
C  26.09600 55.87100 38.77600
C  25.75600 54.78700 39.72900
O  25.94700 54.77300 40.94800
O  25.36500 53.64800 38.96900
C  24.97500 52.46500 39.74300
H  32.97200 54.77000 38.73800
H  33.89400 61.07300 40.00200
H  27.45400 61.77900 40.57800
H  28.38000 53.69000 39.09600
H  30.94200 53.53700 37.51800
H  31.36400 51.89900 38.97300
H  29.97600 52.41400 39.87400
H  31.45700 53.28400 40.19000
H  27.21800 53.90400 36.93500
H  28.64900 52.96000 36.61600
H  29.39900 54.40700 35.01100
H  29.56700 55.56000 36.32900
H  35.32200 55.64400 37.81700
H  35.07500 54.97900 39.41800
H  36.45000 56.05700 38.89300
H  36.03800 60.93200 40.46400
H  35.81800 60.92800 38.64400
H  37.42100 60.77500 39.27200
H  31.54600 62.94200 39.27700
H  30.04100 62.56500 41.86800
H  32.28000 64.00300 41.74400
H  33.36300 63.68100 40.39700
H  33.08000 62.58800 41.83500
H  28.55400 63.57400 39.71400
H  30.02700 64.19500 39.36300
H  29.31000 64.81900 42.31400
H  27.96200 65.18200 41.20400
H  29.55000 65.96900 41.03200
H  25.02400 61.30100 39.51300
H  24.89600 60.55500 41.13500
H  24.11500 59.75500 39.82300
H  25.93500 55.68500 37.71400
H  25.82600 51.78500 39.74200
H  24.15100 51.88300 39.33000
H  24.71900 52.67500 40.78200

