158

Mg -1.96800 17.85600 27.30000
C  -2.46100 15.31400 29.70100
C  -2.87400 20.13100 29.69900
C  -2.37600 20.15300 24.91100
C  -2.05700 15.34400 24.94000
N  -2.46700 17.70900 29.51600
C  -2.53600 16.59900 30.30500
C  -2.72000 16.94400 31.80000
C  -3.06900 18.50200 31.69200
C  -2.72800 18.81400 30.24000
C  -4.50500 18.95800 32.18200
C  -1.52300 16.70100 32.71700
C  -1.80300 16.03900 34.07100
H  -0.85900 16.36100 35.29700
N  -2.27200 19.90600 27.34800
C  -2.62300 20.63100 28.43900
C  -2.71300 22.03600 28.09200
C  -2.43400 22.16700 26.68400
C  -2.33700 20.71400 26.19200
C  -3.01500 23.17600 29.03100
C  -2.15400 23.42800 25.84900
O  -1.84100 23.34700 24.67500
C  -2.01300 24.70200 26.54400
N  -2.04400 17.79200 25.23200
C  -2.32200 18.88000 24.45100
C  -2.40200 18.44200 22.95300
C  -2.27100 16.88600 23.02400
C  -2.01200 16.65100 24.49200
C  -3.68300 18.91700 22.17900
C  -1.13600 16.37500 22.11400
C  0.25600 16.34800 22.70100
N  -2.13700 15.74700 27.19200
C  -2.12000 14.88000 26.20800
C  -2.27300 13.52700 26.57200
C  -2.33100 13.59600 27.99000
C  -2.34300 14.98900 28.29400
C  -2.40700 12.26100 25.78100
C  -2.51800 12.89100 29.23900
O  -2.44600 11.61400 29.35600
C  -2.61600 13.95300 30.38900
C  -1.60800 13.48400 31.43100
O  -0.38800 13.66100 31.37800
O  -2.29800 12.75400 32.33600
C  -1.52900 12.23600 33.50000
H  -3.15400 20.87500 30.44900
H  -2.55700 20.90500 24.14000
H  -2.05000 14.57000 24.17000
H  -3.57700 16.41500 32.21700
H  -2.34600 19.19100 32.12900
H  -5.14900 19.05500 31.30800
H  -4.35000 19.87500 32.75000
H  -4.80800 18.19300 32.89700
H  -1.02200 17.66300 32.82800
H  -0.79900 16.11900 32.14600
H  -1.87600 14.95700 33.96800
H  -2.79700 16.36600 34.37700
H  -2.15400 23.82300 29.19500
H  -3.51500 22.96200 29.97600
H  -3.73400 23.74800 28.44500
H  -1.78900 25.50200 25.83800
H  -1.18700 24.54700 27.23800
H  -2.99200 25.00000 26.91700
H  -1.65800 18.93900 22.33100
H  -3.16900 16.33900 22.73800
H  -3.53400 19.67400 21.40900
H  -4.41800 19.44300 22.78700
H  -4.18800 18.04200 21.77000
H  -1.30300 16.98800 21.22800
H  -1.34100 15.35000 21.80600
H  0.46200 15.27800 22.71000
H  0.43300 16.58600 23.75000
H  0.99700 16.89400 22.11700
H  -2.33000 11.35700 26.38500
H  -1.57000 12.31000 25.08600
H  -3.31900 12.22200 25.18500
H  -3.61000 13.71700 30.77000
H  -1.51100 11.14600 33.52200
H  -1.91300 12.65900 34.42800
H  -0.50100 12.59400 33.56700
Mg 8.83300 4.02800 27.25700
C  10.23600 2.41800 30.03900
C  7.02300 5.97400 29.47500
C  7.63700 5.63100 24.61200
C  10.57400 1.84400 25.23700
N  8.71400 4.15500 29.52800
C  9.32800 3.38200 30.43900
C  8.86500 3.72100 31.89800
C  7.64000 4.61900 31.62400
C  7.73800 4.93300 30.09100
C  6.29600 4.04300 32.08600
C  9.94600 4.32800 32.83700
C  9.87200 3.91200 34.34400
H  10.52500 4.79500 35.37700
N  7.52300 5.63400 27.09300
C  6.96200 6.40300 28.13200
C  6.12100 7.45900 27.55800
C  6.21400 7.31000 26.13500
C  7.13800 6.14300 25.86900
C  5.33700 8.38000 28.38300
C  5.63800 8.18600 25.05900
O  5.88200 8.00600 23.84900
C  4.63100 9.18100 25.38900
N  9.11200 3.78500 25.20200
C  8.47800 4.60500 24.29100
C  8.82200 4.17500 22.85300
C  9.77700 2.99500 23.06800
C  9.81100 2.84600 24.59900
C  7.52800 3.89200 22.02800
C  11.19800 3.23800 22.43900
C  11.84000 2.11400 21.59700
N  10.09700 2.46000 27.48100
C  10.71600 1.68200 26.57000
C  11.59000 0.77700 27.15600
C  11.44500 1.00200 28.51000
C  10.50400 2.07100 28.69600
C  12.35600 -0.24800 26.41800
C  11.84100 0.60800 29.83600
O  12.67600 -0.23700 30.18700
C  11.07500 1.49200 30.84000
C  10.28100 0.62900 31.74900
O  9.51300 -0.27300 31.35900
O  10.70500 0.71600 33.01500
C  9.93500 -0.10500 34.04600
H  6.36700 6.45600 30.20300
H  7.43200 6.15600 23.67600
H  10.96500 1.11200 24.52700
H  8.52800 2.82800 32.42600
H  7.76400 5.51400 32.23400
H  5.61400 3.88300 31.25100
H  5.79600 4.79000 32.70200
H  6.47800 3.08400 32.57100
H  10.16400 5.38500 32.68300
H  10.93900 3.98800 32.54400
H  10.38800 2.95400 34.42000
H  8.79700 3.93600 34.52000
H  5.74700 8.31500 29.39100
H  4.26700 8.18200 28.31900
H  5.58100 9.36200 27.97900
H  5.03700 10.02100 25.95300
H  3.75500 8.77400 25.89400
H  4.22700 9.59800 24.46600
H  9.32100 4.93700 22.25400
H  9.35700 2.07200 22.66600
H  7.84500 4.14200 21.01500
H  6.72300 4.54600 22.36300
H  7.29800 2.83800 22.18500
H  11.85500 3.55000 23.25100
H  11.05200 4.02900 21.70200
H  12.87300 1.80100 21.74500
H  11.68500 2.35000 20.54500
H  11.27300 1.18300 21.60800
H  11.91800 -0.48300 25.44800
H  12.41200 -1.16500 27.00400
H  13.43700 -0.10800 26.40700
H  11.82100 2.01600 31.43600
H  10.59100 -0.20900 34.91000
H  9.60000 -1.11100 33.79500
H  9.13100 0.62200 34.16200

