158

Mg 46.49300 45.14600 43.58000
C  42.97400 44.88300 43.36700
C  46.66600 41.72900 42.74400
C  49.88300 45.45600 43.45900
C  46.13500 48.65800 43.69700
N  45.00400 43.56500 42.76100
C  43.59700 43.67900 42.99300
C  42.98900 42.29900 42.88800
C  44.15100 41.30600 42.68700
C  45.36800 42.24200 42.68200
C  44.25500 40.18900 43.77500
C  41.81100 42.17200 41.89100
C  42.12800 42.70200 40.44700
H  41.88900 41.70300 39.22000
N  48.04600 43.75300 43.26400
C  47.94600 42.42500 42.97700
C  49.31900 41.86300 42.97600
C  50.19000 42.94900 43.04400
C  49.36400 44.11200 43.30900
C  49.68100 40.29600 42.85400
C  51.71100 42.75700 42.85300
O  52.18500 41.70400 42.49500
C  52.64300 43.96000 42.70100
N  47.81300 46.72900 43.55400
C  49.15800 46.68100 43.62800
C  49.83700 48.03400 43.90800
C  48.65700 49.03900 43.62800
C  47.41500 48.07600 43.58000
C  50.46400 48.08000 45.30100
C  48.79300 49.98000 42.44300
C  48.59200 51.47000 42.72200
N  44.92500 46.53100 43.51700
C  44.93800 47.89800 43.67100
C  43.60800 48.35800 43.93100
C  42.77500 47.21900 43.80000
C  43.64500 46.11900 43.60300
C  43.16700 49.80600 44.18100
C  41.33500 46.67400 43.67800
O  40.27700 47.24700 43.61500
C  41.49900 45.19000 43.43500
C  40.73600 44.48700 44.53800
O  39.49800 44.41300 44.46300
O  41.52300 44.17000 45.58500
C  40.93000 43.22500 46.56000
H  46.83800 40.65400 42.65200
H  50.96800 45.58400 43.48600
H  45.98400 49.69700 44.00000
H  42.61100 42.19300 43.90500
H  44.00300 40.89200 41.68900
H  43.31100 40.03000 44.29700
H  45.04500 40.43300 44.48500
H  44.37400 39.20700 43.31700
H  40.85100 42.56900 42.22000
H  41.71800 41.08900 41.81600
H  43.08900 43.20900 40.36100
H  41.33700 43.43000 40.26900
H  49.83200 39.97200 41.82400
H  48.83500 39.69600 43.18900
H  50.52200 40.09100 43.51700
H  52.21400 44.48600 41.84800
H  53.62200 43.68900 42.30600
H  52.81100 44.66200 43.51800
H  50.53300 48.27700 43.10600
H  48.61400 49.64900 44.53000
H  51.48600 48.41300 45.12000
H  50.53400 47.07200 45.71000
H  49.95800 48.79500 45.94800
H  48.01500 49.70300 41.73200
H  49.78000 49.78500 42.02300
H  49.44900 52.08900 42.45600
H  48.36800 51.61200 43.77900
H  47.69700 51.76400 42.17300
H  43.03600 50.35500 43.24800
H  43.85900 50.35600 44.81700
H  42.19100 49.74000 44.66300
H  41.02000 44.84500 42.51900
H  41.41100 43.38400 47.52500
H  40.95900 42.18800 46.22500
H  39.89900 43.43000 46.84800
Mg -4.75500 24.87900 25.85700
C  -3.03800 26.58200 28.35400
C  -6.18000 22.90000 28.27000
C  -6.51100 23.37900 23.41500
C  -3.10500 26.92500 23.53500
N  -4.52500 24.65500 28.07000
C  -3.84300 25.54500 28.88900
C  -4.11800 25.24400 30.35200
C  -5.17100 24.04100 30.29400
C  -5.31300 23.84200 28.80700
C  -4.75100 22.71700 31.08200
C  -4.67700 26.50100 31.07100
C  -4.18000 26.74500 32.44900
H  -3.95000 25.51600 33.34300
N  -6.17100 23.33300 25.86100
C  -6.54200 22.60900 26.93400
C  -7.48000 21.53100 26.50900
C  -7.57300 21.70400 25.12400
C  -6.77600 22.87700 24.69600
C  -8.09900 20.54200 27.50400
C  -8.44800 20.92700 24.12900
O  -8.39000 21.16500 22.92600
C  -9.52100 19.86600 24.60600
N  -4.44400 24.87200 23.67300
C  -5.58900 24.39000 23.03400
C  -5.76500 25.00500 21.67200
C  -4.61700 26.08600 21.59600
C  -3.98100 25.96100 23.00800
C  -5.70200 23.91200 20.51500
C  -5.16500 27.49300 21.31900
C  -4.65100 28.18700 20.02600
N  -3.24100 26.23800 25.83800
C  -2.72600 27.10100 24.85700
C  -1.97600 28.19500 25.37600
C  -1.97700 27.92100 26.76100
C  -2.77800 26.83700 27.00400
C  -1.28300 29.29500 24.65800
C  -1.38600 28.39000 28.00200
O  -0.53100 29.20500 28.29300
C  -2.14600 27.55000 29.08100
C  -1.15800 26.79600 29.97900
O  -0.45400 25.89500 29.61600
O  -1.10300 27.28000 31.29400
C  -0.23300 26.64400 32.24600
H  -6.79800 22.42700 29.03600
H  -7.23800 23.15100 22.63300
H  -2.79900 27.71700 22.84800
H  -3.17000 25.00800 30.83600
H  -6.15900 24.32200 30.65700
H  -4.54500 21.93500 30.35200
H  -5.56200 22.28900 31.67000
H  -3.92600 22.92200 31.76400
H  -5.75400 26.37400 31.18200
H  -4.49500 27.27200 30.32200
H  -4.91000 27.25800 33.07500
H  -3.37600 27.45800 32.26400
H  -7.57400 20.57700 28.45800
H  -8.02000 19.53200 27.10100
H  -9.14100 20.82000 27.66300
H  -9.03500 19.08200 25.18700
H  -9.82100 19.39600 23.67000
H  -10.27500 20.44200 25.14300
H  -6.79600 25.35800 21.69100
H  -4.04200 25.83000 20.70600
H  -5.35400 22.96200 20.92100
H  -5.12800 24.12200 19.61200
H  -6.71300 23.65000 20.20100
H  -5.08100 28.17500 22.16500
H  -6.23700 27.48300 21.12100
H  -5.39900 28.14100 19.23400
H  -3.67200 27.85700 19.68000
H  -4.46100 29.25400 20.14300
H  -1.10800 30.14100 25.32200
H  -1.91600 29.69000 23.86300
H  -0.30000 29.17300 24.20300
H  -2.81000 28.20800 29.64100
H  0.78000 27.04600 32.28200
H  -0.23900 25.55700 32.17100
H  -0.46300 27.02000 33.24300

