158

Mg 48.05300 44.93900 43.72800
C  44.58700 44.57400 42.86800
C  48.45900 41.37900 43.25000
C  51.33100 45.33800 43.94900
C  47.57600 48.34300 43.82900
N  46.68000 43.17300 42.93300
C  45.32600 43.34700 42.78900
C  44.70200 41.96400 42.61000
C  45.86500 40.96700 43.01800
C  47.11300 41.89800 43.00800
C  45.59700 40.32100 44.35600
C  44.01200 41.77900 41.14100
C  44.45000 42.53200 39.92100
H  43.83900 42.09600 38.56100
N  49.74300 43.59800 43.44600
C  49.65400 42.19300 43.34600
C  51.07100 41.76600 43.41200
C  51.93600 42.86000 43.44400
C  51.04000 43.98500 43.61300
C  51.46400 40.25400 43.25200
C  53.42200 42.91000 43.25400
O  54.06300 41.88500 43.16500
C  54.17400 44.23100 43.14800
N  49.28400 46.62200 43.82100
C  50.61300 46.53400 43.97500
C  51.29500 47.92500 44.11700
C  49.99800 48.84300 44.14500
C  48.86800 47.88300 43.88400
C  52.28600 48.16000 45.25900
C  49.99200 50.17100 43.24700
C  50.05700 51.44900 44.05400
N  46.48900 46.22400 43.46100
C  46.39300 47.63200 43.60100
C  45.01100 48.07300 43.42000
C  44.26500 46.87300 43.13500
C  45.19300 45.82800 43.14400
C  44.59600 49.47300 43.50900
C  42.95400 46.35300 42.84100
O  41.93800 46.92700 42.61300
C  43.08700 44.80900 42.90600
C  42.31700 44.10900 43.94500
O  41.17200 43.75100 43.76600
O  43.12800 43.80900 45.03300
C  42.39000 43.36300 46.14900
H  48.55500 40.29100 43.23600
H  52.38200 45.48100 44.20900
H  47.37800 49.40500 43.98900
H  43.91000 41.82400 43.34600
H  45.84000 40.13600 42.31400
H  44.56500 40.29700 44.70500
H  46.17400 40.77100 45.16300
H  45.85900 39.26300 44.33400
H  43.00200 42.04800 41.44800
H  44.17600 40.74400 40.84000
H  45.53900 42.51500 39.92000
H  44.21000 43.58600 40.06500
H  52.20400 40.01400 44.01500
H  51.97700 40.12100 42.29900
H  50.63800 39.54300 43.22900
H  53.65400 44.92200 42.48500
H  55.16500 44.09000 42.71700
H  54.25900 44.67800 44.13800
H  51.80900 48.22000 43.20200
H  50.02900 49.14500 45.19200
H  53.24700 48.51000 44.88300
H  52.35200 47.32200 45.95400
H  51.90700 48.93700 45.92300
H  49.17000 50.25700 42.53600
H  50.93600 50.22500 42.70400
H  50.29300 51.39000 45.11600
H  49.09200 51.89900 43.82100
H  50.73200 52.22200 43.68700
H  45.19000 50.01200 42.77100
H  44.75100 49.92600 44.48800
H  43.53300 49.30700 43.33300
H  42.76900 44.51500 41.90600
H  41.41500 43.76300 46.42600
H  43.12800 43.50200 46.93800
H  42.35200 42.27900 46.03500
Mg 0.32700 43.33500 26.48900
C  2.62800 42.73100 29.24900
C  -2.17600 41.94100 28.47900
C  -1.65300 43.53400 23.93600
C  3.12800 43.74400 24.50400
N  0.23400 42.52400 28.52300
C  1.24100 42.54900 29.48000
C  0.62200 42.44500 30.90800
C  -0.79600 41.86100 30.53900
C  -0.92700 42.09400 29.04600
C  -1.18600 40.41900 30.95400
C  0.70200 43.78700 31.72000
C  1.17800 43.69300 33.15500
H  0.64100 42.53600 34.06400
N  -1.75900 42.94300 26.21800
C  -2.64800 42.30400 27.15700
C  -3.95900 42.25900 26.54500
C  -3.82400 42.79500 25.24100
C  -2.36900 43.08900 25.05100
C  -5.23000 41.77800 27.27200
C  -4.87600 42.90600 24.19800
O  -4.57700 43.15400 22.99900
C  -6.29500 42.79600 24.61300
N  0.72600 43.52500 24.45900
C  -0.33000 43.82300 23.66600
C  0.14500 44.29100 22.29300
C  1.65600 44.39300 22.41700
C  1.90000 43.87500 23.88800
C  -0.32500 43.38400 21.08100
C  2.15400 45.84800 22.22900
C  2.20900 46.83400 23.41800
N  2.40900 43.29900 26.73100
C  3.41900 43.45300 25.84100
C  4.72000 43.30000 26.52200
C  4.43700 43.08900 27.88200
C  3.03300 42.98800 27.92600
C  6.05900 43.17200 25.74100
C  5.07300 42.84100 29.16800
O  6.29200 42.92000 29.48200
C  3.87600 42.76800 30.16200
C  4.01100 41.51300 30.98400
O  4.42900 40.46200 30.57800
O  3.74900 41.77600 32.30600
C  3.96700 40.64700 33.18400
H  -3.01100 41.61600 29.10400
H  -2.29800 43.68400 23.06800
H  4.02600 43.97000 23.92500
H  1.15800 41.60400 31.34900
H  -1.57500 42.50400 30.94900
H  -2.10000 40.50200 31.54200
H  -0.53300 40.04000 31.73900
H  -1.20000 39.65700 30.17400
H  -0.25100 44.31600 31.74200
H  1.45500 44.39300 31.21500
H  0.93800 44.64600 33.62500
H  2.26400 43.61100 33.10700
H  -4.83100 41.22800 28.12400
H  -5.65700 40.90000 26.78700
H  -5.86100 42.60300 27.60400
H  -6.55100 41.76400 24.85400
H  -6.90500 43.19300 23.80200
H  -6.52700 43.48700 25.42300
H  -0.27800 45.26700 22.05600
H  2.16400 43.81600 21.64400
H  -0.85300 42.46500 21.33400
H  0.48800 43.08200 20.42100
H  -1.01500 44.01700 20.52400
H  1.59700 46.31100 21.41500
H  3.17100 45.69100 21.87000
H  3.19900 46.85200 23.87200
H  1.39700 46.57800 24.09900
H  2.04800 47.84500 23.04500
H  6.85500 42.70700 26.32200
H  6.40500 44.15800 25.43200
H  5.94600 42.50600 24.88600
H  3.80300 43.66400 30.77900
H  3.78000 40.92100 34.22300
H  4.97000 40.22100 33.15900
H  3.32400 39.79700 32.95500

