158

Mg -1.89800 17.09900 25.72600
C  -2.34300 14.80200 28.28100
C  -2.63100 19.67000 27.85600
C  -1.88900 19.23800 23.03900
C  -1.87500 14.28200 23.46200
N  -2.41000 17.21800 27.81400
C  -2.45800 16.17900 28.71300
C  -2.82600 16.65600 30.12700
C  -3.51300 17.99300 29.77200
C  -2.85000 18.42100 28.38400
C  -5.11100 17.88300 29.78400
C  -1.62300 16.78800 31.14800
C  -1.74000 15.97400 32.44100
H  -2.41500 16.67000 33.65300
N  -2.12200 19.20600 25.53200
C  -2.23000 20.08000 26.56000
C  -2.20700 21.38900 26.04900
C  -2.00600 21.30000 24.65500
C  -2.00800 19.87800 24.34600
C  -2.33900 22.61000 26.88100
C  -1.91700 22.35400 23.54900
O  -1.87600 22.09600 22.35900
C  -1.71700 23.79800 23.86300
N  -1.97300 16.73700 23.57500
C  -1.78700 17.85300 22.75100
C  -1.50500 17.34900 21.29600
C  -1.24500 15.84600 21.48500
C  -1.77300 15.58200 22.91900
C  -2.69200 17.67200 20.34500
C  0.24300 15.49400 21.12500
C  1.21200 16.17000 22.17800
N  -1.96200 14.96000 25.85500
C  -1.98600 13.95200 24.87200
C  -2.02400 12.70000 25.48600
C  -2.22000 12.98900 26.86700
C  -2.09100 14.34800 27.01700
C  -1.96600 11.43900 24.77500
C  -2.52900 12.39800 28.13300
O  -2.63900 11.24700 28.43800
C  -2.63800 13.60300 29.12800
C  -1.69900 13.39600 30.19000
O  -0.53300 13.64600 30.20200
O  -2.32800 12.69700 31.17600
C  -1.43000 12.25600 32.24200
H  -2.86900 20.50400 28.51900
H  -1.86200 19.77300 22.08800
H  -1.78100 13.60400 22.61100
H  -3.57800 15.98500 30.54300
H  -3.24200 18.79700 30.45600
H  -5.55300 17.69500 28.80500
H  -5.46400 18.80600 30.24400
H  -5.37800 17.07500 30.46500
H  -1.45600 17.83000 31.41800
H  -0.70700 16.53400 30.61400
H  -0.69600 15.80600 32.70700
H  -2.25900 15.03600 32.24400
H  -2.16100 22.46500 27.94700
H  -3.38000 22.91700 26.77500
H  -1.67500 23.41300 26.56100
H  -0.69400 23.77800 24.23800
H  -2.58800 23.99500 24.48800
H  -1.75600 24.39400 22.95200
H  -0.59900 17.89700 21.03700
H  -1.94200 15.37400 20.79200
H  -3.29500 16.77300 20.21200
H  -2.38000 18.10900 19.39600
H  -3.43500 18.36800 20.73400
H  0.54100 15.84900 20.13800
H  0.30200 14.40800 21.18600
H  1.84600 16.94300 21.74400
H  1.85100 15.41000 22.62600
H  0.72800 16.75500 22.96000
H  -2.97400 11.04400 24.65500
H  -1.33500 10.81600 25.40900
H  -1.47900 11.54000 23.80500
H  -3.69400 13.47900 29.36700
H  -0.71300 11.58700 31.76500
H  -1.96000 11.63700 32.96500
H  -0.85000 13.06300 32.69000
Mg 26.05400 -0.50000 28.93500
C  28.04000 -1.12500 31.87800
C  23.27800 -0.24300 31.07200
C  24.32000 -0.47400 26.25400
C  29.03000 -1.09900 27.05200
N  25.67600 -0.81500 31.22200
C  26.68900 -0.78600 32.16800
C  26.06100 -0.58300 33.57000
C  24.57200 -0.31600 33.31300
C  24.49300 -0.38700 31.77900
C  23.52700 -1.18900 33.98300
C  26.77300 0.62300 34.37200
C  27.37800 0.20700 35.74700
H  27.19400 1.08800 36.94700
N  24.05900 -0.41100 28.71200
C  23.09000 -0.31700 29.66800
C  21.81800 -0.25200 28.96400
C  22.07100 -0.29800 27.54600
C  23.56300 -0.36100 27.45400
C  20.52900 -0.08700 29.71300
C  21.01400 -0.27300 26.38600
O  21.27500 -0.23800 25.19200
C  19.67000 -0.61800 26.79400
N  26.58600 -0.88400 26.99100
C  25.66300 -0.72400 25.97400
C  26.20300 -0.93200 24.53600
C  27.69200 -1.04900 24.79400
C  27.78900 -1.03300 26.35200
C  25.65600 -2.04900 23.59000
C  28.57800 0.05400 24.07400
C  29.79500 -0.48700 23.34200
N  28.17000 -1.00500 29.28400
C  29.24200 -1.17000 28.45900
C  30.43500 -1.42600 29.23200
C  30.01100 -1.47300 30.56200
C  28.60700 -1.23100 30.53500
C  31.77400 -1.61700 28.65300
C  30.44600 -1.64500 31.91900
O  31.57800 -1.99600 32.31000
C  29.21900 -1.37500 32.79100
C  28.95900 -2.52800 33.73500
O  28.19600 -3.46200 33.54000
O  29.74700 -2.31400 34.89900
C  29.42900 -3.27400 35.97000
H  22.40900 0.04800 31.66600
H  23.72500 -0.52300 25.33900
H  29.89800 -1.02300 26.39300
H  26.17700 -1.53600 34.08800
H  24.23900 0.65200 33.68700
H  23.76800 -2.19200 33.62900
H  22.49600 -0.84200 33.91300
H  23.84600 -1.19700 35.02600
H  25.95500 1.34000 34.43900
H  27.48200 1.01600 33.64400
H  28.46100 0.24300 35.62400
H  27.15700 -0.82000 36.03700
H  20.67900 0.17700 30.76000
H  20.14600 -1.10800 29.71800
H  19.92100 0.68500 29.24200
H  19.16500 -1.04800 25.92900
H  19.13900 0.24400 27.19900
H  19.71600 -1.31300 27.63200
H  25.91600 -0.01900 24.01500
H  28.05100 -2.05300 24.56600
H  25.05300 -1.56800 22.82100
H  25.00700 -2.75100 24.11300
H  26.45900 -2.53600 23.03600
H  28.94900 0.74000 24.83600
H  27.93600 0.59200 23.37600
H  29.75300 -1.57600 23.36100
H  30.63800 -0.14400 23.94100
H  29.90200 -0.00500 22.37000
H  32.54000 -1.38500 29.39300
H  31.86700 -0.88900 27.84700
H  31.94100 -2.60100 28.21500
H  29.43100 -0.42900 33.28900
H  28.41600 -3.12700 36.34400
H  30.17500 -3.09300 36.74400
H  29.49400 -4.32200 35.67600

