158

Mg 9.05000 47.57900 25.64200
C  6.77900 47.75300 28.32600
C  11.45300 48.84200 27.79700
C  11.02700 47.46300 23.03200
C  6.31100 47.09700 23.49500
N  9.03000 48.21800 27.80700
C  8.05600 48.10800 28.75000
C  8.61000 48.47200 30.11900
C  9.91900 49.28000 29.74700
C  10.20300 48.72900 28.35700
C  9.81000 50.86500 29.87600
C  8.65000 47.39000 31.20100
C  7.88200 47.49500 32.50800
H  8.17200 46.34100 33.49100
N  11.01900 48.11200 25.46000
C  11.87100 48.54000 26.43200
C  13.16100 48.86300 25.87700
C  13.13000 48.27900 24.56600
C  11.66100 47.90800 24.27500
C  14.34600 49.40500 26.76600
C  14.24200 48.10100 23.58700
O  14.05000 47.50700 22.55000
C  15.52500 48.22800 24.14400
N  8.74400 47.03400 23.54200
C  9.74300 47.06100 22.71700
C  9.29000 46.92300 21.25900
C  7.79700 47.15000 21.34200
C  7.58600 47.00400 22.84700
C  9.97800 47.73200 20.17800
C  6.96300 46.12600 20.54900
C  6.57500 46.58000 19.15300
N  6.96200 47.42300 25.78100
C  5.96600 47.16400 24.85500
C  4.65900 47.24700 25.45200
C  4.98300 47.34400 26.81700
C  6.40800 47.48600 26.95200
C  3.38200 47.06800 24.79700
C  4.36300 47.33400 28.16800
O  3.20500 47.12300 28.44400
C  5.55400 47.52600 29.23100
C  5.62000 46.26400 30.03400
O  6.30600 45.29800 29.70800
O  4.85300 46.39000 31.09700
C  4.79000 45.24100 32.04800
H  12.15900 49.21400 28.54200
H  11.76200 47.33100 22.23600
H  5.37900 47.06700 22.92500
H  7.88200 49.21600 30.44200
H  10.79000 48.98100 30.33200
H  8.87000 51.11400 30.36800
H  9.69000 51.23000 28.85600
H  10.58800 51.41600 30.40300
H  9.70400 47.31900 31.47000
H  8.36700 46.40700 30.82600
H  6.83700 47.50900 32.20000
H  7.98900 48.50900 32.89300
H  13.97500 49.57900 27.77600
H  14.91500 50.22400 26.32600
H  14.94500 48.51900 26.97300
H  15.72100 49.12000 24.73900
H  16.11000 48.32400 23.22900
H  15.74600 47.30600 24.68300
H  9.38500 45.85900 21.03900
H  7.59300 48.18600 21.07100
H  9.38100 48.31500 19.47700
H  10.60300 46.99800 19.66900
H  10.65300 48.41900 20.69000
H  6.10500 45.81100 21.14200
H  7.51400 45.18600 20.51500
H  5.56700 46.21900 18.94900
H  7.24100 46.12000 18.42300
H  6.59800 47.65900 19.00000
H  2.97500 48.07200 24.91700
H  2.88900 46.24900 25.32000
H  3.47700 46.80800 23.74300
H  5.31900 48.32500 29.93400
H  3.94600 44.57600 31.86700
H  4.49600 45.61500 33.02900
H  5.78800 44.84400 32.23500
Mg -9.47200 18.40300 42.65700
C  -6.02000 17.40400 42.43000
C  -8.56500 21.47300 41.89200
C  -12.76000 18.96500 42.25600
C  -10.19400 14.92300 42.82900
N  -7.45500 19.27500 42.17700
C  -6.20900 18.74200 42.12300
C  -5.13000 19.82800 41.84900
C  -6.01200 21.12300 41.88400
C  -7.46400 20.59900 42.00200
C  -5.60700 22.19800 42.89400
C  -4.32200 19.47000 40.54800
C  -5.15400 19.20500 39.28200
H  -4.79100 19.86900 38.02300
N  -10.51800 20.06900 42.16500
C  -9.97200 21.25000 41.78500
C  -10.97800 22.24300 41.47300
C  -12.18200 21.53000 41.60100
C  -11.89500 20.12500 42.05200
C  -10.70000 23.71100 41.22600
C  -13.52200 22.14500 41.27200
O  -13.64000 23.32700 40.98300
C  -14.80100 21.32100 41.22400
N  -11.16500 17.05800 42.26200
C  -12.36700 17.60100 42.45700
C  -13.51100 16.49500 42.69500
C  -12.72400 15.16800 42.59100
C  -11.26300 15.73500 42.51500
C  -14.27600 16.74900 44.04600
C  -13.15400 14.22000 41.39900
C  -13.55700 12.72900 41.80500
N  -8.35400 16.49600 42.62300
C  -8.81000 15.16400 42.74400
C  -7.71200 14.22400 42.83800
C  -6.51400 15.01900 42.76000
C  -7.00700 16.40800 42.61300
C  -7.77300 12.75700 43.13700
C  -5.09500 15.02600 42.79400
O  -4.25900 14.11800 42.90800
C  -4.71000 16.55300 42.55200
C  -3.83400 16.91700 43.64500
O  -2.62800 16.78300 43.60300
O  -4.52600 17.44100 44.70900
C  -3.70900 17.94800 45.79100
H  -8.33200 22.53900 41.83100
H  -13.81400 19.25200 42.23800
H  -10.35800 13.86200 43.03000
H  -4.47400 19.88100 42.71800
H  -5.82800 21.60500 40.92400
H  -5.29900 23.10900 42.37900
H  -4.78800 21.89200 43.54400
H  -6.43400 22.39500 43.57600
H  -3.63900 18.62800 40.65600
H  -3.71100 20.32300 40.25300
H  -6.21300 19.43500 39.39800
H  -5.08900 18.13500 39.08200
H  -11.22400 24.43400 41.85200
H  -10.96300 23.86500 40.18000
H  -9.67500 24.02400 41.42500
H  -15.06400 21.08400 42.25400
H  -14.62400 20.43300 40.61800
H  -15.59900 21.89300 40.74900
H  -14.25000 16.52600 41.89400
H  -12.89300 14.64100 43.53000
H  -13.90700 17.65800 44.52100
H  -14.06500 15.98600 44.79500
H  -15.32100 17.01800 43.89400
H  -12.27000 14.13100 40.76800
H  -13.96400 14.67700 40.83000
H  -13.44400 12.46100 42.85500
H  -12.92800 12.07000 41.20500
H  -14.57600 12.49800 41.49500
H  -8.82000 12.47900 43.01800
H  -7.24200 12.40500 44.02200
H  -7.34100 12.18800 42.31500
H  -4.10700 16.67400 41.65200
H  -2.98900 18.73000 45.55100
H  -3.36400 17.07400 46.34300
H  -4.38300 18.58600 46.36300

