158

Mg 47.43700 24.61400 28.94900
C  48.10200 26.79700 31.52900
C  46.38700 22.25600 31.14500
C  47.90300 22.19300 26.59100
C  49.18200 26.87700 26.85200
N  47.11600 24.60000 31.01000
C  47.57000 25.57200 31.91700
C  47.47200 25.13800 33.40400
C  47.06300 23.64600 33.25500
C  46.73700 23.47400 31.67800
C  48.17600 22.50400 33.75900
C  46.47500 26.03800 34.20800
C  46.72300 25.91000 35.75200
H  45.58800 26.46500 36.65800
N  46.82200 22.52900 28.82100
C  46.36300 21.79700 29.83200
C  45.96700 20.50900 29.28300
C  46.37800 20.49800 27.96600
C  47.07500 21.74300 27.70900
C  45.16600 19.42400 30.04600
C  46.32500 19.37800 26.92300
O  46.75600 19.64700 25.82300
C  45.76800 18.03100 27.26900
N  48.53100 24.57400 27.12700
C  48.47300 23.45100 26.31800
C  49.39900 23.62300 25.15300
C  49.43900 25.21300 25.02200
C  48.97200 25.63700 26.35400
C  50.77700 22.93600 25.22600
C  48.67100 25.92400 23.89200
C  47.18200 26.35700 24.19600
N  48.21800 26.54400 29.10000
C  48.79300 27.32000 28.13300
C  49.02100 28.66300 28.63700
C  48.82100 28.44600 30.03600
C  48.41800 27.17800 30.24400
C  49.40800 29.87000 27.75300
C  49.02600 29.04800 31.38300
O  49.34300 30.17500 31.71600
C  48.57900 27.97700 32.38400
C  49.71200 27.65800 33.32000
O  50.60500 26.83300 33.08000
O  49.55500 28.39700 34.47500
C  50.57500 28.03700 35.48600
H  46.07700 21.46800 31.83500
H  48.07800 21.47800 25.78400
H  49.61700 27.56400 26.12300
H  48.46600 25.01600 33.83500
H  46.24400 23.46400 33.95100
H  47.79300 21.69400 34.38000
H  49.06700 22.99500 34.15100
H  48.52200 22.12000 32.80000
H  45.50200 25.59200 33.99900
H  46.46200 27.06500 33.84300
H  47.65800 26.38400 36.05000
H  46.76800 24.85300 36.01500
H  44.91700 19.75700 31.05300
H  45.77300 18.51900 30.00300
H  44.27300 19.20800 29.46000
H  44.70700 18.17900 27.47300
H  46.36300 17.71500 28.12600
H  45.94000 17.39800 26.39900
H  48.86900 23.22400 24.28800
H  50.43400 25.64300 24.90300
H  51.59600 23.58500 25.53500
H  51.01200 22.41100 24.30000
H  50.78800 22.18300 26.01400
H  48.76000 25.36000 22.96300
H  49.13300 26.90800 23.82300
H  46.63300 26.16800 23.27300
H  47.02000 27.39500 24.48700
H  46.65500 25.79700 24.96800
H  48.94800 29.66900 26.78500
H  50.49100 29.83900 27.63200
H  49.06800 30.86000 28.05700
H  47.84200 28.57500 32.91900
H  50.67000 28.89700 36.14900
H  51.51400 27.63400 35.10600
H  50.13300 27.26900 36.12100
Mg 16.25000 50.89700 25.27400
C  18.03200 49.62900 27.90600
C  13.62700 51.75400 27.48400
C  14.63300 52.16900 22.66800
C  18.90100 49.80100 23.11400
N  15.94100 50.80500 27.38800
C  16.90300 50.39800 28.30200
C  16.42100 50.60300 29.75800
C  14.89500 50.87500 29.55600
C  14.77400 51.15900 28.06800
C  13.92000 49.77700 30.05100
C  17.32500 51.63900 30.33800
C  17.32900 51.84800 31.86600
H  16.38800 51.03300 32.79100
N  14.37100 51.95100 25.11700
C  13.47600 52.16800 26.09800
C  12.37700 52.92400 25.53000
C  12.63000 52.96300 24.13500
C  13.90200 52.38000 23.89500
C  11.22800 53.45600 26.38100
C  11.82700 53.62000 23.10100
O  12.17100 53.74600 21.96000
C  10.44900 54.15600 23.46700
N  16.74000 50.97700 23.22000
C  15.82800 51.53600 22.38400
C  16.25900 51.27700 20.92200
C  17.72900 50.78400 21.13000
C  17.85900 50.54400 22.60900
C  15.30900 50.31300 20.17800
C  18.81600 51.78700 20.72800
C  19.64300 51.46900 19.37500
N  18.02700 49.84200 25.42400
C  19.00900 49.49600 24.51200
C  20.00900 48.66700 25.10800
C  19.66200 48.78300 26.45700
C  18.46100 49.49500 26.56100
C  21.15000 47.94000 24.52700
C  20.07600 48.32300 27.84300
O  20.92700 47.54800 28.20900
C  19.05500 48.86400 28.83100
C  18.45400 47.63800 29.40900
O  17.89300 46.75800 28.75900
O  18.52400 47.67100 30.79000
C  17.60900 46.81300 31.57100
H  12.84500 51.90100 28.23100
H  14.14200 52.38200 21.71600
H  19.62900 49.34600 22.44000
H  16.53000 49.66600 30.30400
H  14.73900 51.84800 30.02300
H  13.23400 50.38400 30.64300
H  14.40500 49.05300 30.70500
H  13.45100 49.20800 29.24800
H  17.13700 52.61900 29.90000
H  18.38900 51.49500 30.15100
H  17.30300 52.92700 32.02100
H  18.32700 51.57800 32.21200
H  10.97800 54.50800 26.24500
H  11.27000 53.17500 27.43400
H  10.36800 52.87900 26.04100
H  10.45100 54.99700 24.16000
H  9.88900 53.27400 23.77700
H  10.17000 54.72300 22.57900
H  16.28900 52.24900 20.43000
H  17.71600 49.83400 20.59500
H  15.83400 49.69300 19.45100
H  14.56200 50.82400 19.57100
H  14.78200 49.62000 20.83300
H  19.54400 51.83300 21.53900
H  18.36600 52.77800 20.78500
H  19.14300 51.28800 18.42300
H  20.46200 50.77600 19.57000
H  20.10400 52.43500 19.16800
H  22.09600 48.45100 24.70500
H  20.97900 47.64000 23.49300
H  21.13300 46.98900 25.05900
H  19.58800 49.50200 29.53700
H  16.95700 47.52100 32.08300
H  18.07600 46.21200 32.35100
H  16.91100 46.23900 30.96100

