158

Mg 31.44300 58.69800 39.82900
C  28.80800 56.83000 38.53600
C  33.53500 56.07000 39.56300
C  33.98300 60.93900 39.97700
C  29.15900 61.43100 40.31400
N  31.23300 56.77200 38.92500
C  30.03600 56.16000 38.49400
C  30.38400 54.73200 37.99700
C  31.70500 54.49400 38.76100
C  32.18500 55.84000 39.21800
C  31.62600 53.46900 39.98600
C  30.51500 54.48600 36.39100
C  29.38300 53.79400 35.60500
H  28.53900 54.62700 34.61000
N  33.49700 58.54100 39.67600
C  34.16600 57.38400 39.65000
C  35.56800 57.66400 39.49500
C  35.78300 59.01800 39.72900
C  34.40100 59.59000 39.80500
C  36.55100 56.55300 39.21800
C  37.13400 59.73500 39.92600
O  38.17800 59.08200 39.86100
C  37.28100 61.15800 40.21800
N  31.58400 60.93300 40.05800
C  32.76400 61.58300 40.17100
C  32.54700 63.10600 40.45100
C  31.03900 63.21300 40.79900
C  30.47600 61.75600 40.39500
C  33.68600 63.66000 41.34400
C  30.24800 64.33600 39.97300
C  29.43700 65.29600 40.85300
N  29.33800 59.07000 39.57400
C  28.53300 60.22500 39.82200
C  27.16500 59.92100 39.42900
C  27.20900 58.57900 39.01400
C  28.54300 58.17900 39.02200
C  26.02200 60.89400 39.37600
C  26.40700 57.48900 38.49600
O  25.20700 57.41900 38.24000
C  27.41800 56.30800 38.06900
C  26.93900 55.17300 38.93500
O  27.47500 54.89900 40.00100
O  25.87400 54.61600 38.37600
C  25.49300 53.34900 38.99200
H  34.14400 55.17500 39.71000
H  34.81100 61.61700 40.19400
H  28.46700 62.21300 40.63300
H  29.55800 54.06500 38.24200
H  32.46800 54.02000 38.14500
H  31.92400 52.44400 39.76400
H  30.58800 53.32300 40.28500
H  32.14700 53.82400 40.87600
H  31.43900 54.03000 36.03500
H  30.57900 55.51700 36.04100
H  28.65100 53.44700 36.33400
H  29.73400 52.92000 35.05700
H  36.96900 56.62500 38.21400
H  36.08500 55.58100 39.37700
H  37.30400 56.49200 40.00300
H  36.87200 61.75300 39.40100
H  38.28800 61.57700 40.23500
H  36.86400 61.34400 41.20800
H  32.66800 63.59100 39.48200
H  30.91600 63.38400 41.86800
H  34.16700 62.85900 41.90400
H  33.20900 64.26000 42.11800
H  34.43200 64.34300 40.93800
H  29.55700 63.83200 39.29700
H  30.98900 64.85600 39.36700
H  29.60400 66.33800 40.57900
H  29.75900 65.29700 41.89400
H  28.37900 65.04600 40.77700
H  25.14600 60.26600 39.21300
H  26.20800 61.50000 38.48900
H  25.87600 61.41700 40.32100
H  27.41400 55.96700 37.03400
H  25.17100 53.59200 40.00400
H  26.29700 52.61400 38.95200
H  24.62200 53.05600 38.40600
Mg 6.84700 55.75000 41.00100
C  4.33600 53.19600 40.95500
C  9.02300 53.50200 39.59100
C  9.03700 58.33000 40.37100
C  4.35200 58.12600 41.74300
N  6.59000 53.59500 40.17200
C  5.48400 52.79100 40.28400
C  5.79500 51.49300 39.52300
C  7.39300 51.49300 39.24200
C  7.72600 52.95300 39.80100
C  8.14000 50.40200 39.89300
C  5.02200 51.51400 38.18200
C  4.51200 50.12900 37.72600
H  5.18200 49.62900 36.52200
N  8.81200 55.86900 40.22300
C  9.51200 54.85000 39.70800
C  10.83800 55.25200 39.55300
C  10.90200 56.67200 39.67300
C  9.54000 57.05400 40.07600
C  11.90900 54.37900 39.02500
C  12.07500 57.51100 39.35700
O  13.15000 57.08300 39.03900
C  11.99000 58.95300 39.35300
N  6.65300 57.97000 40.80400
C  7.73400 58.81100 40.72000
C  7.38300 60.24700 41.17600
C  5.92800 60.05400 41.67200
C  5.61800 58.59400 41.37200
C  8.23600 60.74900 42.29400
C  4.95500 61.15900 41.03700
C  3.81400 61.68900 41.95400
N  4.85800 55.71400 41.39300
C  3.97900 56.75000 41.72800
C  2.66900 56.21500 41.96200
C  2.82500 54.85800 41.71800
C  4.14200 54.60200 41.31300
C  1.45900 56.90000 42.39100
C  2.00800 53.63000 41.72100
O  0.80000 53.45000 41.95100
C  3.05600 52.47900 41.41900
C  2.45100 51.47400 40.49100
O  1.98800 51.71000 39.36900
O  2.61000 50.21300 41.01800
C  1.87100 49.09400 40.31200
H  9.75700 52.77100 39.24500
H  9.77100 59.12900 40.25300
H  3.64400 58.81300 42.21000
H  5.58700 50.68700 40.22700
H  7.54900 51.37600 38.16900
H  7.44600 49.66300 40.29300
H  8.68300 50.70500 40.78800
H  8.84800 50.00300 39.16600
H  5.67100 51.77500 37.34600
H  4.20300 52.21900 38.32000
H  3.42600 50.14500 37.64000
H  4.66300 49.38600 38.50900
H  11.67200 53.31700 38.96100
H  12.79000 54.44000 39.66400
H  12.24900 54.71600 38.04500
H  11.27100 59.28500 38.60400
H  12.93000 59.43600 39.08500
H  11.64900 59.28800 40.33200
H  7.38100 60.96300 40.35400
H  5.77200 60.05300 42.75100
H  7.65000 61.49700 42.82900
H  8.90200 61.33800 41.66500
H  8.88700 60.06200 42.83500
H  4.58400 60.68400 40.12900
H  5.64600 61.97100 40.81200
H  3.98300 62.75500 42.10600
H  3.64400 61.12900 42.87400
H  2.96300 61.59400 41.27900
H  1.09400 57.55300 41.59800
H  1.72400 57.46400 43.28500
H  0.63400 56.21600 42.59000
H  3.34200 51.96600 42.33700
H  2.11700 49.12100 39.25100
H  0.80900 49.07900 40.56100
H  2.20700 48.19200 40.82400

