158

Mg 49.50100 44.16900 42.94200
C  46.06300 44.52200 41.80300
C  49.32400 40.85200 42.10000
C  52.88700 43.99400 42.82400
C  49.60300 47.63000 43.16100
N  47.88100 42.90900 42.00200
C  46.58700 43.24900 41.70500
C  45.89000 42.10800 41.00600
C  46.78000 40.89100 41.38500
C  48.09600 41.55600 41.87900
C  46.14000 39.95700 42.51700
C  45.76900 42.47900 39.50300
C  44.57400 41.94900 38.80000
H  44.78800 41.32000 37.37800
N  50.88300 42.57400 42.68900
C  50.67300 41.29700 42.34400
C  51.84400 40.50600 42.41900
C  52.90500 41.47900 42.69000
C  52.25000 42.78600 42.69000
C  51.99000 38.97600 42.19500
C  54.38600 41.11400 42.82200
O  54.76300 39.95800 42.69300
C  55.49000 42.02800 43.20400
N  51.00600 45.54000 42.99700
C  52.38000 45.27500 43.05300
C  53.27000 46.54500 43.17800
C  52.20200 47.62700 43.35100
C  50.85200 46.91900 43.21900
C  54.36800 46.52000 44.34500
C  52.28500 48.79400 42.26400
C  51.88300 50.19400 42.71600
N  48.13400 45.78100 42.69300
C  48.32600 47.13700 42.87500
C  47.07200 47.83800 42.67000
C  46.18300 46.85400 42.30100
C  46.89400 45.59600 42.29100
C  46.73800 49.29200 42.69600
C  44.83100 46.69700 41.74700
O  43.97800 47.52600 41.45200
C  44.69600 45.17800 41.43500
C  43.50200 44.54100 42.16000
O  42.57400 43.97100 41.52900
O  43.52700 44.83300 43.47100
C  42.24800 44.58000 44.15400
H  49.20500 39.77600 41.95700
H  53.96800 43.99000 42.98000
H  49.65500 48.71700 43.24400
H  44.88800 42.07700 41.43200
H  46.77000 40.23700 40.51300
H  45.69400 39.09900 42.01500
H  45.34000 40.48200 43.03800
H  46.79900 39.49900 43.25500
H  46.55800 42.04700 38.88700
H  45.82200 43.53300 39.23000
H  43.81600 42.72100 38.66700
H  44.19400 41.15100 39.43800
H  52.44500 38.73900 41.23400
H  51.01800 38.48500 42.24000
H  52.60700 38.42400 42.90500
H  56.39600 41.53000 43.55100
H  55.27800 42.51300 44.15700
H  55.71900 42.73900 42.41000
H  53.90300 46.76300 42.31700
H  52.16700 48.18500 44.28600
H  55.34600 46.88000 44.02400
H  54.62900 45.55800 44.78500
H  54.03700 47.23800 45.09500
H  51.54300 48.64900 41.47800
H  53.21500 48.81100 41.69500
H  52.54400 51.02700 42.47600
H  51.54800 50.25800 43.75100
H  51.01900 50.43600 42.09700
H  47.48200 49.95300 42.25200
H  46.61000 49.60100 43.73300
H  45.90800 49.31300 41.98900
H  44.45900 45.03000 40.38100
H  42.05100 43.53000 44.37000
H  41.37100 45.06900 43.72900
H  42.28200 44.96000 45.17600
Mg 42.91000 41.93100 25.65700
C  42.18800 44.15400 28.24300
C  43.97900 39.76800 28.10000
C  44.03300 40.04400 23.20800
C  42.21800 44.51600 23.31900
N  42.98500 41.91800 27.95700
C  42.65100 42.95500 28.78900
C  42.71200 42.63200 30.28500
C  43.53900 41.26200 30.18800
C  43.57200 40.96700 28.69300
C  45.03600 41.33400 30.74600
C  41.31200 42.49500 30.99300
C  41.18300 41.80000 32.25500
H  40.45200 42.57800 33.40900
N  43.81800 40.11000 25.64700
C  44.15100 39.31800 26.76500
C  44.63200 38.06500 26.30100
C  44.51500 38.08000 24.88300
C  44.22500 39.49800 24.52800
C  44.83200 36.86700 27.19000
C  44.61300 36.97400 23.92400
O  44.43200 37.19400 22.74200
C  44.65400 35.46500 24.36500
N  43.33400 42.33500 23.58400
C  43.63200 41.29600 22.77500
C  43.54100 41.71900 21.29300
C  42.95200 43.18000 21.28600
C  42.76300 43.33700 22.84500
C  44.79800 41.50300 20.46200
C  41.72300 43.49100 20.37700
C  40.32400 43.11000 20.90700
N  42.43900 43.88300 25.66800
C  42.04800 44.80800 24.65600
C  41.47200 45.96000 25.30000
C  41.48500 45.68100 26.66200
C  42.04300 44.42600 26.85900
C  40.90600 47.15600 24.48900
C  41.08400 46.20100 27.93100
O  40.52700 47.25500 28.15100
C  41.58100 45.27600 29.07000
C  42.61100 46.02600 29.77800
O  43.72100 46.36600 29.33800
O  42.17600 46.45600 30.97700
C  43.02400 47.37700 31.65800
H  44.23800 39.07000 28.89900
H  44.24600 39.45200 22.31500
H  41.81100 45.28100 22.65500
H  43.25100 43.32800 30.92800
H  43.08200 40.46500 30.77400
H  45.34700 42.37800 30.74400
H  45.65300 40.79600 30.02700
H  45.25400 40.86100 31.70400
H  40.64900 42.05700 30.24800
H  41.04400 43.53100 31.20400
H  42.17200 41.48200 32.58400
H  40.65100 40.86500 32.07700
H  44.89600 37.16700 28.23600
H  45.71500 36.24400 27.05000
H  43.96800 36.20500 27.13300
H  44.72300 34.91300 23.42700
H  43.65700 35.34300 24.78900
H  45.45200 35.05400 24.98300
H  42.72200 41.13500 20.87400
H  43.71400 43.91700 21.03500
H  45.65200 41.25700 21.09300
H  45.08600 42.32200 19.80300
H  44.70200 40.61700 19.83600
H  41.95300 43.14300 19.37000
H  41.73000 44.58100 20.41300
H  40.52300 42.33900 21.65100
H  39.70900 42.60600 20.16200
H  39.90000 43.97800 21.41300
H  40.71000 46.91000 23.44600
H  41.67200 47.93000 24.44600
H  40.12100 47.73500 24.97500
H  40.81100 44.95200 29.77000
H  43.75700 46.75600 32.17300
H  42.43100 47.98300 32.34200
H  43.59500 47.97800 30.95000

