158

Mg 23.67500 -5.67400 45.88500
C  25.73900 -3.35900 44.11600
C  21.13200 -4.90300 43.59500
C  21.82500 -8.10300 47.18700
C  26.36600 -6.60600 47.86500
N  23.50500 -4.27200 44.06300
C  24.42000 -3.42200 43.59700
C  23.87100 -2.65000 42.35800
C  22.30500 -2.88200 42.53000
C  22.29900 -4.14400 43.40400
C  21.60500 -1.74400 43.32800
C  24.49200 -3.01400 40.97400
C  24.98500 -1.81300 40.17900
H  24.80000 -1.88700 38.59100
N  21.69600 -6.43000 45.44100
C  20.81900 -5.93900 44.48100
C  19.55100 -6.58900 44.70000
C  19.76200 -7.66900 45.55500
C  21.14100 -7.41900 46.13000
C  18.34800 -6.07800 43.93700
C  18.75200 -8.71700 45.96600
O  17.70200 -8.63900 45.36100
C  18.93000 -9.70000 47.05300
N  24.10200 -7.25400 47.23900
C  23.06800 -8.05700 47.72000
C  23.58600 -9.05300 48.75000
C  24.91700 -8.38700 49.24000
C  25.18500 -7.38800 48.05600
C  22.60600 -9.44000 49.89800
C  26.07400 -9.41200 49.54600
C  26.44600 -9.68800 50.97300
N  25.68000 -5.10400 46.02600
C  26.63000 -5.49200 46.93400
C  27.89000 -4.88200 46.62700
C  27.49500 -3.92400 45.64100
C  26.22100 -4.13300 45.26000
C  29.32800 -5.11200 47.26500
C  28.01600 -2.84600 44.83000
O  29.16400 -2.32000 44.82400
C  26.84500 -2.44500 43.78400
C  26.48000 -0.99400 44.01300
O  26.55900 -0.39700 45.08600
O  26.16300 -0.38700 42.90100
C  26.00400 1.04900 42.80400
H  20.34600 -4.57600 42.91100
H  21.17000 -8.87600 47.59400
H  27.21400 -6.58700 48.55300
H  24.08300 -1.62800 42.67300
H  21.74600 -3.00100 41.60200
H  22.31400 -0.93600 43.51100
H  21.30100 -2.14700 44.29400
H  20.81100 -1.23800 42.78100
H  23.70900 -3.53000 40.41800
H  25.30500 -3.73100 41.08900
H  25.94100 -1.38300 40.47900
H  24.29700 -1.02100 40.47100
H  17.96600 -5.35100 44.65400
H  17.59000 -6.84400 43.77700
H  18.57700 -5.72700 42.93100
H  18.14800 -10.45800 47.09100
H  19.04700 -9.19700 48.01300
H  19.81800 -10.30700 46.87700
H  23.77600 -9.92400 48.12300
H  24.75800 -7.88000 50.19100
H  21.62900 -8.95900 49.85700
H  23.04300 -9.26800 50.88200
H  22.49900 -10.49500 49.64700
H  27.04900 -9.13700 49.14500
H  25.80100 -10.29500 48.96800
H  27.29300 -9.12400 51.36300
H  26.65500 -10.74000 51.16600
H  25.49400 -9.48500 51.46400
H  29.59500 -6.14300 47.03200
H  29.20700 -4.94300 48.33500
H  30.11400 -4.47000 46.86700
H  27.27200 -2.53400 42.78500
H  26.01800 1.59100 43.75000
H  24.96000 1.21100 42.53700
H  26.50900 1.49700 41.94900
Mg 44.35200 3.79700 47.29100
C  42.27300 6.67000 46.88800
C  41.66200 1.86500 46.73400
C  46.37300 1.26900 46.79700
C  47.14300 6.06400 47.03100
N  42.19800 4.24600 46.85100
C  41.56200 5.40600 46.79800
C  40.08600 5.23700 46.51600
C  39.83300 3.71900 46.86300
C  41.33300 3.23500 46.81900
C  39.14000 3.47500 48.19800
C  39.75600 5.67900 45.04200
C  38.61200 6.66300 44.93700
H  38.35100 7.46000 43.59000
N  44.05400 1.76700 46.94600
C  42.82800 1.13700 46.84300
C  43.01900 -0.24600 46.76400
C  44.46800 -0.45200 46.75400
C  45.02600 0.88200 46.84900
C  41.88500 -1.25400 46.84200
C  45.11500 -1.80300 46.63800
O  44.48600 -2.82400 46.64500
C  46.58200 -1.98400 46.48400
N  46.49600 3.72600 46.83600
C  47.01300 2.50100 46.79400
C  48.54400 2.58500 46.82900
C  48.76400 4.07700 46.64700
C  47.41800 4.69400 46.88600
C  49.29100 1.97800 48.02700
C  49.34500 4.50900 45.26400
C  50.86200 4.82000 45.00600
N  44.67900 5.85300 47.16600
C  45.86700 6.61700 47.08800
C  45.53900 8.06600 46.95100
C  44.13100 8.11600 46.96900
C  43.67300 6.80100 47.09300
C  46.59600 9.15300 46.75600
C  42.97800 9.02900 46.87200
O  42.94600 10.23700 46.78900
C  41.68000 8.09400 46.83000
C  40.85300 8.37400 48.02500
O  41.19200 8.10300 49.14100
O  39.64200 8.90500 47.68800
C  38.67800 8.92000 48.84600
H  40.70800 1.36600 46.54900
H  47.06000 0.42100 46.81300
H  48.07200 6.63500 47.07600
H  39.62200 5.98400 47.15900
H  39.22100 3.27400 46.07900
H  39.00200 4.44100 48.68600
H  39.77100 2.85800 48.83800
H  38.18300 2.95300 48.19000
H  39.50600 4.84900 44.38200
H  40.63900 6.17100 44.63300
H  38.65700 7.37700 45.75900
H  37.66000 6.13500 44.98700
H  41.90800 -1.73100 47.82200
H  41.96700 -1.95200 46.00900
H  40.92400 -0.80400 46.59300
H  46.95500 -1.69100 45.50300
H  46.83000 -3.04500 46.48700
H  47.05000 -1.58100 47.38300
H  48.94900 1.98500 46.01500
H  49.37800 4.37800 47.49500
H  49.94100 1.18500 47.65700
H  48.67600 1.52700 48.80600
H  49.88100 2.74200 48.53500
H  48.72300 5.30100 44.84700
H  49.14900 3.66000 44.60800
H  51.25500 3.98800 44.42100
H  51.45600 4.76600 45.91800
H  51.07700 5.74000 44.46100
H  47.47500 8.88300 47.34300
H  46.20900 10.05900 47.22300
H  46.89500 9.24400 45.71200
H  41.21500 8.33100 45.87300
H  38.90000 9.60500 49.66500
H  38.50300 7.96400 49.33800
H  37.71000 9.31500 48.53800

