158

Mg 23.77400 -5.75800 45.91600
C  25.88000 -3.38300 44.14400
C  21.16100 -4.78300 43.93400
C  22.08900 -8.60300 46.66500
C  26.72300 -7.05100 47.36300
N  23.53200 -4.20800 44.31000
C  24.53000 -3.36400 43.67800
C  23.92100 -2.60300 42.50000
C  22.40800 -2.83200 42.69700
C  22.34600 -4.02600 43.67000
C  21.70400 -1.60900 43.19800
C  24.46000 -2.97000 41.07500
C  25.13100 -1.79900 40.27700
H  25.94800 -2.19100 38.99100
N  21.84300 -6.46100 45.57200
C  20.91500 -5.83800 44.79600
C  19.60200 -6.51200 45.00600
C  19.92000 -7.81500 45.65200
C  21.34500 -7.65200 45.98500
C  18.35600 -5.96700 44.48600
C  18.86100 -8.86700 46.11200
O  17.66000 -8.65200 45.86700
C  19.20200 -9.97900 46.90700
N  24.29700 -7.48600 46.91400
C  23.43200 -8.52500 47.12400
C  24.07600 -9.62600 47.93900
C  25.39500 -8.95200 48.38000
C  25.52200 -7.75200 47.45200
C  23.13400 -10.20800 49.07300
C  26.64200 -9.95600 48.36900
C  27.16200 -10.19400 46.89900
N  25.84800 -5.26000 45.90900
C  26.92900 -5.88600 46.48700
C  28.07800 -5.16000 46.31700
C  27.76400 -4.19600 45.36500
C  26.34400 -4.29200 45.15300
C  29.39300 -5.43100 46.98000
C  28.24200 -3.11300 44.50300
O  29.32700 -2.71900 44.27400
C  27.08400 -2.57600 43.66800
C  26.98100 -1.11900 43.99400
O  26.35100 -0.61700 44.89300
O  27.67400 -0.38400 43.12400
C  27.79800 1.02200 43.33100
H  20.25100 -4.47500 43.41500
H  21.67000 -9.56700 46.95800
H  27.54600 -7.37300 48.00400
H  24.13000 -1.56800 42.77100
H  21.96100 -3.00800 41.71900
H  21.69100 -1.50700 44.28300
H  20.66800 -1.68000 42.86700
H  22.09300 -0.68300 42.77600
H  23.60900 -3.29500 40.47700
H  25.12600 -3.81300 41.25900
H  25.73900 -1.31900 41.04400
H  24.30500 -1.16400 39.95900
H  18.17900 -6.49900 43.55100
H  18.47300 -4.92400 44.19000
H  17.52500 -6.19700 45.15200
H  18.28000 -10.55700 46.97700
H  19.59900 -9.58300 47.84200
H  19.93900 -10.62600 46.43200
H  24.22700 -10.51100 47.32100
H  25.20600 -8.51500 49.36000
H  22.34500 -9.46700 49.19800
H  23.65200 -10.57200 49.96000
H  22.61600 -11.11200 48.75200
H  26.33600 -10.93800 48.72800
H  27.44500 -9.69600 49.05900
H  26.86000 -11.22600 46.72000
H  28.24900 -10.26300 46.87900
H  26.81300 -9.51900 46.11800
H  29.88700 -6.21600 46.40700
H  29.19800 -5.68300 48.02200
H  29.96800 -4.50600 46.93400
H  27.19500 -2.48100 42.58800
H  28.27800 1.10900 44.30600
H  26.84800 1.55200 43.39300
H  28.56100 1.47200 42.69600
Mg 16.70500 -2.16800 28.14400
C  15.69900 -0.21600 30.77800
C  19.00600 -3.75900 30.24800
C  18.04200 -3.73700 25.56100
C  14.69700 -0.20400 26.01100
N  17.35800 -1.87500 30.28400
C  16.68700 -1.16400 31.20500
C  17.26800 -1.41000 32.65700
C  18.40000 -2.46200 32.30900
C  18.28500 -2.74100 30.83600
C  19.87000 -2.10300 32.74100
C  16.13100 -1.89300 33.64900
C  15.94800 -1.00000 34.89800
H  17.12900 -0.34200 35.70400
N  18.31900 -3.63300 27.95400
C  19.05500 -4.19100 28.91500
C  19.94500 -5.14000 28.37600
C  19.72200 -5.18000 26.95900
C  18.61700 -4.16400 26.74300
C  20.89600 -5.96400 29.29500
C  20.45500 -5.96500 25.86700
O  20.09100 -5.80100 24.74300
C  21.69900 -6.83400 26.14100
N  16.40200 -1.98100 26.03800
C  17.05000 -2.80900 25.18100
C  16.79900 -2.41700 23.80400
C  15.53800 -1.49100 23.97100
C  15.55200 -1.17300 25.46800
C  18.01800 -1.83200 23.02000
C  14.18600 -1.94100 23.42500
C  13.63100 -1.00500 22.32200
N  15.43300 -0.60600 28.28000
C  14.64700 0.02900 27.35600
C  13.80600 1.04800 28.04100
C  14.19200 0.90200 29.34000
C  15.19900 -0.01900 29.46200
C  12.84400 2.00000 27.44100
C  13.93900 1.52200 30.64800
O  13.23300 2.44000 31.00800
C  14.84300 0.64900 31.69200
C  15.57400 1.62700 32.51800
O  16.74400 1.88300 32.43300
O  14.66000 2.16900 33.45000
C  15.21800 3.14800 34.40500
H  19.71900 -4.35600 30.82100
H  18.29700 -4.32600 24.67700
H  14.10400 0.39800 25.32000
H  17.76400 -0.54500 33.09600
H  18.05700 -3.34900 32.84200
H  19.98600 -1.13500 33.23000
H  20.51800 -2.12100 31.86500
H  20.17300 -2.84700 33.47800
H  16.27300 -2.93900 33.92100
H  15.21400 -1.85200 33.06100
H  15.44100 -1.62100 35.63600
H  15.27400 -0.19400 34.60900
H  21.20000 -6.89200 28.81300
H  20.62900 -6.10800 30.34200
H  21.82600 -5.39700 29.32900
H  21.36700 -7.76900 26.59100
H  22.31200 -6.33500 26.89300
H  22.29700 -6.99900 25.24400
H  16.54900 -3.35200 23.30200
H  15.85900 -0.58600 23.45500
H  18.87700 -2.01000 23.66800
H  17.92200 -0.75200 22.90300
H  18.03200 -2.21200 21.99900
H  13.54700 -2.14800 24.28400
H  14.36000 -2.91500 22.96800
H  14.39900 -0.42200 21.81300
H  13.09900 -0.24100 22.88900
H  12.94700 -1.56100 21.68200
H  12.16900 2.35200 28.22100
H  12.22000 1.45500 26.73200
H  13.32800 2.83400 26.93400
H  14.09200 0.12500 32.28300
H  14.97700 4.12000 33.97600
H  16.27000 3.15000 34.68900
H  14.59100 3.11600 35.29600

