158

Mg 0.45700 43.28300 25.43700
C  2.23000 43.05900 28.28600
C  -2.46300 42.52500 27.23200
C  -1.16400 42.26400 22.59900
C  3.33100 43.87100 23.54000
N  -0.06600 42.81000 27.56100
C  0.82800 42.91800 28.59700
C  0.21800 42.83300 30.00900
C  -1.29800 42.72300 29.54100
C  -1.28800 42.61400 28.03800
C  -2.13800 41.56300 30.27800
C  0.51900 44.02800 31.07700
C  0.92200 43.74100 32.46600
H  0.61300 42.30600 33.16400
N  -1.47200 42.57900 24.92500
C  -2.49800 42.51800 25.83300
C  -3.75000 42.43600 25.08500
C  -3.39300 42.20700 23.73600
C  -1.96000 42.35100 23.73400
C  -5.08200 42.63300 25.81800
C  -4.32100 41.98200 22.42900
O  -3.92100 42.11800 21.29700
C  -5.72700 41.74900 22.66700
N  1.05000 42.99500 23.31600
C  0.15800 42.57600 22.40200
C  0.83700 42.64400 20.98400
C  2.13600 43.50900 21.31300
C  2.18000 43.46100 22.83900
C  1.14800 41.31700 20.29200
C  2.19800 44.99400 20.75700
C  2.26000 46.12300 21.76100
N  2.46900 43.41900 25.80200
C  3.51800 43.70300 24.93500
C  4.70100 43.83100 25.77300
C  4.26200 43.61800 27.08200
C  2.85100 43.30200 27.05800
C  6.10000 44.19300 25.35000
C  4.67300 43.51300 28.45700
O  5.79000 43.62500 28.95100
C  3.43900 43.09800 29.28900
C  3.73300 41.89300 30.14700
O  3.38100 40.75300 29.88200
O  4.37700 42.30500 31.33100
C  4.83400 41.19700 32.18900
H  -3.35700 42.47400 27.85700
H  -1.69900 41.78100 21.77800
H  4.23100 44.26800 23.06600
H  0.60100 41.93900 30.50100
H  -1.81200 43.64200 29.82300
H  -2.84600 42.08700 30.92000
H  -1.48800 40.88200 30.82800
H  -2.74600 41.09900 29.50200
H  -0.41000 44.58500 31.20100
H  1.23500 44.72300 30.63800
H  0.37900 44.30800 33.22100
H  1.97500 44.00300 32.57500
H  -5.83400 43.09000 25.17500
H  -4.99500 43.32000 26.66000
H  -5.56300 41.78500 26.30500
H  -5.85200 41.03300 23.48000
H  -6.22900 41.42700 21.75500
H  -6.26200 42.69200 22.77200
H  0.09800 43.20200 20.40900
H  3.05100 42.98000 21.04900
H  1.24500 40.60500 21.11200
H  2.13500 41.32000 19.83100
H  0.39900 41.11100 19.52800
H  1.45000 45.31600 20.03200
H  3.16000 44.93000 20.24700
H  1.28600 46.14400 22.25000
H  2.38000 47.14800 21.41200
H  2.93600 46.04700 22.61200
H  6.32500 45.11800 25.88100
H  6.24400 44.21700 24.27000
H  6.85500 43.50500 25.73000
H  3.48000 43.90200 30.02500
H  5.54400 40.63700 31.58200
H  3.93800 40.67100 32.51800
H  5.28200 41.73000 33.02800
Mg -12.35500 15.80100 41.34900
C  -9.45900 13.85100 41.09300
C  -10.36800 18.52800 39.93800
C  -15.16200 17.48700 40.74200
C  -14.10500 13.08300 42.45500
N  -10.13900 16.11700 40.49800
C  -9.15500 15.14200 40.59200
C  -7.86700 15.71100 39.97000
C  -8.19300 17.26100 39.74500
C  -9.62900 17.36100 40.08000
C  -7.37900 18.31800 40.56600
C  -7.24100 14.92200 38.75800
C  -5.75600 14.87800 38.88000
H  -4.96500 15.58800 37.78400
N  -12.72300 17.75200 40.54500
C  -11.79900 18.71300 40.08400
C  -12.59200 19.84800 39.64000
C  -13.97000 19.60200 39.81700
C  -14.04500 18.19000 40.33300
C  -11.92200 21.17400 39.08100
C  -15.09200 20.60100 39.45700
O  -14.82700 21.62400 38.79800
C  -16.60900 20.37900 39.72200
N  -14.47300 15.25300 41.36000
C  -15.40200 16.27600 41.33100
C  -16.82000 15.78500 41.86800
C  -16.44200 14.37100 42.41400
C  -14.94100 14.18900 42.13800
C  -17.41800 16.75300 42.92400
C  -17.33000 13.18900 41.91400
C  -17.83200 12.20400 42.96100
N  -11.89500 13.85700 41.73400
C  -12.68800 12.86200 42.28600
C  -11.84400 11.68200 42.52900
C  -10.55500 12.06500 42.11700
C  -10.67000 13.41600 41.66400
C  -12.25600 10.34700 43.10900
C  -9.10700 11.65700 42.06200
O  -8.55200 10.61400 42.40000
C  -8.34400 12.86800 41.36100
C  -7.32900 13.40600 42.33300
O  -7.59100 13.92000 43.42700
O  -6.07200 13.42800 41.83300
C  -4.98100 14.09300 42.57400
H  -9.76100 19.38400 39.63600
H  -16.00100 18.18100 40.65300
H  -14.62400 12.28600 42.99300
H  -7.24400 15.71000 40.86400
H  -8.07800 17.42100 38.67200
H  -7.97200 19.12300 41.00100
H  -6.69200 18.78500 39.86100
H  -6.61600 17.94500 41.24900
H  -7.32100 15.48200 37.82600
H  -7.64400 13.91100 38.69200
H  -5.41100 13.84400 38.87600
H  -5.31700 15.39600 39.73200
H  -10.83400 21.15400 39.15600
H  -12.12100 22.00500 39.75900
H  -12.19300 21.46800 38.06700
H  -16.95100 19.59000 39.05200
H  -17.14600 21.30100 39.49800
H  -16.86900 20.07200 40.73500
H  -17.49600 15.74400 41.01400
H  -16.50500 14.45500 43.49900
H  -16.57100 17.39400 43.16700
H  -17.77600 16.41200 43.89600
H  -18.26000 17.29600 42.49600
H  -16.75700 12.57700 41.21700
H  -18.06400 13.68400 41.27900
H  -18.91300 12.17800 42.82300
H  -17.66700 12.57100 43.97400
H  -17.52000 11.20200 42.66400
H  -12.08200 10.35200 44.18500
H  -11.67000 9.58100 42.60100
H  -13.30400 10.06900 43.00200
H  -7.88400 12.51700 40.43700
H  -4.33900 13.38900 43.10400
H  -5.29800 14.95000 43.16800
H  -4.37000 14.54900 41.79400

