158

Mg 25.00700 -6.38500 47.73800
C  26.23600 -3.56500 46.08000
C  22.13700 -6.20000 45.55600
C  24.15800 -9.38600 48.59200
C  28.00600 -6.65800 49.34700
N  24.34600 -5.15300 45.99700
C  25.00100 -3.99500 45.58000
C  24.28300 -3.29900 44.36700
C  22.87300 -3.95300 44.51200
C  23.10800 -5.15200 45.39100
C  21.68500 -3.07800 44.95300
C  25.04000 -3.66200 43.05000
C  25.48500 -2.44800 42.18100
H  24.72100 -2.35800 40.83000
N  23.31300 -7.59600 47.19000
C  22.25600 -7.35800 46.39400
C  21.27400 -8.42500 46.51100
C  21.81700 -9.39900 47.43100
C  23.21100 -8.86800 47.74300
C  19.98100 -8.45800 45.68500
C  21.11200 -10.63100 47.93600
O  20.00200 -10.80600 47.51700
C  21.66000 -11.61500 49.01800
N  25.95600 -7.84600 48.86400
C  25.37800 -8.99900 49.12900
C  26.26600 -9.97200 50.01500
C  27.54700 -9.02900 50.22400
C  27.21200 -7.78900 49.39700
C  25.56300 -10.35600 51.29900
C  28.87400 -9.78100 49.85900
C  29.34400 -9.85800 48.39300
N  26.80300 -5.34700 47.83900
C  27.82800 -5.50600 48.63800
C  28.66500 -4.34000 48.53200
C  28.11100 -3.54600 47.48700
C  26.94900 -4.23200 47.08400
C  29.98000 -4.17400 49.22300
C  28.20300 -2.38200 46.59800
O  29.11700 -1.54000 46.52300
C  26.90900 -2.32200 45.81200
C  26.00500 -1.24700 46.44700
O  26.27000 -0.01600 46.27600
O  24.92700 -1.70600 47.21500
C  24.05500 -0.75500 47.81900
H  21.27200 -6.09900 44.89800
H  23.86700 -10.41900 48.79500
H  28.93300 -6.66400 49.92500
H  24.16100 -2.22300 44.49100
H  22.60000 -4.25200 43.50000
H  21.74900 -1.99300 44.87600
H  21.52500 -3.28400 46.01100
H  20.78800 -3.38700 44.41600
H  24.39700 -4.24900 42.39400
H  25.88800 -4.29900 43.30000
H  26.55600 -2.42800 41.97700
H  25.27000 -1.49600 42.66500
H  19.74500 -9.43500 45.26200
H  20.17000 -7.85100 44.79900
H  19.14800 -8.06900 46.27000
H  22.50400 -12.14300 48.57500
H  20.92500 -12.37900 49.27100
H  21.88100 -11.02300 49.90600
H  26.50500 -10.81900 49.37200
H  27.55000 -8.72700 51.27100
H  24.72000 -9.75700 51.64600
H  26.23700 -10.42200 52.15400
H  25.29700 -11.40100 51.14200
H  28.67700 -10.79500 50.20800
H  29.69600 -9.35600 50.43600
H  30.35900 -9.49400 48.24000
H  28.66600 -9.27300 47.77200
H  29.27300 -10.89900 48.07600
H  29.79000 -4.32900 50.28500
H  30.44900 -3.19500 49.12800
H  30.66200 -4.98300 48.95700
H  27.14600 -2.12400 44.76700
H  23.56300 -1.19400 48.68700
H  23.22800 -0.50700 47.15200
H  24.51700 0.16700 48.17100
Mg 40.51700 7.44900 29.22600
C  42.23100 8.94900 32.01400
C  38.65200 5.84700 31.43700
C  39.28900 5.95600 26.68000
C  43.03500 8.83700 27.23200
N  40.45000 7.50900 31.50300
C  41.12600 8.30000 32.40800
C  40.61800 8.00900 33.81500
C  39.66500 6.78600 33.61300
C  39.59200 6.66300 32.12600
C  39.85100 5.52200 34.47000
C  39.97100 9.23100 34.58900
C  40.02500 9.09100 36.10400
H  40.85600 10.13600 36.89700
N  39.06900 6.12500 29.05100
C  38.32200 5.64100 30.06200
C  37.39300 4.69500 29.49300
C  37.54100 4.67300 28.08300
C  38.63500 5.60800 27.85300
C  36.48200 3.93700 30.43800
C  36.85000 3.80700 27.04500
O  37.16100 3.75000 25.85700
C  35.62800 2.97800 27.59100
N  41.19500 7.24400 27.28900
C  40.36800 6.73300 26.36300
C  40.95400 6.81100 24.95800
C  41.94300 7.96400 25.14900
C  42.03200 8.05500 26.67800
C  41.59000 5.61400 24.33700
C  41.44500 9.31100 24.56100
C  40.37000 10.10100 25.35500
N  42.27100 8.59600 29.51500
C  43.17000 9.07700 28.56100
C  44.22000 9.93000 29.22600
C  43.78700 9.97900 30.54500
C  42.67900 9.12000 30.66000
C  45.36900 10.67800 28.56400
C  44.16300 10.47800 31.84600
O  45.13700 11.16300 32.16700
C  43.06800 9.90100 32.85700
C  43.80200 9.14500 33.95600
O  44.49800 8.15000 33.79200
O  43.77100 9.84500 35.20200
C  44.81100 9.48600 36.16700
H  38.14000 5.26200 32.20400
H  38.74900 5.53200 25.83100
H  43.60900 9.45000 26.53300
H  41.45000 7.54800 34.34800
H  38.67200 7.18400 33.82200
H  40.62100 5.61200 35.23700
H  40.06800 4.59400 33.94200
H  38.92800 5.28500 34.99800
H  38.91100 9.14000 34.35100
H  40.35600 10.19500 34.25600
H  40.47000 8.17600 36.49400
H  39.00300 8.87300 36.41400
H  36.43300 4.35400 31.44400
H  36.68900 2.86800 30.48700
H  35.44200 4.15800 30.19900
H  35.02300 2.52900 26.80300
H  34.93100 3.69000 28.03200
H  35.99700 2.16400 28.21500
H  40.16300 7.12400 24.27700
H  42.89400 7.72700 24.67300
H  40.75700 4.91000 24.34600
H  42.35400 5.25600 25.02700
H  42.03600 5.70600 23.34600
H  40.90700 9.09200 23.63900
H  42.22600 10.05600 24.41000
H  39.57700 10.35100 24.65000
H  40.78700 11.02600 25.75500
H  39.90600 9.48300 26.12300
H  45.60500 11.48900 29.25300
H  44.94900 11.03800 27.62500
H  46.15000 9.91700 28.53300
H  42.47300 10.69900 33.30100
H  44.59200 8.49500 36.56400
H  44.84500 10.28300 36.90900
H  45.74200 9.36500 35.61400

