158

Mg 47.13000 16.27100 27.05100
C  45.05000 15.88300 29.84900
C  49.43600 17.87000 29.10400
C  48.86900 17.13600 24.30300
C  44.72700 14.85600 24.98800
N  47.21300 16.85300 29.26600
C  46.26200 16.51200 30.22200
C  46.78300 16.90100 31.63500
C  48.09500 17.68100 31.29800
C  48.33000 17.40700 29.81000
C  47.98200 19.17100 31.63700
C  46.93300 15.66400 32.60100
C  46.15400 15.71900 33.92800
H  45.98900 17.15200 34.53200
N  48.97400 17.18700 26.75200
C  49.85400 17.68600 27.72700
C  51.07200 18.11800 27.11300
C  50.92800 17.87400 25.75000
C  49.51600 17.36700 25.49900
C  52.25100 18.67500 27.84700
C  51.91000 18.20700 24.61400
O  51.69600 17.90800 23.46300
C  53.09700 19.01300 24.81000
N  46.79200 16.09600 24.97600
C  47.64200 16.56700 24.09400
C  47.13600 16.35300 22.70900
C  46.06400 15.35600 22.87400
C  45.82200 15.39800 24.35100
C  46.80600 17.69100 21.91900
C  46.13700 13.90500 22.23600
C  44.76600 13.21900 21.94500
N  45.32100 15.50100 27.34000
C  44.49000 14.86600 26.37800
C  43.28900 14.31000 27.09200
C  43.50700 14.79300 28.43500
C  44.73600 15.43100 28.55800
C  41.91800 13.66600 26.66000
C  42.87400 14.66200 29.75000
O  41.75900 14.27000 30.13500
C  43.86900 15.40200 30.73900
C  43.05500 16.43000 31.43400
O  42.49900 17.39400 30.97500
O  43.10400 16.20700 32.82900
C  42.14900 17.05500 33.49700
H  50.16600 18.30300 29.79000
H  49.30700 17.46000 23.35700
H  44.00700 14.33000 24.35800
H  45.89800 17.45100 31.95400
H  48.87800 17.24800 31.92000
H  47.11700 19.20400 32.30000
H  47.90700 19.78800 30.74300
H  48.82100 19.38400 32.29900
H  47.95800 15.34700 32.79500
H  46.51800 14.74100 32.19800
H  46.79200 15.14300 34.59800
H  45.17900 15.24200 33.83300
H  52.44500 19.59700 27.29800
H  53.10600 18.00000 27.88300
H  51.88900 18.99200 28.82500
H  52.90900 20.00000 25.23300
H  53.52800 19.07200 23.81000
H  53.89600 18.55700 25.39400
H  47.90400 15.84700 22.12500
H  45.12700 15.75600 22.48300
H  45.78900 17.74800 21.53100
H  47.41300 17.75900 21.01700
H  46.99600 18.57000 22.53500
H  46.63100 13.28600 22.98500
H  46.83500 13.96100 21.40100
H  44.85100 12.94000 20.89500
H  43.94100 13.87600 22.22000
H  44.69300 12.28500 22.50200
H  42.01700 12.58200 26.59300
H  41.65400 13.97600 25.64900
H  41.22700 14.00200 27.43200
H  44.20900 14.76000 31.55200
H  41.17300 16.57500 33.43600
H  41.95700 18.08500 33.19600
H  42.38400 17.06900 34.56100
Mg -12.04800 16.86200 41.81600
C  -8.82900 15.42000 41.45400
C  -10.83200 19.81500 40.52200
C  -15.22400 17.96300 41.78900
C  -13.25300 13.59500 42.14800
N  -10.01100 17.46100 40.96100
C  -8.83000 16.66700 40.98000
C  -7.66500 17.52200 40.41300
C  -8.26300 18.98100 40.35300
C  -9.81800 18.77800 40.56900
C  -7.60600 20.08400 41.20700
C  -7.16700 16.95700 39.00800
C  -5.69900 17.33000 38.58800
H  -5.47300 17.80800 37.09700
N  -12.91000 18.64900 41.26600
C  -12.25000 19.76400 40.77100
C  -13.15900 20.82100 40.57400
C  -14.36800 20.34900 41.05100
C  -14.22900 18.94000 41.40000
C  -12.84600 22.22300 39.96800
C  -15.60700 21.22700 41.12800
O  -15.72300 22.36900 40.74500
C  -16.93800 20.69900 41.66600
N  -13.93700 15.89100 41.84000
C  -15.07400 16.57500 42.05000
C  -16.35800 15.71700 42.03900
C  -15.69700 14.36100 42.28800
C  -14.23200 14.56400 42.01100
C  -17.52600 16.06400 42.99800
C  -16.26100 13.26300 41.33800
C  -16.45000 11.69900 41.86500
N  -11.21500 14.95900 42.11000
C  -11.85500 13.74000 42.22300
C  -10.81300 12.65500 42.22600
C  -9.61300 13.32400 42.06400
C  -9.94100 14.70200 41.86300
C  -11.03300 11.19500 42.24300
C  -8.17900 13.07200 42.02800
O  -7.52100 12.05400 42.05700
C  -7.63100 14.50200 41.68600
C  -6.75100 14.94300 42.81400
O  -7.10700 14.89200 44.01400
O  -5.57300 15.32700 42.32200
C  -4.50600 15.56400 43.32300
H  -10.35700 20.79200 40.41200
H  -16.27400 18.26100 41.81800
H  -13.76800 12.64900 42.32600
H  -6.82900 17.55300 41.11200
H  -8.07100 19.32600 39.33700
H  -7.24900 20.77500 40.44300
H  -6.79600 19.64500 41.79000
H  -8.30600 20.62100 41.84700
H  -7.89400 17.32500 38.28300
H  -7.19000 15.87600 38.87300
H  -5.14600 16.40300 38.74000
H  -5.28000 17.97000 39.36400
H  -13.39800 22.41600 39.04900
H  -11.77700 22.17600 39.76100
H  -13.11900 22.91200 40.76700
H  -17.60000 21.52700 41.92100
H  -16.75800 20.21200 42.62500
H  -17.50300 20.07500 40.97500
H  -16.83800 15.69500 41.06100
H  -15.73100 14.03200 43.32700
H  -17.35500 16.95600 43.60100
H  -17.71900 15.26500 43.71300
H  -18.46900 16.33000 42.52000
H  -15.70900 13.12100 40.40800
H  -17.27500 13.51800 41.03200
H  -17.46900 11.34400 41.70700
H  -16.23200 11.64800 42.93200
H  -15.81600 11.14800 41.17100
H  -11.65300 10.99600 43.11800
H  -10.12300 10.59700 42.28400
H  -11.60800 10.94300 41.35200
H  -7.04400 14.32400 40.78600
H  -4.91400 16.35300 43.95500
H  -3.59100 15.90100 42.83600
H  -4.36400 14.61600 43.84300

