158

Mg 8.83100 3.23900 27.44600
C  10.13900 1.79300 30.34500
C  6.61900 5.00400 29.46000
C  7.28200 4.48700 24.71600
C  10.54300 0.83100 25.52200
N  8.38600 3.25400 29.64200
C  9.19500 2.77400 30.62800
C  8.81800 3.25400 32.03800
C  7.72500 4.31200 31.67600
C  7.57000 4.21100 30.11000
C  6.39600 3.96600 32.32800
C  10.01800 3.84300 32.82200
C  9.59900 4.61200 34.01300
H  10.05400 4.15300 35.37200
N  7.23000 4.58400 27.20700
C  6.40000 5.19000 28.10900
C  5.51700 6.09800 27.49900
C  5.83300 6.06800 26.10000
C  6.86900 5.01300 25.97900
C  4.55700 7.03000 28.24300
C  5.27800 6.90300 24.97700
O  5.40100 6.71200 23.77300
C  4.52200 8.14300 25.30600
N  8.97700 2.72800 25.34000
C  8.26300 3.42800 24.41000
C  8.74000 2.95700 23.00000
C  9.72900 1.79000 23.29900
C  9.75900 1.80600 24.79600
C  7.53400 2.63000 22.04900
C  11.04300 1.76400 22.51600
C  11.15800 0.65700 21.39900
N  10.19200 1.62400 27.77200
C  10.76300 0.75100 26.91800
C  11.46400 -0.27600 27.63200
C  11.22700 0.11700 28.94600
C  10.50600 1.27800 29.01900
C  12.16400 -1.44300 27.18300
C  11.54100 -0.23100 30.35500
O  12.09000 -1.23800 30.73900
C  10.97100 0.94900 31.26000
C  10.10700 0.26300 32.27400
O  9.11000 -0.45100 32.04800
O  10.58000 0.40000 33.55300
C  9.75900 -0.07500 34.72100
H  6.04300 5.72800 30.03900
H  6.89100 4.98400 23.82600
H  11.17300 0.13500 24.96500
H  8.37900 2.47900 32.66700
H  8.02300 5.33600 31.90400
H  5.95700 3.01200 32.03500
H  5.63800 4.64600 31.93900
H  6.50600 3.99600 33.41200
H  10.63500 4.37400 32.09600
H  10.60400 3.03700 33.26300
H  8.51000 4.59600 33.97200
H  9.84500 5.67000 33.92100
H  3.60100 7.08900 27.72300
H  5.04800 7.97900 28.46000
H  4.20400 6.60000 29.18000
H  3.46500 7.93200 25.47000
H  4.74400 8.85200 24.50800
H  4.92000 8.55100 26.23500
H  9.20100 3.85000 22.57900
H  9.27400 0.81400 23.12700
H  6.63300 2.83000 22.62800
H  7.64200 1.59700 21.71700
H  7.47500 3.32900 21.21600
H  11.86900 1.67500 23.22100
H  11.23300 2.74000 22.07000
H  10.78700 0.94500 20.41600
H  10.61400 -0.26300 21.61300
H  12.22400 0.46900 21.26400
H  12.80500 -1.10400 26.36900
H  11.56500 -2.31700 26.92900
H  12.84500 -1.69000 27.99700
H  11.74700 1.58700 31.68200
H  10.46600 -0.05200 35.55000
H  9.61500 -1.14700 34.58900
H  8.79200 0.41800 34.81900
Mg 26.65600 49.43300 26.02900
C  24.89000 50.87600 28.77000
C  29.21400 48.87200 28.38700
C  28.65000 48.65700 23.49500
C  24.34100 50.83500 23.88800
N  26.99700 49.90000 28.23600
C  26.07200 50.33400 29.23500
C  26.62200 50.19400 30.67400
C  28.10000 49.95100 30.42200
C  28.12700 49.50700 28.89800
C  28.92900 51.25600 30.68200
C  25.97700 49.04200 31.42900
C  25.30800 49.34100 32.76500
H  26.20800 49.79800 33.94000
N  28.55400 48.69500 25.96100
C  29.43100 48.45800 27.03600
C  30.65000 47.87100 26.47800
C  30.60300 47.97900 25.05000
C  29.22700 48.45700 24.81800
C  31.84000 47.43200 27.29300
C  31.61500 47.81300 23.98500
O  31.47200 48.18800 22.83900
C  32.99600 47.46600 24.46200
N  26.56900 49.84000 24.00600
C  27.45600 49.28800 23.13400
C  26.98900 49.35300 21.63800
C  25.55200 50.00200 21.81800
C  25.44300 50.23600 23.31600
C  27.80900 50.26900 20.76700
C  24.37900 48.93300 21.44100
C  23.03800 49.57800 20.93900
N  24.94700 50.62100 26.28000
C  24.07000 51.03300 25.29300
C  23.00300 51.79900 25.88000
C  23.24200 51.71500 27.25300
C  24.42100 50.97100 27.42600
C  21.90600 52.57000 25.22900
C  22.71300 52.04700 28.57200
O  21.67800 52.56900 28.91900
C  23.79200 51.56600 29.58700
C  24.34400 52.66200 30.34200
O  25.01000 53.53500 29.82900
O  23.96700 52.56400 31.65100
C  24.64300 53.29600 32.66900
H  30.02000 48.68800 29.09900
H  29.15400 48.21000 22.63600
H  23.67500 51.29400 23.15400
H  26.41500 51.12500 31.20100
H  28.57900 49.26100 31.11600
H  29.51100 51.44600 29.78000
H  29.64000 50.97400 31.45900
H  28.37700 52.10800 31.07900
H  26.67600 48.22400 31.60500
H  25.20300 48.63200 30.77900
H  24.74200 48.46900 33.09300
H  24.68000 50.18200 32.47000
H  32.65800 48.14600 27.19300
H  32.04800 46.39800 27.01900
H  31.59200 47.63100 28.33600
H  32.93600 46.55800 25.06100
H  33.45900 48.29100 25.00400
H  33.57900 47.24600 23.56800
H  26.81800 48.36500 21.21100
H  25.34800 50.91700 21.26200
H  28.83000 50.30000 21.14700
H  27.37400 51.26400 20.67500
H  27.77800 49.65900 19.86400
H  24.36200 48.38000 22.37900
H  24.77500 48.27800 20.66500
H  22.30500 49.59800 21.74500
H  22.53800 49.03300 20.13900
H  23.15500 50.53000 20.42100
H  22.23100 53.59900 25.38400
H  20.98600 52.53300 25.81300
H  21.77600 52.29400 24.18300
H  23.36700 50.79700 30.23200
H  23.88900 53.99300 33.03300
H  25.55400 53.77400 32.30900
H  24.85400 52.59400 33.47700

