158

Mg 42.71900 4.22200 47.32400
C  40.99100 7.18400 46.97100
C  39.71500 2.47400 47.06100
C  44.38600 1.15300 47.22900
C  45.74800 5.85500 46.86200
N  40.67000 4.74100 46.91600
C  40.17700 6.04900 46.82200
C  38.69100 6.03700 46.53100
C  38.22200 4.60300 46.92700
C  39.64900 3.86100 46.99900
C  37.44300 4.63400 48.36400
C  38.28900 6.41400 45.05300
C  39.36100 6.13400 43.92500
H  38.91100 6.35800 42.48500
N  42.12300 2.14300 47.18400
C  40.86600 1.67200 47.12200
C  40.82200 0.23800 47.17600
C  42.13600 -0.19300 47.16200
C  43.00900 1.06500 47.21400
C  39.46400 -0.61800 47.32000
C  42.55400 -1.62100 47.08600
O  41.75000 -2.48900 47.17000
C  43.95500 -2.03800 47.07100
N  44.81700 3.53700 47.10900
C  45.19200 2.25900 47.10700
C  46.72300 2.14900 47.03100
C  47.17900 3.64400 46.95800
C  45.82900 4.41100 46.97700
C  47.38300 1.23600 48.08700
C  48.06400 3.85200 45.71800
C  49.51900 4.14500 46.15700
N  43.31700 6.16800 47.07000
C  44.58600 6.70700 46.91400
C  44.41800 8.18500 46.90000
C  43.02500 8.37200 47.00900
C  42.42100 7.12100 47.01800
C  45.55200 9.18500 46.84100
C  41.94500 9.35500 46.96700
O  42.04400 10.58600 46.91200
C  40.60500 8.60200 46.99300
C  39.86800 8.82600 48.25900
O  39.78800 8.05800 49.21300
O  39.20900 10.01800 48.13900
C  38.58000 10.52100 49.36400
H  38.77200 1.92900 47.14000
H  44.93200 0.20800 47.26700
H  46.70200 6.38500 46.83700
H  38.12600 6.72300 47.16200
H  37.70600 4.00700 46.17500
H  37.02100 3.67600 48.66500
H  36.70200 5.42900 48.28400
H  38.18900 4.79600 49.14200
H  37.97300 7.45000 44.93200
H  37.40500 5.84400 44.76500
H  39.75500 5.11700 43.91300
H  40.20100 6.82700 43.95600
H  38.65400 -0.38900 46.62700
H  39.17000 -0.35100 48.33500
H  39.58900 -1.70000 47.31500
H  44.47800 -1.55100 46.24900
H  43.96300 -3.10400 46.84500
H  44.44100 -1.72100 47.99400
H  46.86900 1.76200 46.02300
H  47.68300 3.84100 47.90400
H  46.68800 0.84500 48.83000
H  48.29300 1.62900 48.54100
H  47.79700 0.40500 47.51600
H  47.68300 4.74600 45.22500
H  48.17700 3.03900 45.00100
H  49.59900 5.23200 46.13400
H  50.18900 3.65200 45.45300
H  49.73500 3.93300 47.20400
H  46.06800 9.22500 47.80100
H  45.04400 10.11800 46.59700
H  46.30000 9.03800 46.06200
H  39.99800 9.01400 46.18700
H  37.51800 10.32900 49.20900
H  38.82900 11.56500 49.55500
H  38.87700 9.93200 50.23100
Mg 16.54000 52.42200 25.11700
C  18.26500 51.15000 27.97100
C  13.84300 53.20000 27.19600
C  14.78800 53.47500 22.42800
C  18.96200 51.06400 23.17400
N  16.05400 52.13900 27.31100
C  16.92700 51.63400 28.28000
C  16.31600 51.91400 29.76100
C  14.84200 52.28300 29.37600
C  14.91700 52.54400 27.85100
C  13.77000 51.27700 29.83300
C  17.10400 53.09200 30.48400
C  17.57100 52.73600 31.89700
H  16.74600 51.91700 32.84400
N  14.62000 53.22900 24.87500
C  13.67800 53.50600 25.81900
C  12.42800 53.99800 25.26100
C  12.68000 54.10400 23.85800
C  14.13500 53.65000 23.72100
C  11.09900 54.19300 26.08600
C  11.77700 54.47400 22.67700
O  12.12700 54.50500 21.46400
C  10.39600 54.94100 22.90900
N  16.76300 52.22300 23.10700
C  16.01200 52.79000 22.19100
C  16.44300 52.53700 20.71800
C  17.89900 52.00400 21.03400
C  17.92900 51.76500 22.50100
C  15.55000 51.57100 19.95800
C  19.11000 53.01200 20.62500
C  20.04200 52.83100 19.43400
N  18.27700 51.37100 25.46600
C  19.20700 50.96200 24.50300
C  20.42700 50.46800 25.19400
C  20.09300 50.62900 26.55300
C  18.74200 51.12900 26.66200
C  21.63900 49.88700 24.67300
C  20.55200 50.39700 27.83400
O  21.67700 50.07900 28.20000
C  19.44500 50.73700 28.83200
C  19.30100 49.52800 29.70900
O  18.83500 48.43000 29.38000
O  19.77500 49.91300 30.93400
C  19.68900 48.86700 31.88600
H  13.01700 53.47100 27.85700
H  14.35000 53.85200 21.50100
H  19.69700 50.70200 22.45300
H  16.33300 50.97600 30.31600
H  14.61900 53.28900 29.73200
H  14.14400 50.54100 30.54400
H  13.28900 50.78300 28.98900
H  12.96300 51.79500 30.35100
H  16.42100 53.92700 30.63900
H  18.01800 53.28900 29.92400
H  17.82900 53.66500 32.40500
H  18.53300 52.23400 31.79200
H  11.01100 55.18700 26.52500
H  11.09600 53.47200 26.90300
H  10.25700 53.96400 25.43300
H  10.26500 55.80000 23.56600
H  9.86200 54.10200 23.35600
H  9.84400 55.07300 21.97900
H  16.45600 53.42800 20.09000
H  18.14800 51.00500 20.67500
H  14.56900 51.58000 20.43300
H  15.96600 50.56400 19.92500
H  15.34400 51.91000 18.94300
H  19.75000 53.17200 21.49300
H  18.67200 53.96800 20.33700
H  20.04100 51.78400 19.13100
H  21.04000 53.08200 19.79300
H  19.65600 53.44500 18.61900
H  21.59700 49.66800 23.60600
H  21.95400 48.99400 25.21100
H  22.33900 50.71400 24.79100
H  19.62000 51.52800 29.56100
H  18.70200 48.55200 32.22200
H  20.33900 49.21100 32.69100
H  20.13200 47.93500 31.53600

