158

Mg 44.82600 3.74900 47.48200
C  42.63100 6.52400 47.15700
C  42.10400 1.71400 47.05500
C  46.82100 1.16200 46.86200
C  47.49500 5.98300 47.03900
N  42.65400 4.15600 47.05900
C  42.00000 5.31700 47.12800
C  40.42000 5.01500 47.14100
C  40.34800 3.51000 47.35800
C  41.79900 3.10900 47.17100
C  39.68000 3.08600 48.69900
C  39.74400 5.65000 45.90100
C  40.52300 5.60200 44.58200
H  39.86700 5.05600 43.30800
N  44.49900 1.63900 47.12100
C  43.29100 1.00300 47.07700
C  43.58600 -0.44000 46.95800
C  44.96600 -0.61900 46.84900
C  45.47900 0.76800 46.91700
C  42.54200 -1.55000 46.81900
C  45.60300 -1.92100 46.71600
O  44.84600 -2.92900 46.85700
C  47.09800 -2.21900 46.58900
N  46.82500 3.61000 47.05700
C  47.47300 2.42200 46.92600
C  48.93600 2.57100 46.66300
C  49.17000 4.09600 47.06800
C  47.75700 4.64300 47.05600
C  49.83800 1.55100 47.36600
C  50.12500 4.79500 46.15200
C  51.35500 5.35900 46.79700
N  45.07800 5.87300 47.34600
C  46.21700 6.63600 47.12600
C  45.90300 8.04100 47.19800
C  44.46100 8.04800 47.16600
C  44.03700 6.68800 47.20200
C  46.77300 9.18600 46.98100
C  43.38300 8.87000 47.13000
O  43.29700 10.08000 47.04100
C  42.09200 7.99600 47.12100
C  41.23000 8.36100 48.27100
O  41.31100 7.90500 49.37200
O  40.27500 9.19700 47.80200
C  39.13700 9.37900 48.76200
H  41.25700 1.02500 47.08400
H  47.45100 0.28200 46.71700
H  48.30100 6.71900 47.04700
H  40.09900 5.60700 47.99800
H  39.69700 3.04700 46.61600
H  39.42300 3.92500 49.34500
H  40.47700 2.53600 49.19900
H  38.89800 2.33800 48.56600
H  39.53100 6.68100 46.18400
H  38.81900 5.07700 45.83000
H  41.50100 5.12300 44.62800
H  40.76900 6.64500 44.38200
H  41.55700 -1.08600 46.86100
H  42.41500 -2.31400 47.58600
H  42.54000 -2.00100 45.82700
H  47.51300 -1.78400 45.68000
H  47.13500 -3.30800 46.58300
H  47.61600 -1.86400 47.47900
H  49.06200 2.39400 45.59500
H  49.54400 4.24500 48.08100
H  50.66300 2.11200 47.80500
H  50.22300 0.80500 46.67200
H  49.23200 1.06400 48.13100
H  49.59400 5.58600 45.62300
H  50.54700 3.98600 45.55500
H  51.19300 6.10700 47.57300
H  51.90000 5.90800 46.02900
H  51.93500 4.50800 47.15300
H  46.85300 9.39300 45.91400
H  47.77200 9.07100 47.40000
H  46.29900 10.00400 47.52500
H  41.51900 8.18900 46.21400
H  38.49800 8.56300 48.42400
H  38.68400 10.36000 48.61500
H  39.28600 9.33200 49.84100
Mg 47.60200 15.20500 28.10000
C  45.53200 15.07800 30.94900
C  49.52300 17.45100 29.94900
C  49.54200 15.51400 25.45300
C  45.12100 13.60700 26.40700
N  47.48900 16.19000 30.20500
C  46.57900 15.94500 31.18000
C  46.89700 16.61900 32.51400
C  48.13500 17.51700 32.07900
C  48.44100 17.05300 30.66400
C  47.89600 19.02600 32.10000
C  47.06900 15.72700 33.86100
C  47.34300 16.56700 35.10000
H  48.61300 16.19900 36.01700
N  49.42400 16.16700 27.80700
C  50.03600 17.07700 28.63300
C  51.30000 17.52800 28.03500
C  51.35800 16.90900 26.79200
C  50.08900 16.14000 26.62700
C  52.25300 18.61800 28.60500
C  52.45400 17.06700 25.76000
O  52.41700 16.51700 24.64800
C  53.59800 18.00800 26.13000
N  47.26000 14.79800 26.15300
C  48.29800 14.82800 25.23000
C  47.81800 14.23100 23.91100
C  46.35000 13.68400 24.22100
C  46.24900 14.07500 25.72600
C  47.84200 15.21800 22.69400
C  46.18400 12.15000 23.85600
C  46.81300 11.13700 24.81200
N  45.59700 14.43500 28.55700
C  44.71400 13.79100 27.71400
C  43.55700 13.39200 28.49700
C  43.83100 14.02500 29.71600
C  45.14800 14.45500 29.75000
C  42.25300 12.70500 28.07800
C  43.28400 14.18300 31.04700
O  42.14200 13.85600 31.41900
C  44.40100 14.81700 31.93600
C  43.83700 16.05500 32.42300
O  43.66200 17.07400 31.78500
O  43.47200 15.90300 33.74800
C  42.98000 17.07000 34.45100
H  50.20800 18.10600 30.49200
H  50.03400 15.54500 24.47800
H  44.43100 13.03300 25.78500
H  46.14500 17.37000 32.75200
H  49.07100 17.34100 32.60900
H  48.38500 19.44400 32.98100
H  46.82600 19.23000 32.14000
H  48.27700 19.54400 31.22000
H  47.92300 15.11000 33.58300
H  46.18500 15.10300 33.99500
H  46.52700 16.60500 35.82200
H  47.53400 17.59200 34.78400
H  52.30900 19.58300 28.10100
H  53.23000 18.17300 28.79100
H  51.89900 18.88800 29.60000
H  53.20200 19.02200 26.20000
H  54.20900 17.95900 25.22900
H  54.32700 17.67300 26.86600
H  48.50500 13.41000 23.70800
H  45.64000 14.22800 23.59900
H  48.15600 16.18300 23.09100
H  46.86600 15.32200 22.22100
H  48.67400 14.99500 22.02600
H  46.51500 12.04100 22.82300
H  45.12900 11.87700 23.89000
H  47.11200 10.27200 24.22000
H  46.03200 10.77800 25.48200
H  47.69800 11.51800 25.32100
H  42.00100 12.92000 27.03900
H  41.37800 13.06100 28.62000
H  42.31600 11.63000 28.24100
H  44.63100 14.01100 32.63300
H  41.93800 16.84300 34.67500
H  43.02900 17.95400 33.81500
H  43.50500 17.19900 35.39700

