158

Mg 53.84500 24.12200 44.81500
C  51.17500 26.25100 43.84300
C  51.90000 21.36000 43.77600
C  56.56400 22.28700 44.83000
C  55.78600 27.05300 45.08100
N  51.83500 23.85000 43.82400
C  50.95200 24.87500 43.64700
C  49.60500 24.34800 43.13300
C  49.73400 22.80700 43.51700
C  51.23400 22.62500 43.77900
C  48.88000 22.41100 44.76100
C  49.37600 24.55800 41.68500
C  47.92100 24.64700 41.22700
H  47.43100 24.05600 39.92500
N  54.21300 22.01100 44.36600
C  53.26400 21.11400 44.06000
C  53.95800 19.83200 44.03400
C  55.26500 20.04500 44.42400
C  55.44500 21.52700 44.49000
C  53.30800 18.56700 43.61200
C  56.27300 18.90500 44.72500
O  55.86600 17.73700 44.53600
C  57.68200 19.15400 45.28800
N  55.83900 24.54300 44.79900
C  56.70900 23.61700 44.97200
C  58.06700 24.26600 45.19200
C  57.86300 25.74800 45.29500
C  56.40900 25.77500 44.99100
C  58.74100 23.72600 46.47800
C  58.76500 26.63300 44.36300
C  58.74600 26.45500 42.83900
N  53.56100 26.28300 44.60900
C  54.41700 27.32900 44.87700
C  53.75200 28.57700 44.84300
C  52.42900 28.20600 44.53000
C  52.38500 26.77700 44.24800
C  54.37300 29.91000 45.03500
C  51.13800 28.67200 44.25300
O  50.69400 29.82600 44.24500
C  50.24200 27.40100 43.72900
C  49.73800 27.89300 42.43600
O  50.35600 28.07200 41.36500
O  48.40000 28.02200 42.53200
C  47.71400 28.63200 41.36100
H  51.24100 20.51200 43.57900
H  57.45900 21.66300 44.77700
H  56.49600 27.87700 45.18400
H  48.78600 24.78800 43.70200
H  49.38400 22.18600 42.69200
H  48.12600 21.63100 44.66000
H  48.35200 23.27900 45.15500
H  49.56700 22.04700 45.52500
H  50.01000 23.87300 41.12200
H  49.79500 25.53500 41.44600
H  47.55600 25.67200 41.15900
H  47.29500 24.22100 42.01200
H  53.95900 17.83000 43.14300
H  52.58500 18.85200 42.84700
H  52.73100 18.08400 44.40200
H  57.77600 18.22400 45.84900
H  57.79300 19.92500 46.05100
H  58.49500 19.17600 44.56300
H  58.62700 24.14500 44.26500
H  58.01900 26.01600 46.34000
H  59.58800 23.10100 46.19700
H  58.06800 23.10700 47.07100
H  59.12500 24.42800 47.21900
H  59.76300 26.51500 44.78500
H  58.54300 27.65600 44.66600
H  58.11600 25.65100 42.45700
H  59.73100 26.26200 42.41500
H  58.41400 27.33100 42.28100
H  53.73300 30.63600 44.53200
H  55.30900 30.17100 44.54100
H  54.49700 30.11800 46.09800
H  49.39100 27.36800 44.40800
H  46.63900 28.76200 41.48600
H  47.95500 28.15600 40.41000
H  48.08400 29.65700 41.33100
Mg -1.67700 33.91400 27.89500
C  -3.62400 32.10100 30.31700
C  -0.22700 35.73300 30.49600
C  -0.28200 35.90000 25.52600
C  -3.39700 32.05900 25.49700
N  -1.80500 33.84600 30.18100
C  -2.74000 33.11200 30.88700
C  -2.46600 33.25000 32.39900
C  -1.49600 34.50700 32.43200
C  -1.11700 34.75400 30.93900
C  -2.10500 35.76600 33.10400
C  -1.84200 31.95700 33.12400
C  -2.72000 31.36900 34.22400
H  -2.10200 31.33400 35.57400
N  -0.32500 35.48200 27.95100
C  0.09400 36.13100 29.13100
C  1.06100 37.15000 28.74000
C  0.97100 37.20400 27.24000
C  0.11300 36.15300 26.84000
C  1.87400 38.06800 29.66900
C  1.70700 38.21500 26.27300
O  1.50700 38.28100 25.05200
C  2.76000 39.22700 26.71500
N  -1.92000 34.08100 25.86500
C  -1.18300 34.90000 25.06100
C  -1.48100 34.69600 23.57400
C  -2.11600 33.24600 23.71200
C  -2.59100 33.16600 25.09500
C  -2.40800 35.76000 22.96700
C  -1.06100 32.09000 23.40500
C  -1.55900 30.82200 22.68100
N  -3.28900 32.41600 27.88800
C  -3.77700 31.68900 26.77900
C  -4.60100 30.56100 27.24000
C  -4.55000 30.71300 28.65600
C  -3.74000 31.81300 28.99000
C  -5.35300 29.64900 26.38000
C  -5.08800 30.26600 29.89700
O  -5.93100 29.41200 30.17000
C  -4.56700 31.16300 31.03200
C  -5.67100 31.85300 31.83700
O  -6.16100 32.90600 31.53600
O  -5.94300 31.17000 32.96800
C  -6.95200 31.63600 33.92300
H  0.31800 36.33600 31.22600
H  0.23100 36.52200 24.79000
H  -3.89800 31.51800 24.69200
H  -3.43400 33.45700 32.85600
H  -0.74000 34.15600 33.13500
H  -1.93300 36.67400 32.52500
H  -1.78600 35.85600 34.14200
H  -3.17700 35.57000 33.10400
H  -0.83300 32.07700 33.51800
H  -1.60400 31.19700 32.38000
H  -3.10400 30.36700 34.03500
H  -3.54200 32.08200 34.27400
H  2.89600 37.71400 29.80800
H  1.44300 38.04900 30.67000
H  1.89000 39.12400 29.40000
H  2.38000 39.91800 27.46800
H  2.98500 39.90400 25.89100
H  3.62300 38.74400 27.17400
H  -0.60900 34.86700 22.94300
H  -3.02600 33.18900 23.11400
H  -2.77000 36.44000 23.73900
H  -3.22000 35.22800 22.47100
H  -2.00400 36.47700 22.25200
H  -0.53400 31.84800 24.32800
H  -0.33900 32.53800 22.72100
H  -1.45300 29.96700 23.34900
H  -0.97300 30.65500 21.77800
H  -2.63900 30.88200 22.55000
H  -5.09700 28.73000 26.90700
H  -4.89500 29.58600 25.39300
H  -6.40000 29.95400 26.35200
H  -3.96100 30.54800 31.69700
H  -6.64700 32.56700 34.40200
H  -7.24000 30.96900 34.73500
H  -7.85600 31.85800 33.35600

