158

Mg 16.02500 -1.91900 27.68200
C  15.17900 0.17900 30.44600
C  17.98900 -3.83800 29.78100
C  17.33800 -3.42400 25.02600
C  14.34900 0.34000 25.67100
N  16.46200 -1.84300 29.81500
C  15.99100 -0.95400 30.80000
C  16.59600 -1.17400 32.20000
C  17.62500 -2.29500 31.90100
C  17.35500 -2.71700 30.37400
C  19.06600 -1.80800 32.01600
C  15.50800 -1.41200 33.35300
C  15.80600 -1.00800 34.86000
H  17.11300 -0.21800 35.20200
N  17.38500 -3.49700 27.39400
C  18.05800 -4.17600 28.41000
C  18.78000 -5.22500 27.86000
C  18.63700 -5.13700 26.43600
C  17.73300 -4.01400 26.21900
C  19.62800 -6.20200 28.71700
C  19.25300 -6.00100 25.41800
O  19.01500 -5.78700 24.26800
C  20.14700 -7.15100 25.67900
N  15.87300 -1.56700 25.64900
C  16.49000 -2.35600 24.71500
C  16.10500 -1.98500 23.28900
C  14.94600 -0.97000 23.50900
C  15.03900 -0.73600 25.05100
C  17.29400 -1.41900 22.43500
C  13.53100 -1.47600 23.11800
C  13.09100 -1.18800 21.71400
N  14.91100 -0.15300 27.97400
C  14.31600 0.66000 27.03200
C  13.59100 1.69100 27.63100
C  13.83700 1.56200 28.98900
C  14.68800 0.43000 29.16600
C  12.79300 2.69800 26.92900
C  13.55600 2.02700 30.33600
O  12.82300 2.88600 30.75600
C  14.54300 1.28200 31.31800
C  15.46100 2.24700 31.93000
O  16.43700 2.71000 31.34900
O  14.95300 2.70500 33.17900
C  15.79100 3.78400 33.77100
H  18.53200 -4.39600 30.54700
H  17.74500 -3.80900 24.08900
H  13.61400 0.91900 25.10600
H  16.93100 -0.15100 32.37100
H  17.47000 -3.19000 32.50300
H  19.49000 -1.71900 31.01600
H  19.73100 -2.46400 32.57800
H  19.07000 -0.85000 32.53600
H  15.31800 -2.48600 33.35900
H  14.58200 -0.94300 33.01900
H  15.74600 -1.94100 35.42100
H  14.87300 -0.55700 35.19800
H  19.39900 -7.24400 28.49300
H  19.35100 -6.14800 29.77000
H  20.70400 -6.06400 28.61200
H  21.13600 -6.97300 26.10200
H  20.43100 -7.58200 24.71900
H  19.65100 -7.86000 26.34100
H  15.79000 -2.89100 22.77100
H  15.17800 -0.03500 23.00000
H  17.14700 -0.34600 22.31300
H  17.44600 -1.98500 21.51500
H  18.20900 -1.54200 23.01500
H  12.74300 -1.06100 23.74700
H  13.60300 -2.56100 23.19600
H  12.10400 -0.78000 21.93100
H  13.14000 -2.07600 21.08300
H  13.73700 -0.45100 21.23600
H  13.24400 2.85600 25.94900
H  12.75000 3.66100 27.43900
H  11.75300 2.38700 26.83000
H  13.93900 0.85700 32.12000
H  15.76400 3.82400 34.86000
H  15.67700 4.79900 33.38900
H  16.85300 3.66400 33.55300
Mg 0.66200 42.34200 25.46400
C  1.57600 42.44100 28.91800
C  -2.28200 40.92600 26.45700
C  -0.03300 41.67500 22.27200
C  3.93300 43.19200 24.70200
N  -0.13800 41.70500 27.50400
C  0.30700 41.99300 28.73200
C  -0.82800 41.70000 29.80600
C  -1.88100 40.91500 29.03200
C  -1.41200 41.12700 27.60800
C  -1.89300 39.43700 29.44300
C  -1.37900 42.97400 30.51000
C  -1.16400 43.04800 32.06800
H  -1.65700 41.97700 32.99500
N  -1.04800 41.64600 24.47900
C  -2.16900 41.03100 25.06600
C  -3.10600 40.78800 24.00500
C  -2.42000 40.99000 22.73900
C  -1.10400 41.47900 23.10000
C  -4.45600 40.41900 24.32000
C  -2.98600 40.86400 21.31500
O  -2.32100 41.22000 20.37300
C  -4.20400 39.93900 21.05700
N  1.82300 42.38200 23.83400
C  1.28300 42.02900 22.61500
C  2.33000 42.27900 21.46500
C  3.45000 43.08000 22.20000
C  3.05500 42.92700 23.63500
C  2.59900 40.95300 20.66100
C  3.51400 44.62200 21.75600
C  4.66600 44.95700 20.79700
N  2.39800 42.78400 26.56800
C  3.68600 43.14700 26.09300
C  4.53200 43.48000 27.22300
C  3.77600 43.21900 28.33500
C  2.47300 42.76900 27.87300
C  5.98500 43.92600 27.29500
C  3.73100 43.16200 29.79500
O  4.60200 43.42800 30.59100
C  2.29900 42.72800 30.21200
C  2.42500 41.48900 31.08400
O  3.02000 40.40800 30.85100
O  1.84500 41.73800 32.30100
C  2.19100 40.80700 33.28900
H  -3.21200 40.38700 26.65000
H  -0.18700 41.44200 21.21600
H  4.94600 43.42600 24.36900
H  -0.30900 41.11500 30.56500
H  -2.88500 41.33300 29.10200
H  -2.93400 39.11700 29.48800
H  -1.40900 39.24300 30.40000
H  -1.52600 38.79500 28.64300
H  -2.44700 43.04200 30.30700
H  -0.98100 43.87100 30.03600
H  -1.65900 43.97100 32.36900
H  -0.15400 43.28900 32.39900
H  -4.83800 41.18200 24.99900
H  -4.56800 39.46600 24.83500
H  -5.19500 40.44800 23.51900
H  -4.29200 39.10400 21.75200
H  -4.02500 39.48200 20.08400
H  -5.20800 40.35000 20.95500
H  1.89400 42.93500 20.71200
H  4.46100 42.69800 22.05800
H  1.99400 40.90100 19.75700
H  2.42500 40.03500 21.22200
H  3.66900 40.96000 20.45000
H  3.43500 45.25200 22.64200
H  2.55800 44.80600 21.26600
H  5.13400 44.08200 20.34600
H  5.43100 45.58900 21.24900
H  4.42600 45.65100 19.99100
H  6.54900 43.05000 27.61600
H  6.27000 44.72700 27.97700
H  6.45200 44.15700 26.33800
H  1.84300 43.64500 30.58800
H  1.56800 41.02700 34.15500
H  3.24500 40.95800 33.52000
H  1.92700 39.77600 33.05100

