158

Mg 6.93500 53.76700 40.07400
C  6.39800 50.31400 40.21000
C  10.10100 53.14700 39.30900
C  7.24200 57.08500 39.37600
C  3.45600 54.10700 40.52000
N  8.01800 51.93300 39.56100
C  7.68100 50.61600 39.74900
C  8.77700 49.65500 39.36000
C  9.98400 50.58900 39.49400
C  9.35900 52.01000 39.38000
C  10.74200 50.47000 40.84000
C  8.65100 48.94100 37.98000
C  7.89700 49.57700 36.81400
H  8.72400 50.10900 35.60800
N  8.55300 54.94100 39.41900
C  9.79100 54.54200 39.15000
C  10.58400 55.67100 38.79500
C  9.76500 56.84400 38.81000
C  8.47600 56.33200 39.19600
C  12.08000 55.63400 38.42500
C  10.18500 58.22700 38.47700
O  11.37900 58.47500 38.31500
C  9.19700 59.36200 38.26200
N  5.53400 55.35100 40.05100
C  5.88700 56.64700 39.72800
C  4.67700 57.59900 39.66000
C  3.54700 56.67100 40.20100
C  4.22000 55.25800 40.27900
C  4.90300 58.91200 40.55000
C  2.19600 56.75600 39.42400
C  1.07600 57.42900 40.25400
N  5.16400 52.57200 40.49000
C  3.85100 52.80700 40.72300
C  3.16200 51.65600 41.14600
C  4.11900 50.57200 40.96400
C  5.33600 51.24300 40.52400
C  1.74400 51.61600 41.67400
C  4.36000 49.15200 41.07900
O  3.63600 48.26400 41.45800
C  5.79300 48.97400 40.61700
C  5.73000 47.99600 39.51900
O  5.49300 48.26200 38.34900
O  5.99800 46.77000 39.97100
C  5.77300 45.69400 38.97700
H  11.18100 53.00600 39.24100
H  7.26200 58.15400 39.15100
H  2.38400 54.25800 40.66500
H  8.81200 48.79700 40.03100
H  10.71500 50.39600 38.70800
H  10.17600 49.80900 41.49700
H  10.95600 51.43000 41.31000
H  11.70700 49.99300 40.66300
H  8.11100 48.03700 38.26200
H  9.64600 48.67900 37.62000
H  7.40100 50.44800 37.24300
H  7.11800 48.93800 36.39800
H  12.68100 56.17400 39.15600
H  12.21900 55.91500 37.38100
H  12.35100 54.59100 38.58900
H  8.84700 59.73700 39.22400
H  8.36100 59.17100 37.58900
H  9.89300 60.02500 37.74900
H  4.45800 57.72100 38.59900
H  3.30200 56.92800 41.23200
H  4.07000 58.98600 41.24900
H  4.85600 59.72600 39.82700
H  5.89300 58.99200 41.00000
H  1.83100 55.78100 39.10400
H  2.26500 57.36700 38.52400
H  1.39500 57.80500 41.22600
H  0.28400 56.69400 40.40300
H  0.74900 58.32400 39.72500
H  1.11100 50.85600 41.21500
H  1.23700 52.58000 41.62900
H  1.78800 51.18800 42.67600
H  6.38900 48.43200 41.35300
H  4.69600 45.57300 38.86700
H  6.20900 44.73700 39.26600
H  6.12500 45.73000 37.94600
Mg 0.01900 43.94100 26.19700
C  2.40900 43.43500 28.69300
C  -2.50600 43.42000 28.42900
C  -1.92900 43.49500 23.52900
C  2.87300 43.98200 23.94500
N  0.01300 43.33400 28.37700
C  1.06800 43.30700 29.18500
C  0.63200 43.22800 30.65100
C  -0.93100 42.94300 30.37700
C  -1.18200 43.27600 28.96500
C  -1.49100 41.53000 30.67900
C  0.85400 44.54800 31.45400
C  1.37400 44.45600 32.86800
H  0.97500 43.09800 33.65100
N  -2.00500 43.52900 25.98100
C  -2.92000 43.47000 27.08800
C  -4.27200 43.45200 26.54600
C  -4.17600 43.49400 25.14100
C  -2.68500 43.47600 24.78100
C  -5.44800 43.57100 27.52500
C  -5.26600 43.50000 24.13100
O  -5.05200 43.45000 22.92100
C  -6.61100 43.31600 24.59900
N  0.46200 43.88600 24.05400
C  -0.58100 43.70700 23.21200
C  -0.09300 43.59500 21.76800
C  1.33400 44.26200 21.87900
C  1.61500 44.08300 23.35300
C  0.00400 42.16600 21.19100
C  1.49800 45.77000 21.42400
C  2.54800 46.16700 20.45900
N  2.20500 43.97800 26.30300
C  3.20000 43.93700 25.30800
C  4.55500 43.83500 25.89000
C  4.27100 43.69900 27.24100
C  2.81500 43.73800 27.44200
C  5.85000 43.74800 25.12000
C  4.88600 43.41400 28.54300
O  6.08100 43.45400 28.89300
C  3.64500 43.43700 29.58100
C  3.82300 42.30800 30.47400
O  3.47100 41.15800 30.27100
O  4.55000 42.68900 31.56100
C  4.71600 41.75000 32.65600
H  -3.34000 43.30700 29.12400
H  -2.58400 43.32800 22.67100
H  3.58200 43.95600 23.11500
H  1.00100 42.33000 31.14700
H  -1.42400 43.64400 31.05000
H  -2.43800 41.72100 31.18300
H  -0.91200 41.08000 31.48600
H  -1.69200 40.85300 29.85000
H  -0.04000 45.16600 31.53100
H  1.53800 45.12400 30.83000
H  0.88100 45.32700 33.29900
H  2.46200 44.50600 32.82300
H  -6.20200 44.23800 27.10800
H  -5.17500 44.01100 28.48400
H  -5.91200 42.61800 27.77700
H  -6.62300 42.61700 25.43500
H  -7.19200 42.83100 23.81500
H  -7.07300 44.28800 24.77200
H  -0.62000 44.31700 21.14500
H  2.08200 43.68500 21.33500
H  -0.64800 41.50200 21.75800
H  0.99200 41.74400 21.37800
H  -0.19900 42.08300 20.12300
H  1.57900 46.36100 22.33600
H  0.59700 46.07500 20.89200
H  2.21500 46.79200 19.63000
H  3.01400 45.30600 19.98000
H  3.32200 46.73000 20.98100
H  6.56000 44.53200 25.38300
H  5.62500 43.84600 24.05800
H  6.34800 42.79600 25.30000
H  3.68300 44.30300 30.24100
H  3.93500 40.99200 32.61500
H  4.73400 42.20200 33.64800
H  5.70400 41.29700 32.56700

