158

Mg 7.99300 2.95000 27.11800
C  9.15600 1.74400 30.19200
C  6.01900 5.15000 28.91300
C  6.80100 4.05800 24.17800
C  9.45100 0.28200 25.55900
N  7.50100 3.30000 29.30100
C  8.19400 2.73900 30.31200
C  7.87200 3.51100 31.63600
C  6.72800 4.47300 31.21100
C  6.73700 4.26600 29.73500
C  5.32000 4.15300 31.87700
C  9.03400 4.26900 32.36500
C  8.69700 5.09500 33.56800
H  9.28100 4.57300 34.91500
N  6.48600 4.37200 26.64700
C  5.87400 5.19700 27.53400
C  5.19000 6.17500 26.76800
C  5.36600 5.88000 25.37700
C  6.25900 4.67700 25.34500
C  4.35800 7.31200 27.38700
C  4.88300 6.70400 24.08700
O  5.39400 6.48900 22.97200
C  3.98100 7.87000 24.17200
N  8.07100 2.11700 25.10300
C  7.57400 2.79100 24.08100
C  7.68800 1.93100 22.78200
C  8.64400 0.81400 23.21900
C  8.62800 1.03500 24.71700
C  6.28200 1.44200 22.18700
C  10.04100 0.87900 22.58000
C  11.01900 1.78600 23.38200
N  9.19100 1.44700 27.64800
C  9.80900 0.44500 26.92600
C  10.62100 -0.41900 27.75400
C  10.41000 0.08500 29.01100
C  9.50600 1.20700 28.95200
C  11.43900 -1.58300 27.33100
C  10.81400 -0.11700 30.37900
O  11.63700 -0.93200 30.80400
C  10.14500 1.04900 31.19100
C  9.51000 0.48100 32.41500
O  8.54100 -0.27700 32.47600
O  10.21200 1.00000 33.47800
C  9.55500 0.58900 34.72000
H  5.55900 5.96500 29.47700
H  6.54900 4.36500 23.16000
H  9.94700 -0.53100 25.02400
H  7.51500 2.78900 32.37000
H  7.07700 5.49800 31.33600
H  4.53600 3.99900 31.13600
H  5.17500 5.07000 32.44700
H  5.36900 3.36100 32.62500
H  9.54000 4.86500 31.60500
H  9.72600 3.54100 32.78900
H  7.62700 5.26000 33.69200
H  9.15800 6.07700 33.45800
H  4.39500 7.48000 28.46400
H  3.31000 7.28300 27.08800
H  4.68400 8.22400 26.88800
H  3.54600 8.16100 23.21500
H  4.60200 8.72200 24.45000
H  3.17900 7.73300 24.89700
H  8.21600 2.51800 22.03000
H  8.19700 -0.12500 22.89200
H  6.15100 1.82100 21.17400
H  5.48900 1.71900 22.88300
H  6.12000 0.36700 22.11700
H  10.04000 1.17800 21.53200
H  10.51500 -0.10200 22.56600
H  11.72200 1.12700 23.89200
H  10.54800 2.51100 24.04500
H  11.58500 2.43900 22.71700
H  12.51200 -1.39500 27.37100
H  11.34500 -1.79400 26.26500
H  11.13600 -2.44300 27.92800
H  10.84600 1.85200 31.41500
H  8.50400 0.88000 34.71400
H  10.17700 0.96500 35.53200
H  9.49800 -0.49700 34.78400
Mg 36.04200 48.59800 24.83600
C  36.04500 46.67500 27.85700
C  34.14200 50.84000 26.47600
C  35.10100 49.93100 21.84000
C  37.13200 45.78800 23.18500
N  35.08500 48.63700 26.95800
C  35.34900 47.88900 28.01700
C  35.05300 48.68300 29.32000
C  34.25000 49.88300 28.76700
C  34.56100 49.82900 27.33000
C  32.69200 49.94600 29.18500
C  36.35000 49.13600 30.02700
C  36.29600 49.64900 31.54300
H  34.96900 49.64700 32.36100
N  34.99700 50.37200 24.22900
C  34.33900 51.14200 25.06300
C  33.83800 52.35900 24.37200
C  34.18400 52.05800 23.02300
C  34.71400 50.69200 22.96700
C  33.00500 53.49900 24.92600
C  34.15300 52.97300 21.83500
O  34.58600 52.60400 20.73700
C  33.68600 54.43300 22.02700
N  35.92500 47.92200 22.87600
C  35.57400 48.66000 21.85400
C  35.72800 47.91100 20.41400
C  36.52800 46.69800 20.87100
C  36.55500 46.76600 22.42400
C  34.31600 47.58000 19.82400
C  37.96100 46.65000 20.22800
C  38.89900 47.83900 20.57400
N  36.47700 46.59500 25.37600
C  37.08000 45.65000 24.59700
C  37.41100 44.51400 25.42200
C  37.09300 44.90100 26.76500
C  36.54300 46.19400 26.61700
C  37.97400 43.20400 24.99300
C  36.99700 44.53900 28.13300
O  37.22100 43.45000 28.64700
C  36.49900 45.77800 28.96600
C  35.54700 45.34600 30.07300
O  34.54800 44.71200 29.90600
O  36.04600 45.89300 31.20600
C  35.15000 45.61000 32.39900
H  33.44900 51.58500 26.87200
H  34.89300 50.36000 20.85800
H  37.47900 44.87500 22.69700
H  34.48500 48.08900 30.03500
H  34.55900 50.85500 29.15100
H  32.47700 49.10000 29.83700
H  32.06600 49.85500 28.29700
H  32.52300 50.90900 29.66600
H  36.78700 49.89000 29.37200
H  37.11800 48.36900 30.13000
H  36.55300 50.70800 31.52300
H  37.12400 49.21600 32.10500
H  33.56400 54.42700 25.04200
H  32.71000 53.30400 25.95700
H  32.10400 53.53400 24.31300
H  33.75600 54.96100 21.07500
H  34.46300 54.78600 22.70500
H  32.69000 54.44300 22.46800
H  36.28400 48.49400 19.67900
H  36.08500 45.74600 20.58000
H  34.33400 46.51100 19.61300
H  34.11300 48.12500 18.90200
H  33.58700 47.82100 20.59700
H  37.97500 46.58700 19.14000
H  38.48900 45.76200 20.57700
H  38.89300 48.51500 19.71900
H  39.88100 47.37500 20.67500
H  38.70300 48.49700 21.42000
H  38.57100 43.42900 24.10900
H  37.13600 42.58300 24.67900
H  38.63900 42.88800 25.79700
H  37.39100 46.09200 29.50800
H  35.22200 44.65100 32.91300
H  34.12500 45.70000 32.04100
H  35.34300 46.36800 33.15700

