158

Mg 52.75100 24.28000 44.27300
C  49.86500 26.14000 44.01200
C  50.92000 21.38500 43.70700
C  55.63100 22.73000 43.44500
C  54.54800 27.34700 44.62100
N  50.62300 23.83100 43.70500
C  49.66200 24.68300 43.78800
C  48.28300 23.96800 43.74100
C  48.64100 22.48800 44.06900
C  50.11300 22.53200 43.83200
C  48.35200 22.03700 45.53900
C  47.44700 24.09100 42.42400
C  48.05700 23.45600 41.15600
H  47.92200 24.23200 39.78600
N  53.17600 22.32900 43.70800
C  52.28300 21.28600 43.66100
C  53.03000 20.09200 43.37700
C  54.37500 20.40100 43.24100
C  54.44600 21.87600 43.46500
C  52.31500 18.73300 43.41400
C  55.51700 19.42400 43.05000
O  55.28400 18.19200 43.10200
C  56.90100 19.81400 42.76500
N  54.77000 24.93900 43.77000
C  55.79700 24.06900 43.64800
C  57.21200 24.79100 43.66600
C  56.82800 26.30800 43.92100
C  55.28800 26.22600 44.09800
C  58.25300 24.09300 44.61700
C  57.25900 27.25300 42.84200
C  58.17000 28.31700 43.27700
N  52.32900 26.32300 44.46900
C  53.11800 27.41700 44.72300
C  52.18300 28.63400 44.93200
C  50.95400 28.17200 44.56000
C  51.08400 26.81000 44.28000
C  52.64900 30.01300 45.25100
C  49.55100 28.52300 44.49000
O  48.81400 29.45600 44.81100
C  48.83600 27.22800 44.03100
C  48.31900 27.58900 42.70100
O  48.82800 27.24600 41.62100
O  47.02700 28.08500 42.77900
C  46.28300 28.41300 41.56900
H  50.45000 20.40800 43.57500
H  56.56700 22.20700 43.23600
H  55.12100 28.27500 44.67000
H  47.69700 24.35100 44.57700
H  48.21100 21.84100 43.30500
H  48.94600 22.55700 46.29000
H  48.60800 20.97900 45.60700
H  47.30700 22.32300 45.65700
H  47.21200 25.15400 42.36600
H  46.49600 23.56400 42.49100
H  47.76200 22.41700 41.00700
H  49.13900 23.48700 41.28100
H  52.91600 17.87600 43.10900
H  51.45600 18.74900 42.74300
H  51.82200 18.51700 44.36100
H  57.52200 18.97100 42.46100
H  57.43300 20.32000 43.57000
H  56.83400 20.49900 41.92000
H  57.65000 24.71000 42.67000
H  57.25200 26.52100 44.90200
H  59.05500 23.61800 44.05200
H  57.82300 23.33300 45.27000
H  58.79400 24.85500 45.17700
H  56.35300 27.68400 42.41500
H  57.64600 26.67800 42.00100
H  57.70900 29.26000 42.98600
H  59.21600 28.33800 42.96900
H  58.13200 28.35400 44.36600
H  53.00300 30.55100 44.37200
H  53.38600 29.90300 46.04700
H  51.79600 30.59900 45.59400
H  48.08300 27.04100 44.79700
H  45.21700 28.26400 41.74000
H  46.53600 27.94200 40.61900
H  46.34800 29.47900 41.35000
Mg 0.10900 43.44600 25.34700
C  2.41300 43.00000 27.90000
C  -2.43500 42.58400 27.46700
C  -2.08400 43.71000 22.83000
C  2.80400 43.65500 23.09800
N  0.03400 42.83900 27.48000
C  1.05400 42.86800 28.37000
C  0.47100 42.78200 29.84800
C  -0.96000 42.22400 29.54900
C  -1.16500 42.55200 28.06800
C  -1.21000 40.69100 29.96500
C  0.56100 44.18600 30.52900
C  0.50000 44.13000 32.09900
H  0.39000 42.76900 32.67800
N  -2.03100 43.31600 25.16100
C  -2.85700 42.93100 26.13800
C  -4.19500 42.95500 25.65700
C  -4.14700 43.42300 24.32500
C  -2.73000 43.55100 24.05900
C  -5.41000 42.71300 26.50500
C  -5.20500 43.93200 23.33200
O  -4.84500 44.48400 22.25700
C  -6.72500 43.81500 23.65300
N  0.35200 43.70000 23.26500
C  -0.74300 43.73200 22.43100
C  -0.26600 43.67200 20.94600
C  1.26500 43.98500 21.10400
C  1.51900 43.73800 22.56900
C  -0.57700 42.28800 20.24200
C  1.68300 45.33600 20.54700
C  1.09800 46.56200 21.13800
N  2.26000 43.27400 25.37500
C  3.18100 43.39500 24.41800
C  4.59100 43.37100 25.03700
C  4.27300 43.13100 26.37700
C  2.87300 43.09900 26.56200
C  5.87400 43.54600 24.34200
C  4.91500 42.92300 27.69700
O  6.06900 42.92700 28.04400
C  3.70400 42.81300 28.76000
C  3.79100 41.57000 29.50000
O  3.36800 40.51400 29.05200
O  4.36000 41.74700 30.77000
C  4.29200 40.61300 31.68600
H  -3.29100 42.34700 28.10200
H  -2.72200 43.66300 21.94500
H  3.57700 43.85400 22.35400
H  1.12700 42.06700 30.34400
H  -1.63900 42.79400 30.18400
H  -1.11500 39.87900 29.24500
H  -2.07500 40.71000 30.62700
H  -0.36900 40.45300 30.61600
H  -0.30500 44.74300 30.17300
H  1.50900 44.64200 30.24300
H  -0.31800 44.73900 32.48400
H  1.38500 44.63800 32.48400
H  -6.20900 42.15200 26.02000
H  -5.83900 43.68200 26.76000
H  -5.12300 42.12100 27.37300
H  -7.39000 44.23700 22.90100
H  -6.96200 44.30400 24.59800
H  -7.01500 42.77500 23.80800
H  -0.74600 44.56900 20.55500
H  1.89000 43.22100 20.64100
H  -0.82200 41.53000 20.98600
H  0.28300 41.90800 19.69100
H  -1.48600 42.24000 19.64200
H  1.22600 45.40400 19.56000
H  2.77200 45.39400 20.54200
H  0.75900 47.20000 20.32200
H  1.90100 47.10300 21.63900
H  0.21300 46.36400 21.74300
H  5.90400 44.38200 23.64300
H  6.27900 42.63600 23.89900
H  6.60500 43.89500 25.07100
H  3.82100 43.59100 29.51400
H  5.16200 40.71200 32.33500
H  4.34200 39.66000 31.16000
H  3.45400 40.82600 32.35100

