158

Mg 35.28400 49.15200 24.92200
C  35.77100 47.24700 27.85700
C  34.79600 51.86200 26.85200
C  34.80600 50.81600 22.11000
C  36.21500 46.29700 23.09800
N  35.05500 49.44100 27.10000
C  35.45400 48.59500 28.09200
C  35.38800 49.30500 29.44800
C  35.26000 50.82300 29.10100
C  35.06300 50.72000 27.58200
C  34.00600 51.54300 29.75600
C  36.64300 48.94900 30.33000
C  36.38300 48.35100 31.75000
H  34.94900 48.41300 32.32900
N  34.86100 51.04900 24.57700
C  34.64900 52.04100 25.45200
C  34.49000 53.33400 24.82000
C  34.38400 53.01700 23.42900
C  34.72100 51.57200 23.30600
C  34.41600 54.60800 25.66900
C  34.10600 53.92200 22.30400
O  34.26000 53.59800 21.17400
C  33.74700 55.39300 22.40500
N  35.21900 48.53800 22.87500
C  35.15800 49.46200 21.87800
C  35.64900 48.91800 20.51300
C  36.49500 47.63000 20.98500
C  35.99800 47.48700 22.44300
C  34.32400 48.53000 19.68800
C  38.09000 47.67800 20.90500
C  38.84200 46.39700 20.35000
N  35.77400 47.18900 25.30900
C  36.14500 46.16100 24.44900
C  36.70600 45.01500 25.16400
C  36.50400 45.35000 26.56800
C  35.95400 46.67300 26.58400
C  37.23100 43.80200 24.50600
C  36.60700 44.85800 27.88600
O  37.07300 43.79600 28.37100
C  36.17500 46.10100 28.81900
C  35.08900 45.56800 29.67200
O  33.91200 45.51200 29.35700
O  35.59000 44.83200 30.76100
C  34.50700 44.25400 31.57000
H  34.63600 52.80800 27.37300
H  34.42700 51.30700 21.21100
H  36.55000 45.41000 22.55500
H  34.43200 48.90300 29.78200
H  36.22200 51.31000 29.26000
H  34.28800 52.47800 30.24000
H  33.56200 50.90900 30.52300
H  33.33400 51.93200 28.99100
H  37.09000 49.90500 30.60600
H  37.39500 48.36400 29.80100
H  37.02300 48.79100 32.51500
H  36.88700 47.38600 31.80400
H  34.25700 55.48600 25.04200
H  35.40800 54.77200 26.08800
H  33.66900 54.40500 26.43700
H  32.89600 55.55600 23.06800
H  33.43500 55.68400 21.40200
H  34.65400 55.91500 22.71000
H  36.39100 49.62200 20.13700
H  36.37500 46.71200 20.40900
H  33.53800 49.16600 20.09500
H  34.06300 47.48500 19.85900
H  34.52600 48.77800 18.64700
H  38.47700 47.94400 21.88900
H  38.25000 48.49300 20.19900
H  39.91900 46.55400 20.28800
H  38.57800 46.12000 19.32900
H  38.61000 45.46100 20.85800
H  37.94300 44.17900 23.77100
H  36.30500 43.34200 24.16100
H  37.75600 43.28400 25.30800
H  37.04500 46.22500 29.46400
H  33.95900 43.48000 31.03200
H  33.90300 45.02500 32.04600
H  35.15300 43.63800 32.19500
Mg 7.30200 54.80900 42.17000
C  6.51300 51.47100 41.48700
C  10.47500 54.21300 40.95700
C  7.71700 58.21000 41.87000
C  3.87000 55.28500 42.62100
N  8.28600 53.08700 41.22400
C  7.82700 51.78400 41.14500
C  9.00900 50.85200 40.67300
C  10.26600 51.71400 41.00100
C  9.62700 53.10300 40.99000
C  11.04400 51.29300 42.31500
C  8.97300 50.40000 39.20100
C  8.79700 51.45500 38.07900
H  7.53900 51.24000 37.23400
N  8.95900 55.99800 41.61500
C  10.17100 55.53400 41.21500
C  11.03600 56.63400 41.00700
C  10.28300 57.81900 41.34400
C  8.91400 57.38600 41.68400
C  12.48400 56.60400 40.44100
C  10.75700 59.25900 41.45000
O  11.90500 59.53600 41.08900
C  9.96300 60.51600 41.88000
N  5.95800 56.52700 42.17200
C  6.38400 57.81800 42.03300
C  5.26200 58.85300 42.29700
C  4.02200 57.85100 42.49700
C  4.66400 56.45700 42.46300
C  5.54200 59.76800 43.52600
C  2.83000 58.06800 41.47900
C  1.58000 58.83600 41.93200
N  5.54600 53.65800 42.23900
C  4.24900 53.98900 42.52800
C  3.47800 52.83100 42.72100
C  4.33800 51.82100 42.30400
C  5.57200 52.38300 42.00400
C  2.04000 52.70000 43.18300
C  4.37400 50.36100 42.08200
O  3.51500 49.45800 42.31400
C  5.83100 50.13500 41.52100
C  5.88700 49.22300 40.40700
O  5.42100 49.49300 39.28400
O  6.61700 48.07500 40.71200
C  6.94400 47.10800 39.70000
H  11.53600 53.99600 40.82000
H  7.99100 59.26700 41.84400
H  2.82500 55.45200 42.89100
H  8.85600 49.99400 41.32700
H  10.96800 51.41100 40.22500
H  10.43200 50.66400 42.96100
H  11.24900 52.21000 42.86800
H  11.97100 50.74500 42.14200
H  8.20200 49.63400 39.12100
H  9.93600 49.95100 38.95900
H  9.70000 51.29100 37.49200
H  8.76700 52.43000 38.56500
H  12.79600 55.60500 40.13700
H  13.03700 56.97200 41.30500
H  12.73200 57.23300 39.58600
H  9.32000 60.93300 41.10400
H  10.64700 61.33500 42.09900
H  9.56500 60.25200 42.85900
H  5.14600 59.46000 41.39900
H  3.56600 57.99400 43.47600
H  5.11100 59.29000 44.40600
H  5.19100 60.77500 43.30100
H  6.60300 59.81500 43.77100
H  2.52700 57.09200 41.10100
H  3.14900 58.66700 40.62600
H  0.85600 58.08700 42.25500
H  1.03000 59.43100 41.20300
H  1.91000 59.39700 42.80600
H  1.69300 51.73600 43.55600
H  1.44100 52.87400 42.29000
H  1.95600 53.52600 43.89000
H  6.45600 49.59000 42.22800
H  7.96100 47.03000 39.31700
H  6.34800 47.17800 38.79000
H  6.79000 46.15100 40.19800

