158

Mg -2.32000 17.01800 25.71000
C  -2.62700 14.64100 28.27300
C  -3.18500 19.51900 27.84900
C  -2.49700 19.19700 23.13600
C  -2.11200 14.41300 23.35800
N  -3.04000 17.03300 27.81100
C  -2.95800 16.00500 28.74100
C  -3.40300 16.53300 30.19700
C  -3.72300 18.06100 29.97000
C  -3.34800 18.26000 28.41000
C  -5.23800 18.33000 30.18600
C  -2.35400 16.14600 31.26500
C  -2.68700 16.79300 32.63300
H  -2.63000 16.08000 33.91900
N  -2.55900 19.07600 25.53800
C  -2.83400 19.86100 26.52900
C  -2.74700 21.28800 26.03200
C  -2.44300 21.25300 24.65900
C  -2.54500 19.80600 24.40300
C  -2.90300 22.51900 26.94000
C  -2.17900 22.36900 23.67700
O  -1.72900 22.14700 22.58500
C  -2.00600 23.78400 24.06300
N  -2.30100 16.86400 23.62100
C  -2.40700 17.86600 22.79100
C  -2.22300 17.55200 21.28200
C  -1.98600 16.06700 21.43300
C  -2.13900 15.70900 22.90600
C  -3.26900 18.04300 20.28800
C  -0.60000 15.58600 20.86900
C  0.64600 15.65800 21.76100
N  -2.35500 15.00000 25.75700
C  -2.32600 14.07200 24.73500
C  -2.29000 12.71400 25.36600
C  -2.32000 12.94900 26.71000
C  -2.35800 14.28200 26.93500
C  -2.21900 11.41900 24.51600
C  -2.40000 12.23400 27.96200
O  -2.29200 11.01700 28.25700
C  -2.65900 13.33800 29.04900
C  -1.42200 13.20300 29.94800
O  -0.36000 13.80600 29.84300
O  -1.63100 12.37700 30.97200
C  -0.64200 12.10400 31.98300
H  -3.56600 20.36900 28.42000
H  -2.48100 19.92500 22.32200
H  -2.04300 13.56800 22.67000
H  -4.29700 15.98400 30.49400
H  -3.02900 18.52700 30.66900
H  -5.47400 19.34200 29.85600
H  -5.45500 18.30900 31.25400
H  -5.82500 17.64200 29.57800
H  -1.36500 16.46400 30.93600
H  -2.36800 15.08800 31.52700
H  -3.69100 17.21500 32.60700
H  -1.98500 17.62600 32.58400
H  -3.71700 23.09000 26.49300
H  -2.01400 23.13500 26.80600
H  -3.07900 22.31400 27.99600
H  -1.89400 24.33700 23.13000
H  -1.11000 23.91000 24.67000
H  -2.82300 24.23200 24.62900
H  -1.30600 18.10100 21.06800
H  -2.82500 15.54800 20.96800
H  -3.98900 18.68700 20.79300
H  -3.84300 17.21100 19.87900
H  -2.80600 18.68200 19.53600
H  -0.51100 16.28200 20.03500
H  -0.66600 14.57900 20.45700
H  1.28400 16.49400 21.47500
H  1.24900 14.76000 21.62800
H  0.21400 15.87400 22.73900
H  -1.40500 11.49400 23.79500
H  -3.16600 11.28500 23.99400
H  -2.05900 10.67300 25.29400
H  -3.60400 13.13000 29.55300
H  -0.03100 11.23600 31.73500
H  -1.21500 11.91400 32.89100
H  0.04500 12.92700 32.18100
Mg 6.60600 53.81500 41.47100
C  5.86800 50.38800 41.50100
C  9.50500 53.13900 39.72800
C  6.94000 57.13100 40.79800
C  3.52000 54.45500 42.92500
N  7.48100 51.97000 40.50800
C  6.97000 50.64700 40.70800
C  7.99500 49.67600 40.01200
C  9.30100 50.58700 39.87400
C  8.78700 52.00600 40.04500
C  10.43200 50.27500 40.90400
C  7.53800 48.94200 38.64200
C  6.14500 49.31200 37.99400
H  5.90100 48.53600 36.64400
N  7.95800 55.00600 40.33900
C  9.10100 54.53300 39.86400
C  9.95700 55.68000 39.49600
C  9.34200 56.83300 39.84600
C  7.95100 56.33400 40.32700
C  11.37500 55.38600 38.96100
C  9.94000 58.20600 39.76700
O  11.02300 58.35800 39.20800
C  9.29000 59.40400 40.35100
N  5.31100 55.45100 41.65000
C  5.68600 56.73900 41.32600
C  4.52900 57.77300 41.61700
C  3.50800 56.94100 42.42600
C  4.14900 55.55000 42.32300
C  5.00400 59.04000 42.41000
C  2.05900 56.90300 41.86700
C  0.95600 56.91500 42.88900
N  5.02400 52.69400 42.18700
C  3.94600 53.11600 42.89900
C  3.31600 51.89500 43.44300
C  4.06600 50.74200 42.94400
C  4.99100 51.30800 42.14200
C  2.20600 51.76600 44.42600
C  4.09800 49.34300 42.90100
O  3.43500 48.51200 43.53100
C  5.34600 49.04000 42.08000
C  5.10000 47.91500 41.11200
O  4.10000 47.89000 40.37800
O  6.03100 46.91500 41.32100
C  5.84200 45.78500 40.41500
H  10.39700 52.86400 39.16100
H  7.03600 58.21100 40.67000
H  2.57000 54.58800 43.44700
H  8.25600 48.91800 40.75100
H  9.74700 50.57700 38.87900
H  11.27800 50.02000 40.26600
H  10.06400 49.59200 41.67000
H  10.70300 51.16300 41.47500
H  7.44400 47.92800 39.03100
H  8.46000 49.12600 38.09100
H  6.17000 50.37900 37.77400
H  5.30300 49.07400 38.64400
H  11.70800 54.45100 38.51100
H  12.14300 55.57400 39.71100
H  11.53800 56.08500 38.14100
H  8.88200 59.13000 41.32400
H  8.56900 59.89100 39.69500
H  10.08000 60.09100 40.65500
H  3.93700 57.93600 40.71700
H  3.44500 57.29700 43.45400
H  4.98700 59.93900 41.79400
H  6.03300 58.87600 42.72800
H  4.33400 59.23100 43.24800
H  1.93600 56.00300 41.26500
H  1.92500 57.82300 41.29900
H  0.20700 56.12700 42.81000
H  0.45300 57.88200 42.87200
H  1.28300 56.90500 43.92800
H  2.12800 50.79500 44.91600
H  1.30300 51.85600 43.82200
H  2.20400 52.61000 45.11600
H  6.11500 48.60900 42.72000
H  4.75500 45.69700 40.43200
H  6.30000 44.85100 40.74000
H  6.18900 45.91500 39.39000

