158

Mg 30.00500 58.18800 40.42900
C  27.38100 56.17500 39.54200
C  32.24100 55.68300 39.28800
C  32.53000 60.26700 40.59500
C  27.79600 60.83400 40.97900
N  29.86800 56.25800 39.38900
C  28.63500 55.62700 39.26400
C  28.77400 54.27300 38.56300
C  30.31200 53.96300 38.94000
C  30.86700 55.40600 39.15800
C  30.43000 53.12900 40.20500
C  28.49000 54.54700 37.04200
C  27.78300 53.44500 36.18600
H  27.26100 53.97000 34.84900
N  32.11600 58.00500 40.21200
C  32.81900 56.92500 39.73800
C  34.22600 57.16700 39.68800
C  34.29800 58.57900 40.01200
C  32.96200 58.99900 40.29100
C  35.31300 56.16400 39.24300
C  35.53400 59.42600 39.93700
O  36.56200 58.91800 39.52000
C  35.70600 60.94100 40.34800
N  30.11100 60.26400 40.52300
C  31.30900 60.86100 40.83100
C  31.22300 62.28100 41.25300
C  29.59800 62.51400 41.18300
C  29.07600 61.11100 40.81500
C  31.82600 62.63300 42.61700
C  29.15500 63.61800 40.23300
C  27.77700 64.23400 40.49700
N  27.95700 58.53500 40.33400
C  27.18900 59.59800 40.68100
C  25.82900 59.24000 40.53500
C  25.88200 57.85300 40.07600
C  27.23000 57.50500 40.03300
C  24.62700 60.17000 40.62500
C  25.05200 56.73000 39.75600
O  23.82900 56.61600 39.68900
C  26.03100 55.67200 39.31300
C  25.69900 54.38000 40.05500
O  26.18200 54.01200 41.15400
O  24.72700 53.70100 39.35800
C  24.35200 52.40400 39.91000
H  32.94700 54.92200 38.95100
H  33.27200 61.05900 40.72000
H  27.13500 61.68700 41.14800
H  28.19900 53.45900 39.00400
H  30.83900 53.45900 38.12900
H  31.06400 53.49900 41.01200
H  30.82100 52.15400 39.91400
H  29.48300 53.07600 40.74200
H  29.42900 54.79200 36.54500
H  27.99800 55.51900 37.01100
H  27.00800 52.94900 36.77000
H  28.57900 52.75000 35.91900
H  35.21300 55.27400 39.86400
H  36.31100 56.46600 39.56000
H  35.23800 56.00700 38.16700
H  35.34900 61.01700 41.37500
H  35.03900 61.57900 39.76800
H  36.77000 61.17200 40.29400
H  31.76600 62.88400 40.52400
H  29.25600 62.69900 42.20200
H  31.04600 63.02000 43.27300
H  32.56300 63.43100 42.52700
H  32.20000 61.70900 43.05600
H  29.29400 63.33600 39.18900
H  29.80000 64.45600 40.49900
H  27.92400 65.31400 40.49500
H  27.37700 63.88800 41.45000
H  27.11400 63.98600 39.66800
H  24.94200 61.06500 40.08800
H  24.23400 60.33400 41.62800
H  23.84900 59.71100 40.01500
H  25.75900 55.47400 38.27600
H  24.05500 52.37100 40.95900
H  25.05600 51.61500 39.64600
H  23.42800 52.17800 39.37800
Mg -5.71400 25.21000 26.00000
C  -4.45700 26.44100 28.91900
C  -7.79900 23.13300 27.83900
C  -6.73700 23.63600 23.18100
C  -3.28700 27.06100 24.13000
N  -5.98100 24.81800 28.11400
C  -5.48400 25.53900 29.12400
C  -6.06100 25.20000 30.51300
C  -6.95900 23.90100 30.16200
C  -6.85700 23.89100 28.63100
C  -6.45400 22.48300 30.77200
C  -6.89500 26.42400 30.98900
C  -6.66800 26.76400 32.42200
H  -6.05000 25.64900 33.26700
N  -7.18800 23.70900 25.56700
C  -8.02200 23.05700 26.44000
C  -8.94800 22.18200 25.76500
C  -8.53900 22.23300 24.41100
C  -7.46000 23.27200 24.32500
C  -10.07600 21.39900 26.38000
C  -9.02000 21.38900 23.22800
O  -8.52000 21.44800 22.09900
C  -10.14000 20.44700 23.39500
N  -5.16900 25.37600 23.94700
C  -5.70100 24.57000 22.99200
C  -5.08200 24.83700 21.62500
C  -4.22000 26.14600 21.89200
C  -4.19100 26.20000 23.43900
C  -4.28400 23.62200 21.09000
C  -4.73400 27.46200 21.22500
C  -3.61800 28.40200 20.62700
N  -4.13300 26.43700 26.41300
C  -3.21500 27.11100 25.56800
C  -2.34100 27.86800 26.40800
C  -2.77800 27.70000 27.76000
C  -3.88700 26.84700 27.70200
C  -1.19100 28.66000 25.91900
C  -2.48500 27.96500 29.16500
O  -1.54000 28.58600 29.61200
C  -3.62800 27.17100 30.00700
C  -2.85200 26.28600 30.93700
O  -2.57900 25.11400 30.83400
O  -2.58300 27.08200 32.11800
C  -1.84500 26.43000 33.20500
H  -8.50600 22.50200 28.38100
H  -7.04900 23.15100 22.25400
H  -2.61800 27.63500 23.48500
H  -5.21300 24.94500 31.14900
H  -8.02700 24.01100 30.34900
H  -5.43600 22.57900 31.14900
H  -6.54100 21.71400 30.00400
H  -7.15100 22.28700 31.58700
H  -7.95800 26.26800 30.80100
H  -6.60100 27.29600 30.40500
H  -7.61900 27.00900 32.89600
H  -6.01800 27.64000 32.42500
H  -10.31000 21.56800 27.43100
H  -9.75700 20.35700 26.37400
H  -10.98900 21.48200 25.79100
H  -10.41500 20.09700 22.40000
H  -11.02100 20.94000 23.80700
H  -9.94300 19.65500 24.11700
H  -5.96900 25.07500 21.03800
H  -3.19900 25.83300 21.66900
H  -3.31200 23.88000 20.67100
H  -4.80700 23.13300 20.26800
H  -4.11200 22.89400 21.88200
H  -5.31100 28.06300 21.92700
H  -5.44500 27.25400 20.42500
H  -3.80500 29.38800 21.05200
H  -3.75000 28.45900 19.54700
H  -2.58200 28.15100 20.85600
H  -1.50400 29.57900 25.42300
H  -0.41000 28.11200 25.39000
H  -0.68500 29.04300 26.80500
H  -4.28900 27.76600 30.63700
H  -1.60500 25.37500 33.07300
H  -2.48800 26.56400 34.07500
H  -0.93700 26.97900 33.45600

