158

Mg 25.67800 1.39900 30.28200
C  27.74000 1.36800 33.15600
C  22.96400 1.59200 32.60200
C  23.55700 1.18900 27.71600
C  28.31100 0.42200 28.40600
N  25.48300 1.70000 32.52700
C  26.47200 1.67200 33.47400
C  25.84600 1.90900 34.86100
C  24.33300 1.65700 34.65400
C  24.25200 1.70800 33.11900
C  23.79200 0.35400 35.34800
C  26.10400 3.42400 35.33600
C  27.19700 3.61200 36.43000
H  26.72800 4.49600 37.60300
N  23.56500 1.41500 30.16500
C  22.65000 1.55500 31.21300
C  21.34800 1.48800 30.65300
C  21.48400 1.51100 29.18600
C  22.97800 1.36300 28.92200
C  20.13500 1.49000 31.53200
C  20.40500 1.63400 28.08000
O  20.60300 1.48700 26.85800
C  19.14400 2.03900 28.56600
N  25.96800 0.93700 28.32300
C  24.90800 0.98300 27.35900
C  25.44700 0.66900 25.96100
C  26.99400 0.71300 26.20900
C  27.08600 0.64200 27.71300
C  24.96800 -0.72500 25.52400
C  27.79400 1.87800 25.63300
C  27.10600 3.24300 25.27400
N  27.66700 0.95000 30.67100
C  28.58700 0.61800 29.74600
C  29.92200 0.40300 30.40200
C  29.62800 0.69700 31.76000
C  28.24200 1.01400 31.88500
C  31.19100 -0.02800 29.69600
C  30.16500 0.74000 33.05600
O  31.26800 0.44100 33.48100
C  29.00400 1.20100 33.99000
C  28.84400 0.19300 35.09300
O  28.26400 -0.83600 35.08000
O  29.33300 0.74100 36.30300
C  28.99700 -0.14300 37.43600
H  22.23400 1.81300 33.38300
H  22.86700 1.01800 26.88800
H  29.21500 0.26200 27.81500
H  26.29100 1.30900 35.65500
H  23.68300 2.38500 35.13900
H  24.49900 -0.27800 35.88500
H  23.55500 -0.30800 34.51600
H  22.85300 0.48600 35.88600
H  25.16900 3.89900 35.63300
H  26.53300 4.03600 34.54300
H  28.07400 4.07300 35.97500
H  27.45500 2.65900 36.89100
H  19.67000 2.47500 31.50700
H  20.32300 1.13200 32.54500
H  19.39700 0.81800 31.09300
H  18.59000 1.22100 29.02800
H  18.51500 2.32900 27.72400
H  19.17900 2.89500 29.23900
H  25.16000 1.40800 25.21400
H  27.49300 -0.18700 25.85000
H  24.52900 -0.61200 24.53400
H  24.27600 -1.13400 26.26100
H  25.82800 -1.38800 25.42200
H  28.23900 1.45700 24.73100
H  28.64800 2.11600 26.26600
H  26.70400 3.78200 26.13200
H  26.36000 3.11900 24.48800
H  27.88200 3.83200 24.78600
H  31.73800 0.86200 29.38300
H  30.87200 -0.59000 28.81800
H  31.83500 -0.62800 30.33800
H  29.26200 2.22200 34.27400
H  29.56000 -1.07500 37.48400
H  27.91400 -0.22900 37.52100
H  29.24700 0.44300 38.32000
Mg 26.87900 49.87100 25.79600
C  25.00200 50.76000 28.62100
C  29.27500 48.69800 28.06000
C  29.10700 49.43800 23.24600
C  24.67600 51.48300 23.76600
N  27.09300 49.77100 28.03900
C  26.09600 50.08700 28.92600
C  26.53300 49.78700 30.38400
C  27.97800 49.39700 30.24000
C  28.11200 49.25600 28.76900
C  29.06400 50.43100 30.77700
C  25.65400 48.70200 31.15900
C  25.26600 49.00200 32.67500
H  26.33500 49.40000 33.76100
N  28.96600 49.03600 25.61600
C  29.62900 48.55500 26.67400
C  30.87600 48.01100 26.18700
C  30.88100 48.27900 24.78900
C  29.60400 48.95700 24.47000
C  31.90400 47.41500 27.03400
C  31.88300 47.81700 23.74700
O  31.81400 48.07600 22.55200
C  33.14300 47.05500 24.23600
N  27.02900 50.52200 23.82400
C  28.00400 50.22900 22.91400
C  27.55800 50.56800 21.47800
C  26.09700 51.21800 21.69400
C  25.88600 51.07000 23.17500
C  28.43900 51.58000 20.75200
C  25.09700 50.37400 20.90200
C  24.84300 48.93300 21.26300
N  25.17500 50.92600 26.02800
C  24.37000 51.60000 25.13200
C  23.23600 52.17300 25.81800
C  23.40300 51.80700 27.15800
C  24.62500 51.05800 27.24200
C  22.06300 52.92000 25.28600
C  22.78700 51.96800 28.44700
O  21.76400 52.60400 28.73900
C  23.84900 51.28200 29.48800
C  24.31500 52.26200 30.45500
O  25.14200 53.14900 30.26200
O  23.64400 51.98600 31.67300
C  23.92600 52.99900 32.71400
H  29.98800 48.22800 28.74000
H  29.79500 49.17200 22.44100
H  24.00700 52.07200 23.13500
H  26.42600 50.70800 30.95800
H  28.17500 48.36700 30.53500
H  29.75200 50.77700 30.00600
H  29.65300 49.81400 31.45500
H  28.80900 51.27400 31.42100
H  26.20200 47.76200 31.10700
H  24.74700 48.61300 30.56200
H  24.73900 48.10600 33.00400
H  24.56100 49.83300 32.66400
H  31.58400 47.18800 28.05100
H  32.70200 48.15600 27.06500
H  32.20900 46.47400 26.57600
H  33.80100 47.11100 23.36900
H  32.85000 46.05500 24.55400
H  33.72400 47.50800 25.03900
H  27.59000 49.63800 20.91000
H  26.11500 52.28800 21.48400
H  27.98600 52.57000 20.69500
H  28.73700 51.21200 19.77000
H  29.36200 51.73000 21.31200
H  25.49300 50.50500 19.89500
H  24.16300 50.93100 20.82400
H  25.13400 48.75000 22.29800
H  25.25400 48.28400 20.49000
H  23.76200 48.82400 21.18000
H  21.12600 52.92000 25.84400
H  21.81200 52.69500 24.25000
H  22.37500 53.95700 25.41500
H  23.52300 50.42300 30.07400
H  24.49800 53.85600 32.35800
H  24.45200 52.56700 33.56600
H  23.00400 53.40400 33.13100

