158

Mg 1.52500 8.62000 27.63000
C  1.89800 11.09200 30.21200
C  1.66000 6.21400 30.26600
C  1.88100 6.34500 25.39400
C  2.02500 11.23000 25.38800
N  1.67800 8.69700 29.99500
C  1.77300 9.81500 30.81800
C  1.52700 9.46800 32.34300
C  1.79400 7.84700 32.22600
C  1.70900 7.53000 30.69400
C  3.19100 7.31300 32.72900
C  0.11900 9.81900 32.79400
C  -0.19100 9.58800 34.31000
H  0.86100 9.15100 35.31200
N  1.50100 6.59300 27.76600
C  1.57600 5.78700 28.90700
C  1.44200 4.44600 28.51300
C  1.58800 4.39700 27.08600
C  1.70300 5.80900 26.69200
C  1.43800 3.34500 29.50300
C  1.67500 3.15600 26.06600
O  1.78200 3.35800 24.87400
C  1.53200 1.74100 26.67600
N  1.85400 8.72900 25.65200
C  2.01800 7.65300 24.91700
C  2.21800 8.06000 23.43500
C  2.16900 9.57700 23.47500
C  1.93800 9.88400 24.92900
C  3.42300 7.45800 22.64100
C  1.23300 10.27000 22.42200
C  -0.18000 10.41300 22.96900
N  1.83500 10.75700 27.71600
C  1.99200 11.62000 26.69700
C  1.99200 12.95200 27.20100
C  1.97100 12.80500 28.63200
C  1.88500 11.44300 28.85100
C  2.14100 14.25400 26.43200
C  2.04500 13.48700 29.96400
O  2.02900 14.64700 30.26900
C  2.03900 12.30700 31.02400
C  3.18600 12.38200 31.93200
O  4.36600 12.09300 31.76000
O  2.71600 12.85500 33.16900
C  3.57700 12.73200 34.38200
H  1.44500 5.52200 31.08300
H  2.22900 5.62600 24.64900
H  2.10800 11.97600 24.59400
H  2.22700 10.06600 32.92600
H  0.96100 7.32500 32.69600
H  3.42400 8.01600 33.52800
H  3.94300 7.36800 31.94200
H  3.17100 6.31200 33.16000
H  -0.53500 9.15900 32.22500
H  0.03400 10.88900 32.60400
H  -0.98700 8.84600 34.24800
H  -0.55900 10.49800 34.78200
H  2.26200 2.63100 29.46400
H  0.52300 2.75600 29.43800
H  1.40600 3.65400 30.54700
H  0.49100 1.53700 26.92700
H  2.14200 1.53100 27.55500
H  1.86900 1.10700 25.85700
H  1.26500 7.72900 23.02300
H  3.16900 9.97200 23.30000
H  3.97000 8.37400 22.41800
H  3.08400 6.91900 21.75600
H  4.12600 6.76500 23.10200
H  1.08200 9.74900 21.47700
H  1.53400 11.29300 22.20000
H  -0.17100 11.21800 23.70300
H  -0.59600 9.48200 23.35400
H  -0.84200 10.73500 22.16500
H  1.83200 14.06200 25.40500
H  3.20400 14.48600 26.49200
H  1.63300 15.04300 26.98800
H  1.10300 12.51100 31.54300
H  3.35900 13.63600 34.95000
H  4.63000 12.81300 34.11200
H  3.39100 11.79000 34.89900
Mg 54.69200 24.55500 45.72000
C  51.92200 26.38100 44.66100
C  53.18900 21.70500 44.73100
C  57.52300 22.96200 46.38800
C  56.03600 27.43600 47.03100
N  52.89900 24.19000 44.49100
C  51.80600 25.08800 44.28300
C  50.62900 24.27200 43.61800
C  50.91900 22.87200 44.40600
C  52.42100 22.91900 44.65400
C  50.02400 22.53500 45.55500
C  50.73800 24.16500 42.06300
C  49.37700 24.65800 41.32900
H  48.98500 23.77800 40.10700
N  55.31800 22.64400 45.40400
C  54.56900 21.56900 45.06400
C  55.35900 20.35500 45.27000
C  56.69600 20.71900 45.50400
C  56.55200 22.19400 45.78000
C  54.75300 19.04600 45.12500
C  57.96200 19.79100 45.70100
O  57.75400 18.59200 45.70000
C  59.33800 20.30300 45.96700
N  56.48200 25.12700 46.84400
C  57.53700 24.31700 46.73200
C  58.89400 25.00000 47.09200
C  58.37700 26.41400 47.54200
C  56.91400 26.39600 47.08100
C  59.73800 24.20700 48.12200
C  59.17800 27.59400 46.92500
C  60.07600 28.20300 47.92700
N  54.22500 26.61800 45.70500
C  54.75200 27.62500 46.50400
C  53.98200 28.83100 46.34100
C  52.83400 28.45200 45.61900
C  53.00700 27.02100 45.35400
C  54.27800 30.24300 46.95100
C  51.62200 28.86200 44.97600
O  51.07700 29.95100 44.82300
C  50.93900 27.54800 44.38000
C  50.69200 27.69000 42.95900
O  51.55500 27.73900 42.05500
O  49.32800 27.82500 42.71600
C  48.98300 28.49100 41.41700
H  52.73500 20.74500 44.47800
H  58.56400 22.64000 46.31600
H  56.33600 28.45100 47.30200
H  49.71100 24.76600 43.93800
H  50.73000 22.03700 43.73100
H  50.55500 22.68800 46.49400
H  49.76700 21.47600 45.55300
H  49.13500 23.16600 45.55900
H  51.00200 23.17300 41.69600
H  51.58200 24.78700 41.76400
H  49.50200 25.70000 41.03500
H  48.49600 24.66700 41.97000
H  54.34300 19.04700 44.11500
H  53.88200 19.02400 45.78100
H  55.24100 18.08100 45.26300
H  59.47100 21.03100 45.16600
H  60.12700 19.57400 45.78300
H  59.33000 20.80200 46.93700
H  59.40200 25.24400 46.15900
H  58.30500 26.40700 48.63000
H  60.18300 24.80100 48.92000
H  60.64100 23.83400 47.64000
H  59.25900 23.28300 48.44700
H  58.48100 28.33000 46.52400
H  59.79700 27.24600 46.09900
H  60.08600 27.74400 48.91600
H  59.73000 29.19600 48.21400
H  61.07300 28.35700 47.51600
H  55.26900 30.54000 46.60700
H  54.13800 30.30300 48.03000
H  53.53600 30.97700 46.64000
H  50.00600 27.40800 44.92600
H  48.24900 27.85700 40.92000
H  49.75200 28.48200 40.64400
H  48.60700 29.49500 41.61100

