158

Mg 47.54400 34.65100 27.94200
C  45.96000 32.76500 30.41700
C  48.18600 37.12000 30.13200
C  48.66400 36.51100 25.32500
C  46.72200 32.09900 25.62000
N  47.09700 34.90400 30.07400
C  46.34300 34.05100 30.85100
C  46.72800 34.42000 32.27300
C  47.20500 35.95900 32.18100
C  47.51400 35.99500 30.68900
C  46.10200 36.99600 32.63600
C  47.87400 33.50500 32.78100
C  47.93500 33.42000 34.35800
H  46.98800 34.35400 35.14900
N  48.36300 36.57100 27.76400
C  48.64700 37.44500 28.80700
C  49.28000 38.63700 28.31000
C  49.49600 38.45100 26.88400
C  48.84100 37.11200 26.58200
C  49.71300 39.73700 29.24600
C  50.08400 39.42600 25.84300
O  50.45100 39.02600 24.73400
C  50.46500 40.86500 26.30000
N  47.62100 34.34600 25.79000
C  48.27700 35.22800 24.99000
C  48.41900 34.71700 23.51700
C  47.76800 33.22700 23.68600
C  47.42500 33.22700 25.12300
C  47.83400 35.63900 22.41000
C  48.75800 32.13500 23.22600
C  48.23500 31.13100 22.22000
N  46.54800 32.85800 27.96900
C  46.31400 31.89100 26.94900
C  45.69500 30.73000 27.47800
C  45.46500 30.99200 28.84800
C  46.11900 32.27700 29.06000
C  45.32900 29.55100 26.60500
C  44.86700 30.52200 30.07100
O  44.16000 29.50900 30.30900
C  45.03400 31.74600 31.00100
C  45.01900 31.31400 32.39700
O  45.86000 30.68900 33.02500
O  43.82300 31.62600 33.01600
C  43.63600 31.36500 34.43200
H  48.44000 37.84900 30.90500
H  49.14400 37.07700 24.52300
H  46.42700 31.29800 24.93800
H  45.83400 34.34500 32.89300
H  47.98000 36.14800 32.92400
H  45.14400 36.51100 32.82300
H  46.13700 37.79900 31.90000
H  46.46300 37.49100 33.53800
H  48.82100 33.91500 32.43100
H  47.65400 32.48300 32.47300
H  48.97700 33.67400 34.55700
H  47.75000 32.37300 34.59600
H  50.72400 39.65000 29.64500
H  49.04200 39.70200 30.10400
H  49.54000 40.74600 28.87100
H  51.38600 40.79100 26.87800
H  49.62200 41.36800 26.77400
H  50.55200 41.42500 25.36900
H  49.50800 34.70900 23.46100
H  46.89500 33.14300 23.03800
H  48.63200 35.89400 21.71300
H  47.41900 36.53200 22.87600
H  46.99000 35.24600 21.84300
H  49.09200 31.51400 24.05700
H  49.62500 32.54700 22.71000
H  48.93200 30.72700 21.48500
H  47.46000 31.70100 21.70800
H  47.85600 30.36100 22.89200
H  46.21300 29.13700 26.12000
H  44.67400 29.86900 25.79300
H  44.88900 28.81000 27.27300
H  44.14300 32.37300 30.95400
H  42.61200 31.04300 34.62500
H  43.89200 32.22900 35.04500
H  44.34200 30.65200 34.85900
Mg -0.26100 43.86600 26.35600
C  1.71800 42.90600 28.84800
C  -3.03600 42.92700 28.22800
C  -2.29400 44.60500 23.67000
C  2.50900 44.44700 24.22700
N  -0.64800 42.98000 28.32100
C  0.37300 42.79800 29.24400
C  -0.22100 42.47300 30.61800
C  -1.68500 42.16700 30.28800
C  -1.81900 42.82000 28.88200
C  -2.12100 40.69800 30.23900
C  -0.04800 43.75500 31.54800
C  0.05500 43.67000 33.05200
H  -0.07000 42.21600 33.72200
N  -2.36400 43.73100 25.99500
C  -3.32100 43.42700 26.96100
C  -4.63200 43.71600 26.36900
C  -4.41800 44.12500 25.01400
C  -2.99300 44.11500 24.82000
C  -5.89700 43.44800 27.08700
C  -5.50400 44.48300 23.98200
O  -5.25100 44.74600 22.83000
C  -6.98000 44.48800 24.31200
N  0.02000 44.27500 24.20500
C  -0.98300 44.70000 23.37700
C  -0.34400 45.05100 22.01400
C  1.09700 45.45800 22.43400
C  1.20400 44.76400 23.79800
C  -0.42500 43.96600 20.85000
C  1.26900 46.96700 22.45800
C  0.15800 47.80400 23.26900
N  1.70400 43.58800 26.38800
C  2.71400 43.91600 25.50800
C  4.00700 43.65100 26.20600
C  3.64600 43.21800 27.51500
C  2.25900 43.13700 27.54700
C  5.38200 43.89200 25.69100
C  4.22200 42.96700 28.79500
O  5.41500 42.81400 29.05800
C  3.02300 42.95800 29.81600
C  3.20300 41.91000 30.84000
O  2.93300 40.73400 30.66000
O  3.69900 42.35500 32.01300
C  4.01600 41.32200 33.03900
H  -3.92400 42.84500 28.85800
H  -2.89700 44.74700 22.77000
H  3.18900 45.05400 23.62500
H  0.29500 41.62900 31.07600
H  -2.42400 42.71500 30.87200
H  -2.11400 40.42200 29.18400
H  -3.11100 40.60200 30.68600
H  -1.37800 40.09100 30.75600
H  -0.93600 44.31600 31.25700
H  0.80900 44.31600 31.17700
H  -0.61100 44.43700 33.44700
H  1.05100 44.02300 33.32200
H  -6.57600 44.28300 26.91200
H  -5.75600 43.41500 28.16800
H  -6.23800 42.52400 26.61900
H  -7.50300 44.89600 23.44700
H  -7.26100 45.09300 25.17500
H  -7.27100 43.45000 24.47100
H  -0.89300 45.94300 21.71100
H  1.83900 45.14200 21.70200
H  -1.45500 43.84200 20.51400
H  -0.12800 43.00800 21.27600
H  0.13800 44.38800 20.01700
H  1.46300 47.36200 21.46100
H  2.21100 47.12600 22.98200
H  0.05000 48.77700 22.78800
H  0.55800 48.02900 24.25700
H  -0.85700 47.44700 23.44300
H  5.63500 42.93400 25.23700
H  6.15700 44.10500 26.42800
H  5.33000 44.65000 24.91000
H  2.85500 43.94100 30.25600
H  3.05500 40.92100 33.36000
H  4.51300 41.76200 33.90300
H  4.64000 40.50200 32.68200

