158

Mg 49.42500 46.52500 43.67700
C  46.21600 47.00000 42.25000
C  49.68700 43.51800 42.11200
C  52.78900 46.65800 44.20300
C  49.28100 49.88000 44.41400
N  48.15100 45.48500 42.23900
C  46.83700 45.79300 41.87700
C  46.22000 44.72800 41.00600
C  47.26000 43.56900 41.03900
C  48.42700 44.15800 41.96900
C  46.73700 42.22200 41.64800
C  45.85400 45.35800 39.60200
C  44.45200 45.01900 39.03900
H  44.45200 43.85800 38.00600
N  51.00100 45.14700 43.40100
C  50.92000 44.00100 42.64900
C  52.22000 43.38900 42.66300
C  53.15200 44.23800 43.35000
C  52.31900 45.41600 43.64100
C  52.46500 42.02600 42.06800
C  54.49100 43.88300 43.75500
O  54.86700 42.69700 43.56700
C  55.45700 44.84700 44.40400
N  50.88200 48.07800 44.22500
C  52.17100 47.82500 44.51500
C  52.87900 49.12900 45.01900
C  51.71200 50.15000 45.12500
C  50.52500 49.34500 44.51100
C  53.71100 49.02400 46.31300
C  51.90800 51.54400 44.52600
C  51.05200 52.78000 45.05200
N  47.99700 48.09800 43.53200
C  48.10100 49.38400 43.91600
C  46.85100 50.08800 43.68500
C  45.98800 49.14400 43.08600
C  46.78700 48.03300 42.94300
C  46.70600 51.56600 44.06600
C  44.61100 48.97300 42.57900
O  43.59800 49.69900 42.55200
C  44.71200 47.46300 42.01400
C  43.68800 46.52200 42.75200
O  43.79400 46.15100 43.91500
O  42.55100 46.31600 41.96700
C  41.64700 45.36700 42.55800
H  49.79500 42.50800 41.71000
H  53.87700 46.71000 44.27600
H  49.26200 50.95400 44.60900
H  45.33300 44.44600 41.57300
H  47.66900 43.32900 40.05800
H  45.66500 42.34500 41.79800
H  47.22400 42.03800 42.60600
H  46.98600 41.41800 40.95600
H  46.55200 44.92100 38.88800
H  45.98900 46.43900 39.59800
H  44.04500 45.90900 38.55800
H  43.80000 44.71500 39.85700
H  52.94200 42.19300 41.10200
H  51.54700 41.51000 41.78800
H  53.15000 41.40300 42.64300
H  56.34100 44.39500 44.85200
H  54.91800 45.38800 45.18200
H  55.71500 45.57900 43.63800
H  53.54400 49.49300 44.23600
H  51.36400 50.27300 46.15100
H  53.56200 49.83100 47.03000
H  54.76600 48.93700 46.05500
H  53.44200 48.08300 46.79400
H  51.77600 51.44500 43.44800
H  52.97500 51.74500 44.61800
H  51.64700 53.61100 45.42900
H  50.44300 52.48000 45.90500
H  50.44200 53.24900 44.28000
H  46.93700 51.82800 45.09900
H  45.71200 52.00400 43.97500
H  47.48300 52.15100 43.57300
H  44.50700 47.41500 40.94500
H  42.14000 44.49000 42.97600
H  41.11400 45.01500 41.67400
H  40.94200 45.68300 43.32800
Mg 36.40500 49.05900 25.18000
C  36.53000 47.00800 28.16100
C  35.17400 51.57100 27.06500
C  35.77000 50.60900 22.34500
C  37.64100 46.20700 23.46600
N  35.53800 49.14200 27.30600
C  35.96100 48.30100 28.35700
C  35.83200 48.97800 29.72000
C  35.20200 50.32800 29.32700
C  35.28300 50.37100 27.82800
C  33.65300 50.48900 29.66200
C  37.16100 49.11800 30.59100
C  37.07200 48.54900 32.04800
H  36.67600 49.40800 33.12800
N  35.62300 50.90500 24.72100
C  35.19700 51.83400 25.63700
C  35.00300 53.07600 25.02900
C  35.25200 52.82900 23.63000
C  35.51900 51.38300 23.51300
C  34.75200 54.42700 25.77000
C  35.11000 53.82800 22.48900
O  35.28400 53.60300 21.27300
C  34.84800 55.17300 22.87100
N  36.77600 48.51700 23.23500
C  36.37800 49.34200 22.24700
C  36.65300 48.62000 20.88100
C  37.63100 47.38600 21.25700
C  37.41300 47.39600 22.80900
C  35.25700 48.26000 20.27600
C  39.11500 47.36700 20.84400
C  39.50400 46.57800 19.56800
N  36.92600 46.95600 25.61000
C  37.43300 45.91800 24.83600
C  37.62700 44.73700 25.63000
C  37.36700 45.18900 26.93400
C  36.93100 46.48700 26.88000
C  38.05900 43.43500 25.05800
C  37.51700 44.79500 28.31600
O  37.99600 43.80000 28.87200
C  36.89400 45.95700 29.15100
C  35.69200 45.47900 30.03600
O  34.55200 45.51900 29.64200
O  36.13500 45.04000 31.26400
C  35.03800 44.75800 32.29200
H  34.89400 52.41000 27.70500
H  35.35500 50.99100 21.41000
H  37.88100 45.38100 22.79400
H  35.06400 48.34600 30.16600
H  35.68100 51.21200 29.74600
H  33.14500 51.06500 28.88900
H  33.54100 50.94900 30.64300
H  33.01900 49.60200 29.66100
H  37.38600 50.17100 30.75700
H  38.00500 48.61500 30.11800
H  38.00200 48.04700 32.31600
H  36.35600 47.72800 32.06800
H  35.38400 55.26300 25.47000
H  35.15800 54.31300 26.77500
H  33.70700 54.70100 25.91000
H  35.70600 55.55900 23.42200
H  33.86800 55.37400 23.30500
H  34.90900 55.76100 21.95500
H  37.11400 49.36400 20.23200
H  37.11800 46.49500 20.89600
H  34.46700 48.79200 20.80700
H  34.96600 47.21100 20.33600
H  35.13000 48.59100 19.24600
H  39.76100 47.21300 21.70800
H  39.24600 48.41000 20.55600
H  39.24900 47.20200 18.71100
H  38.96200 45.65500 19.36300
H  40.57100 46.37000 19.65100
H  37.22400 42.89300 24.61600
H  38.58300 42.89300 25.84500
H  38.75300 43.68100 24.25300
H  37.62600 46.40700 29.82300
H  34.00100 44.76700 31.95600
H  35.05700 45.55100 33.03900
H  35.33000 43.91100 32.91200

