158

Mg 34.39000 2.91900 29.85500
C  32.33300 4.15800 32.39900
C  36.84500 2.70500 32.12600
C  36.56100 2.36400 27.31000
C  31.81300 3.03300 27.66100
N  34.50300 3.36200 32.05300
C  33.55900 3.79000 32.92000
C  34.04900 3.93300 34.39900
C  35.56800 3.77400 34.15000
C  35.62600 3.21700 32.70900
C  36.32900 5.14000 34.25300
C  33.48300 2.75000 35.35300
C  33.08200 3.22000 36.75500
H  33.98500 4.24300 37.44800
N  36.39200 2.48000 29.73600
C  37.22300 2.41200 30.80700
C  38.49600 2.04900 30.36600
C  38.50500 1.87400 28.93200
C  37.12000 2.25200 28.63500
C  39.73700 1.81000 31.22200
C  39.60400 1.41600 27.98600
O  39.41400 1.44200 26.77500
C  40.92800 0.95300 28.45000
N  34.26000 2.84700 27.70900
C  35.27700 2.61900 26.83600
C  34.69600 2.31500 25.44700
C  33.09800 2.25700 25.65700
C  33.03800 2.74400 27.09300
C  35.15000 3.10700 24.22200
C  32.41000 0.88300 25.48800
C  31.31200 0.75800 24.40000
N  32.52100 3.63100 29.92300
C  31.53100 3.52700 28.89900
C  30.33600 3.98900 29.45900
C  30.58600 4.27900 30.75000
C  31.93500 4.02900 31.06300
C  28.99400 4.22300 28.79900
C  29.96600 4.73000 32.06700
O  28.83100 4.99000 32.38200
C  31.08400 4.70600 33.18600
C  31.41500 6.07400 33.63200
O  32.23700 6.77100 33.09600
O  30.84800 6.30300 34.88000
C  31.59800 7.26300 35.73900
H  37.60200 2.58200 32.90300
H  37.30200 2.23800 26.51800
H  30.96200 2.96500 26.98000
H  33.83700 4.93100 34.78400
H  36.03700 3.10600 34.87200
H  36.62300 5.31600 35.28800
H  35.83100 6.02000 33.84700
H  37.21000 4.99900 33.62700
H  34.21600 1.94400 35.32400
H  32.58300 2.50000 34.78900
H  33.07200 2.31900 37.36800
H  32.10500 3.70300 36.72300
H  40.28400 0.91200 30.93200
H  39.62200 1.90200 32.30200
H  40.31600 2.73200 31.17600
H  41.57400 0.80100 27.58500
H  40.80700 0.04400 29.04000
H  41.41000 1.77700 28.97600
H  34.96200 1.27900 25.24000
H  32.71100 3.09200 25.07300
H  35.88300 2.49900 23.69100
H  35.63500 4.02500 24.55300
H  34.22700 3.20000 23.64900
H  31.98300 0.49100 26.41000
H  33.10900 0.10800 25.17400
H  30.34100 0.64100 24.88100
H  31.49500 -0.09400 23.74500
H  31.32500 1.64900 23.77200
H  28.56600 5.19800 29.02900
H  28.28200 3.47300 29.14400
H  29.05400 4.23300 27.71100
H  30.77100 4.06800 34.01200
H  31.29700 8.25700 35.40800
H  32.64400 7.14400 35.45400
H  31.34100 7.17800 36.79500
Mg 16.62000 51.08800 26.75100
C  18.60500 49.60200 29.40100
C  14.43500 52.25700 29.13100
C  14.62900 52.07800 24.36300
C  18.88900 49.66000 24.44100
N  16.59100 51.07200 29.04900
C  17.44700 50.35200 29.88000
C  17.11700 50.68800 31.35200
C  15.71600 51.35500 31.23700
C  15.54000 51.60100 29.73100
C  14.51100 50.54500 31.76900
C  18.23200 51.52800 32.04600
C  18.32900 51.44900 33.60300
H  17.30500 50.67500 34.42400
N  14.75200 52.05600 26.78500
C  14.05700 52.54400 27.84800
C  12.89200 53.32900 27.36700
C  12.91400 53.27600 25.93700
C  14.09100 52.42600 25.63700
C  11.92500 54.04800 28.28900
C  12.01100 54.10200 24.94700
O  12.20600 54.08700 23.79300
C  10.97600 54.93200 25.49200
N  16.76400 50.90300 24.74200
C  15.78000 51.41800 23.97300
C  16.02300 51.12100 22.42800
C  17.50900 50.57300 22.51100
C  17.72600 50.29100 23.96000
C  14.89600 50.15900 21.98800
C  18.54200 51.68000 21.88600
C  19.40900 52.66400 22.83800
N  18.32600 49.83000 26.86500
C  19.15400 49.39500 25.78700
C  20.32200 48.65400 26.39300
C  20.10700 48.75500 27.80200
C  18.92100 49.46000 28.04000
C  21.36500 47.88200 25.61900
C  20.55800 48.21000 29.03400
O  21.45700 47.43800 29.33000
C  19.71100 48.95800 30.21800
C  19.22800 48.01000 31.21000
O  18.23500 47.32000 31.10800
O  20.05200 47.99700 32.35500
C  19.58700 47.01800 33.35500
H  13.70400 52.60100 29.86600
H  14.08900 52.34700 23.45300
H  19.56500 49.35900 23.63700
H  17.25500 49.67000 31.71700
H  15.76200 52.33100 31.72000
H  14.67500 49.50500 32.05000
H  13.70300 50.48900 31.04000
H  14.09900 51.16000 32.56900
H  17.88500 52.52700 31.78100
H  19.19100 51.23800 31.61700
H  18.45800 52.39900 34.12200
H  19.26500 50.91700 33.76800
H  11.88300 55.13300 28.20200
H  12.18300 53.89800 29.33800
H  10.90200 53.68000 28.21000
H  10.13600 54.37900 25.91200
H  10.53700 55.43800 24.63200
H  11.43300 55.66900 26.15300
H  16.00600 52.03500 21.83300
H  17.62000 49.68000 21.89600
H  14.05700 50.14900 22.68300
H  15.40000 49.19400 21.93300
H  14.48300 50.57900 21.07100
H  18.13600 52.35300 21.13000
H  19.27200 51.02900 21.40400
H  18.91700 52.90200 23.78100
H  19.63000 53.57500 22.28100
H  20.33300 52.09100 22.90900
H  22.07700 47.63200 26.40500
H  21.82500 48.53500 24.87600
H  20.95200 46.96300 25.20400
H  20.42400 49.57900 30.76100
H  19.75100 45.98900 33.03700
H  18.57600 47.09200 33.75700
H  20.11500 47.23000 34.28500

