158

Mg 36.86100 49.10000 24.60900
C  36.96100 47.42300 27.64300
C  34.89700 51.57600 26.17100
C  36.31600 50.54900 21.69400
C  38.34000 46.37300 23.11700
N  36.14000 49.54000 26.69900
C  36.30300 48.67000 27.72300
C  35.79800 49.24300 29.03000
C  35.08400 50.54500 28.56800
C  35.39400 50.60800 27.08100
C  33.60100 50.77700 29.02600
C  37.00200 49.41300 30.01500
C  36.76800 49.19200 31.59400
H  35.28300 49.07800 32.03200
N  35.84300 50.85400 24.09000
C  35.11600 51.70700 24.79400
C  34.64100 52.81700 23.98200
C  35.17400 52.60300 22.65600
C  35.84200 51.30000 22.76500
C  33.70600 53.91100 24.53100
C  34.86300 53.37900 21.38300
O  35.22500 53.02000 20.28600
C  34.20800 54.74500 21.50500
N  37.30800 48.52600 22.69300
C  36.95100 49.25600 21.66200
C  37.32500 48.61900 20.32300
C  38.23700 47.40300 20.71900
C  37.94100 47.35000 22.29000
C  36.08000 48.14300 19.47700
C  39.78500 47.71100 20.30400
C  40.84000 48.06500 21.38800
N  37.62500 47.25700 25.22800
C  38.06900 46.19100 24.48000
C  38.29000 44.98600 25.27700
C  37.83800 45.47100 26.57200
C  37.51500 46.81900 26.45200
C  38.91100 43.70000 24.71300
C  37.69400 45.15800 27.90800
O  37.71100 44.04000 28.43600
C  37.19400 46.34200 28.75600
C  36.00600 45.84400 29.52300
O  34.82000 45.78600 29.13200
O  36.48300 45.41200 30.77400
C  35.44200 44.75000 31.68400
H  34.28600 52.30700 26.70300
H  36.11400 50.91100 20.68400
H  38.78900 45.54200 22.57000
H  35.08900 48.51000 29.41500
H  35.58200 51.38900 29.04600
H  33.47900 51.78700 29.41800
H  33.36000 50.07300 29.82200
H  32.85600 50.64100 28.24200
H  37.46400 50.39000 29.86900
H  37.78800 48.73800 29.67600
H  37.28700 49.96000 32.16700
H  37.27100 48.25300 31.82500
H  34.18800 54.78000 24.08300
H  33.76100 53.99800 25.61600
H  32.67500 53.81100 24.19300
H  33.23800 54.66400 21.99600
H  34.24500 55.26800 20.55000
H  34.88600 55.26500 22.18100
H  37.89300 49.27700 19.66500
H  37.79200 46.48500 20.33400
H  35.25300 48.37100 20.15000
H  36.01800 47.09100 19.19900
H  36.03300 48.85000 18.64900
H  39.81200 48.55200 19.61200
H  40.06600 46.84900 19.69900
H  41.72500 47.45000 21.22200
H  40.45300 48.04300 22.40600
H  41.16200 49.10400 21.31400
H  39.53100 43.78500 23.82100
H  38.02600 43.21600 24.30100
H  39.39300 43.10800 25.49100
H  37.95300 46.53900 29.51200
H  34.77000 45.52800 32.04700
H  35.80800 44.28000 32.59700
H  34.96300 44.02300 31.02900
Mg 16.91700 52.61300 25.70200
C  18.57500 51.24600 28.57400
C  14.44000 53.76500 27.66000
C  15.19300 53.08600 22.88600
C  19.38900 50.99000 23.73100
N  16.51300 52.39700 27.88300
C  17.35700 51.98900 28.84100
C  16.80600 52.31200 30.24000
C  15.46200 53.10000 29.91000
C  15.45900 53.10300 28.37400
C  14.14300 52.52300 30.49600
C  17.80200 52.96700 31.19700
C  17.91300 52.56400 32.68300
H  16.89700 51.66000 33.31600
N  15.03000 53.33300 25.25600
C  14.11400 53.75100 26.21500
C  12.88700 54.25100 25.55600
C  13.11800 54.10100 24.14300
C  14.50100 53.50600 24.03500
C  11.64300 54.68500 26.33100
C  12.16400 54.41700 22.94400
O  12.46500 54.07200 21.79500
C  10.81900 55.20600 23.14700
N  17.31000 52.21300 23.61700
C  16.40700 52.44600 22.65600
C  16.97600 51.99500 21.29300
C  18.50000 51.90700 21.50600
C  18.46800 51.73300 23.04500
C  16.37800 50.71200 20.74600
C  19.30800 53.11600 20.93500
C  20.24900 52.68400 19.88700
N  18.68500 51.50100 26.06800
C  19.49200 50.83800 25.13700
C  20.46200 50.05100 25.77100
C  20.18400 50.17400 27.14700
C  19.06100 51.08000 27.25700
C  21.37500 49.12900 25.17100
C  20.55600 49.65900 28.44100
O  21.47500 48.93400 28.74900
C  19.51400 50.41800 29.47900
C  18.79900 49.37800 30.27600
O  17.61900 49.09200 30.17700
O  19.63300 48.92100 31.26000
C  19.18400 47.95200 32.24100
H  13.72600 54.30000 28.28900
H  14.79400 53.26600 21.88500
H  20.12900 50.52000 23.08000
H  16.48900 51.38700 30.72200
H  15.62200 54.14100 30.19200
H  14.42000 51.53000 30.85100
H  13.35000 52.42900 29.75500
H  13.71800 53.23200 31.20700
H  17.46300 53.99700 31.30700
H  18.79100 52.94900 30.73900
H  18.25900 53.41500 33.27000
H  18.75000 51.87100 32.60000
H  11.62400 55.77100 26.42200
H  11.53500 54.10800 27.24900
H  10.78300 54.26500 25.81000
H  10.33800 55.43000 22.19600
H  11.02500 56.09800 23.73800
H  10.18600 54.58800 23.78500
H  16.68400 52.72800 20.54100
H  18.88300 50.96700 21.11000
H  15.31700 50.96200 20.72800
H  16.57700 49.94500 21.49500
H  16.84600 50.48200 19.78900
H  19.88400 53.58800 21.73100
H  18.65000 53.84100 20.45500
H  20.27000 53.12000 18.88800
H  20.19000 51.63400 19.60000
H  21.28500 52.72500 20.22100
H  22.19900 49.69800 24.74100
H  20.90900 48.57100 24.35900
H  21.80900 48.37700 25.83000
H  20.06900 51.14500 30.07200
H  19.93500 48.05300 33.02500
H  19.20500 46.89500 31.97300
H  18.22800 48.27100 32.65800

