158

Mg -0.19000 7.58200 25.17600
C  1.05200 9.56300 27.80600
C  0.03200 4.81900 27.21800
C  -0.98500 5.69300 22.56400
C  0.57000 10.23400 22.98500
N  0.57700 7.24100 27.27100
C  0.64400 8.21100 28.23600
C  0.63000 7.57100 29.64300
C  0.64600 6.04300 29.27800
C  0.43500 6.00800 27.77700
C  1.96100 5.24400 29.69400
C  -0.58400 8.02200 30.40800
C  -0.43400 7.94000 31.97000
H  0.88000 7.51900 32.59700
N  -0.66500 5.55100 24.99100
C  -0.56400 4.49900 25.91300
C  -1.19900 3.35700 25.46800
C  -1.37500 3.62600 24.03300
C  -0.97300 4.98300 23.79800
C  -1.41400 2.18700 26.46500
C  -1.88300 2.66500 23.02900
O  -2.19200 3.03400 21.87800
C  -2.16600 1.25800 23.39000
N  0.09800 7.78600 22.98400
C  -0.50700 6.93000 22.14600
C  -0.74000 7.59800 20.79600
C  -0.04000 8.97700 20.88300
C  0.23700 9.04500 22.39300
C  -0.19000 6.71100 19.57400
C  -0.83700 10.13600 20.38400
C  -2.10000 10.52600 21.23600
N  0.58200 9.56600 25.28000
C  0.78400 10.54500 24.35900
C  1.17500 11.79500 25.04500
C  1.33800 11.41400 26.35100
C  1.02500 10.03400 26.44600
C  1.38200 13.12300 24.35500
C  1.67700 11.92000 27.66800
O  1.99800 13.00800 28.02600
C  1.48500 10.74600 28.68500
C  2.68600 10.53400 29.58000
O  3.43100 9.62100 29.46000
O  2.69600 11.45400 30.60700
C  3.83400 11.44700 31.52200
H  -0.06100 4.04700 27.98500
H  -1.41400 5.22600 21.67500
H  0.78700 11.07900 22.32800
H  1.53700 7.83200 30.18900
H  -0.14300 5.48400 29.78100
H  2.73600 5.80800 30.21300
H  2.32500 4.83900 28.75000
H  1.68200 4.43300 30.36700
H  -1.44700 7.38800 30.20600
H  -0.86400 9.05700 30.21300
H  -1.17100 7.21500 32.31400
H  -0.62900 8.90600 32.43600
H  -0.68900 1.40300 26.24800
H  -2.45200 1.85700 26.49800
H  -1.27100 2.54500 27.48400
H  -1.40800 0.75000 23.98500
H  -2.40300 0.66400 22.50700
H  -3.11500 1.29500 23.92400
H  -1.81700 7.74500 20.72700
H  0.90600 9.02400 20.34300
H  -0.96800 6.02400 19.24000
H  0.52300 5.98200 19.96000
H  0.24300 7.28300 18.75300
H  -1.14800 10.00000 19.34800
H  -0.19100 11.00200 20.24100
H  -2.99100 10.69000 20.63000
H  -1.79600 11.50700 21.60200
H  -2.44900 10.03600 22.14400
H  0.52300 13.52300 23.81600
H  2.14400 13.07200 23.57700
H  1.80000 13.90600 24.98700
H  0.67200 10.98600 29.37000
H  4.73400 11.45700 30.90800
H  3.77800 10.53400 32.11600
H  3.78500 12.29700 32.20200
Mg 47.48000 25.29900 29.16000
C  48.09200 27.55600 31.60500
C  46.20900 23.12400 31.52000
C  46.99800 22.91700 26.68300
C  49.12600 27.31600 26.87700
N  47.23200 25.35400 31.30900
C  47.51300 26.43900 32.16000
C  47.24600 26.17200 33.67300
C  46.79800 24.66500 33.54600
C  46.73000 24.34100 32.02500
C  47.73000 23.66000 34.27600
C  46.10400 27.10400 34.25700
C  46.53000 27.91600 35.45400
H  47.01100 27.00600 36.66700
N  46.64900 23.26600 29.03700
C  46.15000 22.64000 30.13400
C  45.62100 21.36600 29.73100
C  45.75800 21.27900 28.30600
C  46.44600 22.47600 27.91300
C  44.94800 20.47000 30.66200
C  45.26900 20.20300 27.32300
O  45.58600 20.19300 26.14800
C  44.27300 19.20600 27.78400
N  47.81600 25.24600 27.00800
C  47.74500 24.05000 26.33100
C  48.36300 24.18000 24.88800
C  49.01000 25.62000 24.94800
C  48.60700 26.13900 26.37600
C  49.30300 23.00200 24.41800
C  48.59100 26.46100 23.76600
C  49.71400 27.11700 23.00600
N  48.39700 27.13200 29.18600
C  49.02100 27.79200 28.15700
C  49.36500 29.11100 28.58000
C  49.09200 29.10500 29.98600
C  48.49900 27.81600 30.31700
C  50.04800 30.16100 27.73100
C  49.13600 29.84400 31.19700
O  49.51800 30.98200 31.43500
C  48.54900 28.82100 32.33200
C  49.72900 28.47700 33.20600
O  50.52100 27.57100 33.04100
O  49.77500 29.46300 34.16600
C  50.70300 29.13500 35.28200
H  45.82400 22.43900 32.27800
H  46.89100 22.11300 25.95200
H  49.64400 27.95400 26.15700
H  48.19800 26.34300 34.17600
H  45.75200 24.63100 33.85100
H  47.18600 23.17500 35.08700
H  48.65500 24.12000 34.62300
H  48.10400 22.88900 33.60200
H  45.20100 26.51100 34.39800
H  45.93500 27.92800 33.56300
H  45.69100 28.54400 35.75400
H  47.33300 28.60000 35.17700
H  44.88300 20.72200 31.72100
H  45.42800 19.49900 30.54400
H  43.92500 20.46900 30.28800
H  43.41600 19.69100 28.25100
H  44.85100 18.70600 28.56000
H  43.88000 18.49100 27.06000
H  47.55500 24.13300 24.15900
H  50.08400 25.44400 25.00200
H  50.33300 23.35600 24.36500
H  49.03800 22.62200 23.43100
H  49.31700 22.08600 25.00900
H  47.98400 27.33500 24.00400
H  48.01600 25.90800 23.02300
H  50.66500 26.96100 23.51600
H  49.54100 28.15600 22.72500
H  49.89500 26.66600 22.03100
H  49.49600 30.20600 26.79200
H  51.06300 29.88700 27.44400
H  50.05600 31.06100 28.34600
H  47.82400 29.36700 32.93600
H  50.69300 28.04500 35.25800
H  50.26900 29.50700 36.21000
H  51.73100 29.36600 35.00100

