158

Mg 44.64700 3.05200 47.81300
C  42.23300 5.67900 47.22800
C  41.98800 0.78300 47.62100
C  46.90200 0.64800 47.64700
C  46.91400 5.49800 47.00600
N  42.34400 3.29300 47.36800
C  41.60000 4.42600 47.18100
C  40.17300 4.07500 47.03100
C  40.10000 2.55200 47.54900
C  41.56800 2.12200 47.52500
C  39.29500 2.27900 48.82000
C  39.74100 4.17200 45.50400
C  38.78300 5.30800 45.27300
H  39.17200 6.13900 44.09200
N  44.51800 0.88600 47.83500
C  43.33500 0.24200 47.68200
C  43.67500 -1.18100 47.74600
C  45.10500 -1.31600 47.89800
C  45.63500 0.06800 47.83500
C  42.64100 -2.33600 47.42800
C  45.93000 -2.55100 47.81100
O  45.40400 -3.67500 47.75700
C  47.46100 -2.60100 47.89300
N  46.52600 3.08300 47.19200
C  47.30700 1.98200 47.48200
C  48.78500 2.32600 47.44800
C  48.82300 3.83700 47.22300
C  47.34800 4.17600 47.06700
C  49.54800 1.86900 48.70600
C  49.79200 4.34900 46.01000
C  51.12800 4.95700 46.56500
N  44.65500 5.23600 47.31100
C  45.66000 6.06000 47.03000
C  45.25900 7.43300 47.08800
C  43.91100 7.35000 47.13900
C  43.56600 5.94000 47.21000
C  46.12100 8.67500 47.17200
C  42.73900 8.12000 47.09600
O  42.53500 9.37300 47.05000
C  41.55000 7.08800 47.17200
C  40.73400 7.46900 48.29500
O  40.66500 6.97400 49.41900
O  39.96200 8.52200 47.89200
C  39.01100 9.09500 48.86300
H  41.13300 0.10300 47.61000
H  47.77700 0.01400 47.80600
H  47.66600 6.28900 46.97100
H  39.52500 4.69100 47.65600
H  39.52400 2.03700 46.78000
H  38.86700 3.23300 49.12800
H  40.02800 1.94800 49.55500
H  38.65200 1.42800 48.59200
H  39.22800 3.28200 45.14100
H  40.65200 4.20000 44.90600
H  38.72400 5.93700 46.16100
H  37.78000 4.90600 45.13400
H  41.57700 -2.11400 47.51400
H  42.85900 -3.15100 48.11800
H  42.63800 -2.76000 46.42400
H  47.67100 -2.16900 46.91500
H  47.78100 -3.64000 47.97400
H  47.91200 -2.09500 48.74700
H  49.17400 1.69600 46.64800
H  49.10700 4.32200 48.15600
H  50.43200 1.32400 48.37600
H  48.95400 1.18100 49.30900
H  49.97700 2.70200 49.26300
H  49.35200 5.16500 45.43600
H  49.97100 3.45200 45.41700
H  51.12800 5.97400 46.17300
H  51.98500 4.35100 46.27300
H  51.14300 4.89200 47.65300
H  45.79200 9.42700 46.45400
H  47.12200 8.35000 46.89000
H  46.30500 9.02100 48.18900
H  41.00500 7.23400 46.24000
H  39.25400 8.78900 49.88000
H  37.96700 8.83600 48.69000
H  39.23200 10.16000 48.79300
Mg -10.28100 40.15200 41.91700
C  -9.21100 37.09900 40.63600
C  -7.35400 41.62000 40.54800
C  -11.63200 43.24200 42.29200
C  -13.30900 38.73200 42.82100
N  -8.49100 39.40000 40.69400
C  -8.31500 38.13200 40.34100
C  -7.05700 37.98100 39.47600
C  -6.37400 39.37000 39.64300
C  -7.44800 40.21300 40.39000
C  -4.94000 39.36700 40.03600
C  -7.45300 37.55400 38.01400
C  -6.75900 36.28900 37.46400
H  -5.46400 36.76500 36.66800
N  -9.57800 42.18500 41.47000
C  -8.32900 42.55100 41.03300
C  -8.21500 44.04800 41.18200
C  -9.38100 44.48800 41.73800
C  -10.34300 43.29400 41.75000
C  -7.01800 44.73300 40.70800
C  -9.71000 45.92700 42.09700
O  -8.88000 46.77200 41.76200
C  -11.04300 46.43600 42.72300
N  -12.27000 40.87100 42.25100
C  -12.55800 42.20000 42.53100
C  -14.01800 42.34200 42.93000
C  -14.39700 40.93800 43.50100
C  -13.28600 40.09900 42.80300
C  -14.31200 43.37500 43.97100
C  -15.88700 40.57800 43.10900
C  -16.72300 39.84300 44.25400
N  -11.03300 38.23500 41.98900
C  -12.27200 37.78600 42.30500
C  -12.45100 36.36100 42.05800
C  -11.25600 36.05100 41.35500
C  -10.47300 37.24100 41.35000
C  -13.66000 35.60200 42.22000
C  -10.48100 35.02000 40.65900
O  -10.70900 33.80200 40.57000
C  -9.12200 35.69800 40.21900
C  -8.01800 34.89600 40.91000
O  -7.47800 35.15000 41.99800
O  -7.69000 33.81200 40.14900
C  -7.03500 32.78600 40.88500
H  -6.39100 42.01500 40.21800
H  -12.13500 44.18900 42.49800
H  -14.24300 38.32900 43.21900
H  -6.23000 37.37000 39.83800
H  -6.31800 39.93600 38.71300
H  -4.63700 40.24000 40.61400
H  -4.28200 39.22300 39.17900
H  -4.86300 38.47200 40.65300
H  -7.12800 38.41800 37.43500
H  -8.52600 37.50200 37.82600
H  -7.37900 35.77700 36.72800
H  -6.51600 35.59900 38.27200
H  -6.69000 45.47100 41.44000
H  -7.42500 45.10400 39.76800
H  -6.21900 44.05100 40.41600
H  -11.80000 46.25900 41.95900
H  -10.96500 47.49700 42.96100
H  -11.24900 45.92500 43.66400
H  -14.59000 42.47600 42.01200
H  -14.19100 40.94000 44.57100
H  -14.51900 44.31100 43.45200
H  -13.41200 43.63000 44.53000
H  -15.21700 43.10300 44.51500
H  -15.94600 39.83500 42.31300
H  -16.45500 41.44300 42.76500
H  -16.77200 38.77300 44.05700
H  -17.72600 40.26500 44.31900
H  -16.25600 40.01100 45.22500
H  -14.49800 36.15300 41.79400
H  -13.69100 35.34700 43.27900
H  -13.63100 34.65200 41.68500
H  -9.11100 35.51600 39.14400
H  -7.20900 31.88700 40.29300
H  -7.41900 32.57000 41.88200
H  -5.98100 32.99100 41.07400

