158

Mg 34.94800 2.72800 30.00100
C  32.77000 3.61800 32.57900
C  37.49700 2.94100 32.13200
C  36.89200 2.57600 27.29800
C  32.17800 3.14900 27.80500
N  35.08000 3.33200 32.10600
C  34.10700 3.43900 33.02500
C  34.69300 3.44500 34.45600
C  36.21500 3.51600 34.25800
C  36.28300 3.18700 32.71600
C  36.91300 4.84800 34.55200
C  34.19400 2.13500 35.16900
C  34.04800 2.24600 36.71200
H  34.86600 3.37200 37.36300
N  37.02100 2.68300 29.80500
C  37.87400 2.70400 30.78100
C  39.20800 2.36700 30.18300
C  39.00000 2.26500 28.78900
C  37.54700 2.47200 28.53300
C  40.42000 2.28900 31.07000
C  40.13600 2.15700 27.65100
O  39.88500 2.31600 26.46200
C  41.60200 1.82000 28.05700
N  34.52100 2.97700 27.88300
C  35.56700 2.80800 26.95300
C  34.98400 2.85600 25.52300
C  33.42500 2.68500 25.70800
C  33.34100 2.93700 27.22700
C  35.35000 4.11300 24.65300
C  32.96900 1.28800 25.35400
C  32.83000 0.10900 26.38700
N  32.88500 3.25000 30.13600
C  31.95200 3.32000 29.15400
C  30.67400 3.63900 29.73000
C  30.86000 3.79900 31.10900
C  32.26100 3.52600 31.27100
C  29.35500 4.00700 29.07600
C  30.32700 4.10200 32.44400
O  29.17000 4.44700 32.69800
C  31.49100 3.81000 33.44000
C  31.66200 4.98600 34.35200
O  32.19300 6.01800 34.00300
O  31.13900 4.83000 35.62100
C  31.29800 5.93800 36.60800
H  38.34700 3.02000 32.81300
H  37.58800 2.42100 26.47200
H  31.30500 3.25000 27.15600
H  34.28700 4.35500 34.90000
H  36.61100 2.66300 34.80800
H  37.62300 4.84700 35.37900
H  36.11400 5.58400 34.63900
H  37.37900 5.25000 33.65200
H  34.85800 1.34100 34.82800
H  33.23300 1.80700 34.77400
H  34.41500 1.34000 37.19500
H  33.01300 2.41000 37.01100
H  40.17400 2.59200 32.08700
H  41.19000 2.96000 30.68900
H  40.69700 1.23600 31.12100
H  41.59500 0.88400 28.61400
H  42.19500 2.62300 28.49500
H  41.98500 1.60300 27.06000
H  35.52100 2.00600 25.10100
H  32.83600 3.47000 25.23200
H  35.92400 3.88100 23.75600
H  36.03500 4.78000 25.17600
H  34.49900 4.66300 24.25100
H  33.67500 0.93700 24.60300
H  31.98500 1.28900 24.88600
H  33.49800 0.28300 27.23100
H  32.99400 -0.84100 25.87800
H  31.80600 0.11000 26.76000
H  28.95200 4.80600 29.69900
H  28.78700 3.09900 28.87600
H  29.46200 4.45200 28.08600
H  31.24000 2.97100 34.08800
H  31.72800 6.88000 36.27000
H  31.97300 5.46400 37.32100
H  30.39300 6.13200 37.18500
Mg 7.14000 55.39100 41.68000
C  5.98800 52.27600 40.56700
C  10.14000 54.57800 40.78600
C  7.75200 58.74400 41.52700
C  3.91500 56.18200 42.58500
N  7.91700 53.60800 40.76900
C  7.33000 52.46200 40.43300
C  8.34600 51.38700 40.06100
C  9.73600 52.04600 40.45100
C  9.28400 53.48800 40.70600
C  10.47900 51.25900 41.60900
C  8.29000 50.88100 38.59500
C  8.89200 49.51000 38.39600
H  9.53700 49.44500 36.98500
N  8.75900 56.57600 41.28600
C  9.96900 55.96700 40.90900
C  10.93900 56.99900 40.77100
C  10.21500 58.22400 40.79100
C  8.82600 57.88200 41.20900
C  12.41800 56.69900 40.56400
C  10.71700 59.60900 40.49900
O  11.89700 59.79300 40.12600
C  9.97500 60.89600 40.68300
N  5.96600 57.26700 42.14300
C  6.48000 58.49000 42.02900
C  5.39200 59.49800 42.47700
C  4.24100 58.68500 43.03200
C  4.65100 57.33200 42.47800
C  6.09900 60.47700 43.47100
C  2.80100 59.17000 42.53700
C  1.73100 58.94600 43.59300
N  5.30500 54.43300 41.62900
C  4.08700 54.85300 42.05100
C  3.16400 53.77200 41.99600
C  3.79500 52.69700 41.25200
C  5.12300 53.19400 41.12800
C  1.79800 53.73200 42.61000
C  3.71200 51.30800 40.75300
O  2.83300 50.43300 40.86800
C  5.13400 51.01900 40.17400
C  4.85100 51.00400 38.74000
O  4.47300 52.02000 38.14800
O  5.13100 49.74600 38.15500
C  4.96400 49.70100 36.67900
H  11.20400 54.42500 40.59500
H  7.95000 59.81800 41.51300
H  2.93200 56.23500 43.05700
H  8.17100 50.54000 40.72400
H  10.31200 51.98300 39.52800
H  10.20500 51.57900 42.61400
H  11.50900 51.34900 41.26200
H  10.19900 50.21400 41.47300
H  8.93200 51.58900 38.07000
H  7.26800 50.93900 38.22100
H  8.04300 48.85100 38.57900
H  9.66600 49.29000 39.13100
H  12.45900 56.11200 39.64700
H  12.79000 56.12600 41.41400
H  13.00000 57.62100 40.55400
H  10.00100 61.21400 41.72500
H  8.95500 60.86100 40.29900
H  10.64800 61.60200 40.19700
H  5.29500 60.09600 41.57100
H  4.26400 58.57300 44.11600
H  7.18000 60.35400 43.54100
H  5.52200 60.48200 44.39500
H  5.94400 61.47200 43.05200
H  2.62800 58.46900 41.72100
H  2.90700 60.13600 42.04400
H  1.96300 58.25400 44.40300
H  0.92500 58.38400 43.12200
H  1.20500 59.85900 43.87300
H  1.40100 54.73900 42.73700
H  1.80000 53.22200 43.57400
H  1.13600 53.24400 41.89500
H  5.57100 50.04400 40.38900
H  5.48000 50.53400 36.20100
H  3.89800 49.90900 36.59300
H  5.15600 48.69100 36.31600

