158

Mg 27.67100 49.95400 26.08600
C  25.51300 51.06300 28.76200
C  29.90500 48.89800 28.43100
C  29.49800 49.16600 23.54000
C  25.42700 51.58900 23.99000
N  27.74200 50.07000 28.34800
C  26.75600 50.49800 29.21000
C  27.11500 50.16700 30.70900
C  28.53800 49.58100 30.52700
C  28.69800 49.41200 28.96200
C  29.76300 50.46600 31.04200
C  25.99900 49.23400 31.43100
C  25.34100 49.92400 32.61900
H  26.35300 50.34000 33.76200
N  29.47400 49.09400 25.99800
C  30.29200 48.70700 27.02900
C  31.49700 48.08300 26.51800
C  31.39100 48.25700 25.12800
C  30.08300 48.81500 24.79300
C  32.55300 47.39000 27.40200
C  32.50700 47.87300 24.14300
O  32.34700 47.98800 22.97400
C  33.90100 47.38500 24.56800
N  27.52400 50.37300 24.05300
C  28.37400 49.85700 23.20100
C  28.08100 50.25800 21.75100
C  26.60500 50.73900 21.81900
C  26.40600 50.79400 23.42100
C  29.19800 51.13000 21.08200
C  25.56100 49.85500 21.11800
C  24.34000 50.67400 20.62600
N  25.95600 51.22200 26.29600
C  25.14800 51.78800 25.33200
C  23.96700 52.28700 25.95200
C  24.04500 52.08000 27.28900
C  25.25900 51.40100 27.44800
C  22.71300 52.84300 25.21800
C  23.37900 52.28500 28.57100
O  22.30400 52.78100 28.89800
C  24.42000 51.78300 29.60000
C  24.76300 52.93800 30.48500
O  25.67200 53.73100 30.32400
O  23.95200 52.87600 31.53000
C  24.29200 53.83300 32.64300
H  30.59200 48.63600 29.23800
H  30.12000 48.86200 22.69500
H  24.66800 51.98600 23.31300
H  27.15800 51.09800 31.27300
H  28.61900 48.60700 31.00900
H  30.44800 50.85700 30.28900
H  30.31200 49.82500 31.73100
H  29.39500 51.35300 31.55800
H  26.51000 48.32600 31.75300
H  25.25300 48.95300 30.68800
H  24.56100 49.21300 32.89400
H  24.74000 50.78800 32.33300
H  32.19400 47.37300 28.43100
H  33.57300 47.77500 27.38100
H  32.55400 46.37800 26.99800
H  34.37700 48.17900 25.14300
H  34.43900 47.04900 23.68200
H  33.75800 46.43500 25.08300
H  28.07700 49.36900 21.12100
H  26.68100 51.72800 21.36700
H  29.76900 50.58200 20.33200
H  29.85900 51.53200 21.85000
H  28.73200 51.98900 20.59900
H  25.07600 49.12700 21.77000
H  26.06700 49.33500 20.30500
H  23.45700 50.27700 21.12600
H  24.36400 50.56000 19.54200
H  24.35200 51.71300 20.95500
H  21.87100 53.02500 25.88600
H  22.41200 52.01200 24.58000
H  22.92700 53.62300 24.48800
H  23.87300 51.02700 30.16300
H  25.26900 53.47600 32.96800
H  23.55700 53.75400 33.44400
H  24.47200 54.84600 32.28300
Mg 6.21800 52.93800 41.77800
C  5.53200 49.40500 41.40900
C  9.07600 52.50900 40.07400
C  6.49800 56.14000 41.83500
C  3.00500 53.16700 43.29800
N  7.12600 51.19400 40.91200
C  6.71100 49.93100 40.82000
C  7.68200 49.13800 39.92100
C  8.98900 49.99300 39.92200
C  8.37400 51.35900 40.30500
C  9.97700 49.41800 40.94900
C  7.00600 49.02900 38.53400
C  7.46500 47.81300 37.78800
H  7.92500 48.08200 36.30500
N  7.61900 54.24300 41.05700
C  8.74400 53.84100 40.41600
C  9.53100 55.03600 40.09000
C  8.77600 56.19200 40.50500
C  7.57000 55.53800 41.17100
C  10.79300 54.98500 39.29100
C  9.14200 57.65100 40.28600
O  10.23100 57.98400 39.74700
C  8.06100 58.69400 40.46700
N  4.79800 54.44700 42.22000
C  5.29800 55.71900 42.32400
C  4.35900 56.64300 42.98200
C  3.24000 55.70700 43.49900
C  3.70000 54.29700 43.01800
C  4.88200 57.69900 44.09000
C  1.81200 56.15900 43.08300
C  0.74900 55.95800 44.07200
N  4.52600 51.60200 42.19600
C  3.33300 51.86600 42.83600
C  2.63400 50.62700 43.19100
C  3.44100 49.60600 42.59200
C  4.63000 50.26400 42.05800
C  1.37500 50.43800 43.90400
C  3.63500 48.16400 42.49000
O  2.95700 47.28200 42.93700
C  4.96000 47.92900 41.57100
C  4.59200 47.18300 40.36300
O  3.50400 47.28200 39.82400
O  5.51200 46.21900 40.12500
C  5.09500 45.04100 39.36000
H  10.04200 52.41600 39.57400
H  6.65300 57.21300 41.96000
H  2.00200 53.33100 43.69800
H  7.85900 48.19900 40.44400
H  9.51300 50.03400 38.96700
H  10.91200 49.24800 40.41400
H  9.67900 48.46300 41.38000
H  10.26000 50.21500 41.63600
H  7.24400 49.86500 37.87500
H  5.94600 48.84100 38.69900
H  6.67600 47.07600 37.63300
H  8.26900 47.35500 38.36500
H  11.20300 54.04300 38.92700
H  11.53700 55.32700 40.01000
H  10.77200 55.67400 38.44600
H  8.47600 59.59900 40.02200
H  8.04200 59.05100 41.49700
H  7.09600 58.39500 40.05900
H  4.02200 57.29000 42.17200
H  3.43300 55.58400 44.56400
H  5.85400 58.17400 43.95400
H  4.61300 57.46000 45.11900
H  4.22100 58.49400 43.74500
H  1.60500 55.66700 42.13200
H  1.88100 57.24600 43.02800
H  0.09200 55.17700 43.68700
H  0.15600 56.84000 44.31100
H  1.09300 55.46100 44.97900
H  1.35300 51.15600 44.72400
H  1.31900 49.43100 44.31700
H  0.51100 50.57500 43.25400
H  5.63700 47.32600 42.17600
H  4.03300 44.84400 39.50300
H  5.75700 44.25400 39.72300
H  5.28700 45.22100 38.30200

