158

Mg 29.55300 57.99800 41.16700
C  26.74600 56.32000 39.93600
C  31.48800 55.36800 39.95800
C  32.12000 60.02300 41.26500
C  27.35400 60.83300 41.93600
N  29.12900 56.05800 40.08400
C  27.92600 55.58700 39.68600
C  28.15500 54.33100 38.91800
C  29.57000 53.76300 39.33100
C  30.09600 55.13500 39.88600
C  29.60500 52.69600 40.35100
C  28.04300 54.69500 37.41100
C  26.96200 53.86000 36.62300
H  26.24100 54.62400 35.45700
N  31.56100 57.72600 40.73700
C  32.15000 56.60000 40.21500
C  33.58400 56.80200 40.15900
C  33.78300 58.12800 40.75300
C  32.44300 58.70200 40.87600
C  34.48700 55.64200 39.72000
C  35.15700 58.64800 40.92800
O  36.24400 58.13000 40.57400
C  35.29800 60.04500 41.65000
N  29.69000 60.07300 41.52800
C  30.92600 60.66800 41.57000
C  30.84900 62.02400 42.23400
C  29.31200 62.38200 42.19200
C  28.72700 61.04700 41.88800
C  31.50900 62.09100 43.67100
C  29.03900 63.51500 41.13400
C  27.66700 64.13700 41.31400
N  27.49400 58.46100 41.08800
C  26.76300 59.60200 41.58800
C  25.38200 59.33800 41.41100
C  25.29400 58.06100 40.72700
C  26.60600 57.56500 40.58800
C  24.29500 60.37600 41.58800
C  24.41800 57.04300 40.19400
O  23.18400 57.06100 40.21800
C  25.28100 55.89900 39.56000
C  25.04300 54.59100 40.26600
O  25.26000 54.43500 41.41500
O  24.33900 53.71600 39.42700
C  23.92800 52.48700 40.05500
H  32.04600 54.46000 39.72400
H  32.94400 60.72600 41.40700
H  26.72300 61.68800 42.18700
H  27.37300 53.59300 39.09600
H  30.14700 53.44300 38.46300
H  29.71000 53.10000 41.35800
H  30.44900 52.03100 40.16900
H  28.64400 52.21900 40.15800
H  29.04200 54.57900 36.99100
H  27.73200 55.72600 37.24500
H  26.16100 53.39200 37.19700
H  27.43000 52.95000 36.25000
H  34.25500 55.03000 38.84900
H  34.43700 54.99500 40.59600
H  35.50700 56.01300 39.61700
H  34.98500 60.88000 41.02400
H  36.26300 60.29200 42.09300
H  34.64500 59.95200 42.51800
H  31.39600 62.64600 41.52600
H  28.83200 62.75700 43.09600
H  31.54900 61.07900 44.07500
H  30.82800 62.57900 44.36800
H  32.54400 62.41900 43.58300
H  29.06400 63.03300 40.15700
H  29.76300 64.31300 41.30200
H  27.10100 64.02400 40.39000
H  27.68300 65.17400 41.65000
H  27.09200 63.69500 42.12800
H  23.37800 59.83500 41.35600
H  24.47800 61.24800 40.96100
H  24.27300 60.74100 42.61500
H  25.11200 56.05400 38.49500
H  24.67900 52.06500 40.72200
H  23.55200 51.79200 39.30300
H  23.01300 52.72100 40.59900
Mg -1.91000 33.27100 27.59000
C  -3.87000 31.57900 29.99200
C  -0.81300 35.33300 30.13000
C  -0.30300 35.05300 25.22600
C  -3.31400 31.23200 25.11200
N  -2.32400 33.46400 29.82500
C  -3.11900 32.64100 30.59000
C  -3.06000 33.00100 32.03500
C  -2.29600 34.36600 31.99700
C  -1.73600 34.41200 30.53200
C  -3.07200 35.65000 32.41300
C  -2.26500 31.93600 32.87800
C  -3.09200 31.31000 33.95000
H  -2.42600 31.24400 35.35700
N  -0.59600 34.89700 27.68500
C  -0.24400 35.57700 28.83900
C  0.57200 36.68400 28.46200
C  0.83900 36.56400 27.03700
C  -0.03600 35.45100 26.58300
C  1.13700 37.57300 29.54500
C  1.78300 37.38300 26.22700
O  1.96100 37.17200 25.03300
C  2.56000 38.47700 26.91600
N  -1.76500 33.14800 25.51500
C  -1.14200 34.03000 24.75800
C  -1.49900 33.83700 23.30900
C  -2.11900 32.40600 23.25500
C  -2.42200 32.20500 24.74700
C  -2.49000 34.76600 22.75500
C  -1.22300 31.31300 22.62400
C  -0.31500 30.29900 23.38600
N  -3.33800 31.75100 27.52000
C  -3.79600 31.03400 26.42900
C  -4.65700 30.02200 26.89700
C  -4.82900 30.21300 28.29800
C  -3.87200 31.22100 28.60100
C  -5.35100 29.00700 26.14400
C  -5.44500 29.70400 29.47100
O  -6.10800 28.73300 29.65000
C  -4.79800 30.54700 30.71700
C  -5.89800 31.23500 31.51300
O  -6.51000 32.23300 31.20200
O  -6.26000 30.48000 32.64800
C  -7.35600 31.05900 33.45000
H  -0.47800 35.92500 30.98400
H  0.08200 35.82500 24.55600
H  -3.77800 30.67100 24.29800
H  -3.99900 33.29400 32.50500
H  -1.39900 34.30000 32.61300
H  -2.61500 35.93500 33.36100
H  -4.16100 35.64800 32.43300
H  -2.89000 36.48800 31.73900
H  -1.41000 32.44900 33.31800
H  -1.91900 31.14600 32.21200
H  -3.30800 30.31700 33.55600
H  -4.03500 31.84700 34.04300
H  0.72900 38.56900 29.37300
H  2.21300 37.57000 29.37100
H  0.93400 37.26600 30.57200
H  1.90400 39.06400 27.55800
H  2.70400 39.16400 26.08200
H  3.44700 38.04600 27.38000
H  -0.62600 33.91900 22.66200
H  -3.03700 32.44800 22.66800
H  -1.89400 35.49100 22.20100
H  -3.01400 35.32600 23.52900
H  -3.14600 34.30900 22.01400
H  -0.64300 31.86900 21.88700
H  -1.97600 30.73700 22.08600
H  -0.58300 29.29300 23.06400
H  -0.30400 30.35400 24.47400
H  0.64900 30.32700 22.87700
H  -6.30800 29.34000 25.74200
H  -5.57500 28.14100 26.76700
H  -4.77200 28.68700 25.27700
H  -4.34400 29.82600 31.39600
H  -6.89000 31.70600 34.19300
H  -7.82000 30.23500 33.99100
H  -8.13800 31.53900 32.86100

