158

Mg 24.01300 -4.88900 45.69100
C  25.88200 -2.46800 44.14900
C  21.32400 -3.71800 43.84000
C  22.35400 -7.61100 46.72700
C  26.85900 -6.02600 47.41000
N  23.67300 -3.44400 43.95800
C  24.62800 -2.50400 43.60600
C  23.92800 -1.43200 42.64100
C  22.45200 -1.62700 43.04500
C  22.43600 -3.05800 43.63900
C  21.99800 -0.59400 44.13400
C  24.30600 -1.74000 41.17200
C  24.87900 -0.64600 40.27400
H  24.95000 -0.97900 38.76200
N  22.12800 -5.57400 45.33900
C  21.11100 -4.98700 44.45500
C  19.93800 -5.83600 44.48600
C  20.27200 -6.90100 45.40100
C  21.65800 -6.74800 45.85300
C  18.69400 -5.47500 43.61600
C  19.26000 -8.01200 45.94200
O  18.10900 -8.06100 45.53600
C  19.57900 -8.90400 47.11400
N  24.55100 -6.52900 47.09100
C  23.62800 -7.52000 47.29100
C  24.29500 -8.68200 48.09700
C  25.68700 -8.10300 48.45300
C  25.75200 -6.81600 47.59900
C  23.47700 -9.23400 49.31400
C  26.83700 -9.04600 48.02300
C  28.20500 -8.99100 48.91800
N  25.97200 -4.44000 45.78000
C  27.00500 -4.89400 46.55600
C  28.17600 -4.07900 46.35500
C  27.78900 -3.15100 45.41100
C  26.41900 -3.32500 45.10800
C  29.48900 -4.20600 47.07200
C  28.25500 -1.97200 44.66500
O  29.34800 -1.49800 44.57500
C  27.02700 -1.54800 43.74600
C  26.73400 -0.13700 44.08700
O  25.90900 0.16100 44.97100
O  27.51100 0.76000 43.23700
C  27.22800 2.10000 43.46100
H  20.36900 -3.30700 43.50600
H  21.86000 -8.56400 46.92800
H  27.78600 -6.38200 47.86300
H  24.24000 -0.41300 42.87000
H  21.75900 -1.54000 42.20800
H  22.84000 -0.05500 44.57000
H  21.46400 -1.17500 44.88600
H  21.26000 -0.00700 43.58900
H  23.37100 -2.06000 40.71300
H  25.07300 -2.51100 41.23900
H  25.87400 -0.45600 40.67600
H  24.39800 0.31800 40.44100
H  18.95400 -5.14200 42.61100
H  18.14900 -4.59300 43.95100
H  18.15000 -6.41900 43.58200
H  18.61200 -9.15800 47.54800
H  20.20900 -8.42100 47.86100
H  19.98700 -9.83900 46.72900
H  24.45500 -9.47200 47.36400
H  25.88700 -7.86700 49.49800
H  23.39700 -10.29600 49.08000
H  22.44700 -8.88200 49.37100
H  23.95300 -8.94900 50.25200
H  27.01600 -8.91400 46.95600
H  26.52700 -10.07700 48.19200
H  28.47900 -9.97900 49.28800
H  28.17600 -8.22700 49.69600
H  29.04800 -8.66900 48.30600
H  30.42600 -3.94000 46.58200
H  29.56400 -5.25900 47.34200
H  29.45200 -3.76500 48.06800
H  27.22300 -1.67800 42.68200
H  27.01500 2.60400 42.51800
H  28.15400 2.59400 43.75700
H  26.48400 2.34100 44.22000
Mg 26.96200 50.11300 26.97100
C  24.91100 51.21100 29.73600
C  29.22300 48.98500 29.10700
C  29.11800 49.96700 24.39000
C  24.56700 51.63600 24.84500
N  27.07400 50.33500 29.15900
C  26.07900 50.60700 30.13700
C  26.64800 50.33700 31.57700
C  28.08700 49.61000 31.27500
C  28.12500 49.61800 29.73300
C  29.31200 50.33600 31.99100
C  25.69300 49.46600 32.48700
C  25.21300 50.11100 33.79600
H  25.30200 49.16400 34.99800
N  28.86400 49.51900 26.76900
C  29.62200 48.98800 27.74500
C  30.86700 48.37800 27.13900
C  30.78400 48.63500 25.77000
C  29.57000 49.45600 25.54900
C  31.97900 47.77000 27.99500
C  31.75300 48.30800 24.65500
O  31.63600 48.62500 23.44200
C  33.05000 47.57400 24.97000
N  26.89200 50.85400 24.96100
C  27.91300 50.55600 24.07600
C  27.45900 50.78100 22.61900
C  25.94100 51.01100 22.75300
C  25.76200 51.23100 24.27800
C  28.20000 51.95800 21.98800
C  25.04900 49.80100 22.23400
C  24.25200 49.95600 20.95100
N  25.00000 51.18400 27.15700
C  24.19300 51.69000 26.19200
C  22.96100 52.07200 26.82900
C  23.27400 51.97500 28.20900
C  24.47900 51.37100 28.30200
C  21.69700 52.43700 26.18500
C  22.65700 52.09500 29.51000
O  21.52700 52.50500 29.78900
C  23.63900 51.64100 30.55700
C  23.88100 52.66700 31.56300
O  24.84400 53.48300 31.57300
O  22.96900 52.52700 32.56500
C  23.09500 53.49500 33.71300
H  29.85400 48.44500 29.81600
H  29.80600 49.85700 23.54800
H  23.76600 51.97400 24.18400
H  26.82300 51.31900 32.01700
H  28.03800 48.58400 31.63800
H  29.00700 50.77800 32.93900
H  29.89600 51.00600 31.36000
H  30.03200 49.53900 32.18000
H  26.14900 48.49300 32.67200
H  24.81600 49.21500 31.88900
H  24.15600 50.31500 33.62700
H  25.63700 51.08700 34.03000
H  31.75200 48.06800 29.01800
H  32.95300 48.17300 27.71900
H  32.03700 46.69000 27.86400
H  32.97200 46.56700 25.37800
H  33.55300 48.22800 25.68200
H  33.61500 47.62600 24.03900
H  27.53700 49.85300 22.05300
H  25.51400 51.91900 22.32600
H  28.52900 51.59100 21.01500
H  29.07700 52.39400 22.46500
H  27.52600 52.79400 21.80400
H  24.41000 49.34800 22.99100
H  25.72600 48.99100 21.96400
H  24.52600 49.20700 20.20800
H  24.37600 51.00400 20.67600
H  23.20100 49.77700 21.17900
H  20.84200 52.34000 26.85500
H  21.58300 51.98500 25.19900
H  21.78400 53.50300 25.97800
H  23.21500 50.79500 31.09800
H  23.32700 52.92000 34.60900
H  22.12900 53.88400 34.03500
H  23.78500 54.33000 33.59300

