158

Mg 46.86400 24.59900 28.45100
C  47.87100 26.76700 31.10100
C  46.00300 22.25600 30.78700
C  46.13000 22.57800 25.87600
C  48.22200 26.85600 26.18000
N  46.92400 24.53500 30.77600
C  47.21500 25.57200 31.57900
C  46.75800 25.27800 32.99900
C  46.25400 23.76300 32.93200
C  46.44900 23.41700 31.41900
C  46.91800 22.77200 33.89000
C  45.81600 26.34600 33.65500
C  45.97300 26.89100 35.13100
H  46.27600 25.89900 36.27000
N  46.09000 22.72700 28.32200
C  45.86900 21.90100 29.42000
C  45.48100 20.59800 28.90600
C  45.32600 20.73200 27.45500
C  45.87900 22.08200 27.13200
C  45.27200 19.41500 29.79300
C  44.89800 19.61600 26.49900
O  44.98100 19.71800 25.28500
C  44.24300 18.46500 27.04700
N  47.14900 24.77100 26.29000
C  46.78300 23.73200 25.43200
C  47.18900 24.02500 23.97800
C  47.56000 25.56800 24.10100
C  47.72800 25.76400 25.60000
C  48.39700 23.22700 23.51300
C  46.43400 26.43400 23.54600
C  45.04200 26.17500 24.05600
N  47.86400 26.42300 28.49400
C  48.37400 27.21500 27.49900
C  48.97100 28.39500 28.06300
C  48.78300 28.31600 29.46400
C  48.14600 27.04500 29.68700
C  49.52800 29.50900 27.21400
C  48.86800 29.01600 30.69200
O  49.36000 30.07000 30.96100
C  48.23700 28.03600 31.78700
C  49.37800 27.84400 32.76400
O  50.37300 27.20500 32.68700
O  49.11400 28.58400 33.85300
C  49.77600 28.41900 35.14600
H  45.64400 21.48300 31.46800
H  45.87600 21.93300 25.03300
H  48.73100 27.43800 25.40900
H  47.70900 25.34200 33.52800
H  45.19300 23.87600 33.15500
H  46.06000 22.51000 34.50900
H  47.81000 23.01300 34.46700
H  47.09700 21.82700 33.37600
H  44.79900 25.99200 33.48100
H  45.92600 27.19000 32.97400
H  44.98700 27.32700 35.28500
H  46.71900 27.67100 34.97700
H  45.81700 18.62900 29.27000
H  44.24200 19.16800 30.05200
H  45.88800 19.47200 30.69000
H  43.65400 18.75900 27.91600
H  45.01100 17.73700 27.30700
H  43.59700 17.92700 26.35300
H  46.27300 23.91700 23.39800
H  48.49200 25.80500 23.58700
H  48.12200 22.17500 23.58600
H  49.20600 23.56900 24.15800
H  48.56100 23.41800 22.45200
H  46.43000 26.43700 22.45600
H  46.64200 27.44300 23.90200
H  45.02500 25.33400 24.74900
H  44.29600 25.95300 23.29400
H  44.50900 27.00000 24.53100
H  49.81100 29.25800 26.19200
H  50.47700 29.77400 27.68000
H  48.97100 30.44600 27.19100
H  47.52100 28.67200 32.30900
H  50.80900 28.10100 35.00800
H  49.29800 27.60600 35.69400
H  49.71500 29.36400 35.68600
Mg 6.69400 54.61100 40.74900
C  5.83900 51.14400 40.57100
C  9.82900 53.80300 40.00100
C  7.18700 57.82100 39.93600
C  3.19100 55.27600 40.83700
N  7.65300 52.64800 40.21000
C  7.22300 51.38900 40.22700
C  8.27800 50.36200 39.84500
C  9.56400 51.16100 40.19100
C  9.01600 52.65700 40.12800
C  10.21400 50.74200 41.57700
C  8.19700 49.81100 38.34000
C  7.38600 50.68700 37.27200
H  6.78400 50.02900 36.02800
N  8.34700 55.76900 40.27200
C  9.60400 55.21200 39.95000
C  10.49500 56.26600 39.67200
C  9.75300 57.49200 39.81500
C  8.38100 57.04100 40.00900
C  11.91500 55.98700 39.35900
C  10.37500 58.86500 39.68000
O  11.53900 58.98500 39.42000
C  9.54600 60.09000 39.73700
N  5.35900 56.35700 40.44300
C  5.85000 57.53800 40.08700
C  4.74500 58.54800 39.74000
C  3.46600 57.80200 40.33900
C  4.01500 56.35500 40.54300
C  5.03500 60.00400 40.24600
C  2.14800 57.83200 39.48300
C  0.86500 58.30100 40.21200
N  4.84900 53.48300 40.83600
C  3.51700 53.90300 41.02200
C  2.68100 52.71500 41.18800
C  3.52400 51.68400 41.05000
C  4.86700 52.17700 40.82700
C  1.20000 52.74900 41.41700
C  3.58400 50.25900 41.06700
O  2.71900 49.41400 41.22700
C  5.10300 49.86800 40.81100
C  5.10100 48.97400 39.53100
O  4.82800 49.36900 38.41600
O  5.39900 47.65700 39.93200
C  5.11800 46.57900 38.98100
H  10.86200 53.45000 39.95600
H  7.36200 58.76600 39.41700
H  2.13100 55.47500 41.00900
H  8.14100 49.42800 40.39000
H  10.35800 50.91800 39.48500
H  10.38600 51.65200 42.15200
H  11.16400 50.28800 41.29500
H  9.65400 50.10200 42.26000
H  7.81000 48.79600 38.43100
H  9.22300 49.59600 38.03900
H  8.17700 51.36400 36.94800
H  6.59100 51.29400 37.70500
H  12.21500 56.31800 38.36400
H  12.06200 54.92000 39.52500
H  12.59900 56.33700 40.13200
H  8.89600 60.13200 38.86400
H  10.29900 60.87800 39.76800
H  8.98300 60.12900 40.66900
H  4.73500 58.63500 38.65400
H  3.29400 58.23300 41.32500
H  6.07600 60.08000 40.56000
H  4.57200 60.44900 41.12700
H  4.92700 60.73500 39.44600
H  2.00000 56.91700 38.91000
H  2.38900 58.55500 38.70300
H  0.41000 59.15100 39.70400
H  1.11900 58.71000 41.19000
H  0.17700 57.47500 40.39200
H  0.65100 52.02700 40.81200
H  0.89000 53.78400 41.27500
H  0.97400 52.70600 42.48200
H  5.38100 49.26200 41.67400
H  4.94900 45.57600 39.37400
H  5.84700 46.50700 38.17400
H  4.21200 46.82700 38.42800

