158

Mg 35.57400 2.24200 28.96300
C  33.55300 3.35000 31.47500
C  38.20500 2.12900 31.20700
C  37.68300 1.59700 26.43400
C  32.99700 2.86400 26.68300
N  35.81500 2.78900 31.06000
C  34.82200 3.09900 31.92600
C  35.29600 3.17300 33.37000
C  36.83900 3.19200 33.13200
C  37.03100 2.72200 31.71200
C  37.46900 4.54900 33.58300
C  34.79900 2.03300 34.23600
C  34.37400 2.34900 35.69400
H  34.78700 3.59100 36.36700
N  37.61400 1.69900 28.89600
C  38.51700 1.68500 29.94400
C  39.68900 1.03100 29.53800
C  39.61900 0.85400 28.07900
C  38.25800 1.36300 27.71800
C  40.81300 0.70900 30.45600
C  40.60000 0.20800 27.11700
O  40.33600 0.24800 25.92100
C  41.85800 -0.50100 27.59600
N  35.39200 2.34300 26.89800
C  36.43500 2.08300 26.06300
C  36.11000 2.25500 24.57900
C  34.59700 2.52400 24.68500
C  34.25900 2.52700 26.18700
C  37.00900 3.35400 23.89100
C  33.74600 1.53400 23.85100
C  32.56000 2.03500 22.98400
N  33.69200 2.97400 29.03900
C  32.73800 3.08500 28.03900
C  31.45900 3.43000 28.66200
C  31.71500 3.60300 30.01000
C  33.09300 3.29700 30.11800
C  30.17600 3.70300 27.93500
C  31.13800 3.70200 31.30700
O  29.92600 3.91800 31.47500
C  32.27100 3.64700 32.29600
C  32.22900 4.97000 33.01500
O  32.58200 6.01000 32.57700
O  31.63000 4.80000 34.24000
C  31.18000 5.99100 34.97300
H  39.00800 2.02200 31.93900
H  38.34400 1.33300 25.60500
H  32.27400 3.06000 25.88800
H  34.88600 4.05300 33.86500
H  37.37900 2.42600 33.68800
H  38.36300 4.34300 34.17100
H  36.76700 5.15000 34.16200
H  37.73000 5.09900 32.67900
H  35.43600 1.14800 34.25700
H  33.94000 1.59200 33.72900
H  34.75800 1.55400 36.33300
H  33.28600 2.28100 35.69400
H  40.97200 -0.36100 30.58500
H  40.61200 1.13700 31.43800
H  41.65400 1.24200 30.01200
H  42.56600 0.07300 28.19300
H  42.18800 -1.02900 26.70100
H  41.57200 -1.35000 28.21700
H  36.27200 1.26500 24.15200
H  34.36200 3.55400 24.41700
H  37.63100 2.94900 23.09200
H  37.81600 3.79000 24.48000
H  36.37200 4.20800 23.66300
H  33.34300 0.76200 24.50600
H  34.30400 1.00500 23.07700
H  31.60800 1.99700 23.51300
H  32.44700 1.23700 22.25000
H  32.78700 2.97600 22.48300
H  30.25600 3.15300 26.99700
H  29.99700 4.76900 27.79300
H  29.33100 3.36400 28.53500
H  31.97500 2.84800 32.97600
H  30.96100 6.81600 34.29600
H  31.99800 6.27900 35.63300
H  30.26000 5.71900 35.49100
Mg -6.51600 24.92400 25.06300
C  -4.62400 26.22500 27.58100
C  -8.31300 23.00500 27.39500
C  -8.22300 23.48800 22.43300
C  -4.36200 26.47000 22.72300
N  -6.33500 24.60500 27.24500
C  -5.48600 25.25900 28.06900
C  -5.79800 24.93000 29.50100
C  -6.75200 23.64600 29.37300
C  -7.19200 23.73900 27.90000
C  -6.23400 22.24700 29.81200
C  -6.47500 26.11100 30.26100
C  -5.98600 26.31000 31.71600
H  -5.41300 25.07800 32.47900
N  -8.14600 23.48900 24.91100
C  -8.75300 22.86800 26.03600
C  -9.84700 22.14100 25.47700
C  -9.89100 22.30700 24.00000
C  -8.70100 23.09900 23.73100
C  -10.74800 21.51100 26.45900
C  -10.98000 21.90700 23.02200
O  -11.01500 22.37100 21.87300
C  -11.96500 20.87300 23.30200
N  -6.17000 24.85400 22.83800
C  -7.18600 24.36800 21.98100
C  -6.68300 24.62100 20.48700
C  -5.76500 25.82200 20.75200
C  -5.34000 25.65700 22.16400
C  -6.06800 23.39500 19.86600
C  -6.40800 27.21700 20.51600
C  -5.73500 28.02800 19.32900
N  -4.87500 26.13900 25.04800
C  -4.10700 26.69900 24.08500
C  -3.10900 27.61800 24.71900
C  -3.27000 27.43900 26.08000
C  -4.38200 26.58900 26.21900
C  -2.20100 28.46400 23.93100
C  -2.85400 27.87000 27.33300
O  -2.07100 28.76200 27.66400
C  -3.55400 26.95100 28.34800
C  -2.56000 26.08000 29.01500
O  -2.33800 24.91400 28.71400
O  -2.09000 26.68000 30.17000
C  -1.32600 25.90600 31.19200
H  -8.87700 22.48600 28.17300
H  -8.70100 22.94100 21.61800
H  -3.71400 26.82700 21.91900
H  -4.81100 24.74500 29.92500
H  -7.59700 23.80200 30.04300
H  -6.01300 21.73100 28.87700
H  -7.06100 21.67800 30.23600
H  -5.35900 22.25300 30.46200
H  -7.56400 26.10700 30.20600
H  -6.11100 26.97600 29.70700
H  -6.65400 26.77900 32.43800
H  -5.18600 27.04400 31.61700
H  -11.04800 20.58000 25.97900
H  -11.64600 22.12900 26.46800
H  -10.45500 21.20800 27.46400
H  -12.83300 21.38200 23.72000
H  -11.51400 20.14800 23.98000
H  -12.38500 20.37200 22.43000
H  -7.47300 25.05400 19.87400
H  -4.96300 25.70600 20.02300
H  -6.11600 22.48300 20.46100
H  -5.03400 23.57200 19.56900
H  -6.59500 23.20200 18.93200
H  -6.34900 27.92400 21.34300
H  -7.47300 27.06100 20.34100
H  -5.88400 29.10500 19.24900
H  -6.18300 27.56900 18.44800
H  -4.64900 27.93500 19.32000
H  -2.21700 28.42800 22.84100
H  -1.26500 28.10000 24.35400
H  -2.32500 29.51100 24.20700
H  -3.94500 27.67000 29.06800
H  -1.67200 24.87400 31.12600
H  -1.54000 26.35900 32.16100
H  -0.30400 25.90600 30.81600

