158

Mg 8.27700 3.94500 28.07900
C  9.58400 2.49600 30.90600
C  6.43900 6.13100 29.94000
C  7.16200 5.33500 25.23700
C  9.99800 1.55500 26.22400
N  8.11300 4.30200 30.18800
C  8.72300 3.61300 31.15900
C  8.39400 4.29900 32.52500
C  7.25600 5.30300 32.19600
C  7.21100 5.19500 30.64500
C  5.91500 5.14100 32.85700
C  9.62100 4.85700 33.17600
C  9.46700 5.81400 34.36000
H  10.35200 5.62400 35.57100
N  6.99400 5.52700 27.63200
C  6.35600 6.31600 28.56200
C  5.59700 7.37800 27.86600
C  5.74600 7.10300 26.44500
C  6.63000 5.94800 26.35500
C  4.96300 8.53200 28.60200
C  5.13200 7.76300 25.20800
O  5.26700 7.38500 24.02400
C  4.12400 8.88800 25.39900
N  8.51800 3.53400 26.01200
C  7.92300 4.19300 24.99000
C  8.34700 3.69200 23.60100
C  9.35300 2.60300 23.97800
C  9.27800 2.50800 25.50400
C  7.16700 3.31100 22.75800
C  10.81300 2.87400 23.46000
C  11.34200 1.82700 22.39400
N  9.45500 2.23600 28.40200
C  10.15700 1.42400 27.58800
C  10.99600 0.49100 28.35300
C  10.86300 0.94200 29.66400
C  9.90900 1.98300 29.61400
C  11.82300 -0.57700 27.75500
C  11.31400 0.73600 31.09300
O  12.22900 0.08200 31.62000
C  10.46600 1.72500 31.88100
C  9.67200 0.85600 32.79000
O  8.60700 0.29100 32.48700
O  10.29700 0.75900 33.97000
C  9.56500 -0.05200 34.89000
H  5.86900 6.80100 30.58800
H  7.07700 5.93100 24.32600
H  10.56700 0.83000 25.63800
H  7.99100 3.52700 33.18100
H  7.75900 6.23900 32.43900
H  5.05100 5.24300 32.20100
H  5.84100 6.03000 33.48400
H  5.75700 4.40800 33.64900
H  10.15000 5.53000 32.50100
H  10.30600 4.06500 33.48000
H  8.43300 5.70500 34.68700
H  9.69000 6.79100 33.93200
H  5.12300 8.46800 29.67900
H  3.87400 8.48100 28.63300
H  5.42900 9.48200 28.34100
H  3.36200 8.58300 26.11700
H  3.61600 9.05100 24.44800
H  4.60000 9.81900 25.70600
H  8.89800 4.48500 23.09400
H  9.00800 1.62600 23.63900
H  6.15500 3.62300 23.02100
H  7.11000 2.23500 22.59700
H  7.32400 3.64800 21.73400
H  11.49700 2.88500 24.30900
H  10.86300 3.93000 23.19200
H  11.22700 2.19800 21.37600
H  10.85500 0.86100 22.52800
H  12.41500 1.66600 22.49700
H  12.46700 -0.16700 26.97600
H  11.16200 -1.38200 27.43300
H  12.46000 -0.93200 28.56500
H  11.15300 2.36700 32.43100
H  9.20900 -1.01500 34.52500
H  8.63300 0.37200 35.26300
H  10.12300 -0.23500 35.80800
Mg -10.01100 39.54200 39.73100
C  -9.12200 36.22900 39.02500
C  -6.95100 40.48700 38.77800
C  -11.27800 42.62300 39.69300
C  -13.30200 38.30800 40.47600
N  -8.24000 38.43200 39.01500
C  -8.07000 37.13400 38.72500
C  -6.61600 36.82000 38.30600
C  -5.86500 38.14500 38.62200
C  -7.09400 39.10700 38.89400
C  -4.93000 37.98300 39.89300
C  -6.59900 36.34000 36.81100
C  -6.73500 37.46600 35.77600
H  -7.85600 37.36100 34.72800
N  -9.20500 41.25300 39.25800
C  -7.94300 41.44400 38.83500
C  -7.69800 42.87000 38.63700
C  -8.92500 43.55200 38.94000
C  -9.89700 42.50200 39.41000
C  -6.38700 43.49700 38.19500
C  -9.11300 45.05700 38.75200
O  -8.20900 45.72100 38.24500
C  -10.36800 45.78200 39.24500
N  -12.14300 40.31100 39.99300
C  -12.26200 41.65700 39.95500
C  -13.74500 42.06600 40.10100
C  -14.42300 40.64400 40.30600
C  -13.24700 39.65800 40.20300
C  -14.03600 43.15200 41.19500
C  -15.61700 40.36700 39.30400
C  -16.71400 39.32300 39.71900
N  -11.06000 37.70900 39.75600
C  -12.31400 37.35300 40.27800
C  -12.49100 35.91300 40.41800
C  -11.26900 35.44800 39.95300
C  -10.44600 36.58400 39.48000
C  -13.68100 35.25800 40.84900
C  -10.53800 34.21800 39.45500
O  -10.87900 33.06900 39.41600
C  -9.04900 34.69600 39.04100
C  -8.26000 34.23200 40.20000
O  -8.61200 34.25800 41.41000
O  -6.95400 33.89000 39.78000
C  -6.12500 33.31300 40.77900
H  -5.96700 40.82100 38.44500
H  -11.64300 43.65000 39.74100
H  -14.22900 37.91000 40.89400
H  -6.26600 35.98300 38.91000
H  -5.22200 38.56300 37.84700
H  -5.46900 38.23900 40.80500
H  -4.14600 38.73100 39.77000
H  -4.42200 37.02000 39.84800
H  -7.46200 35.67400 36.79000
H  -5.64700 35.86800 36.56800
H  -5.72700 37.63600 35.39600
H  -7.04700 38.37000 36.29900
H  -6.53600 44.08000 37.28600
H  -5.82100 42.61400 37.90000
H  -5.89700 44.03800 39.00500
H  -10.55600 45.52500 40.28800
H  -11.18800 45.61400 38.54800
H  -10.27300 46.86200 39.13600
H  -13.91000 42.40100 39.07700
H  -14.80000 40.58100 41.32600
H  -14.71100 43.95700 40.90700
H  -13.12400 43.68900 41.45600
H  -14.26000 42.62800 42.12400
H  -15.23800 40.11200 38.31400
H  -16.06300 41.35700 39.20400
H  -17.20700 38.80400 38.89700
H  -17.50300 39.82200 40.28100
H  -16.24400 38.63100 40.41800
H  -14.48500 35.64800 40.22500
H  -13.89100 35.47500 41.89600
H  -13.56600 34.19700 40.62900
H  -8.83900 34.27500 38.05800
H  -6.67400 32.82400 41.58400
H  -5.70400 34.24600 41.15200
H  -5.34700 32.67700 40.35700

