158

Mg 48.20600 16.69300 28.24300
C  46.39500 16.23800 31.16500
C  50.59100 18.42500 30.09700
C  49.91200 17.29100 25.40800
C  45.76100 15.03200 26.56900
N  48.32700 17.37700 30.38900
C  47.58800 16.91800 31.44600
C  48.06000 17.37500 32.87600
C  49.38200 18.15700 32.40100
C  49.44700 17.96600 30.84300
C  49.51700 19.67600 32.88200
C  48.31500 16.14300 33.74900
C  48.32300 16.27800 35.21300
H  47.78500 17.57800 35.77200
N  50.01400 17.74800 27.81400
C  50.89600 18.31800 28.75800
C  52.09900 18.73400 28.02100
C  51.84300 18.62800 26.57600
C  50.54500 17.88300 26.50100
C  53.41700 19.18800 28.75900
C  52.61100 19.12000 25.35600
O  52.24900 18.92000 24.19300
C  53.87800 19.78700 25.60600
N  47.79800 16.33300 26.22400
C  48.67100 16.65000 25.23300
C  48.11600 16.20900 23.92300
C  46.87700 15.32300 24.26900
C  46.81600 15.51900 25.78000
C  47.86200 17.39000 22.90000
C  46.86600 13.82400 23.79600
C  46.31800 13.58100 22.42700
N  46.37900 15.77300 28.68500
C  45.49900 15.16000 27.91200
C  44.30500 14.87300 28.73400
C  44.64000 15.21700 29.95700
C  45.92400 15.74100 29.89500
C  43.01100 14.29900 28.31100
C  44.22300 15.22200 31.37300
O  43.12700 14.94300 31.82200
C  45.32600 15.81000 32.20800
C  44.62000 16.92900 32.84800
O  44.33000 17.99100 32.30600
O  44.31200 16.63300 34.14900
C  43.62700 17.72700 34.85300
H  51.37100 18.84000 30.73900
H  50.52500 17.36200 24.50800
H  44.95300 14.65900 25.93600
H  47.20100 17.97900 33.17200
H  50.27200 17.71500 32.84800
H  48.62800 20.07000 33.37200
H  49.77800 20.37000 32.08200
H  50.25300 19.75000 33.68300
H  49.26300 15.76200 33.36900
H  47.56800 15.35800 33.62700
H  49.36800 16.10400 35.47000
H  47.85800 15.40000 35.66000
H  53.95000 19.93400 28.17000
H  53.97800 18.25400 28.74700
H  53.09800 19.62800 29.70400
H  53.67000 20.79700 25.96000
H  54.40100 19.74100 24.65100
H  54.53500 19.21700 26.26300
H  48.93800 15.64300 23.48400
H  45.93600 15.69100 23.86100
H  46.80200 17.47900 22.66300
H  48.39000 17.24700 21.95700
H  48.21100 18.33200 23.32400
H  46.28700 13.30900 24.56300
H  47.89100 13.45800 23.85800
H  46.30000 14.57800 21.98800
H  45.27500 13.26600 22.39000
H  46.89500 12.90400 21.79600
H  42.83300 14.82100 27.37100
H  42.31700 14.55200 29.11300
H  43.07100 13.22300 28.14500
H  45.65500 15.17400 33.02900
H  42.56300 17.61200 34.64600
H  43.86700 18.73800 34.52600
H  43.82600 17.53800 35.90800
Mg -5.92900 25.40600 25.40700
C  -4.65500 26.36900 28.63000
C  -7.95100 23.15800 27.22200
C  -6.98200 24.20000 22.41700
C  -3.57300 27.23200 23.94500
N  -6.27900 24.78800 27.68700
C  -5.76500 25.46800 28.76500
C  -6.39500 25.01500 30.03200
C  -7.12600 23.66800 29.60200
C  -7.18300 23.88400 28.10400
C  -6.40700 22.39400 30.01500
C  -7.34800 26.09500 30.56800
C  -7.31800 26.38400 32.09700
H  -6.68200 25.27700 33.00400
N  -7.27300 23.91300 24.87700
C  -8.03800 23.14600 25.76800
C  -8.94000 22.32100 24.99700
C  -8.71400 22.60600 23.56900
C  -7.57000 23.56900 23.57000
C  -9.93900 21.35000 25.67600
C  -9.40400 21.98900 22.23100
O  -9.06800 22.26300 21.06000
C  -10.65900 21.01000 22.33500
N  -5.45000 25.75500 23.53900
C  -6.00100 25.14400 22.39500
C  -5.32500 25.62300 21.12200
C  -4.48200 26.78700 21.64500
C  -4.49800 26.58600 23.16000
C  -4.53100 24.52400 20.32000
C  -5.05800 28.20100 21.29000
C  -5.07300 28.53500 19.81100
N  -4.49500 26.63000 26.14300
C  -3.54300 27.26100 25.33700
C  -2.62800 28.00500 26.22900
C  -3.02500 27.66400 27.53100
C  -4.15200 26.83200 27.37900
C  -1.49000 28.90400 25.86100
C  -2.73900 27.85800 29.00000
O  -1.85500 28.49000 29.53400
C  -3.85700 27.05600 29.74400
C  -3.15600 26.22200 30.60800
O  -2.67100 25.16200 30.35000
O  -3.11500 26.86900 31.81000
C  -2.39400 26.24400 32.88900
H  -8.44900 22.27300 27.62400
H  -7.37700 23.79400 21.48300
H  -2.93100 28.00200 23.51100
H  -5.57800 24.91400 30.74700
H  -8.13000 23.74700 30.01800
H  -6.30600 21.66400 29.21200
H  -7.02600 21.99900 30.82000
H  -5.39700 22.52200 30.40600
H  -8.35500 25.76300 30.31600
H  -7.33800 27.05100 30.04500
H  -8.31600 26.60900 32.47500
H  -6.72800 27.29000 32.23700
H  -9.44600 20.37800 25.70900
H  -10.87300 21.25200 25.12200
H  -10.24600 21.63400 26.68200
H  -11.17500 20.90200 21.38200
H  -11.41800 21.39500 23.01700
H  -10.39700 19.99800 22.64600
H  -6.12500 25.90700 20.43700
H  -3.43000 26.66000 21.39000
H  -5.12200 24.04700 19.53800
H  -4.03200 23.75100 20.90500
H  -3.86900 25.17000 19.74400
H  -4.40700 28.88800 21.83000
H  -6.05300 28.37500 21.69900
H  -4.53000 29.46600 19.64600
H  -6.11300 28.76100 19.57900
H  -4.66000 27.71400 19.22500
H  -1.82500 29.93400 25.98100
H  -1.21700 28.63900 24.84000
H  -0.62500 28.56700 26.43300
H  -4.44700 27.78700 30.29800
H  -2.95200 26.21500 33.82500
H  -1.48500 26.82700 33.03400
H  -2.15300 25.23200 32.56600

