158

Mg -2.64700 34.95400 26.95000
C  -4.08700 32.94400 29.36700
C  -1.12900 36.83300 29.43800
C  -1.20900 36.89200 24.57900
C  -4.27900 33.16800 24.51500
N  -2.69300 34.86600 29.15400
C  -3.27400 33.93100 29.96100
C  -2.84600 34.21100 31.47200
C  -2.00200 35.47600 31.42200
C  -1.98100 35.78300 29.94700
C  -2.52500 36.65200 32.28800
C  -2.10200 32.91400 32.14400
C  -2.96000 32.25000 33.25900
H  -2.33600 32.10500 34.64300
N  -1.41600 36.70600 27.00200
C  -0.87400 37.31600 28.12000
C  0.01200 38.38700 27.71900
C  -0.07100 38.46400 26.30200
C  -0.93100 37.32800 25.88300
C  0.75700 39.20500 28.71400
C  0.47500 39.51400 25.32700
O  0.06500 39.54700 24.17300
C  1.36000 40.51900 25.81200
N  -2.81400 35.07900 24.90600
C  -2.10700 35.95200 24.13500
C  -2.40000 35.72500 22.62200
C  -3.45000 34.56400 22.67600
C  -3.53600 34.20900 24.09700
C  -2.94800 36.86100 21.76400
C  -3.30000 33.49600 21.64800
C  -2.17500 32.47100 21.97900
N  -3.87000 33.40300 26.92400
C  -4.53100 32.85600 25.86600
C  -5.30200 31.70900 26.33500
C  -5.16200 31.73200 27.70800
C  -4.28200 32.79100 28.01500
C  -6.00000 30.66100 25.52800
C  -5.51800 31.10100 28.97400
O  -6.21800 30.13600 29.24900
C  -4.91600 31.96300 30.12900
C  -5.96900 32.51800 31.01300
O  -6.78600 33.43100 30.80300
O  -5.94300 31.83600 32.22500
C  -6.72600 32.42300 33.28800
H  -0.78600 37.51800 30.21600
H  -0.65000 37.47000 23.84000
H  -4.91500 32.63900 23.80100
H  -3.81300 34.31200 31.96500
H  -1.00000 35.19700 31.74600
H  -2.87000 37.50100 31.69900
H  -1.73500 36.96600 32.97000
H  -3.41400 36.47800 32.89400
H  -1.20200 33.20100 32.68900
H  -2.05400 32.17800 31.34200
H  -3.12300 31.20200 33.00800
H  -3.88300 32.79400 33.45900
H  1.78700 39.43300 28.44300
H  0.79100 38.72200 29.69100
H  0.12300 40.09200 28.71600
H  0.80800 41.20500 26.45400
H  1.76600 41.21300 25.07700
H  2.14800 39.99400 26.35300
H  -1.45900 35.44200 22.15100
H  -4.42100 35.01000 22.46300
H  -2.35500 37.76400 21.61300
H  -3.90800 37.10900 22.21600
H  -3.21000 36.51000 20.76600
H  -3.25200 33.90800 20.64000
H  -4.19400 32.88100 21.54900
H  -2.57400 31.49400 21.70700
H  -1.97300 32.35500 23.04400
H  -1.23400 32.66000 21.46400
H  -5.75400 30.69500 24.46700
H  -7.05900 30.91500 25.47800
H  -5.83300 29.68600 25.98600
H  -4.23300 31.39300 30.75900
H  -7.76900 32.54700 32.99700
H  -6.31500 33.40400 33.52400
H  -6.71100 31.77700 34.16600
Mg -5.93900 25.49300 26.23300
C  -4.04100 26.95500 28.82000
C  -7.23200 23.33300 28.51000
C  -7.15700 23.80500 23.59900
C  -4.21000 27.71500 24.06700
N  -5.58700 25.18100 28.41000
C  -5.06000 26.10500 29.27800
C  -5.52600 25.87500 30.72100
C  -6.29900 24.54700 30.55500
C  -6.42300 24.29600 29.07600
C  -5.89800 23.27900 31.31900
C  -6.26800 27.08200 31.35600
C  -6.82300 26.83800 32.72300
H  -6.14800 25.82200 33.62700
N  -7.13500 23.84900 26.05100
C  -7.56900 23.09600 27.12100
C  -8.36900 22.00800 26.60200
C  -8.40900 22.17300 25.18700
C  -7.53700 23.27600 24.84200
C  -9.06500 21.11500 27.53700
C  -9.25500 21.44600 24.15400
O  -9.36900 21.82700 22.97900
C  -10.18500 20.36600 24.61500
N  -5.67500 25.62300 24.13500
C  -6.22900 24.79900 23.23800
C  -5.98800 25.25300 21.77600
C  -5.21700 26.56600 21.91700
C  -5.00800 26.70900 23.50100
C  -5.39100 24.14800 20.86300
C  -5.77300 27.84400 21.24200
C  -5.05600 28.47800 20.06200
N  -4.42100 27.00600 26.36800
C  -3.80100 27.79100 25.38600
C  -2.81700 28.66500 25.94700
C  -2.84000 28.28400 27.32800
C  -3.79600 27.28500 27.49000
C  -1.98200 29.70300 25.23700
C  -2.30900 28.56100 28.63500
O  -1.45300 29.42200 28.92400
C  -3.06900 27.69700 29.65600
C  -2.15000 27.09800 30.72100
O  -1.47100 26.10800 30.55500
O  -2.27400 27.82800 31.88900
C  -1.87600 27.21600 33.11500
H  -7.68000 22.67200 29.25600
H  -7.31700 23.21100 22.69600
H  -3.75000 28.43500 23.38700
H  -4.68700 25.69400 31.39400
H  -7.31200 24.79800 30.87000
H  -5.04300 23.38700 31.98600
H  -5.57200 22.44600 30.69600
H  -6.73900 23.02600 31.96500
H  -7.10700 27.19200 30.67000
H  -5.60500 27.94800 31.37900
H  -7.86900 26.57700 32.56400
H  -6.76500 27.74400 33.32700
H  -10.07900 21.51400 27.56500
H  -8.64300 21.21700 28.53600
H  -9.09600 20.05800 27.27400
H  -10.74300 20.00800 23.75000
H  -10.98800 20.72400 25.25800
H  -9.54800 19.61600 25.08300
H  -6.95600 25.52700 21.35700
H  -4.17600 26.49500 21.60200
H  -5.53200 23.13300 21.23600
H  -4.31200 24.29800 20.84200
H  -5.86700 24.17400 19.88300
H  -5.84900 28.58200 22.04000
H  -6.77000 27.64600 20.84900
H  -4.44600 29.31700 20.39800
H  -5.82400 28.92600 19.43100
H  -4.48900 27.75700 19.47300
H  -2.03800 29.73400 24.14900
H  -0.94000 29.70300 25.55900
H  -2.33100 30.64000 25.67100
H  -3.69100 28.50300 30.04500
H  -1.27100 28.00200 33.56700
H  -1.35500 26.26300 33.03000
H  -2.74600 27.17900 33.77100

