158

Mg -1.61400 17.76900 27.48000
C  -2.46400 15.53400 30.12400
C  -2.57400 20.32700 29.52700
C  -1.90200 19.80700 24.79900
C  -1.48000 15.04400 25.26000
N  -2.42000 17.79700 29.50300
C  -2.46500 16.83600 30.46200
C  -2.66800 17.32900 31.87700
C  -2.67600 18.92600 31.56100
C  -2.45300 19.03100 30.10600
C  -3.93600 19.64800 32.04800
C  -1.48100 17.00100 32.84200
C  -1.25700 17.99600 34.04400
H  -0.73700 17.46800 35.35100
N  -2.05700 19.80100 27.21800
C  -2.39500 20.68200 28.17400
C  -2.54100 21.99700 27.65500
C  -2.28200 21.86100 26.23800
C  -2.02800 20.47600 26.06700
C  -2.85400 23.24200 28.42300
C  -2.16800 22.99100 25.13600
O  -1.93000 22.79700 23.94000
C  -2.21700 24.37900 25.56300
N  -1.87000 17.47200 25.34400
C  -1.78600 18.51500 24.50100
C  -1.56000 18.02900 23.05400
C  -1.13900 16.51700 23.25900
C  -1.49600 16.31300 24.72400
C  -2.76800 18.16500 22.11600
C  0.38500 16.21200 22.87800
C  1.38900 16.59300 23.89200
N  -1.80200 15.57700 27.65500
C  -1.73100 14.68900 26.64500
C  -2.13700 13.42700 27.22100
C  -2.33100 13.64100 28.62900
C  -2.18500 15.01900 28.78500
C  -2.20400 12.09200 26.56000
C  -2.69700 13.09700 29.86800
O  -2.86700 11.94400 30.16700
C  -2.75400 14.26700 30.90700
C  -1.72400 13.90500 31.94500
O  -0.51800 14.19300 31.98500
O  -2.35100 13.22400 32.93900
C  -1.49000 12.57400 33.87500
H  -2.76200 21.17400 30.19000
H  -1.77100 20.54300 24.00300
H  -1.44900 14.27900 24.48100
H  -3.61700 16.96300 32.26800
H  -1.75300 19.38300 31.91700
H  -3.61700 20.46100 32.70100
H  -4.56000 18.94400 32.59800
H  -4.60600 20.12200 31.33100
H  -0.63500 17.02400 32.15400
H  -1.55200 16.03000 33.33000
H  -2.21100 18.49300 34.21700
H  -0.50100 18.71000 33.71700
H  -3.16800 23.04200 29.44700
H  -3.75900 23.63900 27.96300
H  -1.93500 23.82800 28.45200
H  -3.11300 24.65100 26.12200
H  -2.10000 25.04800 24.71000
H  -1.41700 24.61700 26.26400
H  -0.77300 18.69700 22.70300
H  -1.73100 15.82500 22.66000
H  -3.59400 18.61700 22.66500
H  -3.05300 17.21700 21.65900
H  -2.52000 18.84400 21.30000
H  0.60800 16.55600 21.86800
H  0.45000 15.12400 22.86900
H  0.86600 16.98800 24.76300
H  1.97200 17.34000 23.35400
H  2.09600 15.82300 24.20100
H  -1.26000 11.72000 26.16000
H  -2.89000 12.10900 25.71300
H  -2.61400 11.41400 27.30900
H  -3.68600 14.30500 31.47000
H  -1.37600 13.20400 34.75600
H  -0.46800 12.35700 33.56200
H  -1.85900 11.61600 34.24200
Mg 8.64300 3.85900 28.04900
C  9.77500 2.29600 30.97300
C  6.52000 5.73000 29.98200
C  7.24600 5.01000 25.08400
C  10.44900 1.44400 26.15400
N  8.32100 3.97100 30.22600
C  8.92100 3.31600 31.23000
C  8.30200 3.74300 32.63300
C  7.25900 4.77200 32.22100
C  7.33900 4.82100 30.68700
C  5.75600 4.64500 32.70600
C  9.44400 4.11900 33.69400
C  9.18600 5.17400 34.71300
H  9.58400 4.90300 36.17400
N  7.20200 5.24500 27.61500
C  6.42200 5.89600 28.54100
C  5.56800 6.86100 27.83800
C  5.79200 6.70000 26.47300
C  6.75300 5.59000 26.36100
C  4.50000 7.63100 28.57200
C  5.15100 7.42200 25.27300
O  5.49900 7.16200 24.14900
C  4.16200 8.57700 25.46400
N  8.65600 3.17400 25.95500
C  8.09900 3.93100 24.97800
C  8.67200 3.50300 23.61400
C  9.95200 2.71000 24.01700
C  9.68700 2.39900 25.44700
C  7.61300 2.73800 22.82100
C  11.32300 3.43000 23.91400
C  11.25600 4.96700 23.83300
N  9.91900 2.18100 28.44400
C  10.56100 1.31200 27.57500
C  11.18500 0.24200 28.40400
C  11.03900 0.66600 29.73200
C  10.13800 1.76400 29.68900
C  11.87700 -1.03600 27.91000
C  11.35700 0.35100 31.08600
O  12.08000 -0.58800 31.52200
C  10.53200 1.37600 32.07300
C  9.60000 0.50300 32.81300
O  8.50800 0.15300 32.43600
O  10.16000 0.27700 34.02800
C  9.44400 -0.72000 34.86800
H  6.07600 6.46500 30.65700
H  6.94100 5.47000 24.14200
H  11.20100 0.88700 25.59200
H  7.79000 2.85100 32.99300
H  7.52100 5.74400 32.64000
H  5.64600 5.37900 33.50400
H  5.62600 3.64400 33.11700
H  5.01000 4.85600 31.93900
H  10.37400 4.38500 33.19200
H  9.64500 3.23700 34.30200
H  8.09800 5.17300 34.65200
H  9.55100 6.15000 34.39400
H  4.35600 7.43600 29.63500
H  3.60700 7.27500 28.05800
H  4.74400 8.67900 28.40000
H  3.60300 8.72000 24.54000
H  4.64500 9.54000 25.63100
H  3.47200 8.42900 26.29400
H  8.98700 4.41300 23.10400
H  9.97800 1.77800 23.45200
H  6.75800 2.45900 23.43600
H  8.02900 1.86800 22.31300
H  7.15600 3.49800 22.18700
H  11.74200 3.32500 22.91300
H  12.09800 3.16300 24.63300
H  11.19200 5.37900 22.82600
H  12.09700 5.52000 24.25100
H  10.35500 5.27500 24.36200
H  12.83500 -0.75200 27.47400
H  11.20700 -1.65100 27.30900
H  12.15500 -1.52500 28.84300
H  11.26600 1.91800 32.67000
H  9.30200 -1.70200 34.41500
H  8.44700 -0.36400 35.12500
H  10.07200 -0.80500 35.75500

