158

Mg -1.52500 18.40200 26.82100
C  -1.87200 16.10300 29.61900
C  -1.94600 20.97300 29.10800
C  -1.19600 20.50800 24.29600
C  -0.92400 15.70100 24.81500
N  -1.90000 18.52400 29.22300
C  -2.02900 17.43900 30.09200
C  -2.25500 18.02200 31.45200
C  -2.58600 19.48400 31.16200
C  -2.08600 19.70900 29.75700
C  -4.09500 19.86100 31.32800
C  -1.13900 17.88900 32.61500
C  -1.76500 17.57100 33.95600
H  -0.94800 17.70300 35.19500
N  -1.45100 20.48200 26.69500
C  -1.65400 21.36600 27.79900
C  -1.73500 22.69700 27.27300
C  -1.41100 22.56200 25.87200
C  -1.31100 21.14700 25.57500
C  -2.12400 23.80000 28.27200
C  -1.12300 23.72400 24.84600
O  -0.70300 23.54800 23.70000
C  -1.27100 25.07800 25.38000
N  -1.09400 18.14700 24.78300
C  -1.04000 19.16900 23.91200
C  -0.73400 18.68300 22.54300
C  -0.53600 17.13600 22.68000
C  -0.89400 16.93500 24.19200
C  -1.82600 19.09200 21.57200
C  0.87000 16.66800 22.23400
C  2.05100 17.16400 23.07800
N  -1.56100 16.37500 27.04900
C  -1.24500 15.41300 26.12800
C  -1.42900 14.16100 26.73300
C  -1.62700 14.32200 28.06100
C  -1.68200 15.69900 28.24900
C  -1.33400 12.88500 25.96400
C  -1.83500 13.73100 29.35100
O  -1.91400 12.51300 29.62100
C  -2.11100 14.87100 30.35500
C  -1.17600 14.46800 31.46000
O  0.01800 14.68600 31.61300
O  -2.00800 13.84200 32.35700
C  -1.36900 13.48600 33.59500
H  -2.04800 21.81000 29.80200
H  -1.08800 21.21000 23.46700
H  -0.80900 14.92000 24.06100
H  -3.12400 17.43900 31.75600
H  -2.12000 20.21500 31.82400
H  -4.67800 18.94100 31.37400
H  -4.53300 20.49400 30.55600
H  -4.26700 20.48400 32.20500
H  -0.62900 18.84000 32.76800
H  -0.40700 17.11000 32.40200
H  -2.06900 16.52400 33.94000
H  -2.64600 18.17700 34.16900
H  -3.08900 23.58400 28.72900
H  -2.23400 24.76400 27.77600
H  -1.34400 23.95500 29.01800
H  -0.56300 25.31600 26.17400
H  -2.27600 25.25000 25.76600
H  -1.24700 25.77800 24.54500
H  0.24800 19.09800 22.31800
H  -1.37100 16.79200 22.07000
H  -2.01400 18.32900 20.81800
H  -1.56400 19.98200 20.99900
H  -2.79700 19.17500 22.06000
H  0.82500 17.23000 21.30100
H  0.94100 15.60000 22.03100
H  1.86900 17.61100 24.05600
H  2.60000 17.84700 22.43000
H  2.67900 16.31900 23.35800
H  -0.56600 13.00000 25.19900
H  -2.33400 12.82900 25.53400
H  -1.14800 12.12400 26.72300
H  -3.16700 14.80100 30.61400
H  -0.32100 13.18900 33.64100
H  -1.96300 12.70900 34.07600
H  -1.46000 14.26800 34.34900
Mg 30.71000 58.17200 38.69200
C  27.80200 56.18700 38.21200
C  32.57500 55.39500 38.12900
C  33.41000 60.09700 38.58200
C  28.55400 60.88700 38.48400
N  30.18700 56.01500 38.41800
C  29.00200 55.40200 38.21600
C  29.13600 53.96000 37.93800
C  30.64400 53.64500 38.22400
C  31.23600 55.08700 38.40200
C  30.98900 52.60800 39.33300
C  28.61100 53.52900 36.43500
C  29.13000 54.35400 35.26700
H  27.99800 54.95600 34.34200
N  32.75400 57.78900 38.48900
C  33.30600 56.59400 38.14800
C  34.69700 56.71100 37.95000
C  34.98300 58.03800 38.26400
C  33.70900 58.70400 38.48900
C  35.54800 55.57400 37.58600
C  36.34400 58.63100 38.25400
O  37.36600 57.97000 38.11400
C  36.70200 60.13000 38.61900
N  30.93100 60.07000 38.61900
C  32.17200 60.68900 38.65500
C  32.00400 62.23600 38.62200
C  30.49000 62.44200 38.42800
C  29.93500 61.04100 38.49200
C  32.61500 63.00600 39.79000
C  30.16200 63.11700 37.03900
C  29.87100 64.66500 37.04300
N  28.57000 58.51600 38.49100
C  27.88300 59.67200 38.48500
C  26.50200 59.41700 38.50000
C  26.45200 58.04400 38.25400
C  27.68200 57.57300 38.30700
C  25.39300 60.43600 38.62900
C  25.54400 56.87100 38.16800
O  24.29300 56.93200 38.23000
C  26.39600 55.64600 37.98400
C  26.03300 54.70800 39.05200
O  26.07300 54.92600 40.28200
O  25.59100 53.53400 38.53600
C  24.71000 52.67700 39.32900
H  33.16100 54.48000 38.02200
H  34.23400 60.81300 38.61000
H  27.80500 61.68200 38.49100
H  28.56700 53.46600 38.72600
H  31.05800 53.25300 37.29500
H  29.99600 52.33500 39.69200
H  31.46000 53.03000 40.22100
H  31.59400 51.82200 38.88200
H  27.52300 53.55300 36.38000
H  29.08000 52.55800 36.27700
H  29.85200 53.82700 34.64300
H  29.72200 55.16500 35.69200
H  35.00000 54.89600 36.93200
H  36.03500 55.07900 38.42600
H  36.36300 55.99600 36.99800
H  36.30600 60.38400 39.60300
H  36.37200 60.77100 37.80100
H  37.78800 60.20800 38.67400
H  32.61100 62.62000 37.80300
H  30.01700 63.03100 39.21300
H  32.30500 64.05100 39.83000
H  33.66000 62.94100 39.48900
H  32.33000 62.41500 40.66000
H  29.36500 62.68300 36.43500
H  31.07900 63.06900 36.45000
H  29.77800 65.13000 38.02500
H  28.98500 64.86000 36.43900
H  30.71600 65.07900 36.49300
H  24.39700 59.99700 38.57000
H  25.51300 61.28900 37.96100
H  25.50500 60.80500 39.64800
H  26.18300 55.21500 37.00600
H  24.19400 53.11200 40.18500
H  25.26300 51.83400 39.74500
H  24.00100 52.21400 38.64200

