158

Mg 40.43600 8.87600 28.90200
C  42.33100 10.01700 31.70100
C  38.62600 7.12100 31.22600
C  38.91700 7.44200 26.43400
C  42.97800 9.97100 26.81900
N  40.51500 8.58500 31.17100
C  41.29700 9.23600 32.13000
C  40.90100 8.93000 33.56800
C  39.85100 7.75300 33.31000
C  39.68400 7.77800 31.82800
C  40.36600 6.39500 33.82600
C  40.29900 10.14000 34.22600
C  39.58600 9.90600 35.55600
H  39.97900 10.70700 36.71300
N  38.84200 7.55900 28.77900
C  38.22600 6.95700 29.85900
C  37.07500 6.22400 29.38700
C  37.08100 6.44000 27.92400
C  38.28700 7.21400 27.68300
C  36.05800 5.49400 30.21200
C  36.07000 6.02600 26.91300
O  36.08700 6.44800 25.76500
C  35.05100 5.07000 27.34000
N  40.90500 8.65200 26.92700
C  40.16200 8.00500 26.11200
C  40.62300 8.11300 24.59600
C  41.82500 9.01700 24.69800
C  41.92600 9.25600 26.24400
C  40.87600 6.68400 23.93900
C  41.70100 10.38600 23.88100
C  41.03600 11.70300 24.54000
N  42.26100 9.77100 29.13800
C  43.15100 10.16300 28.19000
C  44.27400 10.87900 28.82700
C  43.95600 10.92900 30.20900
C  42.81100 10.13700 30.35800
C  45.43000 11.56000 28.17300
C  44.30600 11.42800 31.54800
O  45.28400 12.05400 31.85700
C  43.29000 10.81400 32.58300
C  44.01400 10.09900 33.53000
O  44.66100 9.08000 33.31600
O  43.92500 10.70400 34.74700
C  44.34600 9.88900 35.89000
H  38.05700 6.56800 31.97500
H  38.44600 6.94600 25.58300
H  43.71600 10.41900 26.15100
H  41.74200 8.63000 34.19300
H  38.92200 7.89700 33.86200
H  40.80100 5.73400 33.07600
H  39.59500 5.88000 34.39900
H  41.13800 6.51800 34.58500
H  39.65700 10.68100 33.53100
H  41.13700 10.81600 34.39400
H  39.71600 8.85800 35.82900
H  38.53300 10.14200 35.40400
H  35.04900 5.75600 29.89300
H  36.10300 5.87000 31.23500
H  36.20100 4.41400 30.18500
H  34.31500 5.42700 28.06000
H  35.52800 4.19600 27.78400
H  34.67900 4.74200 26.36900
H  39.84500 8.54900 23.96900
H  42.76600 8.63500 24.30300
H  40.89900 5.85200 24.64300
H  41.75300 6.78500 23.30100
H  40.02200 6.46600 23.29700
H  41.18000 10.12100 22.96200
H  42.71900 10.65800 23.60100
H  40.52400 11.47400 25.47400
H  40.29000 12.05200 23.82600
H  41.73700 12.53800 24.58000
H  46.33600 11.06600 28.52500
H  45.53400 12.63100 28.35000
H  45.31900 11.46600 27.09300
H  42.61100 11.55700 33.00200
H  43.57500 9.73300 36.64400
H  45.12500 10.48600 36.36400
H  44.82700 8.92600 35.72100
Mg 52.97300 23.97700 44.52800
C  50.30600 26.15500 43.70000
C  51.19100 21.40800 43.15000
C  55.74100 22.15100 44.52700
C  54.61100 26.71700 45.83900
N  51.10300 23.93100 43.25000
C  50.22200 24.90800 43.08800
C  48.99500 24.29100 42.34500
C  49.04500 22.83700 42.81200
C  50.55600 22.67200 43.06300
C  48.16900 22.43900 43.99300
C  48.93800 24.64700 40.82300
C  50.28400 25.06600 40.21100
H  50.25600 25.81800 38.84400
N  53.36200 21.94800 43.89600
C  52.50300 21.04600 43.44700
C  53.11900 19.72000 43.40800
C  54.48600 19.92000 43.83200
C  54.59500 21.39200 44.07100
C  52.35200 18.46200 43.08300
C  55.54400 18.86600 44.03600
O  55.27400 17.67900 43.83600
C  56.91800 19.14700 44.53100
N  55.00200 24.50600 44.77600
C  55.91000 23.49800 44.89400
C  57.22900 24.09000 45.55800
C  56.95000 25.61400 45.74000
C  55.42600 25.64900 45.35700
C  57.58500 23.47400 46.95000
C  57.75000 26.57000 44.87000
C  58.80300 27.39400 45.69400
N  52.49900 25.97300 44.95100
C  53.24700 26.92100 45.57100
C  52.46300 28.15000 45.69500
C  51.25200 27.86100 44.97800
C  51.33200 26.53500 44.57500
C  52.80700 29.49100 46.24800
C  50.02700 28.45800 44.47800
O  49.63000 29.61600 44.59300
C  49.36100 27.31800 43.72500
C  48.96500 27.74400 42.36000
O  49.72000 28.29100 41.58700
O  47.61400 27.39700 42.17800
C  46.99700 27.77500 40.93400
H  50.55600 20.56800 42.85900
H  56.64300 21.54200 44.61700
H  55.01500 27.62900 46.28400
H  48.07300 24.71000 42.74700
H  48.68600 22.19900 42.00400
H  47.38500 23.19500 43.96800
H  48.68700 22.29700 44.94100
H  47.62800 21.53300 43.71800
H  48.16800 25.39300 40.62900
H  48.77900 23.75500 40.21600
H  50.84400 24.13100 40.19600
H  50.60500 25.82800 40.92100
H  52.96800 18.14300 42.24300
H  51.32500 18.77700 42.89700
H  52.27800 17.72000 43.87900
H  56.75000 19.60300 45.50700
H  57.45000 19.63100 43.71200
H  57.43600 18.19800 44.67400
H  57.95500 23.93600 44.76000
H  56.93700 25.90600 46.79000
H  56.62400 23.05200 47.24600
H  57.95600 24.16800 47.70400
H  58.25400 22.62800 46.79600
H  57.23300 27.31600 44.26600
H  58.41100 26.01300 44.20600
H  58.80400 27.04200 46.72500
H  58.45100 28.41600 45.83400
H  59.82000 27.29700 45.31300
H  52.06400 29.72000 47.01200
H  52.80000 30.25000 45.46600
H  53.82400 29.63200 46.61300
H  48.44100 27.02000 44.22900
H  46.71000 28.82600 40.92100
H  46.04600 27.27200 40.76200
H  47.66800 27.44600 40.14000

