158

Mg 45.73000 4.72200 47.43300
C  43.52000 7.37400 46.58700
C  43.26300 2.42200 46.65000
C  48.05200 2.16300 47.74600
C  48.30700 7.01100 47.56200
N  43.60000 4.92700 46.85400
C  42.95700 6.06500 46.34700
C  41.47700 5.83700 45.95500
C  41.44200 4.25600 46.09400
C  42.88000 3.81500 46.52100
C  40.34900 3.72100 47.05000
C  41.39000 6.22200 44.40600
C  40.55500 7.45900 44.09600
H  41.11700 8.43600 43.02200
N  45.59400 2.53600 47.27300
C  44.51800 1.79400 46.93600
C  44.91500 0.39600 46.90300
C  46.35100 0.35500 47.17800
C  46.70700 1.75000 47.44400
C  43.93300 -0.66600 46.51900
C  47.14800 -0.97400 47.21200
O  46.58200 -2.04500 46.94100
C  48.68400 -1.02000 47.48600
N  47.79600 4.65500 47.76400
C  48.53900 3.48300 47.90400
C  50.02000 3.74800 48.09000
C  50.07400 5.26700 48.08600
C  48.63200 5.69800 47.75600
C  50.65800 3.16500 49.41600
C  51.13200 5.91900 47.12800
C  52.13200 6.90100 47.79300
N  45.94900 6.84900 47.24400
C  47.06000 7.58900 47.31000
C  46.68100 9.01200 47.21500
C  45.29300 8.96200 46.86800
C  44.84800 7.63700 46.91000
C  47.61500 10.17100 47.23800
C  44.14900 9.77400 46.54200
O  44.09800 10.93000 46.31700
C  42.97400 8.79900 46.37800
C  41.99600 9.16400 47.42700
O  41.72900 8.51800 48.38700
O  41.14500 10.11200 46.90000
C  39.87200 10.11500 47.54700
H  42.44300 1.70000 46.64200
H  48.84400 1.42400 47.88200
H  49.06500 7.79100 47.46900
H  40.78200 6.35000 46.61800
H  41.18400 3.83300 45.12300
H  39.42000 3.43400 46.55900
H  40.19000 4.56300 47.72400
H  40.65400 2.99800 47.80700
H  40.95000 5.39700 43.84600
H  42.38600 6.38400 43.99400
H  40.37200 8.05300 44.99100
H  39.58700 7.14200 43.70700
H  44.09100 -1.53900 47.15200
H  44.07500 -0.92800 45.47000
H  42.89100 -0.39400 46.68300
H  49.12100 -2.00200 47.30400
H  48.88100 -0.68700 48.50500
H  49.19700 -0.24900 46.91100
H  50.49900 3.32600 47.20700
H  50.13300 5.57600 49.13000
H  49.84100 2.60600 49.87300
H  51.06700 3.84000 50.16900
H  51.40800 2.51000 48.97300
H  50.73400 6.51700 46.30800
H  51.70400 5.14800 46.61300
H  53.08900 6.49000 47.47200
H  52.04200 7.01200 48.87300
H  51.98000 7.86300 47.30200
H  47.65500 10.53200 48.26600
H  47.26200 11.02600 46.66100
H  48.62300 9.88000 46.94400
H  42.65600 8.79000 45.33600
H  39.98500 10.69800 48.46100
H  39.51400 9.11900 47.81000
H  39.11400 10.58300 46.91900
Mg -11.79800 15.95700 42.71500
C  -8.68800 14.34200 42.04900
C  -10.47700 18.76800 41.08700
C  -14.86800 17.25200 42.72300
C  -13.09500 12.86200 43.66000
N  -9.74100 16.47900 41.77100
C  -8.68400 15.67000 41.55500
C  -7.60400 16.41200 40.72700
C  -8.23200 17.77600 40.45500
C  -9.58200 17.66900 41.15500
C  -7.45800 18.97900 41.06900
C  -7.11700 15.68900 39.38700
C  -5.67600 15.79600 39.20300
H  -5.13600 15.40300 37.83800
N  -12.53800 17.79200 42.04500
C  -11.88900 18.82000 41.41800
C  -12.83500 19.89100 41.06900
C  -14.06800 19.47700 41.57500
C  -13.91900 18.06000 42.17200
C  -12.49400 21.05400 40.31500
C  -15.32000 20.20700 41.39600
O  -15.36100 21.35300 40.91100
C  -16.55800 19.65100 41.78200
N  -13.71400 15.15300 43.16800
C  -14.86200 15.92400 43.12600
C  -16.07100 15.09300 43.63500
C  -15.50200 13.68200 43.75200
C  -13.99600 13.91600 43.64200
C  -16.70900 15.64200 44.90100
C  -15.99400 12.74900 42.61000
C  -17.03000 11.69000 42.88800
N  -11.07600 14.00800 42.96700
C  -11.74500 12.87100 43.40400
C  -10.76700 11.85100 43.47700
C  -9.56800 12.40000 42.97800
C  -9.81900 13.68100 42.63600
C  -11.17700 10.34800 43.83000
C  -8.06300 12.18400 42.75200
O  -7.39800 11.19800 43.00300
C  -7.52100 13.41700 42.05000
C  -6.32200 13.93100 42.85900
O  -6.38500 14.85500 43.65200
O  -5.16200 13.25800 42.55700
C  -3.92500 13.79300 43.10000
H  -10.16700 19.62700 40.48800
H  -15.91500 17.55400 42.66000
H  -13.66600 12.00400 44.02000
H  -6.82000 16.50200 41.48000
H  -8.36700 18.04400 39.40800
H  -6.43300 18.66200 40.87700
H  -7.64200 19.06600 42.14000
H  -7.48000 19.90000 40.48700
H  -7.55200 16.18200 38.51700
H  -7.52900 14.68000 39.35700
H  -5.24600 15.18700 39.99800
H  -5.37100 16.82000 39.41900
H  -12.72300 20.89000 39.26200
H  -11.41600 21.21000 40.30500
H  -12.98700 21.94100 40.71500
H  -16.73400 18.74300 41.20600
H  -17.31100 20.40200 41.54200
H  -16.70300 19.43400 42.84100
H  -16.82900 15.07900 42.85200
H  -15.67700 13.22400 44.72500
H  -16.35800 16.63600 45.17600
H  -16.62400 14.98600 45.76700
H  -17.76500 15.88000 44.77600
H  -15.18200 12.10900 42.26500
H  -16.21900 13.34800 41.72800
H  -17.83200 11.94600 43.58100
H  -16.63400 10.71200 43.16000
H  -17.57800 11.67300 41.94600
H  -11.57700 9.88800 42.92700
H  -11.99800 10.39800 44.54600
H  -10.35400 9.74200 44.21000
H  -7.25400 13.30900 40.99800
H  -3.62100 14.79800 42.80600
H  -3.10200 13.25700 42.62700
H  -3.89200 13.61700 44.17500

