158

Mg -2.26600 18.51300 27.16500
C  -2.96300 16.24000 29.88600
C  -3.22100 21.02400 29.25500
C  -1.96500 20.40800 24.45200
C  -2.21300 15.60800 25.07500
N  -3.07600 18.59100 29.34200
C  -3.10000 17.59400 30.26700
C  -3.45000 18.08000 31.62900
C  -3.67900 19.61600 31.38700
C  -3.30900 19.74200 29.90700
C  -5.01800 20.30100 31.70100
C  -2.34600 17.91100 32.68600
C  -2.80600 17.23200 34.01300
H  -1.73300 17.21600 35.15300
N  -2.47600 20.40700 26.90700
C  -2.85700 21.32300 27.87600
C  -2.79100 22.64600 27.20200
C  -2.22800 22.48800 25.89500
C  -2.26800 21.05700 25.67500
C  -3.16700 23.88500 28.03900
C  -1.69700 23.58800 24.98900
O  -1.36300 23.36900 23.80700
C  -1.57600 25.01700 25.49500
N  -2.08200 18.06200 25.07700
C  -1.90900 19.03600 24.18900
C  -1.88100 18.36300 22.79700
C  -1.63600 16.91000 23.07300
C  -2.11000 16.85200 24.44700
C  -3.22400 18.58300 22.07100
C  -0.19800 16.32500 22.91700
C  0.92000 17.20900 23.64500
N  -2.54900 16.38900 27.34300
C  -2.41800 15.37600 26.35200
C  -2.71700 14.07600 27.09100
C  -2.87000 14.38000 28.44400
C  -2.81200 15.75600 28.54600
C  -2.85800 12.80200 26.35600
C  -3.04100 13.80700 29.77900
O  -3.22800 12.66200 30.05300
C  -3.15000 15.02300 30.79000
C  -2.06200 14.87100 31.76200
O  -0.94200 15.37300 31.71500
O  -2.37900 13.97500 32.69600
C  -1.34000 13.68500 33.66800
H  -3.49900 21.87800 29.87600
H  -1.90000 20.93300 23.49700
H  -2.03700 14.66200 24.55900
H  -4.38600 17.55100 31.80200
H  -2.85700 20.15000 31.86300
H  -5.59500 19.69200 32.39700
H  -5.76100 20.30900 30.90300
H  -4.86400 21.28100 32.15400
H  -2.15100 18.91100 33.07200
H  -1.42700 17.53200 32.23900
H  -3.34100 16.29300 33.87500
H  -3.53400 17.91300 34.45200
H  -3.45300 23.63600 29.06100
H  -3.99500 24.35200 27.50500
H  -2.46400 24.69900 28.21300
H  -2.63900 25.23700 25.59500
H  -0.97300 25.58200 24.78500
H  -0.99300 25.03300 26.41600
H  -1.07000 18.79900 22.21400
H  -2.28800 16.28200 22.46600
H  -4.00100 19.02700 22.69400
H  -3.72500 17.67100 21.74800
H  -3.07200 19.33400 21.29500
H  0.16400 16.15700 21.90300
H  -0.23400 15.29400 23.26700
H  0.57700 17.15600 24.67800
H  0.88600 18.25200 23.32900
H  1.94700 16.84500 23.65700
H  -1.93400 12.46400 25.88700
H  -3.58700 12.87000 25.54900
H  -3.21200 12.06900 27.08200
H  -4.16700 14.98900 31.18100
H  -1.73700 12.97900 34.39800
H  -1.12400 14.56300 34.27700
H  -0.44700 13.44800 33.08900
Mg 30.01100 57.57900 40.98000
C  27.29300 55.70900 39.78400
C  32.11500 55.44500 39.51100
C  32.40900 59.76000 41.67900
C  27.64200 59.97000 42.21200
N  29.73500 55.91700 39.67000
C  28.52400 55.18100 39.43100
C  28.87000 54.04200 38.54100
C  30.32200 53.72000 39.03100
C  30.74100 55.10600 39.45500
C  30.53100 52.65300 40.14700
C  28.62500 54.11200 36.96000
C  27.24900 53.59100 36.48000
H  26.31600 54.63100 35.80500
N  32.01300 57.62500 40.60500
C  32.69900 56.63600 39.93700
C  34.10100 56.92500 39.99600
C  34.26000 58.17900 40.67200
C  32.85800 58.54500 41.03400
C  35.14300 55.99500 39.28800
C  35.52400 58.89400 40.90700
O  36.52900 58.31900 40.54200
C  35.65600 60.07900 41.64100
N  29.97100 59.70800 41.67200
C  31.19700 60.29400 41.88800
C  30.96400 61.76000 42.43200
C  29.45900 61.72600 42.74200
C  28.96100 60.46500 42.18800
C  31.91400 62.03800 43.58300
C  28.67900 63.10100 42.40800
C  27.75600 63.64200 43.42800
N  27.90800 57.91600 41.02800
C  27.09900 58.88000 41.60400
C  25.72400 58.49800 41.32800
C  25.76700 57.25800 40.65700
C  27.12200 56.97300 40.44200
C  24.54800 59.24800 41.90800
C  24.93200 56.19500 40.06400
O  23.72000 56.11500 40.02500
C  25.92300 55.16000 39.44000
C  25.64600 53.88000 40.18900
O  26.19900 53.53000 41.21800
O  24.73800 53.13900 39.41500
C  24.24600 51.98300 40.07300
H  32.76800 54.57200 39.45200
H  33.17900 60.44500 42.04000
H  26.98900 60.70400 42.68900
H  28.18300 53.24200 38.81800
H  30.88100 53.48600 38.12500
H  29.62000 52.06700 40.26800
H  30.70500 53.29400 41.01100
H  31.40200 52.08400 39.82200
H  29.36500 53.55400 36.38800
H  28.76700 55.15200 36.66600
H  26.65300 53.33600 37.35600
H  27.39500 52.69100 35.88200
H  34.77700 55.04700 38.89300
H  36.01300 55.77900 39.90700
H  35.43200 56.50600 38.37000
H  35.06200 60.77700 41.05000
H  36.72300 60.29900 41.61800
H  35.27900 59.96800 42.65800
H  31.20100 62.41300 41.59200
H  29.40200 61.58700 43.82200
H  32.66100 62.72700 43.18700
H  32.48000 61.18400 43.95400
H  31.42800 62.53700 44.42100
H  28.04400 62.87700 41.55100
H  29.39400 63.84100 42.04900
H  28.27200 64.45100 43.94600
H  27.58400 62.95000 44.25200
H  26.85600 63.88500 42.86300
H  24.89900 60.02300 42.58800
H  23.79000 58.54600 42.25700
H  24.06400 59.69600 41.04000
H  25.68300 54.99700 38.39000
H  23.95700 52.26000 41.08600
H  25.01900 51.22300 40.18500
H  23.33700 51.70000 39.54300

