158

Mg 49.54300 45.58900 42.94100
C  46.12000 45.95000 42.15200
C  49.27400 42.22500 42.19700
C  52.87000 45.46300 42.82900
C  49.72300 49.21700 42.71600
N  47.86200 44.30800 42.14200
C  46.57000 44.58900 42.00700
C  45.76400 43.31500 41.75000
C  46.76400 42.17800 42.14700
C  48.03600 42.91200 42.27600
C  46.39500 41.52300 43.47500
C  45.14200 43.23000 40.31300
C  46.01400 42.80500 39.06700
H  45.84700 43.66000 37.80600
N  50.85900 44.06900 42.83400
C  50.57000 42.67500 42.52300
C  51.77100 41.89500 42.62600
C  52.83100 42.83800 42.88900
C  52.22500 44.18900 42.88800
C  51.77900 40.38400 42.49300
C  54.29800 42.49400 43.10400
O  54.67600 41.35300 43.15000
C  55.29300 43.50500 43.40300
N  51.06300 47.17600 42.82300
C  52.36300 46.81500 42.81900
C  53.21200 48.09000 42.66100
C  52.31000 49.23200 42.33300
C  50.90700 48.52900 42.74300
C  54.14100 48.30700 43.95500
C  52.58200 49.75300 40.89300
C  53.90900 50.42700 40.65000
N  48.22400 47.26600 42.55400
C  48.42300 48.62800 42.55900
C  47.15700 49.31900 42.42700
C  46.25200 48.29600 42.24600
C  46.93100 47.07800 42.37200
C  46.93100 50.83500 42.54700
C  44.86400 48.04100 41.91100
O  43.99700 48.85800 41.64100
C  44.77900 46.51300 41.81500
C  43.73300 45.90300 42.63600
O  42.99600 45.07500 42.10600
O  43.63900 46.39700 43.85500
C  42.43200 45.87200 44.61200
H  49.31000 41.14600 42.03100
H  53.95600 45.41600 42.73200
H  49.79000 50.30700 42.75100
H  44.91300 43.36200 42.42900
H  46.74600 41.43100 41.35300
H  45.50800 42.02800 43.85600
H  47.23100 41.68000 44.15700
H  46.23100 40.45600 43.33100
H  44.69100 44.21000 40.16000
H  44.26900 42.58700 40.43000
H  45.67200 41.81700 38.76000
H  47.07500 42.66500 39.27700
H  51.88300 40.01800 41.47200
H  50.91600 40.06300 43.07600
H  52.62800 40.01200 43.06600
H  55.64700 44.03100 42.51700
H  56.20300 43.13500 43.87400
H  54.87700 44.16700 44.16200
H  53.88800 47.77400 41.86600
H  52.54500 49.94100 43.12700
H  55.20000 48.10100 43.80400
H  53.83500 47.64900 44.76800
H  54.02600 49.22800 44.52600
H  51.81600 50.50900 40.72100
H  52.48000 48.93300 40.18300
H  53.67500 51.45900 40.38800
H  54.39100 49.97400 39.78400
H  54.51700 50.26200 41.53900
H  47.18200 51.12000 43.56900
H  45.89900 51.16900 42.65600
H  47.59500 51.38900 41.88300
H  44.53300 46.49200 40.75400
H  41.71400 45.24900 44.08000
H  41.85900 46.72600 44.97200
H  42.79400 45.31600 45.47700
Mg 47.91700 36.11600 27.87100
C  46.29000 34.29000 30.26200
C  48.05600 38.78600 29.77300
C  49.51600 37.72400 25.28900
C  47.78400 33.15900 25.77300
N  47.21100 36.46600 29.77500
C  46.66600 35.58300 30.67500
C  46.54200 36.18800 32.07400
C  46.98700 37.64700 31.83700
C  47.40800 37.67400 30.37400
C  45.74000 38.60700 32.04300
C  47.36300 35.42900 33.17500
C  48.79200 36.00200 33.67300
H  48.81700 36.79600 34.93500
N  48.77600 37.95600 27.58100
C  48.68700 38.93800 28.55200
C  49.43700 40.14100 28.09000
C  49.91900 39.83500 26.73400
C  49.40300 38.42400 26.49100
C  49.62100 41.31200 28.95300
C  50.72400 40.68900 25.75500
O  51.14000 40.21300 24.68100
C  51.07200 42.06300 26.13200
N  48.57100 35.51800 25.85600
C  49.17300 36.39300 25.00500
C  49.66400 35.69000 23.65700
C  49.01200 34.33500 23.85900
C  48.34800 34.31300 25.22600
C  49.14300 36.30800 22.40100
C  50.00100 33.13600 23.80200
C  49.72400 32.12100 22.64700
N  47.08400 34.20400 27.83200
C  47.11100 33.15400 26.97300
C  46.25100 32.16200 27.49300
C  45.86000 32.58200 28.71700
C  46.45700 33.80400 28.97100
C  46.07700 30.74500 26.92800
C  45.16900 32.23300 29.95400
O  44.44800 31.18500 30.17800
C  45.44000 33.26200 31.01000
C  46.06300 32.64600 32.23200
O  47.20900 32.32400 32.37800
O  45.09800 32.43500 33.16000
C  45.52300 32.04200 34.55600
H  48.08200 39.66400 30.42200
H  49.91200 38.35400 24.48900
H  47.62200 32.25800 25.17800
H  45.47800 36.14600 32.30800
H  47.77900 38.07000 32.45500
H  45.57800 38.82800 33.09800
H  44.92300 38.33400 31.37600
H  46.01600 39.58900 31.65800
H  47.73200 34.44300 32.89300
H  46.71700 35.13100 34.00100
H  49.29100 36.52000 32.85400
H  49.26500 35.07400 33.99300
H  50.57800 41.79900 28.76600
H  49.44300 41.03300 29.99100
H  48.81000 41.96900 28.64100
H  50.21600 42.70700 26.33400
H  51.66200 42.44600 25.30000
H  51.74300 42.08400 26.99100
H  50.75200 35.65400 23.60200
H  48.18500 34.11900 23.18200
H  49.83000 37.12600 22.18400
H  48.18800 36.81900 22.52600
H  49.19500 35.61400 21.56200
H  50.11500 32.57700 24.73100
H  50.99500 33.53200 23.59000
H  50.30400 31.20000 22.59300
H  49.76400 32.51000 21.63000
H  48.69700 31.77000 22.54500
H  45.85200 30.89300 25.87200
H  45.32300 30.20600 27.50200
H  47.05300 30.25900 26.92400
H  44.46300 33.70300 31.20600
H  46.59200 31.84400 34.62700
H  44.96200 31.17500 34.90400
H  45.23900 32.90600 35.15600

