158

Mg 17.02100 -1.86100 28.42500
C  16.13900 0.05000 31.16100
C  19.08900 -3.80500 30.51700
C  18.25500 -3.52700 25.74100
C  15.22800 0.17900 26.44900
N  17.52200 -1.85000 30.68100
C  16.99100 -1.00900 31.61200
C  17.48200 -1.38100 33.00000
C  18.59900 -2.51400 32.71700
C  18.38700 -2.74800 31.18900
C  20.00600 -2.11400 33.12200
C  16.30800 -1.82500 33.83500
C  16.38800 -1.73000 35.38400
H  17.77800 -1.84500 36.09500
N  18.27200 -3.58300 28.18500
C  19.10300 -4.13500 29.21600
C  19.89400 -5.16100 28.63200
C  19.61500 -5.22400 27.21300
C  18.69800 -4.08800 26.99600
C  20.76900 -6.05700 29.42100
C  20.20900 -6.05300 26.08900
O  19.91200 -5.86300 24.90100
C  21.12200 -7.16600 26.46400
N  16.90200 -1.63200 26.47200
C  17.38600 -2.48600 25.53100
C  17.17700 -1.87400 24.15300
C  16.00600 -0.84900 24.42500
C  16.01500 -0.78700 25.86900
C  18.47600 -1.33800 23.45000
C  14.56300 -1.13800 23.75600
C  14.28800 -0.11200 22.64700
N  15.92800 -0.18000 28.73200
C  15.21600 0.52600 27.77300
C  14.48500 1.53300 28.43800
C  14.77900 1.37000 29.80100
C  15.70500 0.31000 29.86500
C  13.72800 2.57600 27.71800
C  14.62700 1.96000 31.09600
O  13.88900 2.81600 31.52400
C  15.56600 1.16200 32.05200
C  16.57100 1.97400 32.66700
O  17.50400 2.49400 32.12900
O  16.40000 1.92200 34.04200
C  17.35100 2.59800 34.93300
H  19.74500 -4.25100 31.26700
H  18.64300 -4.05000 24.86400
H  14.51500 0.70800 25.81300
H  17.89900 -0.51100 33.50700
H  18.41000 -3.40600 33.31400
H  20.31000 -2.70100 33.98900
H  20.12600 -1.07100 33.41400
H  20.68000 -2.37800 32.30700
H  16.13300 -2.86800 33.57200
H  15.46600 -1.31300 33.37000
H  15.77200 -2.51700 35.81900
H  15.87100 -0.81700 35.68100
H  21.07900 -5.54100 30.33000
H  21.72200 -6.29100 28.94800
H  20.28700 -6.98300 29.73500
H  22.06300 -6.79900 26.87300
H  21.41600 -7.80000 25.62800
H  20.69200 -7.80000 27.23900
H  16.84600 -2.68600 23.50600
H  16.40200 0.09200 24.04100
H  19.35400 -1.39700 24.09300
H  18.29500 -0.27900 23.26500
H  18.70500 -1.90000 22.54500
H  13.68500 -1.15500 24.40200
H  14.60400 -2.15100 23.35400
H  14.96100 -0.33200 21.81900
H  14.45400 0.92400 22.94500
H  13.24900 -0.24400 22.34700
H  12.98000 2.04100 27.13200
H  14.27600 3.24000 27.05100
H  13.28100 3.08500 28.57200
H  14.89400 0.72400 32.79000
H  16.71600 2.89500 35.76800
H  17.79300 3.41100 34.35600
H  18.12900 1.90000 35.24100
Mg 47.49700 34.34400 27.63700
C  45.52100 32.76300 30.12100
C  47.75900 37.04500 29.81700
C  48.98400 35.91400 25.07000
C  46.56600 31.81700 25.45700
N  46.86900 34.72000 29.76600
C  46.18800 33.86700 30.60700
C  46.23400 34.41700 32.09800
C  46.39600 35.93800 31.80400
C  47.10700 35.92000 30.40500
C  45.07800 36.73000 31.72400
C  47.51400 33.88400 32.80700
C  47.38900 33.73400 34.30200
H  46.26000 34.56000 34.98500
N  48.28300 36.22100 27.42400
C  48.39800 37.13700 28.50100
C  49.26700 38.26100 28.03700
C  49.47600 38.00000 26.64000
C  48.98000 36.66800 26.29900
C  49.70100 39.35100 29.02400
C  50.20400 38.89700 25.66200
O  50.46300 38.44000 24.50800
C  50.70800 40.28500 26.04200
N  47.89300 33.83700 25.53000
C  48.50100 34.66700 24.71500
C  48.27700 34.27200 23.22300
C  47.78200 32.77600 23.39000
C  47.36300 32.78300 24.84300
C  47.14000 35.22700 22.54400
C  48.88100 31.70700 23.06000
C  50.07700 31.56200 24.00400
N  46.31000 32.63200 27.69600
C  46.04800 31.69200 26.69400
C  45.34000 30.57400 27.32500
C  45.10200 31.03200 28.65300
C  45.67100 32.23100 28.83700
C  44.96900 29.28300 26.73800
C  44.34200 30.62700 29.84500
O  43.72800 29.58700 30.01800
C  44.40700 31.85000 30.82100
C  44.52600 31.47200 32.23900
O  45.56300 31.28500 32.77600
O  43.28400 31.63900 32.84100
C  43.25600 31.51300 34.32400
H  47.69900 37.90700 30.48500
H  49.42600 36.33200 24.16300
H  46.25700 30.92500 24.90800
H  45.27400 34.22900 32.58000
H  46.94500 36.50400 32.55600
H  44.58000 36.59900 30.76300
H  45.16500 37.74000 32.12400
H  44.42600 36.20800 32.42400
H  48.38800 34.49900 32.59300
H  47.57300 32.92700 32.28800
H  48.32100 33.88200 34.84800
H  47.16400 32.67300 34.40700
H  50.75500 39.62900 29.02600
H  49.47000 38.97100 30.01900
H  49.06000 40.22900 28.94800
H  49.90300 40.80600 26.56100
H  50.95700 40.75100 25.08900
H  51.49000 40.10900 26.78100
H  49.24100 34.39500 22.72800
H  46.94500 32.53200 22.73600
H  46.82300 36.02400 23.21700
H  46.28200 34.62400 22.24900
H  47.56600 35.61100 21.61700
H  49.14500 31.91500 22.02300
H  48.40600 30.72800 23.00300
H  50.87800 31.93700 23.36600
H  50.06400 30.48900 24.19600
H  50.13300 32.12100 24.93800
H  45.76200 28.94300 26.07100
H  44.01600 29.34300 26.21200
H  45.00600 28.51400 27.50900
H  43.50600 32.44400 30.66900
H  43.83100 30.61900 34.56500
H  42.24300 31.34100 34.68700
H  43.57400 32.43200 34.81600

