158

Mg 1.05400 8.17500 26.23100
C  1.92500 9.91700 29.18300
C  1.42200 5.20500 28.19800
C  0.63100 6.42100 23.46800
C  1.29100 11.11700 24.45000
N  1.57800 7.67000 28.37700
C  1.78800 8.56200 29.39600
C  1.75500 7.86300 30.77100
C  2.00200 6.37600 30.40200
C  1.61900 6.37600 28.93000
C  3.44000 5.96500 30.69000
C  0.34700 8.19500 31.47900
C  0.27500 8.03500 32.99200
H  1.48300 7.54800 33.80900
N  0.84000 6.13000 25.94100
C  0.99500 5.06900 26.79400
C  0.69000 3.84300 26.13300
C  0.25300 4.16400 24.83100
C  0.56300 5.61000 24.68100
C  0.67800 2.54000 26.73100
C  -0.26400 3.21300 23.64400
O  -0.42000 3.54400 22.47800
C  -0.66000 1.78500 23.98100
N  1.11600 8.69700 24.21100
C  0.81800 7.82000 23.26200
C  0.86700 8.54900 21.87000
C  0.63600 10.06500 22.29900
C  0.95800 9.95600 23.76600
C  2.21300 8.38400 21.08100
C  -0.85800 10.46600 22.14800
C  -1.28600 11.56700 21.14200
N  1.48600 10.17000 26.66100
C  1.45800 11.29700 25.80400
C  1.63400 12.51600 26.58800
C  1.85400 12.02000 27.91700
C  1.82900 10.57700 27.90200
C  1.36200 13.94400 26.14300
C  2.19500 12.36600 29.21700
O  2.48100 13.46600 29.56700
C  2.01400 11.09100 30.13600
C  3.09400 10.92800 31.09300
O  4.27100 10.96000 30.71900
O  2.66600 10.90100 32.35300
C  3.78400 11.18400 33.25000
H  1.62200 4.30200 28.77900
H  0.37000 5.89800 22.54600
H  1.16400 12.04800 23.89200
H  2.64000 8.24700 31.28000
H  1.34800 5.64600 30.87900
H  4.05600 6.63100 31.29500
H  3.86900 5.81600 29.70000
H  3.41600 4.95900 31.10800
H  -0.47300 7.79200 30.88500
H  0.19600 9.24600 31.23400
H  -0.59700 7.42400 33.22600
H  0.02700 8.96700 33.50000
H  1.25200 2.44900 27.65300
H  1.15700 1.80500 26.08500
H  -0.36400 2.22500 26.79800
H  -1.34200 1.72000 24.83000
H  0.25300 1.22900 24.19700
H  -1.14000 1.34300 23.10800
H  0.07300 8.18300 21.21800
H  1.29800 10.71200 21.72400
H  2.92600 8.03900 21.83000
H  2.60600 9.34700 20.75400
H  2.10500 7.60000 20.33100
H  -1.24200 10.50600 23.16700
H  -1.36300 9.59700 21.72600
H  -0.46900 11.95800 20.53600
H  -1.68200 12.38100 21.74800
H  -1.96600 11.03200 20.47900
H  1.31200 14.12300 25.06900
H  2.28400 14.42100 26.47500
H  0.54600 14.42600 26.68200
H  1.05100 11.37900 30.55700
H  4.57300 10.43400 33.19700
H  3.39300 11.12800 34.26600
H  4.13600 12.17900 32.98100
Mg 6.90100 54.12300 40.91000
C  6.55400 50.53000 40.52200
C  10.24100 53.61700 40.09900
C  7.20600 57.38800 40.25800
C  3.52400 54.34300 41.18400
N  8.19700 52.27600 40.35700
C  7.83300 50.95100 40.18900
C  9.08300 50.10200 39.72500
C  10.25900 51.06500 40.08700
C  9.56300 52.47200 40.15000
C  11.08400 50.73000 41.36600
C  8.98500 49.55200 38.26000
C  8.14400 50.25500 37.14900
H  7.25100 49.38100 36.13100
N  8.58800 55.40700 40.42700
C  9.87100 54.99400 40.17600
C  10.64700 56.18400 39.98400
C  9.77800 57.30100 39.96100
C  8.48900 56.74400 40.28800
C  12.17300 56.08200 39.76500
C  10.15000 58.77600 39.63700
O  11.30700 59.03800 39.36800
C  9.29100 59.86100 39.62100
N  5.56900 55.54900 40.55200
C  5.92900 56.89300 40.47600
C  4.69100 57.74500 40.59600
C  3.64600 56.90800 41.30200
C  4.27700 55.51700 41.04300
C  4.95900 59.19700 41.26100
C  2.24000 57.08600 40.72700
C  1.15800 57.41100 41.71200
N  5.34000 52.70100 40.89200
C  3.94200 52.97600 41.04700
C  3.22900 51.73900 41.18900
C  4.26100 50.76500 41.05000
C  5.47500 51.36700 40.83200
C  1.79600 51.58000 41.50600
C  4.49400 49.28600 41.06700
O  3.77400 48.38000 41.31000
C  5.99900 49.14300 40.65600
C  5.83400 48.43200 39.34700
O  5.45600 49.03000 38.32200
O  5.98300 47.10200 39.48300
C  5.67600 46.29800 38.29400
H  11.30800 53.44000 39.94200
H  7.28800 58.42700 39.93200
H  2.45500 54.40900 41.39300
H  9.09700 49.19000 40.32200
H  10.96800 51.12100 39.26100
H  10.67000 49.86500 41.88300
H  10.96500 51.61900 41.98600
H  12.10700 50.47900 41.08400
H  8.70400 48.50100 38.32800
H  9.98000 49.49300 37.81900
H  8.82200 50.83700 36.52600
H  7.48800 51.01000 37.58200
H  12.73400 56.69600 40.46900
H  12.44200 56.30800 38.73300
H  12.47900 55.03600 39.77100
H  9.77100 60.79600 39.33300
H  8.80700 60.02500 40.58300
H  8.54500 59.79000 38.82900
H  4.44700 57.91500 39.54800
H  3.64600 57.16300 42.36200
H  4.16400 59.32100 41.99600
H  5.02200 59.93500 40.46100
H  5.84400 59.26900 41.89300
H  1.93800 56.19400 40.17700
H  2.12100 57.89300 40.00400
H  0.75200 58.42200 41.71800
H  1.48400 57.20300 42.73200
H  0.32400 56.74900 41.48100
H  1.27400 51.76200 40.56600
H  1.49800 52.29200 42.27500
H  1.46300 50.57600 41.76900
H  6.53800 48.60800 41.43700
H  6.43600 46.40800 37.52000
H  4.74900 46.51500 37.76300
H  5.61100 45.27300 38.66000

