158

Mg 44.12000 3.75500 48.11300
C  42.02400 6.47500 47.43300
C  41.29700 1.73500 47.63300
C  46.16700 1.13900 47.90400
C  46.83300 5.86700 47.67300
N  41.87600 4.06900 47.78600
C  41.27400 5.26600 47.53900
C  39.77300 5.11300 47.26800
C  39.48600 3.58500 47.41600
C  40.99400 3.07100 47.61200
C  38.66700 3.13600 48.63500
C  39.01100 5.85600 46.02700
C  39.58600 5.65200 44.61100
H  39.65600 6.83000 43.61600
N  43.81000 1.73200 47.83700
C  42.54600 1.09100 47.77800
C  42.74900 -0.33200 47.64700
C  44.18700 -0.53100 47.78000
C  44.83100 0.81500 47.83000
C  41.59400 -1.31100 47.60500
C  44.86000 -1.86100 47.82300
O  44.28100 -2.93800 47.92100
C  46.28800 -1.95600 47.80400
N  46.15200 3.58200 47.91500
C  46.81300 2.38700 47.87800
C  48.36100 2.50400 47.75800
C  48.56300 4.02100 47.64300
C  47.13600 4.53200 47.84000
C  49.21700 1.80600 48.92100
C  49.17700 4.41300 46.31100
C  50.54200 5.15700 46.39100
N  44.40300 5.79100 47.78600
C  45.59700 6.49300 47.64300
C  45.30100 7.87300 47.34100
C  43.91800 7.92600 47.31500
C  43.42000 6.59200 47.46000
C  46.29900 8.98000 47.09700
C  42.73000 8.86700 47.18200
O  42.60700 10.12600 47.12200
C  41.41100 7.96500 47.29600
C  40.58000 8.27000 48.48300
O  40.61300 7.54100 49.53200
O  39.68000 9.21000 48.19000
C  38.49900 9.35600 49.15100
H  40.42300 1.10900 47.43800
H  46.86600 0.33300 47.67100
H  47.75000 6.45700 47.62200
H  39.34300 5.63400 48.12400
H  39.09900 3.28800 46.44100
H  39.20100 2.34200 49.15800
H  37.71900 2.65500 48.39400
H  38.39400 3.89600 49.36600
H  38.72900 6.87000 46.31100
H  38.00900 5.42500 46.03700
H  39.12800 4.76200 44.17900
H  40.62300 5.34000 44.73500
H  41.52400 -1.70400 46.59100
H  40.63200 -0.86200 47.85400
H  41.67400 -2.21800 48.20400
H  46.75300 -1.35300 48.58400
H  46.61100 -1.44300 46.89800
H  46.41400 -3.03800 47.82100
H  48.71100 1.99700 46.85900
H  49.16800 4.42800 48.45300
H  48.44800 1.37400 49.56200
H  49.91400 2.43500 49.47500
H  49.78900 0.97800 48.50300
H  48.51300 5.16700 45.88900
H  49.27300 3.49900 45.72500
H  50.93400 5.08000 47.40500
H  50.43900 6.18900 46.05500
H  51.18900 4.63200 45.68900
H  46.70900 9.16000 48.09000
H  45.80200 9.90500 46.80500
H  47.07500 8.67100 46.39600
H  40.79400 7.97800 46.39700
H  38.29100 10.42600 49.19200
H  38.68000 9.04300 50.18000
H  37.71500 8.82100 48.61700
Mg -2.23800 34.25500 26.34100
C  -3.94400 32.66500 28.94000
C  -0.75000 36.39000 28.59600
C  -1.06400 36.15300 23.72000
C  -4.16800 32.45400 24.08900
N  -2.37600 34.45500 28.51000
C  -3.10900 33.71900 29.39500
C  -2.77000 34.04800 30.84400
C  -1.81800 35.30600 30.70100
C  -1.72400 35.50400 29.14000
C  -2.33000 36.63300 31.41800
C  -1.93800 32.92700 31.52100
C  -1.66200 33.29900 33.00700
H  -2.32000 32.35500 34.06000
N  -0.93300 35.99700 26.12500
C  -0.35100 36.67000 27.23400
C  0.59600 37.60900 26.68000
C  0.51700 37.56800 25.24500
C  -0.59200 36.55400 24.97700
C  1.64900 38.33000 27.59200
C  1.37200 38.24300 24.21700
O  1.12000 38.09800 23.05700
C  2.61000 39.05500 24.57700
N  -2.58300 34.41300 24.25800
C  -1.94200 35.18200 23.35100
C  -2.40500 34.87500 21.87800
C  -3.34300 33.67600 22.07300
C  -3.34500 33.47000 23.60000
C  -2.96400 36.09700 21.08400
C  -2.90800 32.36000 21.30200
C  -2.05500 31.34400 22.01400
N  -3.76700 32.87900 26.49200
C  -4.39500 32.14200 25.45700
C  -5.23700 31.12000 26.00700
C  -5.14400 31.36900 27.39300
C  -4.20400 32.34900 27.62500
C  -6.12400 30.07600 25.32500
C  -5.60700 30.88500 28.60000
O  -6.38600 29.93700 28.79700
C  -4.86600 31.70400 29.78500
C  -5.76900 32.40100 30.75300
O  -6.29300 33.52500 30.60900
O  -6.08000 31.49600 31.69400
C  -7.09700 31.87300 32.65700
H  -0.24000 36.98000 29.36000
H  -0.65900 36.68000 22.85400
H  -4.65700 32.00600 23.22200
H  -3.68500 34.31000 31.37500
H  -0.85100 35.02300 31.11500
H  -2.52100 37.46500 30.74100
H  -1.71600 36.87100 32.28600
H  -3.31600 36.38000 31.80700
H  -1.04800 32.86900 30.89500
H  -2.44900 31.96500 31.50800
H  -1.98300 34.30200 33.29100
H  -0.58000 33.27000 33.13500
H  1.63200 39.41900 27.56400
H  2.59600 38.02400 27.14700
H  1.70000 38.10500 28.65700
H  2.32700 39.96000 25.11500
H  2.84200 39.44100 23.58400
H  3.42300 38.44900 24.97800
H  -1.45600 34.67100 21.38200
H  -4.36700 33.94400 21.81600
H  -3.77400 35.80300 20.41700
H  -2.23900 36.52500 20.39200
H  -3.29600 36.89000 21.75500
H  -2.33600 32.74200 20.45700
H  -3.82200 31.99700 20.83300
H  -2.63100 30.47100 22.32100
H  -1.63300 31.86700 22.87100
H  -1.24600 30.93800 21.40700
H  -5.55600 29.70900 24.46900
H  -7.01000 30.65400 25.06200
H  -6.35200 29.28400 26.03800
H  -4.24500 30.98300 30.31800
H  -6.64800 32.53700 33.39500
H  -7.55600 30.98700 33.09800
H  -7.89200 32.40100 32.13100

