158

Mg 1.70300 -1.12900 43.88200
C  4.99400 0.02300 43.28600
C  0.60100 1.88500 42.75800
C  -1.38800 -2.47900 43.90400
C  3.11300 -4.24200 44.73600
N  2.72300 0.72800 43.19700
C  4.06900 0.95300 42.99700
C  4.33100 2.41400 42.64700
C  2.87600 3.01400 42.68300
C  1.94900 1.78600 42.82900
C  2.59300 4.14100 43.80100
C  5.02800 2.49300 41.23900
C  5.81100 3.70700 40.86500
H  5.52100 4.52200 39.55300
N  -0.14400 -0.32500 43.47900
C  -0.43800 0.93800 43.04300
C  -1.88900 1.08500 42.90200
C  -2.43900 -0.20900 43.19200
C  -1.27900 -1.06900 43.59900
C  -2.54200 2.35200 42.57000
C  -3.92000 -0.56900 43.19600
O  -4.73400 0.31900 42.76400
C  -4.53500 -1.84400 43.78400
N  0.90800 -3.11900 44.17800
C  -0.39800 -3.36200 44.26600
C  -0.68500 -4.85600 44.70200
C  0.78700 -5.39500 44.95100
C  1.68800 -4.20000 44.62200
C  -1.72500 -5.02300 45.83300
C  1.32200 -6.50900 44.08300
C  1.68500 -7.89200 44.77500
N  3.59400 -1.98400 43.99400
C  3.97600 -3.22600 44.48200
C  5.40900 -3.24700 44.51200
C  5.80900 -2.02000 44.06300
C  4.74500 -1.30500 43.70300
C  6.17900 -4.43300 44.85400
C  6.95000 -1.15600 43.88900
O  8.15700 -1.32000 44.05800
C  6.48400 0.16800 43.24800
C  7.00000 1.25200 44.14100
O  6.62400 1.39500 45.29100
O  7.86400 2.13800 43.53700
C  8.32100 3.31200 44.39700
H  0.22400 2.83500 42.37400
H  -2.42400 -2.72000 44.15100
H  3.60800 -5.14800 45.09300
H  4.93000 2.94500 43.38700
H  2.71600 3.47800 41.71000
H  3.49400 4.36200 44.37400
H  1.89600 3.82400 44.57700
H  2.31900 5.09100 43.34100
H  4.23200 2.49500 40.49400
H  5.57100 1.57600 41.01200
H  6.83800 3.44100 40.61600
H  5.87000 4.39100 41.71100
H  -1.82200 3.14700 42.37600
H  -3.20800 2.55000 43.41000
H  -3.25700 2.24000 41.75500
H  -5.59500 -1.59600 43.72600
H  -4.20600 -2.09200 44.79300
H  -4.30000 -2.72500 43.18600
H  -0.96900 -5.52400 43.88900
H  1.02300 -5.56100 46.00300
H  -2.26000 -4.09600 46.03800
H  -1.17500 -5.40300 46.69400
H  -2.57800 -5.67700 45.64600
H  2.15100 -6.33000 43.39800
H  0.54700 -6.83800 43.39100
H  0.79400 -8.46000 45.04300
H  2.23700 -7.74800 45.70300
H  2.31600 -8.53200 44.15800
H  5.97700 -5.26100 44.17500
H  6.05500 -4.71100 45.90100
H  7.23800 -4.17600 44.84000
H  6.89500 0.23200 42.24000
H  8.52900 3.13900 45.45300
H  7.58500 4.10200 44.54600
H  9.18600 3.77500 43.92200
Mg 48.03700 16.41100 28.68200
C  46.09400 16.16900 31.64100
C  50.33500 18.17300 30.39600
C  49.54800 16.70600 25.74200
C  45.18400 14.83700 27.06500
N  48.14300 17.11300 30.73500
C  47.31900 16.83700 31.78800
C  47.82400 17.32500 33.16300
C  49.04100 18.22000 32.70000
C  49.20900 17.82900 31.16300
C  48.98600 19.73000 33.03600
C  48.11000 16.03400 34.06800
C  47.94200 16.14700 35.61600
H  47.49400 17.50000 36.22900
N  49.76700 17.20900 28.13200
C  50.62200 17.90800 29.00200
C  51.90100 18.15300 28.32900
C  51.72900 17.70500 26.95700
C  50.37200 17.19600 26.91400
C  53.18400 18.74000 29.06300
C  52.69200 17.72700 25.87800
O  52.38100 17.26400 24.78400
C  54.06700 18.19600 26.07400
N  47.45000 15.75900 26.75600
C  48.30000 16.12200 25.69100
C  47.64200 15.71600 24.33900
C  46.34500 14.96800 24.75400
C  46.31400 15.19000 26.26600
C  47.52200 16.82600 23.35800
C  46.25700 13.41600 24.50500
C  46.04600 12.95600 23.06400
N  46.14900 15.53300 29.29100
C  45.12000 14.98200 28.45000
C  43.94600 14.78300 29.25800
C  44.30100 15.18000 30.53000
C  45.59500 15.67300 30.47500
C  42.57700 14.25700 28.69000
C  43.75600 15.28900 31.83000
O  42.66500 14.99800 32.38400
C  45.01900 15.77800 32.64600
C  44.57700 16.96100 33.36900
O  44.13800 18.00700 32.87600
O  44.45100 16.60700 34.70700
C  43.50300 17.24100 35.66300
H  51.07600 18.75000 30.95400
H  50.03200 16.71100 24.76300
H  44.34000 14.51200 26.45300
H  46.96800 17.86600 33.56700
H  49.94000 17.78200 33.13400
H  48.86700 20.44100 32.21800
H  49.86200 19.96600 33.64000
H  48.08400 19.89000 33.62600
H  49.13100 15.73500 33.83100
H  47.48500 15.23200 33.67500
H  48.91400 15.91600 36.05300
H  47.17400 15.38000 35.71100
H  53.93800 17.95900 29.15300
H  53.05400 19.05700 30.09700
H  53.47100 19.61900 28.48700
H  54.61500 18.04400 25.14400
H  54.38500 17.56100 26.90200
H  54.01700 19.25700 26.32000
H  48.33700 15.04000 23.84100
H  45.49100 15.51700 24.35800
H  48.21200 16.62800 22.53800
H  47.89800 17.71900 23.85800
H  46.48900 17.00200 23.06000
H  45.77000 12.85400 25.30200
H  47.26700 13.07200 24.72700
H  46.49000 11.96900 22.93000
H  46.47100 13.66400 22.35300
H  44.96200 12.93300 22.95200
H  42.20000 14.77100 27.80600
H  41.87000 14.45100 29.49800
H  42.68400 13.19100 28.48900
H  45.25500 14.99700 33.36700
H  42.80500 16.43800 35.89800
H  42.88800 17.98100 35.15000
H  43.90800 17.60100 36.60900

