158

Mg -1.92900 34.22800 27.42600
C  -3.72400 32.41000 29.76200
C  -1.03600 36.34900 30.01800
C  -0.63000 36.32600 25.15600
C  -3.57700 32.37600 24.94300
N  -2.64800 34.53500 29.58500
C  -3.21900 33.55800 30.31300
C  -2.96600 33.80700 31.77500
C  -2.38100 35.30800 31.80100
C  -1.97400 35.43800 30.38700
C  -3.29500 36.39800 32.34200
C  -1.99000 32.74200 32.39500
C  -2.46700 31.74100 33.55900
H  -1.66700 31.92000 34.90100
N  -0.91100 35.98500 27.59500
C  -0.50900 36.56000 28.76400
C  0.51400 37.50800 28.37700
C  0.63900 37.61000 26.95900
C  -0.28500 36.59100 26.47200
C  1.26800 38.21200 29.49400
C  1.46800 38.51200 26.05700
O  1.43300 38.50000 24.80500
C  2.49900 39.33100 26.65500
N  -1.97200 34.23000 25.35000
C  -1.49800 35.31100 24.63500
C  -2.17000 35.39900 23.24700
C  -2.91800 33.98100 23.12400
C  -2.77100 33.49300 24.55600
C  -3.17000 36.63000 23.06300
C  -2.42300 32.89200 22.14300
C  -1.39700 31.86200 22.47700
N  -3.21700 32.51800 27.35900
C  -3.80000 31.90900 26.26800
C  -4.67300 30.80900 26.66700
C  -4.71200 30.90100 28.08200
C  -3.79700 31.98200 28.38800
C  -5.45000 29.99600 25.66000
C  -5.19300 30.38800 29.31400
O  -5.94500 29.40400 29.56900
C  -4.50500 31.27700 30.46500
C  -5.64100 31.66200 31.21400
O  -6.34800 32.60400 30.93200
O  -5.79700 30.95700 32.33600
C  -7.08800 31.21200 33.09400
H  -0.69700 36.99100 30.83300
H  -0.22500 37.03100 24.42800
H  -4.14100 31.88100 24.14900
H  -3.94400 33.80100 32.25700
H  -1.47600 35.35900 32.40700
H  -2.90500 36.71400 33.31000
H  -4.32300 36.03900 32.40400
H  -3.30500 37.17300 31.57600
H  -1.11700 33.23000 32.83100
H  -1.62800 32.00100 31.68300
H  -2.25400 30.74900 33.16200
H  -3.53400 31.84600 33.75600
H  1.41300 37.60200 30.38600
H  0.72600 39.13800 29.68100
H  2.30000 38.34300 29.16700
H  1.88000 39.95000 27.30500
H  3.02700 39.99100 25.96700
H  3.23600 38.85400 27.30100
H  -1.38300 35.49900 22.50000
H  -3.97800 34.07100 22.88800
H  -2.95000 37.36600 23.83700
H  -4.20600 36.37400 23.28300
H  -3.19700 37.19200 22.12900
H  -2.00100 33.38500 21.26600
H  -3.31200 32.34700 21.82500
H  -1.04200 32.09100 23.48200
H  -0.55000 31.86300 21.79100
H  -1.83500 30.86400 22.47600
H  -5.98500 29.25800 26.25800
H  -4.74700 29.44200 25.03900
H  -6.24500 30.45000 25.06800
H  -3.98300 30.60800 31.14900
H  -7.96200 31.24600 32.44300
H  -6.97900 32.05400 33.77800
H  -7.18300 30.30100 33.68500
Mg -5.71400 25.21000 26.00000
C  -4.45700 26.44100 28.91900
C  -7.79900 23.13300 27.83900
C  -6.73700 23.63600 23.18100
C  -3.28700 27.06100 24.13000
N  -5.98100 24.81800 28.11400
C  -5.48400 25.53900 29.12400
C  -6.06100 25.20000 30.51300
C  -6.95900 23.90100 30.16200
C  -6.85700 23.89100 28.63100
C  -6.45400 22.48300 30.77200
C  -6.89500 26.42400 30.98900
C  -6.66800 26.76400 32.42200
H  -6.05000 25.64900 33.26700
N  -7.18800 23.70900 25.56700
C  -8.02200 23.05700 26.44000
C  -8.94800 22.18200 25.76500
C  -8.53900 22.23300 24.41100
C  -7.46000 23.27200 24.32500
C  -10.07600 21.39900 26.38000
C  -9.02000 21.38900 23.22800
O  -8.52000 21.44800 22.09900
C  -10.14000 20.44700 23.39500
N  -5.16900 25.37600 23.94700
C  -5.70100 24.57000 22.99200
C  -5.08200 24.83700 21.62500
C  -4.22000 26.14600 21.89200
C  -4.19100 26.20000 23.43900
C  -4.28400 23.62200 21.09000
C  -4.73400 27.46200 21.22500
C  -3.61800 28.40200 20.62700
N  -4.13300 26.43700 26.41300
C  -3.21500 27.11100 25.56800
C  -2.34100 27.86800 26.40800
C  -2.77800 27.70000 27.76000
C  -3.88700 26.84700 27.70200
C  -1.19100 28.66000 25.91900
C  -2.48500 27.96500 29.16500
O  -1.54000 28.58600 29.61200
C  -3.62800 27.17100 30.00700
C  -2.85200 26.28600 30.93700
O  -2.57900 25.11400 30.83400
O  -2.58300 27.08200 32.11800
C  -1.84500 26.43000 33.20500
H  -8.50600 22.50200 28.38100
H  -7.04900 23.15100 22.25400
H  -2.61800 27.63500 23.48500
H  -5.21300 24.94500 31.14900
H  -8.02700 24.01100 30.34900
H  -5.43600 22.57900 31.14900
H  -6.54100 21.71400 30.00400
H  -7.15100 22.28700 31.58700
H  -7.95800 26.26800 30.80100
H  -6.60100 27.29600 30.40500
H  -7.61900 27.00900 32.89600
H  -6.01800 27.64000 32.42500
H  -10.31000 21.56800 27.43100
H  -9.75700 20.35700 26.37400
H  -10.98900 21.48200 25.79100
H  -10.41500 20.09700 22.40000
H  -11.02100 20.94000 23.80700
H  -9.94300 19.65500 24.11700
H  -5.96900 25.07500 21.03800
H  -3.19900 25.83300 21.66900
H  -3.31200 23.88000 20.67100
H  -4.80700 23.13300 20.26800
H  -4.11200 22.89400 21.88200
H  -5.31100 28.06300 21.92700
H  -5.44500 27.25400 20.42500
H  -3.80500 29.38800 21.05200
H  -3.75000 28.45900 19.54700
H  -2.58200 28.15100 20.85600
H  -1.50400 29.57900 25.42300
H  -0.41000 28.11200 25.39000
H  -0.68500 29.04300 26.80500
H  -4.28900 27.76600 30.63700
H  -1.60500 25.37500 33.07300
H  -2.48800 26.56400 34.07500
H  -0.93700 26.97900 33.45600

