158

Mg 1.52700 -0.81600 43.58800
C  4.92600 0.06000 44.01200
C  0.99200 2.29100 42.29200
C  -1.54700 -1.90000 42.86900
C  2.53300 -4.15100 44.09000
N  2.91300 0.98400 43.02600
C  4.24800 1.19500 43.42000
C  4.69000 2.59100 43.07200
C  3.30100 3.31400 42.91100
C  2.29700 2.14500 42.63700
C  2.96300 4.21300 44.17700
C  5.56400 2.74700 41.78800
C  5.63100 1.72600 40.52500
H  5.45600 2.29300 39.09300
N  -0.05500 0.08100 42.68000
C  -0.15300 1.38300 42.23100
C  -1.57700 1.66100 41.84000
C  -2.28900 0.48000 42.05400
C  -1.29600 -0.50700 42.58800
C  -2.06000 2.97300 41.25300
C  -3.74000 0.30100 41.64600
O  -4.35400 1.20300 41.03800
C  -4.51100 -0.97900 41.90100
N  0.62000 -2.74300 43.48800
C  -0.68600 -2.92800 43.24800
C  -1.17600 -4.39900 43.40500
C  0.18400 -4.99000 43.85500
C  1.23200 -3.92600 43.69800
C  -2.42900 -4.53300 44.36200
C  0.54400 -6.28900 43.15000
C  0.95200 -7.39900 44.04100
N  3.29000 -1.85900 44.08900
C  3.55000 -3.21500 44.29000
C  4.90500 -3.39500 44.70000
C  5.55300 -2.16500 44.56200
C  4.49400 -1.29200 44.14100
C  5.56400 -4.70400 44.99700
C  6.77100 -1.38500 44.77000
O  7.88900 -1.80200 44.99200
C  6.40200 0.13100 44.46400
C  6.62400 0.96500 45.74800
O  5.69800 1.43900 46.35700
O  7.93800 1.10200 45.97600
C  8.20800 2.26700 46.80800
H  0.55500 3.26800 42.07600
H  -2.55800 -2.30500 42.79200
H  2.80600 -5.17200 44.36600
H  5.28100 3.03600 43.87300
H  3.31300 3.90800 41.99800
H  2.40700 3.61200 44.89800
H  2.36600 5.07900 43.89200
H  3.84200 4.56500 44.71600
H  6.54700 2.90900 42.23000
H  5.44400 3.68500 41.24600
H  4.97900 0.86200 40.65600
H  6.67100 1.40200 40.55900
H  -2.32400 3.04300 40.19800
H  -1.30400 3.74800 41.38100
H  -2.91200 3.25500 41.87200
H  -5.50300 -0.73500 41.52000
H  -4.47800 -1.28600 42.94600
H  -3.99800 -1.63000 41.19400
H  -1.40000 -4.68800 42.37800
H  0.10700 -5.18900 44.92300
H  -2.65600 -3.48400 44.55000
H  -2.15000 -5.09400 45.25400
H  -3.23800 -4.98400 43.78700
H  1.37900 -6.03800 42.49700
H  -0.27700 -6.54500 42.48000
H  0.84200 -7.12200 45.08900
H  1.86600 -7.94000 43.79600
H  0.12900 -8.10200 43.91000
H  6.50400 -4.75100 44.44700
H  4.92600 -5.53700 44.70100
H  5.68100 -4.72200 46.08100
H  7.11600 0.52900 43.74300
H  7.53000 2.27200 47.66100
H  8.02400 3.15700 46.20700
H  9.24000 2.32200 47.15500
Mg 6.84700 55.75000 41.00100
C  4.33600 53.19600 40.95500
C  9.02300 53.50200 39.59100
C  9.03700 58.33000 40.37100
C  4.35200 58.12600 41.74300
N  6.59000 53.59500 40.17200
C  5.48400 52.79100 40.28400
C  5.79500 51.49300 39.52300
C  7.39300 51.49300 39.24200
C  7.72600 52.95300 39.80100
C  8.14000 50.40200 39.89300
C  5.02200 51.51400 38.18200
C  4.51200 50.12900 37.72600
H  5.18200 49.62900 36.52200
N  8.81200 55.86900 40.22300
C  9.51200 54.85000 39.70800
C  10.83800 55.25200 39.55300
C  10.90200 56.67200 39.67300
C  9.54000 57.05400 40.07600
C  11.90900 54.37900 39.02500
C  12.07500 57.51100 39.35700
O  13.15000 57.08300 39.03900
C  11.99000 58.95300 39.35300
N  6.65300 57.97000 40.80400
C  7.73400 58.81100 40.72000
C  7.38300 60.24700 41.17600
C  5.92800 60.05400 41.67200
C  5.61800 58.59400 41.37200
C  8.23600 60.74900 42.29400
C  4.95500 61.15900 41.03700
C  3.81400 61.68900 41.95400
N  4.85800 55.71400 41.39300
C  3.97900 56.75000 41.72800
C  2.66900 56.21500 41.96200
C  2.82500 54.85800 41.71800
C  4.14200 54.60200 41.31300
C  1.45900 56.90000 42.39100
C  2.00800 53.63000 41.72100
O  0.80000 53.45000 41.95100
C  3.05600 52.47900 41.41900
C  2.45100 51.47400 40.49100
O  1.98800 51.71000 39.36900
O  2.61000 50.21300 41.01800
C  1.87100 49.09400 40.31200
H  9.75700 52.77100 39.24500
H  9.77100 59.12900 40.25300
H  3.64400 58.81300 42.21000
H  5.58700 50.68700 40.22700
H  7.54900 51.37600 38.16900
H  7.44600 49.66300 40.29300
H  8.68300 50.70500 40.78800
H  8.84800 50.00300 39.16600
H  5.67100 51.77500 37.34600
H  4.20300 52.21900 38.32000
H  3.42600 50.14500 37.64000
H  4.66300 49.38600 38.50900
H  11.67200 53.31700 38.96100
H  12.79000 54.44000 39.66400
H  12.24900 54.71600 38.04500
H  11.27100 59.28500 38.60400
H  12.93000 59.43600 39.08500
H  11.64900 59.28800 40.33200
H  7.38100 60.96300 40.35400
H  5.77200 60.05300 42.75100
H  7.65000 61.49700 42.82900
H  8.90200 61.33800 41.66500
H  8.88700 60.06200 42.83500
H  4.58400 60.68400 40.12900
H  5.64600 61.97100 40.81200
H  3.98300 62.75500 42.10600
H  3.64400 61.12900 42.87400
H  2.96300 61.59400 41.27900
H  1.09400 57.55300 41.59800
H  1.72400 57.46400 43.28500
H  0.63400 56.21600 42.59000
H  3.34200 51.96600 42.33700
H  2.11700 49.12100 39.25100
H  0.80900 49.07900 40.56100
H  2.20700 48.19200 40.82400

