158

Mg 8.52400 2.02800 27.58500
C  10.19800 0.96500 30.42800
C  6.93000 4.35900 29.56500
C  7.07300 3.09800 24.79400
C  10.16000 -0.46200 25.78000
N  8.60000 2.57800 29.80000
C  9.31800 2.00700 30.73700
C  9.06200 2.67600 32.14300
C  8.05800 3.79200 31.79400
C  7.81000 3.60600 30.28800
C  6.81700 3.99700 32.57100
C  10.28100 3.15900 32.93100
C  10.07700 4.25600 34.07500
H  10.52400 3.89700 35.46400
N  7.23500 3.50700 27.20300
C  6.67300 4.33400 28.20000
C  5.73000 5.17600 27.53500
C  5.83300 4.92300 26.08200
C  6.67400 3.74900 25.99000
C  4.73100 6.14400 28.11700
C  5.03400 5.51600 24.92500
O  5.25300 5.13800 23.78700
C  3.90400 6.60600 25.09500
N  8.60800 1.46300 25.58200
C  7.94600 2.08500 24.60100
C  8.19600 1.49400 23.26100
C  9.10600 0.27700 23.57900
C  9.34300 0.43700 25.03900
C  6.87600 1.08500 22.45300
C  10.37400 0.18200 22.69000
C  10.15300 -0.32200 21.34000
N  9.86300 0.56300 27.97500
C  10.39700 -0.42600 27.14200
C  11.23500 -1.31800 27.87900
C  11.23000 -0.76500 29.20000
C  10.33000 0.33100 29.20100
C  12.03300 -2.54600 27.32600
C  11.71900 -0.87700 30.58800
O  12.51300 -1.66300 31.07800
C  11.06400 0.19300 31.43600
C  10.23500 -0.34900 32.48100
O  9.16000 -0.95300 32.31900
O  10.80400 -0.25500 33.76200
C  9.91000 -0.81600 34.88300
H  6.47800 5.12400 30.20100
H  6.62800 3.40600 23.84600
H  10.70200 -1.20600 25.19300
H  8.51000 2.03300 32.82900
H  8.60400 4.73600 31.78400
H  5.99700 3.54700 32.01000
H  6.59500 5.05200 32.73100
H  6.87700 3.55500 33.56500
H  10.95100 3.57100 32.17600
H  10.79000 2.28900 33.34500
H  9.03400 4.51100 34.26400
H  10.55900 5.15600 33.69200
H  4.98600 7.07800 27.61700
H  4.95000 6.21800 29.18200
H  3.67500 5.89200 28.01700
H  3.42800 6.96500 24.18200
H  4.27800 7.56900 25.44100
H  3.14600 6.21300 25.77300
H  8.74000 2.26800 22.72000
H  8.55700 -0.66500 23.59400
H  6.00800 1.10000 23.11200
H  6.86000 0.06200 22.07800
H  6.79100 1.74200 21.58700
H  11.02300 -0.54600 23.17600
H  10.83000 1.17100 22.63700
H  10.20300 0.45500 20.57700
H  9.14200 -0.70700 21.47300
H  10.85600 -1.10400 21.05200
H  11.34500 -3.33200 27.01400
H  12.65800 -2.76300 28.19300
H  12.74100 -2.14500 26.60000
H  11.79200 0.85600 31.90400
H  9.57300 0.07300 35.41700
H  10.57400 -1.30200 35.59800
H  9.05100 -1.44100 34.63900
Mg 16.14600 51.16400 26.04900
C  18.36600 50.33600 28.61600
C  13.49200 51.24900 28.23900
C  13.96700 51.16000 23.32500
C  18.72200 50.35800 23.76300
N  15.93600 50.82100 28.12900
C  17.02700 50.69500 28.96300
C  16.67000 51.04800 30.38800
C  15.11400 50.90900 30.31600
C  14.79700 51.04900 28.81000
C  14.61300 49.64800 31.07800
C  17.21200 52.41400 30.95200
C  17.42900 52.48100 32.52600
H  16.56900 51.51900 33.43500
N  14.09200 51.37200 25.82300
C  13.18900 51.41100 26.91100
C  11.84700 51.42500 26.30400
C  11.95000 51.42200 24.86600
C  13.34900 51.34300 24.64500
C  10.65800 51.52200 27.22200
C  10.79300 51.35200 23.87900
O  11.00200 51.35900 22.64000
C  9.39200 51.13000 24.38700
N  16.32700 50.70300 23.85000
C  15.28900 50.97400 22.96800
C  15.82000 50.99200 21.55400
C  17.37300 50.94600 21.73600
C  17.48600 50.56600 23.17300
C  15.18500 49.79900 20.62800
C  18.18400 52.23100 21.32400
C  19.21400 52.08400 20.17100
N  18.14500 50.54800 26.15700
C  19.10100 50.33300 25.16600
C  20.35600 49.90600 25.80400
C  20.09300 49.97100 27.17800
C  18.74900 50.34900 27.31000
C  21.55000 49.57200 25.12500
C  20.72900 49.74100 28.48400
O  21.86400 49.32700 28.84200
C  19.57900 50.15100 29.55400
C  19.46000 48.98300 30.42900
O  19.26800 47.85400 30.06100
O  19.54700 49.37800 31.71000
C  19.37300 48.31700 32.65000
H  12.75000 51.21600 29.04000
H  13.35300 51.30900 22.43400
H  19.49200 50.22100 23.00100
H  17.10200 50.29500 31.04700
H  14.69800 51.70800 30.92900
H  13.81400 49.96600 31.74800
H  15.43300 49.19700 31.63700
H  14.22900 49.05100 30.25100
H  16.62400 53.27300 30.62800
H  18.16100 52.61700 30.45600
H  17.24300 53.53200 32.75000
H  18.51200 52.38200 32.60800
H  10.05200 50.61800 27.16000
H  9.98800 52.36100 27.03200
H  10.87700 51.63000 28.28400
H  8.93200 51.93900 24.95500
H  9.44500 50.21100 24.97100
H  8.82100 50.83300 23.50700
H  15.43800 51.93300 21.15900
H  17.81700 50.13500 21.16000
H  14.46600 49.20700 21.19500
H  16.02300 49.21900 20.24200
H  14.73300 50.25700 19.74800
H  18.56800 52.86500 22.12300
H  17.54800 52.94900 20.80600
H  18.68700 52.41100 19.27400
H  19.54400 51.04500 20.16500
H  20.05600 52.77000 20.25500
H  21.39400 48.60100 24.65500
H  22.50700 49.58400 25.64800
H  21.76800 50.23200 24.28600
H  19.75600 51.06400 30.12200
H  20.26700 47.70400 32.54000
H  18.44000 47.75400 32.69500
H  19.51100 48.84700 33.59200

