158

Mg 34.35000 2.28300 29.82300
C  31.92100 3.51600 32.13000
C  36.60300 2.43800 32.54100
C  36.67600 1.36800 27.65500
C  32.02700 2.86500 27.15000
N  34.21200 2.78800 32.00600
C  33.13200 3.26800 32.69200
C  33.40700 3.44900 34.16700
C  34.95800 3.46400 34.21400
C  35.26400 2.84100 32.83600
C  35.55500 4.85100 34.30200
C  32.77800 2.23800 34.96800
C  33.17100 1.99700 36.36100
H  33.60100 3.12200 37.31100
N  36.30900 1.81700 30.09600
C  37.05500 1.88100 31.25900
C  38.38400 1.45100 30.96700
C  38.46000 1.17300 29.56100
C  37.11700 1.43200 29.04700
C  39.45100 1.15600 32.02600
C  39.62300 0.73400 28.66300
O  39.42800 0.43500 27.51100
C  41.09900 0.65200 29.19000
N  34.34300 2.18000 27.74600
C  35.38100 1.77600 27.06900
C  35.19300 1.75000 25.52400
C  33.70200 1.88000 25.49700
C  33.32200 2.45800 26.84500
C  35.98000 2.88200 24.72700
C  32.82400 0.56400 25.12600
C  32.73400 0.31200 23.64900
N  32.35600 2.96300 29.64200
C  31.59200 3.23900 28.50700
C  30.20900 3.55700 28.96300
C  30.35900 3.67000 30.35200
C  31.67500 3.33400 30.73900
C  28.93600 3.92400 28.06600
C  29.53900 3.99200 31.53800
O  28.34900 4.16500 31.75400
C  30.58100 4.00400 32.72300
C  30.61200 5.37300 33.37800
O  30.78500 6.41000 32.77900
O  30.47000 5.20000 34.77000
C  30.76600 6.37600 35.59500
H  37.37400 2.57900 33.30200
H  37.45500 1.22000 26.90400
H  31.29000 2.93200 26.34700
H  32.85800 4.30700 34.55500
H  35.32500 2.91300 35.08000
H  34.74700 5.57800 34.22100
H  36.31300 5.09200 33.55700
H  35.90500 5.02500 35.31900
H  32.96500 1.31700 34.41600
H  31.70300 2.40100 34.89200
H  34.05100 1.37300 36.20600
H  32.56500 1.26800 36.89900
H  40.28100 1.86100 31.97200
H  39.83500 0.13600 32.04300
H  39.16000 1.23900 33.07300
H  41.33900 1.69000 29.42000
H  41.72200 0.28300 28.37600
H  41.17800 0.14300 30.15100
H  35.54500 0.81500 25.09000
H  33.44500 2.54900 24.67600
H  35.27700 3.22800 23.96900
H  36.85000 2.43300 24.24900
H  36.24100 3.72500 25.36700
H  31.79700 0.64200 25.48300
H  33.32400 -0.20900 25.70900
H  32.92300 -0.75000 23.49100
H  33.48800 0.87200 23.09500
H  31.75500 0.58800 23.25800
H  28.20300 4.39500 28.72000
H  28.50700 2.96900 27.76100
H  29.21500 4.45000 27.15400
H  30.18700 3.31300 33.46700
H  29.88500 7.00200 35.74000
H  31.50900 7.04900 35.16800
H  31.12100 5.97300 36.54300
Mg 50.15300 35.38800 27.42500
C  47.93200 33.74200 29.59600
C  50.48300 37.88800 29.64300
C  52.01600 36.80000 25.15300
C  49.11400 32.97600 24.86900
N  49.24900 35.70800 29.49600
C  48.47800 34.92500 30.21500
C  48.42300 35.42500 31.68200
C  48.93000 36.90100 31.50000
C  49.63100 36.82600 30.09100
C  47.78800 38.01200 31.63200
C  49.24100 34.63200 32.67600
C  48.80800 34.56800 34.12300
H  47.63600 35.42000 34.52400
N  51.14500 37.11000 27.44400
C  51.21100 37.99800 28.45000
C  52.04800 39.11300 28.01300
C  52.42100 38.87200 26.69500
C  51.85000 37.52600 26.34500
C  52.30400 40.23900 28.99800
C  53.14500 39.75700 25.77300
O  53.37800 39.36000 24.65700
C  53.66700 41.14900 26.21700
N  50.31700 35.09400 25.14100
C  51.24200 35.76500 24.54100
C  51.66500 35.23300 23.22200
C  50.58800 34.08500 22.96100
C  49.97600 34.00900 24.40400
C  51.66900 36.34000 22.05600
C  51.11900 32.78400 22.48700
C  51.56300 31.81800 23.67300
N  48.74700 33.74200 27.21000
C  48.51000 32.89400 26.12600
C  47.54500 31.92500 26.63000
C  47.23200 32.28500 27.94600
C  48.10000 33.30200 28.30100
C  47.00400 30.78500 25.77500
C  46.49600 31.86200 29.08800
O  45.76400 30.89200 29.27400
C  46.81800 32.91600 30.17600
C  47.06500 32.11200 31.39800
O  48.12000 31.54400 31.66600
O  45.94300 32.00000 32.13600
C  46.17300 31.49300 33.49700
H  50.64700 38.56900 30.48100
H  52.68200 37.10700 24.34400
H  48.87300 32.21100 24.12700
H  47.38600 35.44600 32.01800
H  49.72600 37.10100 32.21700
H  46.83900 37.53200 31.87100
H  47.66200 38.43700 30.63600
H  48.03600 38.78300 32.36200
H  50.30100 34.87800 32.72700
H  49.29800 33.61400 32.29200
H  49.65600 34.63700 34.80500
H  48.58500 33.51700 34.30900
H  53.35300 40.27600 29.29300
H  51.76700 40.24900 29.94600
H  51.96800 41.17400 28.55100
H  52.83500 41.83400 26.38300
H  54.31700 41.56700 25.44900
H  54.22100 41.03400 27.14900
H  52.69600 34.87800 23.23500
H  49.74600 34.32200 22.31100
H  51.30900 37.29500 22.44000
H  50.97300 35.97000 21.30200
H  52.67200 36.45200 21.64600
H  52.03300 33.00500 21.93500
H  50.38400 32.28800 21.85300
H  51.76100 32.26300 24.64800
H  52.54300 31.45600 23.36200
H  50.89900 30.96400 23.80900
H  46.33200 31.28200 25.07500
H  46.44500 30.00800 26.29600
H  47.73400 30.28900 25.13600
H  45.99600 33.62600 30.26800
H  45.46900 31.95400 34.19000
H  47.13700 31.85200 33.85900
H  45.98900 30.42000 33.55400

