158

Mg -2.71400 17.03900 26.91800
C  -3.07600 14.74100 29.50500
C  -3.08600 19.59900 29.36900
C  -2.61800 19.36100 24.47800
C  -3.10900 14.59700 24.48700
N  -2.80600 17.16200 29.24000
C  -3.02400 16.05900 29.99800
C  -3.25500 16.47300 31.45900
C  -3.35000 18.08400 31.35000
C  -3.10700 18.33000 29.85700
C  -4.81700 18.61800 31.80700
C  -2.19000 15.93400 32.44600
C  -1.66900 16.84200 33.61100
H  -1.31600 16.10500 34.92300
N  -2.80100 19.21300 26.99200
C  -2.99400 20.05200 28.03600
C  -2.87000 21.36900 27.57300
C  -2.56800 21.32400 26.16000
C  -2.65100 19.89100 25.79700
C  -2.93400 22.62200 28.47600
C  -2.22700 22.48200 25.21400
O  -1.83200 22.26000 24.07100
C  -2.28500 23.86200 25.63400
N  -2.75700 16.95700 24.75000
C  -2.68700 18.07100 24.02600
C  -2.91400 17.79100 22.54600
C  -3.11500 16.18200 22.50800
C  -2.92900 15.88100 23.99100
C  -4.19400 18.51900 21.91600
C  -2.21100 15.48000 21.53300
C  -1.00700 14.66600 22.07600
N  -2.97700 15.09400 26.90000
C  -3.06600 14.14600 25.86700
C  -3.06600 12.75900 26.43300
C  -3.14700 13.02300 27.80600
C  -3.01400 14.42000 28.06500
C  -3.09900 11.41800 25.72700
C  -3.32200 12.33100 29.05100
O  -3.46300 11.13200 29.33800
C  -3.39400 13.45800 30.21600
C  -2.41200 12.99800 31.28100
O  -1.22800 13.19200 31.36300
O  -3.08900 12.31900 32.25000
C  -2.34200 12.07500 33.46200
H  -3.10300 20.33500 30.17500
H  -2.51200 20.06200 23.64700
H  -3.17500 13.84700 23.69600
H  -4.23600 16.05100 31.67800
H  -2.62200 18.58500 31.98800
H  -5.05500 19.41900 31.10700
H  -4.67400 18.93400 32.84000
H  -5.71300 18.00300 31.89200
H  -1.30800 15.72800 31.83900
H  -2.64100 15.01800 32.82600
H  -2.50700 17.51600 33.78500
H  -0.80600 17.43700 33.31200
H  -3.03800 22.43500 29.54500
H  -3.70900 23.31500 28.14600
H  -2.02100 23.21100 28.39600
H  -3.22000 24.13900 26.12000
H  -2.15300 24.50600 24.76500
H  -1.41200 24.12400 26.23200
H  -1.97900 18.13100 22.09900
H  -4.11300 15.87300 22.19500
H  -3.91700 19.07200 21.01800
H  -4.59600 19.27900 22.58600
H  -5.01900 17.90800 21.55000
H  -1.69900 16.34300 21.10700
H  -2.75100 14.83300 20.84200
H  -0.62300 15.20000 22.94600
H  -0.20100 14.57600 21.34800
H  -1.33200 13.66700 22.36500
H  -3.03900 11.64300 24.66200
H  -4.01100 10.83800 25.86900
H  -2.26200 10.77700 26.00400
H  -4.32900 13.51700 30.77400
H  -3.07400 12.00300 34.26700
H  -1.69700 12.91200 33.72700
H  -1.71000 11.20000 33.31300
Mg 16.16700 -1.74300 27.64800
C  15.46000 0.51000 30.29200
C  18.33000 -3.40200 29.81800
C  17.59200 -3.14100 25.00400
C  14.37600 0.39400 25.51700
N  16.95600 -1.32800 29.69900
C  16.39800 -0.50300 30.61900
C  16.77100 -0.91500 32.01000
C  17.81800 -2.02800 31.84100
C  17.66200 -2.32800 30.37200
C  19.29000 -1.93300 32.34800
C  15.55400 -1.23300 32.97800
C  15.72400 -0.52500 34.36000
H  17.01700 -0.05600 34.83800
N  17.72200 -3.15900 27.41800
C  18.44600 -3.76500 28.41500
C  19.26200 -4.73100 27.78700
C  19.06100 -4.70600 26.35800
C  18.15700 -3.63200 26.20600
C  20.03900 -5.57100 28.68500
C  19.56800 -5.58600 25.21400
O  19.27900 -5.47500 24.03200
C  20.42600 -6.66500 25.59200
N  16.02200 -1.38000 25.58900
C  16.71300 -2.11100 24.69800
C  16.61000 -1.50800 23.28600
C  15.36200 -0.59900 23.40000
C  15.17700 -0.55500 24.91800
C  17.81900 -0.69400 22.76800
C  14.18500 -1.06600 22.54500
C  13.68600 -0.11600 21.45900
N  15.02100 0.00700 27.80400
C  14.32900 0.73000 26.85600
C  13.57800 1.73100 27.48400
C  14.02200 1.75400 28.85200
C  14.92700 0.68100 28.95600
C  12.63200 2.70500 26.84200
C  13.89800 2.44600 30.05100
O  13.14800 3.35800 30.45400
C  14.80800 1.60800 31.10400
C  15.76900 2.59200 31.72600
O  16.71100 3.09100 31.16400
O  15.38900 2.82800 33.00900
C  16.05800 3.99900 33.60400
H  18.83800 -3.87500 30.66100
H  18.00800 -3.56900 24.09000
H  13.89200 1.00200 24.75000
H  17.13500 0.07400 32.28700
H  17.40800 -2.88600 32.37500
H  20.00300 -1.69800 31.55800
H  19.44400 -2.92500 32.77300
H  19.52900 -1.26300 33.17400
H  15.50400 -2.32100 33.02800
H  14.66700 -0.87200 32.45600
H  15.36600 -1.33800 34.99200
H  15.04800 0.32800 34.41400
H  20.93300 -5.82500 28.11500
H  19.42100 -6.42200 28.97100
H  20.36600 -5.08100 29.60200
H  20.76300 -7.25500 24.74000
H  19.93900 -7.28000 26.34900
H  21.32800 -6.26400 26.05400
H  16.44000 -2.33300 22.59400
H  15.47400 0.43600 23.07700
H  18.72500 -1.25500 23.00000
H  17.91300 0.30600 23.19200
H  17.76700 -0.66700 21.68000
H  13.27400 -1.35300 23.07000
H  14.50500 -1.85900 21.87000
H  12.98400 0.67600 21.72100
H  13.15200 -0.73300 20.73600
H  14.48500 0.38700 20.91500
H  11.62200 2.48500 27.18700
H  12.55900 2.71400 25.75400
H  12.85000 3.75800 27.02200
H  14.12500 1.30900 31.89900
H  16.48800 3.68000 34.55300
H  15.28800 4.73700 33.83200
H  16.88500 4.41400 33.03000

