158

Mg 17.41300 -1.81300 27.89000
C  16.32200 0.38200 30.50800
C  19.22700 -3.54800 30.15900
C  18.77400 -3.24000 25.37600
C  15.44000 0.29400 25.69000
N  17.82700 -1.47200 30.11800
C  17.12600 -0.68300 30.94100
C  17.49500 -1.07300 32.38700
C  18.64800 -2.21600 32.24400
C  18.60500 -2.45700 30.78400
C  20.02100 -1.79700 32.74500
C  16.26800 -1.50900 33.27400
C  16.17000 -1.02300 34.77700
H  17.29000 -0.37600 35.41700
N  18.77000 -3.24800 27.80900
C  19.39000 -3.91700 28.82100
C  20.07900 -5.06800 28.27000
C  19.99500 -4.94300 26.83500
C  19.15600 -3.75400 26.59600
C  20.72500 -6.08000 29.13500
C  20.57200 -5.84600 25.77400
O  20.37000 -5.65400 24.55100
C  21.40800 -7.11700 26.16500
N  17.12600 -1.50500 25.82400
C  17.85500 -2.20600 24.98500
C  17.64200 -1.77500 23.50300
C  16.48600 -0.75400 23.62700
C  16.28800 -0.64800 25.14900
C  18.88400 -1.18700 22.76000
C  15.19000 -1.11900 22.85400
C  14.07600 -1.81700 23.60300
N  16.19500 0.04600 28.01200
C  15.48500 0.69600 27.03200
C  14.78900 1.77500 27.66900
C  15.16800 1.71600 29.05700
C  16.03500 0.65600 29.19600
C  13.67900 2.66600 27.02500
C  15.00600 2.39500 30.31400
O  14.40100 3.45600 30.62600
C  15.74300 1.55800 31.33200
C  16.73300 2.46100 31.97600
O  17.70300 3.05700 31.50800
O  16.17200 2.75100 33.21900
C  16.92000 3.61800 34.08900
H  19.66300 -4.23400 30.88800
H  19.25500 -3.64800 24.48400
H  14.79800 0.83100 24.98800
H  17.90500 -0.17200 32.84500
H  18.36300 -3.15400 32.72000
H  20.10500 -0.71500 32.84400
H  20.69600 -2.16200 31.97100
H  20.37600 -2.29100 33.64900
H  16.06300 -2.57800 33.21000
H  15.36700 -1.12800 32.79300
H  15.80100 -1.95400 35.20700
H  15.32100 -0.34500 34.86400
H  20.30900 -6.98200 28.68600
H  20.36800 -6.12800 30.16300
H  21.80600 -6.09600 28.99700
H  22.34300 -7.00700 26.71500
H  21.69000 -7.47400 25.17500
H  20.72100 -7.70300 26.77600
H  17.24200 -2.70400 23.09800
H  16.93000 0.22700 23.45800
H  19.63500 -0.86800 23.48200
H  18.71300 -0.27900 22.18200
H  19.34600 -1.97600 22.16700
H  15.43400 -1.67800 21.95000
H  14.82400 -0.19400 22.40700
H  13.29600 -1.09300 23.83800
H  14.52000 -2.26700 24.49100
H  13.59000 -2.64900 23.09300
H  12.64300 2.43000 27.26800
H  13.74700 2.81600 25.94700
H  13.77200 3.69200 27.37900
H  15.03700 1.28300 32.11500
H  17.98400 3.46500 33.91000
H  16.69900 3.44700 35.14200
H  16.76600 4.66900 33.84800
Mg 43.75300 4.50800 47.56700
C  41.57000 7.17900 47.33200
C  41.04800 2.39600 46.98400
C  45.88800 1.96600 47.27800
C  46.40700 6.79200 47.70100
N  41.68000 4.72400 47.05200
C  40.96200 5.96500 47.07000
C  39.50000 5.73600 46.79100
C  39.32600 4.21700 47.02500
C  40.78000 3.71800 47.11100
C  38.32500 3.80000 48.21100
C  39.12600 6.29400 45.32200
C  37.88900 7.13500 45.30600
H  37.15800 7.00100 43.98600
N  43.51700 2.43900 47.16500
C  42.33400 1.72200 47.06300
C  42.61300 0.33400 46.86700
C  44.02300 0.08200 46.96800
C  44.55300 1.53100 47.12200
C  41.49800 -0.63600 46.59400
C  44.71700 -1.19200 46.95900
O  44.04700 -2.16600 46.90500
C  46.16500 -1.37600 47.09600
N  45.77600 4.42900 47.44000
C  46.44900 3.23500 47.45700
C  48.02800 3.43600 47.59200
C  48.18000 4.98000 47.64600
C  46.67500 5.43100 47.56900
C  48.69100 2.84000 48.76900
C  48.96000 5.74600 46.51400
C  49.99800 6.86600 46.93000
N  43.97000 6.55400 47.53400
C  45.05800 7.30000 47.68800
C  44.69100 8.70700 47.74000
C  43.24000 8.73100 47.68200
C  42.86700 7.37100 47.50100
C  45.71100 9.87400 47.73400
C  42.14400 9.55700 47.66300
O  42.03800 10.72200 47.78700
C  40.93800 8.56000 47.48300
C  39.98800 8.69700 48.66500
O  40.15200 8.16800 49.72600
O  38.91300 9.48900 48.34300
C  37.86900 9.68700 49.35700
H  40.22400 1.71400 46.76300
H  46.68900 1.23300 47.16000
H  47.33500 7.36500 47.65700
H  39.01900 6.19900 47.65200
H  38.82600 3.87100 46.12100
H  37.85900 4.61600 48.76300
H  38.93600 3.30100 48.96300
H  37.49800 3.17800 47.86900
H  38.98800 5.48400 44.60600
H  39.97400 6.90700 45.01800
H  38.19700 8.16100 45.50600
H  37.21300 7.03400 46.15500
H  41.65200 -1.10500 45.62200
H  40.49700 -0.20800 46.64600
H  41.54500 -1.37500 47.39400
H  46.45300 -1.28100 48.14300
H  46.61200 -0.59900 46.47700
H  46.39700 -2.34100 46.64400
H  48.47500 3.16500 46.63500
H  48.57700 5.27300 48.61800
H  48.02700 2.10600 49.22700
H  48.74400 3.53900 49.60300
H  49.68100 2.43500 48.56200
H  48.17700 6.13500 45.86200
H  49.52900 5.06700 45.88000
H  50.20700 6.89800 48.00000
H  49.42400 7.76200 46.69500
H  50.85100 6.83600 46.25200
H  45.22600 10.58500 47.06500
H  46.62800 9.45800 47.31700
H  45.81100 10.22700 48.76100
H  40.42000 8.83400 46.56400
H  36.98600 9.32300 48.83100
H  37.78200 10.74300 49.61200
H  37.98500 9.04900 50.23300

