158

Mg 41.47600 41.45400 26.21500
C  40.59600 43.66000 28.80300
C  42.45400 39.19000 28.65200
C  42.39000 39.49300 23.85400
C  40.50800 43.91100 23.91500
N  41.50400 41.49700 28.45700
C  41.07200 42.44500 29.29800
C  41.11100 42.01800 30.78300
C  41.70100 40.54700 30.73000
C  41.93900 40.38400 29.20900
C  42.91200 40.30500 31.72000
C  39.77000 42.15800 31.50600
C  39.52000 41.34600 32.78900
H  38.92300 42.08300 34.01700
N  42.33600 39.56000 26.26000
C  42.54800 38.73500 27.29100
C  42.89000 37.37500 26.90900
C  42.78000 37.40000 25.46800
C  42.50600 38.83800 25.13000
C  43.18000 36.27800 27.86700
C  42.77000 36.32800 24.44900
O  42.73100 36.54300 23.20800
C  43.10100 34.99300 24.89800
N  41.60100 41.78100 24.24400
C  42.00000 40.77500 23.45100
C  41.71400 41.09400 21.90300
C  40.80100 42.39500 21.98400
C  40.88800 42.73600 23.48000
C  43.00900 41.14900 21.02500
C  39.25900 42.34900 21.54200
C  38.52000 41.10800 22.10100
N  40.63900 43.39000 26.29900
C  40.41600 44.30100 25.30500
C  40.10100 45.58800 25.85300
C  40.09500 45.35100 27.25400
C  40.40300 43.98800 27.42500
C  39.84400 46.85000 25.15400
C  39.83300 45.93100 28.52700
O  39.32100 46.98300 28.76700
C  39.99900 44.82200 29.59100
C  40.80000 45.36500 30.66400
O  41.99700 45.57600 30.60700
O  39.94800 45.52300 31.73100
C  40.53200 46.03000 32.96300
H  42.43900 38.44000 29.44600
H  42.65400 38.81600 23.04000
H  40.17500 44.63000 23.16400
H  41.73800 42.62600 31.43600
H  41.03800 39.71600 30.96900
H  43.84900 40.25100 31.16600
H  42.88100 39.40000 32.32600
H  42.95900 41.13300 32.42700
H  39.04600 41.83700 30.75600
H  39.47300 43.17100 31.77800
H  40.52600 41.01000 33.04300
H  38.82700 40.52200 32.62000
H  42.38700 35.53800 27.76300
H  43.11400 36.59300 28.90800
H  44.20800 35.92200 27.80900
H  44.15500 34.84100 25.13100
H  42.81700 34.25600 24.14600
H  42.39800 34.86200 25.72100
H  41.11600 40.26200 21.53100
H  41.29800 43.18500 21.42200
H  43.32600 42.19200 21.00100
H  42.95700 40.72100 20.02400
H  43.69900 40.60500 21.67000
H  39.31300 42.25800 20.45700
H  38.69900 43.25800 21.76200
H  37.84000 41.36200 22.91500
H  39.20800 40.43300 22.61100
H  38.05900 40.59300 21.25800
H  40.68200 47.52300 24.96900
H  39.17000 47.40000 25.80900
H  39.36700 46.74200 24.17900
H  38.96100 44.63300 29.86500
H  40.29500 47.08900 33.06100
H  41.61700 46.05200 33.06600
H  40.24600 45.56900 33.90800
Mg 6.86700 53.84800 41.29500
C  6.64300 50.31000 41.04600
C  10.23000 53.59900 40.16800
C  6.85200 57.10200 40.97400
C  3.43500 53.85700 42.02100
N  8.28100 52.09400 40.74200
C  7.92800 50.80200 40.55500
C  9.03000 49.90400 40.11200
C  10.27900 50.92200 40.14100
C  9.57500 52.32400 40.27400
C  11.21800 50.59100 41.35700
C  8.83300 49.16900 38.75300
C  8.23000 50.03100 37.57000
H  7.25400 49.28900 36.56300
N  8.35000 55.18900 40.79400
C  9.63900 54.92500 40.37900
C  10.32500 56.08600 40.07600
C  9.38600 57.20600 40.29200
C  8.08900 56.54200 40.65700
C  11.77100 56.08300 39.49600
C  9.65600 58.70300 40.15200
O  10.79900 59.11800 40.03200
C  8.49300 59.64200 40.09000
N  5.28900 55.16200 41.32000
C  5.61900 56.53600 41.39800
C  4.53300 57.40300 41.96800
C  3.43600 56.32400 42.32000
C  4.13400 54.99200 41.93100
C  4.98200 58.23200 43.22900
C  1.90200 56.51400 41.79500
C  0.72900 56.76600 42.78400
N  5.24900 52.37800 41.52100
C  3.95100 52.57300 41.85600
C  3.35900 51.18400 42.05100
C  4.36900 50.30500 41.78100
C  5.51900 51.10200 41.43200
C  1.94700 50.98000 42.51800
C  4.71100 48.89600 41.85600
O  4.07800 47.89900 42.26500
C  6.11600 48.93200 41.11700
C  5.84200 48.15200 39.78300
O  5.39000 48.52100 38.71300
O  6.40600 46.87900 39.91100
C  6.36200 46.05800 38.66800
H  11.31500 53.59700 40.04000
H  6.97700 58.15300 41.24400
H  2.40900 53.95700 42.38200
H  9.12900 49.18600 40.92600
H  10.75600 51.03800 39.16800
H  12.25100 50.68600 41.02200
H  11.02000 49.55300 41.62500
H  10.90700 51.21000 42.19900
H  8.24700 48.25300 38.81800
H  9.81200 48.82100 38.42400
H  9.09100 50.26900 36.94400
H  7.68900 50.91100 37.91800
H  12.32000 56.91700 39.93300
H  11.67300 56.07500 38.41100
H  12.36900 55.21200 39.76100
H  8.09800 59.81900 41.09100
H  7.87800 59.11900 39.35800
H  8.81800 60.59200 39.66700
H  4.20100 58.07500 41.17700
H  3.39700 56.21600 43.40400
H  4.26600 58.37800 44.03700
H  5.07100 59.25600 42.86400
H  5.93600 57.92500 43.65600
H  1.63400 55.59500 41.27400
H  1.77900 57.34600 41.10100
H  0.15200 55.85100 42.91200
H  0.10400 57.60500 42.47900
H  1.15500 56.92700 43.77500
H  1.49800 50.12900 42.00700
H  1.42800 51.90400 42.26200
H  2.01500 50.82000 43.59400
H  6.75200 48.21300 41.63300
H  6.81200 45.09000 38.88500
H  6.92700 46.55700 37.88100
H  5.32800 45.83800 38.39900

