158

Mg 35.06700 2.77200 30.64100
C  32.74300 3.72000 33.09400
C  37.57200 3.14700 32.96300
C  37.27000 2.11400 28.22300
C  32.49900 2.91200 28.24200
N  35.13600 3.40100 32.74100
C  34.03100 3.48200 33.56700
C  34.43000 3.35300 35.00800
C  36.02200 3.42400 34.97500
C  36.24200 3.26300 33.52400
C  36.63800 4.75800 35.59800
C  33.81700 2.01200 35.66800
C  33.52500 2.05900 37.19100
H  34.31300 3.05500 38.07600
N  37.15400 2.57600 30.59400
C  37.98900 2.79700 31.61000
C  39.39900 2.72800 31.18200
C  39.35400 2.40100 29.79200
C  37.89900 2.29400 29.48300
C  40.59300 2.88100 32.15400
C  40.39700 2.24700 28.71600
O  40.20900 2.22400 27.55400
C  41.83100 2.30900 29.06700
N  34.94300 2.53700 28.55700
C  36.01200 2.29100 27.74600
C  35.54300 2.07800 26.22400
C  33.99500 2.08100 26.37100
C  33.79100 2.64000 27.76400
C  36.14700 2.93300 25.08400
C  33.28400 0.73400 26.00200
C  31.91800 0.97900 25.22900
N  33.07800 3.33300 30.58300
C  32.15500 3.35200 29.51900
C  30.83500 3.72000 30.06800
C  31.04900 3.85800 31.44000
C  32.38700 3.57300 31.67700
C  29.65200 4.04500 29.16800
C  30.41400 4.27100 32.68500
O  29.25700 4.56700 32.91700
C  31.40800 3.94600 33.84600
C  31.41500 5.22500 34.74000
O  31.60300 6.39900 34.43800
O  31.37400 4.85100 36.09400
C  31.33800 5.99500 37.02000
H  38.21400 3.37800 33.81600
H  37.89700 1.91400 27.35100
H  31.77500 2.98800 27.42900
H  33.99900 4.21300 35.52000
H  36.36600 2.61500 35.61900
H  35.90900 5.56100 35.70200
H  37.43100 5.02900 34.90100
H  37.12000 4.39800 36.50700
H  34.38000 1.07900 35.64100
H  32.87600 1.79000 35.16500
H  33.68800 1.08000 37.64200
H  32.47100 2.33500 37.13800
H  40.22500 2.71800 33.16700
H  41.05600 3.86500 32.08500
H  41.30100 2.11700 31.83100
H  42.04600 1.45700 29.71100
H  41.90100 3.29600 29.52400
H  42.46300 2.30000 28.17800
H  35.98800 1.15800 25.84400
H  33.50500 2.80400 25.71900
H  36.75000 2.49800 24.28700
H  36.79800 3.72500 25.45800
H  35.33500 3.44500 24.56800
H  33.01200 0.15000 26.88100
H  33.89800 0.03400 25.43500
H  31.78700 2.01000 24.90200
H  31.15900 0.69100 25.95800
H  31.92100 0.48400 24.25800
H  29.01000 4.80600 29.61200
H  29.14800 3.08200 29.09200
H  30.07000 4.48000 28.26100
H  31.21200 2.97400 34.29700
H  32.28400 6.28800 37.47600
H  30.73300 5.76400 37.89600
H  30.81500 6.85500 36.60100
Mg 47.30600 25.35100 28.06200
C  48.26200 27.55000 30.48600
C  46.46400 23.11400 30.66800
C  46.84000 22.90800 25.81400
C  48.58500 27.40500 25.61600
N  47.06800 25.44900 30.26100
C  47.70700 26.43000 31.07300
C  47.45000 26.27600 32.53200
C  46.93800 24.73400 32.56800
C  46.86600 24.36600 31.02800
C  47.77300 23.66100 33.29900
C  46.46100 27.31500 33.12400
C  45.57300 26.98500 34.34000
H  45.53400 27.95200 35.54300
N  46.53700 23.29200 28.17300
C  46.34800 22.56700 29.33300
C  46.07900 21.18800 28.99600
C  46.00800 21.16700 27.63600
C  46.42900 22.46800 27.12200
C  45.89900 20.06400 30.06100
C  45.49700 20.12300 26.66500
O  45.58400 20.07700 25.42900
C  44.85300 18.98200 27.29200
N  47.55000 25.20000 26.00400
C  47.29300 24.13300 25.30900
C  47.78400 24.28100 23.83800
C  48.06700 25.79300 23.66100
C  48.21300 26.13500 25.18100
C  48.95300 23.42700 23.27400
C  46.83200 26.53300 23.08400
C  47.17800 27.81800 22.45900
N  48.19500 27.09800 28.01400
C  48.64500 27.79200 26.95600
C  49.16400 29.10000 27.41600
C  49.04400 29.01400 28.79200
C  48.48500 27.75900 29.10600
C  49.77700 30.17500 26.59300
C  49.27000 29.74800 30.06200
O  49.72700 30.85100 30.32400
C  48.66800 28.81200 31.15300
C  49.64200 28.68300 32.25800
O  50.62200 27.94200 32.23100
O  49.34900 29.59000 33.28800
C  50.30200 29.51700 34.43800
H  46.36500 22.37300 31.46300
H  46.79400 22.13300 25.04600
H  48.95300 28.04700 24.81300
H  48.42600 26.34700 33.01200
H  45.93100 24.65700 32.97800
H  47.08400 22.94800 33.75100
H  48.33400 24.08100 34.13500
H  48.44300 23.19800 32.57600
H  45.91000 27.67600 32.25500
H  47.12900 28.08200 33.51700
H  46.00800 26.07500 34.75300
H  44.62100 26.73900 33.86800
H  46.46000 19.23300 29.63400
H  44.83200 19.87900 30.18700
H  46.29800 20.27700 31.05200
H  45.58900 18.28800 27.69800
H  44.18900 18.54900 26.54300
H  44.24200 19.39900 28.09200
H  46.90900 24.01600 23.24500
H  48.96500 25.95300 23.06300
H  49.88000 23.89000 23.61200
H  48.80800 23.26000 22.20700
H  48.92300 22.58800 23.96800
H  46.03900 26.61800 23.82700
H  46.44600 25.96200 22.23900
H  46.50600 28.60500 22.80000
H  47.10200 27.79200 21.37100
H  48.18000 28.22600 22.59000
H  50.73600 29.77000 26.27200
H  49.92000 31.03200 27.25200
H  49.30900 30.47200 25.65400
H  47.80500 29.27700 31.63100
H  50.20200 28.48900 34.78700
H  49.84200 30.19000 35.16100
H  51.35800 29.75600 34.31800

