158

Mg -12.02200 38.61200 41.49100
C  -10.14900 36.07300 40.25000
C  -9.94700 40.91900 39.96400
C  -14.26000 41.01700 42.20200
C  -14.16400 36.22100 42.85300
N  -10.32600 38.55100 40.27600
C  -9.66800 37.36600 39.90700
C  -8.34600 37.71900 39.09200
C  -8.16300 39.22400 39.46000
C  -9.55100 39.65100 39.95700
C  -7.04300 39.47400 40.61400
C  -8.41800 37.31800 37.60400
C  -7.23800 36.48800 36.89800
H  -6.58200 37.13600 35.67600
N  -12.14000 40.70600 41.11200
C  -11.10600 41.49400 40.51000
C  -11.50100 42.87300 40.55200
C  -12.82700 42.93300 41.15700
C  -13.12000 41.55000 41.63000
C  -10.62000 43.93500 40.17100
C  -13.61700 44.19000 41.41500
O  -13.13900 45.26900 41.06700
C  -14.92900 44.30500 42.25200
N  -14.01700 38.57600 42.28900
C  -14.67200 39.71000 42.46500
C  -16.16800 39.31700 42.78400
C  -16.07700 37.84100 43.17000
C  -14.64700 37.49600 42.81100
C  -16.93000 40.19600 43.74800
C  -17.16000 36.93200 42.50500
C  -17.78900 35.70300 43.38100
N  -12.07400 36.51100 41.61000
C  -13.02200 35.69700 42.21200
C  -12.57700 34.37300 42.03400
C  -11.45700 34.46500 41.23200
C  -11.27400 35.77600 40.98400
C  -13.20700 33.14500 42.62100
C  -10.39400 33.68800 40.58500
O  -10.23400 32.48400 40.44600
C  -9.46100 34.74200 39.83400
C  -7.93200 34.72600 40.23300
O  -7.00600 34.38200 39.49100
O  -7.78600 35.02700 41.57100
C  -6.49000 34.72600 42.10100
H  -9.18800 41.49800 39.43500
H  -14.99600 41.66600 42.68300
H  -14.79800 35.52700 43.41000
H  -7.55400 37.21600 39.64800
H  -7.86900 39.80800 38.58700
H  -7.18500 40.46500 41.04500
H  -6.07400 39.58300 40.12600
H  -7.07800 38.54700 41.18700
H  -8.41000 38.23300 37.01200
H  -9.30500 36.74800 37.33000
H  -7.54400 35.45100 36.76100
H  -6.44900 36.53000 37.64900
H  -9.59100 43.57900 40.13000
H  -10.66800 44.77600 40.86400
H  -10.75000 44.27800 39.14500
H  -15.43700 45.23100 41.98400
H  -14.77500 44.27700 43.33000
H  -15.55800 43.48700 41.90000
H  -16.62700 39.44200 41.80300
H  -16.08100 37.85000 44.26000
H  -17.77000 40.73300 43.30800
H  -16.31100 40.89300 44.31300
H  -17.36900 39.49100 44.45500
H  -16.76300 36.51200 41.58100
H  -17.96400 37.61600 42.23700
H  -17.27500 35.85400 44.33000
H  -17.65500 34.71800 42.93300
H  -18.83200 35.94000 43.59400
H  -13.48200 33.24500 43.67100
H  -12.55200 32.30700 42.38100
H  -14.20600 33.01100 42.20700
H  -9.62100 34.61800 38.76300
H  -6.30800 33.65300 42.15900
H  -6.52900 35.10600 43.12100
H  -5.59900 35.16800 41.65600
Mg 1.12700 41.92800 24.61300
C  3.02600 41.91000 27.70100
C  -1.56800 41.02500 26.33100
C  -0.28600 41.64500 21.70700
C  4.33200 42.17100 22.99900
N  0.84600 41.43900 26.78000
C  1.63500 41.66800 27.83200
C  0.83600 41.48200 29.13700
C  -0.59600 40.94600 28.68700
C  -0.47400 41.16200 27.15900
C  -0.96100 39.48600 29.10200
C  0.78600 42.84400 29.95400
C  1.29000 42.78100 31.46800
H  0.23800 42.39100 32.59900
N  -0.70600 41.55500 24.06900
C  -1.72100 41.25400 24.96000
C  -2.96900 41.10800 24.10500
C  -2.58700 41.22500 22.76000
C  -1.12800 41.42600 22.80400
C  -4.35100 40.91400 24.70700
C  -3.47300 41.22500 21.50100
O  -2.98200 41.37900 20.42300
C  -5.02800 40.94600 21.62100
N  1.95400 41.83100 22.69800
C  1.07400 41.94700 21.68000
C  1.81400 42.12300 20.31800
C  3.18100 42.53100 20.78300
C  3.14300 42.20500 22.25700
C  1.95300 40.85100 19.36400
C  3.66500 43.96100 20.47400
C  5.14200 44.26000 19.93600
N  3.25500 41.97100 25.20300
C  4.37000 42.05000 24.40300
C  5.55900 42.25100 25.23400
C  5.11500 42.23600 26.53100
C  3.68500 42.02500 26.44800
C  6.96800 42.40200 24.75200
C  5.37200 42.27400 28.04000
O  6.45800 42.45100 28.63000
C  4.04000 42.02000 28.77000
C  4.24300 40.77800 29.60600
O  4.02100 39.61900 29.28300
O  4.78000 41.21200 30.73800
C  5.02700 40.06500 31.63800
H  -2.53100 40.95200 26.84100
H  -0.83800 41.98400 20.82800
H  5.25400 42.54400 22.54600
H  1.35000 40.74700 29.75600
H  -1.42900 41.52700 29.08300
H  -0.23500 39.20900 29.86600
H  -0.72200 38.95100 28.18300
H  -1.98800 39.33400 29.43500
H  -0.28200 43.06200 29.96600
H  1.32600 43.68600 29.52000
H  1.59300 43.78500 31.76500
H  2.14300 42.10500 31.51700
H  -4.14100 40.97800 25.77500
H  -4.70000 39.89100 24.56400
H  -5.04400 41.64500 24.29000
H  -5.32500 40.14900 22.30300
H  -5.31000 40.79900 20.57800
H  -5.39400 41.92300 21.93600
H  1.35800 42.92400 19.73600
H  3.93000 41.93800 20.25900
H  1.21700 40.11000 19.67800
H  2.93500 40.38000 19.41700
H  1.67700 41.28200 18.40200
H  3.69500 44.49400 21.42400
H  2.90000 44.50700 19.92200
H  5.68400 44.42800 20.86700
H  5.24000 45.09600 19.24300
H  5.46900 43.31700 19.50000
H  7.13400 42.00300 23.75200
H  7.55800 41.86100 25.49200
H  7.34500 43.42300 24.82600
H  3.96500 42.96300 29.31100
H  5.56800 40.49200 32.48300
H  5.76400 39.37000 31.23500
H  4.14200 39.49200 31.91300

