158

Mg 1.64800 -2.02000 43.97600
C  4.77800 -0.50200 43.78100
C  0.23600 0.91000 42.57800
C  -1.31700 -3.54500 44.04300
C  3.18700 -4.86400 45.18800
N  2.39900 -0.15800 43.06400
C  3.73700 0.27400 43.21500
C  3.96400 1.66700 42.48200
C  2.45100 2.17100 42.46600
C  1.63600 0.91500 42.67300
C  2.13200 3.31900 43.45100
C  4.69100 1.61800 41.14500
C  4.71400 2.88200 40.31200
H  4.03200 2.97800 38.95100
N  -0.24600 -1.41600 43.30000
C  -0.64600 -0.17800 42.81600
C  -2.05300 -0.22700 42.50100
C  -2.56100 -1.46300 43.07700
C  -1.36900 -2.18000 43.57700
C  -2.74800 0.96100 41.91400
C  -4.00700 -1.86800 43.07100
O  -4.75400 -1.15200 42.41500
C  -4.60300 -3.03000 43.67700
N  1.04300 -3.95500 44.40400
C  -0.23600 -4.27100 44.56200
C  -0.48100 -5.61300 45.24200
C  1.00300 -6.12500 45.37500
C  1.81500 -4.96500 44.93900
C  -1.30400 -5.39800 46.55300
C  1.38500 -7.29500 44.45500
C  2.13400 -8.46600 45.12200
N  3.61700 -2.60600 44.49000
C  4.00500 -3.72100 44.95800
C  5.49100 -3.71600 45.13600
C  5.86800 -2.42200 44.75300
C  4.66300 -1.75200 44.36500
C  6.35800 -4.88700 45.71800
C  6.90300 -1.50400 44.48800
O  8.14100 -1.52800 44.62500
C  6.27600 -0.18900 43.84300
C  6.52600 0.95700 44.73200
O  6.09700 1.13000 45.86500
O  7.50500 1.76400 44.21100
C  7.87000 2.87300 45.05800
H  -0.20200 1.85700 42.25700
H  -2.26600 -4.07900 44.12400
H  3.66400 -5.73700 45.64000
H  4.54300 2.32600 43.12900
H  2.21200 2.58900 41.48800
H  1.27000 3.95500 43.24900
H  2.97700 4.00700 43.42600
H  2.02200 2.88500 44.44500
H  4.31300 0.87400 40.44300
H  5.69100 1.28400 41.42200
H  5.73100 3.23800 40.15100
H  4.19300 3.65300 40.87900
H  -2.25600 1.85200 42.30400
H  -3.70600 1.09200 42.41700
H  -2.96500 0.95200 40.84600
H  -4.26400 -3.99100 43.29100
H  -5.66900 -3.09500 43.45700
H  -4.53100 -2.86800 44.75300
H  -1.12400 -6.23400 44.62000
H  1.24200 -6.46100 46.38400
H  -0.69800 -5.34200 47.45700
H  -2.11200 -6.12600 46.61300
H  -1.79100 -4.42300 46.52500
H  1.80600 -6.98500 43.49900
H  0.43800 -7.75000 44.16500
H  2.88000 -8.07400 45.81300
H  2.77900 -8.86800 44.34100
H  1.53400 -9.21300 45.64200
H  6.09900 -5.71100 45.05300
H  5.99400 -5.05100 46.73200
H  7.43100 -4.69300 45.73600
H  6.80300 0.02800 42.91400
H  8.92900 2.95800 45.30100
H  7.31600 3.00200 45.98800
H  7.62600 3.72000 44.41700
Mg -0.31000 7.72500 26.73600
C  0.68600 9.48900 29.74500
C  -0.31600 4.91100 28.76400
C  -0.89100 6.07600 24.05700
C  0.33400 10.57000 24.99300
N  0.14300 7.24700 29.04700
C  0.35300 8.18000 30.04500
C  0.23400 7.51500 31.42600
C  0.17300 5.99200 31.07000
C  -0.02200 6.03600 29.55200
C  1.45900 5.21400 31.43600
C  -1.02000 8.02500 32.25600
C  -0.61700 8.47700 33.63900
H  -0.69900 7.41600 34.75900
N  -0.65900 5.82500 26.47200
C  -0.61200 4.76400 27.37900
C  -0.92100 3.47200 26.71000
C  -1.11600 3.78500 25.34100
C  -0.96200 5.26000 25.22500
C  -0.96700 2.11100 27.59500
C  -1.44700 2.92300 24.17200
O  -1.58300 3.28300 23.01000
C  -1.70300 1.48700 24.52700
N  -0.36300 8.27200 24.84400
C  -0.66600 7.42000 23.86600
C  -0.93600 8.09900 22.49200
C  -0.51100 9.60700 22.84200
C  -0.22200 9.51600 24.29600
C  -0.06200 7.41100 21.30300
C  -1.61200 10.62000 22.48000
C  -1.62200 11.20800 21.01100
N  0.41900 9.65000 27.20500
C  0.62300 10.67500 26.34000
C  1.18500 11.81400 27.01500
C  1.11100 11.46700 28.37000
C  0.73200 10.12000 28.45600
C  1.40500 13.11700 26.47300
C  1.41500 11.82800 29.70100
O  1.83300 12.86100 30.13300
C  1.00500 10.64100 30.67700
C  2.14200 10.43600 31.61300
O  3.08900 9.67700 31.42500
O  2.00500 11.26800 32.72000
C  3.07500 11.42100 33.73700
H  -0.38500 4.00300 29.36700
H  -1.17300 5.52800 23.15600
H  0.46000 11.47200 24.39000
H  1.15100 7.72100 31.97900
H  -0.65700 5.47000 31.54600
H  2.18600 5.90300 31.86600
H  1.87300 4.79400 30.51900
H  1.23400 4.41100 32.13800
H  -1.55000 7.08600 32.41700
H  -1.51700 8.83700 31.72400
H  -1.31900 9.30200 33.75500
H  0.36100 8.95900 33.61000
H  -1.30700 1.18900 27.12300
H  -1.81600 2.16100 28.27600
H  -0.11200 1.91900 28.24400
H  -0.82200 0.93800 24.85900
H  -2.15800 1.01200 23.65800
H  -2.45900 1.41900 25.31000
H  -1.99400 7.90000 22.31900
H  0.46600 9.76400 22.38600
H  0.35000 8.17200 20.64000
H  -0.68900 6.66300 20.81800
H  0.75600 6.92000 21.83100
H  -1.57300 11.35200 23.28700
H  -2.62800 10.23800 22.57500
H  -0.76500 10.85700 20.43500
H  -1.46700 12.25600 21.26900
H  -2.58900 10.91700 20.60300
H  0.71300 13.26800 25.64400
H  2.43300 13.22300 26.12700
H  1.12400 13.77700 27.29400
H  0.16200 11.02100 31.25300
H  3.80600 10.61400 33.68500
H  2.76700 11.37900 34.78200
H  3.67400 12.31000 33.53900

