158

Mg 2.02200 42.79300 26.50600
C  3.16900 42.84300 29.66100
C  -0.96300 41.36900 27.62600
C  1.16700 41.69300 23.34400
C  5.08400 43.65700 25.36100
N  1.19100 42.21600 28.36300
C  1.92200 42.28500 29.49300
C  1.01100 42.09500 30.70800
C  -0.27200 41.42300 30.10500
C  0.01500 41.65200 28.62600
C  -0.44500 39.93300 30.59800
C  0.83600 43.29900 31.58200
C  0.99500 43.11600 33.11800
H  0.44800 41.89800 33.73300
N  0.26500 41.85000 25.65700
C  -0.89100 41.46500 26.26000
C  -1.85400 40.95900 25.27300
C  -1.20300 40.97100 23.98100
C  0.11400 41.58200 24.29900
C  -3.14600 40.43200 25.62200
C  -1.68200 40.57700 22.67500
O  -1.09200 40.64300 21.64000
C  -3.01800 39.99500 22.45500
N  2.97300 42.63200 24.63000
C  2.42200 42.29400 23.48600
C  3.41300 42.38400 22.34300
C  4.51700 43.35400 22.89100
C  4.15900 43.29500 24.40700
C  3.97800 41.02100 21.87500
C  4.43700 44.79700 22.24900
C  3.80600 45.98300 23.08800
N  3.75000 43.21800 27.30700
C  4.92500 43.57300 26.76200
C  5.90700 43.67300 27.74800
C  5.28900 43.54400 28.96300
C  3.94500 43.21300 28.60100
C  7.39400 43.86100 27.56700
C  5.50200 43.37100 30.34300
O  6.48100 43.39400 31.09600
C  4.05900 42.92300 30.92900
C  4.31100 41.65900 31.58900
O  4.74900 40.69400 31.03600
O  4.07900 41.79300 32.96000
C  4.15400 40.44900 33.66900
H  -1.92400 41.03400 28.02300
H  1.08300 41.18300 22.38200
H  6.01500 44.16100 25.09400
H  1.56700 41.35700 31.28700
H  -1.14500 42.00800 30.39500
H  0.33900 39.49300 31.21400
H  -0.61500 39.31600 29.71600
H  -1.32900 39.98300 31.23200
H  -0.15600 43.74100 31.48600
H  1.49000 44.15300 31.40700
H  0.54500 43.94200 33.66900
H  2.06900 43.15500 33.30100
H  -3.09900 39.37400 25.88000
H  -3.96000 40.64300 24.92800
H  -3.53600 40.88900 26.53200
H  -3.16300 39.28500 23.27000
H  -3.07600 39.44200 21.51800
H  -3.66200 40.87200 22.50100
H  2.97600 42.78900 21.43000
H  5.49500 42.87200 22.88400
H  3.34800 40.25100 22.32000
H  4.95300 40.89000 22.34400
H  4.08800 40.94400 20.79300
H  3.79800 44.71800 21.36900
H  5.44200 45.05700 21.91500
H  3.46500 45.67800 24.07800
H  2.98300 46.35500 22.47900
H  4.64000 46.65900 23.28000
H  7.65100 44.60400 26.81200
H  7.91900 42.98500 27.18600
H  7.83100 44.09400 28.53900
H  3.72000 43.66000 31.65600
H  5.02800 40.47600 34.32100
H  4.09000 39.55800 33.04500
H  3.44400 40.22500 34.46600
Mg -12.12300 16.78700 40.49200
C  -8.89300 15.47600 40.13000
C  -10.70200 19.90200 40.22600
C  -15.19600 18.03200 40.21000
C  -13.38900 13.55600 40.53600
N  -10.04500 17.65700 40.08300
C  -8.90800 16.90000 39.99700
C  -7.59400 17.80000 40.00200
C  -8.18800 19.28100 40.14300
C  -9.71200 18.96100 40.18800
C  -7.73800 20.20600 41.32800
C  -6.76800 17.69900 38.67100
C  -5.36500 17.08700 38.73400
H  -4.80700 15.73200 38.17200
N  -12.85600 18.74400 40.11600
C  -12.11400 19.84900 40.05800
C  -13.08800 20.95100 39.82700
C  -14.37400 20.42100 39.78400
C  -14.23200 18.99800 40.01900
C  -12.54500 22.34000 39.67000
C  -15.57400 21.21400 39.56000
O  -15.51600 22.43800 39.34800
C  -16.95400 20.56300 39.47600
N  -14.01500 15.87200 40.24900
C  -15.14200 16.60200 40.31100
C  -16.40500 15.74900 40.42700
C  -15.86200 14.34000 40.26500
C  -14.27400 14.58100 40.51800
C  -17.13100 15.99700 41.81800
C  -16.08200 13.60000 38.84600
C  -17.51100 13.31800 38.51300
N  -11.38000 14.90600 40.31300
C  -11.98800 13.66700 40.50600
C  -11.06500 12.61500 40.48700
C  -9.79000 13.22900 40.26300
C  -10.04700 14.65900 40.22700
C  -11.47100 11.19500 40.62800
C  -8.35200 13.08600 40.19300
O  -7.67400 12.08000 40.34800
C  -7.74700 14.49000 40.14300
C  -6.82000 14.53100 41.26400
O  -7.09900 14.99800 42.34000
O  -5.55100 14.18000 40.89000
C  -4.57300 14.35500 41.96300
H  -10.23500 20.88300 40.12100
H  -16.23300 18.36500 40.13800
H  -13.80200 12.54500 40.55600
H  -6.99400 17.51000 40.86400
H  -8.10000 19.88400 39.24000
H  -8.60100 20.45500 41.94600
H  -7.40000 21.11900 40.83800
H  -6.95800 19.67900 41.87800
H  -6.74800 18.61700 38.08300
H  -7.29200 17.05300 37.96700
H  -5.11500 17.15500 39.79300
H  -4.63000 17.75800 38.29000
H  -13.08800 22.92200 38.92500
H  -11.53100 22.36200 39.26900
H  -12.49400 22.93700 40.58000
H  -16.80800 19.75000 38.76400
H  -17.73900 21.25300 39.17000
H  -17.20400 20.24700 40.48900
H  -17.06800 16.04200 39.61200
H  -16.18800 13.63700 41.03200
H  -18.05400 16.57500 41.86300
H  -16.41300 16.29000 42.58300
H  -17.55700 15.02800 42.08100
H  -15.39100 12.78000 38.65100
H  -15.68600 14.36500 38.17700
H  -17.69900 12.24500 38.49000
H  -17.82900 13.60100 37.50900
H  -18.18500 13.81100 39.21400
H  -11.84800 10.76200 39.70100
H  -12.11100 10.91400 41.46400
H  -10.46500 10.79300 40.75200
H  -7.14500 14.60000 39.24000
H  -4.40200 15.43000 42.02400
H  -3.58100 13.99200 41.69400
H  -4.83300 13.98500 42.95400

