158

Mg 24.11600 -6.84600 45.76900
C  26.44100 -4.54400 44.40900
C  21.83700 -5.86800 43.59900
C  22.58500 -9.84900 46.36600
C  27.10000 -8.29900 47.38500
N  24.20300 -5.40500 44.15300
C  25.20000 -4.51500 43.78200
C  24.76000 -3.53000 42.71100
C  23.21200 -3.78900 42.72500
C  23.05400 -5.10800 43.61600
C  22.15600 -2.70800 43.23400
C  25.48800 -3.91100 41.35500
C  25.86700 -2.77500 40.42100
H  25.60500 -2.97100 38.93800
N  22.39300 -7.62700 45.07400
C  21.52400 -7.05000 44.24400
C  20.41600 -7.88800 43.98700
C  20.54800 -9.07200 44.81000
C  21.90200 -8.91800 45.44200
C  19.27900 -7.57900 43.10900
C  19.58900 -10.31900 44.84500
O  18.56200 -10.25700 44.21400
C  19.73800 -11.60100 45.63800
N  24.72300 -8.71800 46.75200
C  23.86700 -9.79700 46.96300
C  24.43900 -10.83100 47.93800
C  25.88100 -10.39100 48.14300
C  25.94300 -9.02500 47.37300
C  23.63000 -11.22000 49.20300
C  26.94200 -11.48500 47.75800
C  28.05400 -11.73000 48.80100
N  26.32600 -6.52700 45.95700
C  27.36600 -7.11600 46.68900
C  28.68100 -6.43100 46.49500
C  28.32600 -5.35100 45.61000
C  26.89300 -5.47300 45.35100
C  29.99600 -6.84500 47.03500
C  28.89000 -4.28100 44.88400
O  29.99400 -3.82400 44.83900
C  27.74200 -3.68000 43.99600
C  27.50600 -2.21800 44.18000
O  27.55400 -1.32900 43.36000
O  27.37400 -1.89700 45.49600
C  27.17100 -0.43000 45.84700
H  21.13800 -5.52000 42.83700
H  21.90300 -10.62300 46.72400
H  27.94700 -8.76000 47.89800
H  24.88000 -2.46400 42.90100
H  22.79700 -4.16600 41.79000
H  21.56600 -3.05600 44.08200
H  21.55800 -2.53600 42.33900
H  22.62100 -1.76800 43.53200
H  24.78200 -4.52000 40.79000
H  26.35700 -4.54500 41.52700
H  26.93900 -2.59400 40.48800
H  25.32300 -1.89400 40.76100
H  19.09800 -8.38200 42.39500
H  19.41600 -6.63400 42.58400
H  18.50800 -7.48100 43.87300
H  19.59300 -11.42100 46.70300
H  20.77600 -11.85700 45.42600
H  19.07300 -12.41400 45.34600
H  24.34700 -11.72300 47.31900
H  26.05400 -10.14700 49.19100
H  22.98500 -12.07200 48.98600
H  23.05300 -10.36600 49.55800
H  24.24700 -11.58100 50.02500
H  27.51400 -11.08900 46.91800
H  26.43900 -12.36500 47.35700
H  28.25200 -10.77000 49.27800
H  28.97000 -12.05500 48.30900
H  27.73500 -12.49300 49.51100
H  30.05500 -7.92000 46.86500
H  29.89000 -6.71100 48.11200
H  30.83600 -6.26000 46.65900
H  28.01600 -3.84300 42.95400
H  26.09300 -0.27500 45.79700
H  27.64000 0.25000 45.13700
H  27.69100 -0.17200 46.77000
Mg -12.37400 38.19000 42.01100
C  -10.09000 35.73200 40.98700
C  -10.32800 40.53900 40.53100
C  -14.78400 40.47500 42.35100
C  -14.41300 35.66200 43.07200
N  -10.56900 38.08800 40.71400
C  -9.69700 37.01100 40.62400
C  -8.34300 37.43800 39.93100
C  -8.31800 38.92800 40.08700
C  -9.81700 39.22200 40.47700
C  -7.38300 39.59400 41.08200
C  -8.26700 36.96100 38.38200
C  -6.88900 36.33600 37.97400
H  -5.99600 36.99100 36.93600
N  -12.56800 40.21100 41.52900
C  -11.62000 41.03500 40.94800
C  -12.09300 42.37400 40.80800
C  -13.39900 42.36800 41.36400
C  -13.65100 40.95800 41.72300
C  -11.25700 43.48500 40.12600
C  -14.24300 43.52800 41.58400
O  -13.77800 44.61100 41.24700
C  -15.57100 43.58700 42.34600
N  -14.33300 38.12900 42.57500
C  -15.06800 39.21600 42.80500
C  -16.47900 38.85200 43.37900
C  -16.27500 37.36400 43.68000
C  -14.97800 36.92800 43.02300
C  -16.97900 39.67700 44.61100
C  -17.46800 36.55300 43.17200
C  -17.75400 35.21600 43.97400
N  -12.32100 36.04000 42.17800
C  -13.23900 35.15300 42.60500
C  -12.79300 33.77700 42.45500
C  -11.56600 33.94700 41.81500
C  -11.33400 35.35800 41.63500
C  -13.45400 32.54700 42.90500
C  -10.37700 33.34300 41.29700
O  -10.11700 32.12100 41.21600
C  -9.34600 34.49300 40.84200
C  -8.31400 34.33900 41.89900
O  -8.45500 34.48200 43.10900
O  -7.00900 34.11200 41.38200
C  -5.90700 34.12500 42.32800
H  -9.64400 41.31000 40.17200
H  -15.59900 41.15500 42.60700
H  -15.05000 34.94500 43.59400
H  -7.54200 37.05800 40.56400
H  -8.25900 39.38700 39.10000
H  -6.56000 38.89900 41.24400
H  -7.81000 39.84700 42.05300
H  -7.02700 40.49800 40.58700
H  -8.48900 37.78800 37.70700
H  -8.95800 36.12900 38.24300
H  -7.10900 35.39400 37.47000
H  -6.24100 36.11000 38.82000
H  -11.58200 43.44100 39.08600
H  -10.16900 43.50100 40.19300
H  -11.36400 44.41800 40.68000
H  -16.42000 43.07500 41.89400
H  -15.85600 44.63700 42.41600
H  -15.42300 43.07300 43.29600
H  -17.11400 39.00200 42.50500
H  -16.15600 37.16300 44.74500
H  -17.76800 40.33900 44.25600
H  -16.21200 40.31000 45.05600
H  -17.43300 39.02200 45.35500
H  -17.27000 36.16000 42.17400
H  -18.36400 37.13200 42.94800
H  -18.80200 35.42500 44.18600
H  -17.16300 35.04000 44.87200
H  -17.64300 34.36300 43.30400
H  -13.10300 31.66500 42.36800
H  -14.54000 32.56800 42.82100
H  -13.40800 32.54000 43.99400
H  -9.04200 34.28300 39.81700
H  -5.68200 35.15200 42.61600
H  -5.23300 33.61300 41.64200
H  -5.98400 33.45900 43.18700

