158

Mg 48.13200 15.54800 28.79500
C  45.91000 15.41300 31.58400
C  50.08100 17.66400 30.69800
C  50.01300 15.92700 26.21400
C  45.54500 14.10800 26.90400
N  47.97400 16.28600 30.91000
C  47.09000 16.11600 31.84200
C  47.47900 16.80200 33.17600
C  48.59000 17.75500 32.71800
C  48.92800 17.19500 31.30200
C  48.19300 19.22500 32.91800
C  47.91400 15.61000 34.10800
C  47.68000 15.86600 35.64200
H  47.65200 17.21800 36.38700
N  49.88900 16.50700 28.53500
C  50.59300 17.22600 29.40400
C  51.80400 17.72600 28.76600
C  51.86900 17.09500 27.46900
C  50.54900 16.42600 27.37200
C  52.77100 18.69800 29.44300
C  53.00100 17.24500 26.43900
O  52.96100 16.61100 25.35600
C  54.27900 17.85900 26.83800
N  47.74000 15.24900 26.80900
C  48.74700 15.36700 25.96000
C  48.42900 14.82300 24.51300
C  46.96200 14.40100 24.70300
C  46.69700 14.54400 26.19300
C  48.56700 15.88800 23.43800
C  46.87800 13.01800 24.07500
C  47.50200 11.84400 24.87600
N  46.14400 14.88000 29.12100
C  45.28500 14.20400 28.26800
C  44.05200 13.91300 28.96400
C  44.29100 14.28600 30.27400
C  45.56000 14.91400 30.34600
C  42.76400 13.26100 28.40700
C  43.70400 14.27100 31.58300
O  42.58500 13.90900 31.92800
C  44.75000 14.99900 32.47200
C  44.10700 16.11800 33.16200
O  43.77900 17.16000 32.61800
O  43.81900 15.72000 34.43100
C  42.86100 16.60100 35.12100
H  50.60300 18.45600 31.23900
H  50.70000 15.87100 25.36700
H  44.84000 13.49200 26.34200
H  46.60700 17.29500 33.60500
H  49.55400 17.61700 33.20800
H  47.17600 19.29600 33.30300
H  48.20000 19.74500 31.96000
H  48.89100 19.72100 33.59200
H  48.96900 15.45200 33.88400
H  47.47000 14.65100 33.84000
H  48.46900 15.30600 36.14400
H  46.76900 15.46000 36.08200
H  53.02000 19.46600 28.71100
H  53.54700 17.95600 29.63200
H  52.45200 19.01800 30.43500
H  55.03500 17.77900 26.05700
H  54.66700 17.24000 27.64700
H  54.32400 18.90400 27.14600
H  49.16900 14.05900 24.27300
H  46.21000 15.04300 24.24300
H  49.63800 16.07700 23.37300
H  48.17700 16.88100 23.66500
H  48.10800 15.49000 22.53300
H  47.35300 13.01100 23.09400
H  45.81000 12.89800 23.89300
H  46.74100 11.09700 25.10300
H  47.95500 12.17300 25.81100
H  48.30000 11.40400 24.27800
H  42.31400 12.82400 29.29800
H  43.02500 12.50500 27.66600
H  42.10900 14.05400 28.04500
H  45.08400 14.21500 33.15200
H  43.40200 17.31700 35.74000
H  42.40000 15.95600 35.86900
H  42.02800 17.04400 34.57600
Mg 6.93200 55.55800 39.80500
C  5.00600 52.58000 39.80700
C  9.78200 53.58300 38.97000
C  8.67200 58.48200 39.40300
C  3.86900 57.36800 39.59800
N  7.25600 53.42900 39.19300
C  6.34900 52.38800 39.33400
C  6.97900 51.03800 39.02100
C  8.56400 51.30800 39.02400
C  8.51900 52.87500 39.05400
C  9.32800 50.62100 40.17200
C  6.55700 50.37300 37.72200
C  5.93300 51.24300 36.55900
H  6.47300 51.16100 35.14400
N  8.99000 56.01700 39.30600
C  9.96900 55.05000 39.01900
C  11.26300 55.81700 38.95300
C  10.94700 57.16200 39.02900
C  9.47900 57.28700 39.29300
C  12.60600 55.19500 38.74600
C  11.94900 58.28000 38.97800
O  13.15500 58.02100 38.90900
C  11.50400 59.58800 39.18400
N  6.31200 57.57800 39.50800
C  7.25300 58.60300 39.41900
C  6.50600 59.92000 39.79200
C  4.99500 59.58200 39.37200
C  5.04400 58.07500 39.51900
C  6.65500 60.53600 41.19200
C  4.43500 60.24600 38.12900
C  3.03700 60.86100 38.09200
N  4.87900 55.17600 39.95100
C  3.77000 56.00100 39.77800
C  2.58800 55.16100 39.91600
C  3.07200 53.83500 40.13300
C  4.46500 53.89000 40.05200
C  1.15400 55.65700 39.73600
C  2.55500 52.50200 40.33000
O  1.42900 52.16100 40.55300
C  3.85600 51.67100 40.21900
C  3.73300 50.42500 39.39300
O  3.26400 50.39800 38.24700
O  4.13800 49.32400 40.15800
C  4.02900 47.98400 39.57400
H  10.70000 53.01600 38.80000
H  9.05200 59.50200 39.48100
H  3.00600 58.03200 39.51300
H  6.70100 50.29000 39.76300
H  9.05700 50.97900 38.11000
H  9.48000 51.32800 40.98800
H  10.30000 50.30300 39.79300
H  8.90900 49.70100 40.57700
H  5.87800 49.58500 38.04600
H  7.43900 49.85800 37.34200
H  5.90300 52.31600 36.75000
H  4.94100 50.79300 36.60700
H  13.08600 55.58800 37.85000
H  12.41900 54.12600 38.64800
H  13.16600 55.38800 39.66100
H  12.34300 60.27600 39.07500
H  11.22400 59.72400 40.22800
H  10.79000 59.81100 38.39100
H  6.98300 60.55900 39.05000
H  4.38800 59.91600 40.21300
H  7.39200 60.00400 41.79300
H  5.82400 60.62200 41.89200
H  7.07200 61.53700 41.08300
H  4.42400 59.47100 37.36300
H  5.24900 60.91000 37.84100
H  2.51600 60.39400 37.25600
H  3.24700 61.91800 37.92400
H  2.49100 60.74100 39.02700
H  0.62500 55.60700 40.68800
H  0.74400 55.14500 38.86500
H  1.26700 56.69900 39.43700
H  3.97100 51.27800 41.22900
H  3.86100 47.98800 38.49700
H  3.20600 47.45000 40.04900
H  4.93400 47.40900 39.77200

