158

Mg 9.36300 4.93800 28.39300
C  10.75200 3.20900 31.11100
C  7.36700 6.59400 30.44200
C  8.10400 6.58900 25.75400
C  11.27400 2.97700 26.15100
N  9.32900 4.99000 30.62900
C  9.91200 4.18900 31.55700
C  9.40200 4.46500 32.96000
C  8.31700 5.59700 32.75800
C  8.26200 5.69000 31.17800
C  6.89200 5.33500 33.44500
C  10.60400 4.90300 33.82300
C  10.31500 5.88100 34.97500
H  11.01100 5.73600 36.34500
N  7.80100 6.34500 28.08700
C  7.12400 6.91000 29.08000
C  6.10600 7.76100 28.49000
C  6.42900 7.86700 27.07700
C  7.47400 6.90700 26.92200
C  5.09200 8.36400 29.41500
C  5.82700 8.71700 26.02300
O  6.22900 8.87800 24.91600
C  4.65900 9.51700 26.50900
N  9.45900 4.61300 26.18200
C  9.00500 5.61100 25.40900
C  9.35900 5.41300 23.97000
C  10.67600 4.49500 24.07600
C  10.48600 3.95300 25.54500
C  8.21300 4.98700 23.06100
C  11.99100 5.26000 23.80000
C  12.28000 6.48200 24.67400
N  10.61700 3.34200 28.55200
C  11.30700 2.62700 27.53900
C  12.06100 1.60800 28.17100
C  11.89600 1.83200 29.55500
C  11.04100 2.89900 29.71700
C  12.77200 0.37000 27.57000
C  12.24400 1.28500 30.83000
O  12.97800 0.30600 31.10100
C  11.51600 2.17500 31.95600
C  10.57900 1.23900 32.65300
O  9.85100 0.46300 32.01900
O  10.88900 1.11400 33.98200
C  10.04000 0.22100 34.66400
H  6.75600 7.28200 31.02900
H  7.92000 7.19900 24.86700
H  11.88700 2.40000 25.45500
H  9.02700 3.51300 33.33500
H  8.75100 6.53700 33.10000
H  6.15200 5.19400 32.65800
H  6.71000 6.20100 34.08200
H  6.97900 4.43300 34.05100
H  11.23200 5.46200 33.13000
H  11.12100 3.99900 34.14300
H  9.28300 6.09800 35.25000
H  10.64900 6.87600 34.68200
H  4.92700 7.80700 30.33700
H  4.12400 8.43000 28.91900
H  5.48100 9.33300 29.72800
H  4.31300 10.12400 25.67300
H  4.86700 10.27100 27.26900
H  3.85400 8.87900 26.87300
H  9.73400 6.39600 23.68600
H  10.60300 3.77200 23.26400
H  8.15100 3.98600 22.63300
H  8.18500 5.71400 22.24900
H  7.26100 5.05800 23.58600
H  11.91500 5.66500 22.79100
H  12.75500 4.48900 23.69900
H  11.48700 6.66300 25.40000
H  12.42100 7.31300 23.98300
H  13.22000 6.25700 25.17900
H  12.07800 -0.05200 26.84300
H  13.06800 -0.35000 28.33300
H  13.68200 0.65100 27.04200
H  12.25700 2.65600 32.59400
H  9.16500 0.63000 35.16800
H  10.62700 -0.19700 35.48200
H  9.82600 -0.63600 34.02600
Mg -10.96100 39.11200 40.18000
C  -10.17100 35.62200 39.98600
C  -7.78600 39.79600 39.17000
C  -12.03700 42.24700 39.87300
C  -14.32800 38.05900 41.02200
N  -9.21600 37.81700 39.51000
C  -9.09100 36.45200 39.55300
C  -7.68400 36.06600 39.05300
C  -6.85000 37.38700 39.23700
C  -8.02300 38.40800 39.32100
C  -5.85300 37.49800 40.41700
C  -7.59600 35.30500 37.69400
C  -7.00000 35.98500 36.51500
H  -7.79600 37.05500 35.72400
N  -10.01200 40.78900 39.54300
C  -8.69500 40.86700 39.32000
C  -8.41900 42.28700 39.20900
C  -9.56300 43.02500 39.36800
C  -10.60000 42.05000 39.60600
C  -6.98200 42.78200 38.98100
C  -9.70400 44.54100 39.44000
O  -8.69900 45.22500 39.29100
C  -10.90800 45.22300 39.73700
N  -12.98400 39.93600 40.22300
C  -13.06800 41.28900 40.09400
C  -14.50200 41.82300 40.29000
C  -15.20700 40.48800 40.94700
C  -14.17500 39.39500 40.57300
C  -14.63000 43.04300 41.18200
C  -16.66200 40.22800 40.48900
C  -17.73300 40.75000 41.37700
N  -12.03800 37.26200 40.59300
C  -13.35400 37.04100 41.02000
C  -13.50500 35.56700 41.31500
C  -12.26200 35.00100 40.86700
C  -11.42800 36.08800 40.45600
C  -14.67800 34.82500 41.90400
C  -11.55400 33.70600 40.69400
O  -11.83400 32.59100 41.02600
C  -10.26200 34.09700 39.90800
C  -9.07800 33.31100 40.47200
O  -8.66500 33.32000 41.57700
O  -8.40400 32.73800 39.41500
C  -7.34200 31.86900 39.76400
H  -6.74900 40.09400 39.00400
H  -12.39900 43.27500 39.80000
H  -15.35400 37.82900 41.31400
H  -7.26700 35.30000 39.70600
H  -6.30500 37.62400 38.32300
H  -6.04700 38.38000 41.02800
H  -4.92400 37.69300 39.88100
H  -5.74800 36.62700 41.06400
H  -8.59500 34.90500 37.51600
H  -6.99100 34.42300 37.90300
H  -6.86900 35.17200 35.80100
H  -5.98100 36.31500 36.71900
H  -7.21100 43.56700 38.26000
H  -6.40000 41.97400 38.53700
H  -6.50500 43.17000 39.88100
H  -11.29400 44.93100 40.71400
H  -11.51900 44.83100 38.92300
H  -10.84200 46.30700 39.64000
H  -15.00400 41.94300 39.33000
H  -15.31400 40.57100 42.02800
H  -15.14700 42.79500 42.10900
H  -15.21700 43.78300 40.63900
H  -13.69900 43.48200 41.54100
H  -16.76600 39.14400 40.44700
H  -16.85800 40.65800 39.50700
H  -17.32800 41.16900 42.29900
H  -18.41900 39.93100 41.58900
H  -18.28400 41.52700 40.84700
H  -14.72600 34.99100 42.98000
H  -14.49100 33.75400 41.82700
H  -15.54800 35.25100 41.40400
H  -10.51400 33.68200 38.93300
H  -6.64000 31.80100 38.93300
H  -7.84400 30.91000 39.89300
H  -6.82900 32.16000 40.68000

