158

Mg 7.77700 2.67600 27.22000
C  9.31400 1.54600 30.21200
C  5.86700 4.85800 29.07400
C  6.79000 4.14600 24.31800
C  9.81500 0.50500 25.50300
N  7.66100 3.14600 29.35000
C  8.37300 2.57600 30.41300
C  8.15800 3.37400 31.70200
C  6.79700 4.14100 31.38800
C  6.73700 4.03400 29.79700
C  5.48400 3.67100 32.16100
C  9.39400 4.17500 32.16100
C  9.22200 4.75700 33.58700
H  10.12700 4.26700 34.76700
N  6.33100 4.19100 26.70200
C  5.68800 4.93000 27.65900
C  4.75600 5.81800 27.03100
C  5.09100 5.77400 25.58900
C  6.06900 4.65500 25.45000
C  3.84400 6.74200 27.75300
C  4.66700 6.68500 24.40400
O  5.10200 6.60500 23.27200
C  3.65600 7.72900 24.80500
N  8.17300 2.30000 25.23900
C  7.72100 3.12900 24.24500
C  8.11200 2.57900 22.85800
C  9.07900 1.42200 23.22400
C  8.98000 1.39100 24.71000
C  6.97100 2.19000 21.84000
C  10.49700 1.75900 22.80700
C  11.30900 2.66100 23.74400
N  9.19700 1.21600 27.69200
C  9.97500 0.42200 26.88800
C  10.84900 -0.39900 27.71200
C  10.60300 0.03400 29.00300
C  9.55500 0.92400 29.02700
C  11.79400 -1.44100 27.20700
C  11.00400 -0.17600 30.34900
O  11.90600 -0.96000 30.70900
C  10.32800 0.85600 31.19100
C  9.68300 0.17300 32.30000
O  8.59300 -0.37600 32.29200
O  10.44900 0.37700 33.42100
C  9.81700 0.04400 34.68000
H  5.26100 5.42300 29.78500
H  6.67300 4.53600 23.30500
H  10.41300 -0.22600 24.95500
H  7.92900 2.61700 32.45200
H  6.82500 5.17600 31.72700
H  5.75800 2.74200 32.66000
H  4.73600 3.47000 31.39400
H  5.11300 4.44800 32.83000
H  9.42700 5.05500 31.52000
H  10.36800 3.68500 32.13700
H  8.18600 4.51100 33.81900
H  9.30300 5.82600 33.38600
H  4.13200 7.79300 27.76800
H  3.67000 6.32500 28.74500
H  2.85200 6.57500 27.33500
H  2.81300 7.14300 25.17100
H  3.42600 8.41500 23.99000
H  4.07800 8.28400 25.64200
H  8.68200 3.32000 22.29800
H  8.88800 0.43500 22.80300
H  5.95100 2.35800 22.18500
H  7.18500 1.14400 21.62100
H  7.12700 2.74200 20.91300
H  10.40000 2.17300 21.80300
H  10.99700 0.79000 22.79100
H  10.73700 3.06300 24.58000
H  11.51900 3.57100 23.18300
H  12.19500 2.13300 24.09700
H  11.97000 -1.30600 26.14000
H  11.50300 -2.48300 27.33900
H  12.70300 -1.32700 27.79700
H  11.08000 1.59400 31.47200
H  8.79000 -0.32000 34.65500
H  9.71400 0.93800 35.29400
H  10.46500 -0.74300 35.06600
Mg 1.54000 41.83500 25.63000
C  2.57700 42.23400 29.02800
C  -1.56100 40.89400 26.88700
C  0.47800 41.63500 22.52700
C  4.75500 42.77500 24.57400
N  0.60000 41.76900 27.73900
C  1.21900 41.89000 28.94800
C  0.25000 41.74800 30.09600
C  -1.00900 40.99100 29.42000
C  -0.66400 41.17400 27.91400
C  -1.28700 39.47800 29.86500
C  0.00900 43.05300 30.77400
C  -0.74100 43.01600 32.13200
H  -1.47100 41.74600 32.60200
N  -0.33600 41.34100 24.80100
C  -1.48000 41.02500 25.49200
C  -2.40700 40.59200 24.50500
C  -1.93100 40.92100 23.24500
C  -0.58100 41.38200 23.48200
C  -3.82700 40.15500 24.84800
C  -2.54000 40.69400 21.83800
O  -2.03500 41.25900 20.85200
C  -3.81700 39.90500 21.67100
N  2.51200 42.06800 23.84000
C  1.85000 41.89700 22.68500
C  2.84100 42.05100 21.47800
C  4.19500 42.35800 22.19700
C  3.81300 42.51800 23.61300
C  2.71800 40.84900 20.50500
C  4.94500 43.56100 21.63600
C  5.02700 43.60500 20.13000
N  3.33000 42.39300 26.54600
C  4.56000 42.80800 25.98000
C  5.50500 43.06600 27.11200
C  4.82000 42.77000 28.27400
C  3.48800 42.42400 27.91300
C  6.94300 43.39100 26.99400
C  4.91900 42.65400 29.72300
O  5.87300 42.85100 30.48400
C  3.49000 42.23100 30.27700
C  3.57300 40.87600 30.91700
O  4.28200 39.95200 30.56300
O  2.65800 40.75000 31.95600
C  2.54100 39.41600 32.50600
H  -2.51000 40.48800 27.24200
H  0.17100 41.68700 21.48000
H  5.81500 42.93000 24.36200
H  0.58000 41.03300 30.85000
H  -1.87800 41.60300 29.66300
H  -1.31900 38.73100 29.07100
H  -2.25400 39.49300 30.36800
H  -0.57200 39.11400 30.60300
H  -0.57600 43.65000 30.07500
H  1.00700 43.48400 30.85100
H  -1.31200 43.94400 32.13100
H  0.14300 43.15400 32.75500
H  -4.58600 40.45000 24.12400
H  -4.21500 40.56800 25.77900
H  -3.79300 39.10000 25.11800
H  -3.81700 39.02900 22.32000
H  -3.84700 39.58200 20.63000
H  -4.71000 40.49100 21.88900
H  2.46000 42.84400 20.83400
H  4.86200 41.49700 22.22700
H  3.35500 40.03300 20.84500
H  2.89800 41.11500 19.46300
H  1.68700 40.49600 20.54700
H  5.94800 43.31800 21.98700
H  4.62800 44.51200 22.06500
H  4.71300 44.49900 19.59100
H  4.46900 42.79200 19.66500
H  6.06400 43.32600 19.94500
H  7.27600 43.30300 25.96000
H  7.55400 42.66700 27.53200
H  7.16200 44.33200 27.49800
H  3.07500 42.90700 31.02500
H  2.20600 38.64800 31.80900
H  1.83700 39.44300 33.33700
H  3.51000 39.15500 32.93300

