158

Mg 1.64200 8.54500 27.00800
C  2.18500 10.25800 29.96100
C  1.65100 5.58300 28.71500
C  1.41400 6.91500 24.04500
C  2.30600 11.54100 25.26400
N  1.85700 8.01900 29.03000
C  1.97000 8.90700 30.13000
C  1.85000 8.19400 31.48100
C  2.11500 6.73400 30.99700
C  1.81100 6.74400 29.46700
C  3.40500 6.14000 31.32800
C  0.43800 8.55100 32.15100
C  0.44600 8.81300 33.68600
H  1.70600 8.36800 34.41900
N  1.32000 6.55500 26.49800
C  1.36100 5.49000 27.32400
C  0.96000 4.26300 26.59600
C  0.94800 4.60600 25.21600
C  1.27800 6.06700 25.21500
C  0.61600 3.00200 27.26100
C  0.70900 3.71200 23.99400
O  0.48700 4.07000 22.81300
C  0.76300 2.23000 24.18300
N  1.72500 9.07800 24.99500
C  1.61900 8.26000 23.88600
C  1.55800 8.95800 22.58100
C  1.55000 10.44100 23.07400
C  1.98700 10.35200 24.53500
C  2.80400 8.64300 21.72000
C  0.21800 11.28100 22.82600
C  0.29100 12.20000 21.58100
N  2.26100 10.50200 27.45200
C  2.47800 11.61300 26.66700
C  2.77200 12.79300 27.48400
C  2.69300 12.30900 28.78700
C  2.41100 10.95300 28.73100
C  3.01400 14.19100 26.96000
C  2.79400 12.65600 30.19100
O  3.17300 13.67700 30.64800
C  2.47000 11.34400 31.01800
C  3.64200 11.18600 31.83700
O  4.55700 10.47300 31.56500
O  3.37600 11.80600 33.05200
C  4.18900 11.40300 34.15600
H  1.70500 4.55900 29.09000
H  1.21900 6.38200 23.11100
H  2.48600 12.47900 24.73600
H  2.65900 8.50000 32.14500
H  1.42500 6.11400 31.56900
H  4.21200 6.37100 30.63200
H  3.32000 5.05800 31.42100
H  3.79100 6.47400 32.29100
H  -0.10100 7.61200 32.02500
H  -0.11100 9.38200 31.70900
H  -0.42300 8.35700 34.15900
H  0.29700 9.88400 33.82400
H  0.18900 3.31700 28.21300
H  1.47300 2.39500 27.55100
H  -0.25000 2.52700 26.79900
H  1.70200 1.88200 24.61300
H  0.74100 1.75900 23.20000
H  -0.05800 1.87700 24.80600
H  0.62800 8.58700 22.14900
H  2.38300 11.03800 22.70400
H  2.88600 9.37900 20.92000
H  2.73900 7.61900 21.35300
H  3.72100 8.94900 22.22400
H  -0.09100 11.92100 23.65200
H  -0.58300 10.55200 22.70500
H  1.19500 11.92100 21.04000
H  0.46200 13.26300 21.75000
H  -0.66000 12.15300 21.04900
H  3.51500 13.97900 26.01600
H  3.75000 14.69800 27.58400
H  2.09000 14.76800 26.91800
H  1.61800 11.64700 31.62600
H  4.94300 12.19000 34.18900
H  4.54200 10.38500 33.99300
H  3.69600 11.46600 35.12700
Mg 47.40100 35.75300 26.09700
C  45.53400 33.98400 28.65300
C  47.48300 38.32800 28.27500
C  49.08100 37.26000 23.79300
C  46.43800 33.15900 23.84900
N  46.55200 36.06100 28.26100
C  46.03100 35.15900 29.12400
C  46.02000 35.65800 30.54400
C  46.11400 37.21600 30.26100
C  46.82900 37.25600 28.88600
C  44.76900 37.97100 30.21400
C  47.23400 35.16800 31.36600
C  46.94400 34.78700 32.84800
H  45.77100 35.44400 33.63800
N  48.22000 37.51300 26.09100
C  48.11400 38.51800 27.03700
C  48.87500 39.71100 26.55000
C  49.31700 39.42300 25.16600
C  48.89500 38.02200 24.97600
C  48.78200 40.99600 27.21900
C  49.96800 40.24600 24.22700
O  50.38600 39.86100 23.15900
C  50.21400 41.72600 24.52700
N  47.78700 35.17300 24.19200
C  48.53200 36.04900 23.45200
C  48.81900 35.40100 22.07300
C  47.93200 34.10200 22.04400
C  47.31600 34.12700 23.38600
C  48.40500 36.39600 20.84800
C  48.78400 32.81600 21.83500
C  48.19200 31.56600 21.13000
N  46.17100 33.92400 26.13900
C  45.96500 32.93700 25.19200
C  45.27200 31.80100 25.81900
C  45.06500 32.20300 27.13200
C  45.63200 33.47700 27.30100
C  44.99100 30.48800 25.18500
C  44.40700 31.76700 28.33900
O  43.73800 30.73700 28.60300
C  44.62000 32.96900 29.43700
C  45.29600 32.30400 30.58600
O  46.49500 32.11900 30.66400
O  44.36700 31.83800 31.54200
C  44.78600 31.14600 32.69600
H  47.24100 39.16600 28.93200
H  49.68700 37.60600 22.95300
H  46.34100 32.39600 23.07300
H  45.08800 35.47400 31.07900
H  46.70100 37.57300 31.10800
H  43.99500 37.26100 30.50700
H  44.45000 38.35600 29.24500
H  44.90000 38.85100 30.84300
H  48.02600 35.91400 31.29700
H  47.60100 34.23000 30.94800
H  47.83200 35.06000 33.41900
H  46.81300 33.70600 32.89300
H  49.77100 41.43800 27.34100
H  48.37400 40.90500 28.22600
H  48.13200 41.71800 26.72500
H  49.42800 42.24000 25.07900
H  50.45800 42.13200 23.54500
H  51.11400 41.61100 25.13100
H  49.88000 35.15400 22.04200
H  47.18900 34.28600 21.26800
H  47.57800 37.04500 21.13900
H  48.17100 35.80300 19.96400
H  49.16600 37.13700 20.60400
H  49.09000 32.54200 22.84500
H  49.73700 33.02900 21.35000
H  48.74500 31.24200 20.24900
H  47.19400 31.76000 20.73700
H  48.15300 30.73700 21.83700
H  44.02400 30.55000 24.68600
H  45.07500 29.69000 25.92400
H  45.77200 30.32000 24.44400
H  43.65000 33.38600 29.71000
H  44.06300 31.50900 33.42700
H  45.80900 31.31900 33.02800
H  44.48800 30.11600 32.49900

