158

Mg 8.14600 3.17200 27.11300
C  9.74100 1.84000 29.94200
C  6.16500 5.09000 29.17100
C  6.60000 4.22100 24.36700
C  9.72600 0.57800 25.24900
N  7.91400 3.33000 29.28500
C  8.73800 2.78100 30.19900
C  8.57400 3.48400 31.58900
C  7.25500 4.30000 31.38500
C  7.11200 4.31900 29.83900
C  5.90200 3.66400 31.97300
C  9.82700 4.32000 32.09600
C  9.52500 5.04500 33.42300
H  10.53700 4.94300 34.49900
N  6.65600 4.55400 26.80400
C  5.93300 5.20800 27.77100
C  5.08500 6.18800 27.15400
C  5.19300 5.97200 25.74400
C  6.18600 4.85200 25.59800
C  4.09300 7.13400 27.85000
C  4.48200 6.67600 24.62200
O  4.71900 6.48700 23.44800
C  3.42200 7.62600 24.84800
N  8.18500 2.51400 25.11100
C  7.40600 3.10900 24.13000
C  7.54000 2.47300 22.73500
C  8.62600 1.32900 23.03000
C  8.89000 1.50200 24.55100
C  6.20200 2.06500 22.03700
C  9.83800 1.31700 22.06200
C  9.84600 0.23500 21.00100
N  9.47300 1.52800 27.45000
C  10.00500 0.61200 26.62800
C  10.94500 -0.26900 27.38600
C  10.89600 0.19400 28.66900
C  9.95600 1.26900 28.69000
C  11.67100 -1.38100 26.88900
C  11.40000 -0.01700 30.02000
O  12.19300 -0.81400 30.43100
C  10.76000 1.06300 30.89600
C  10.05000 0.34800 31.97100
O  8.87400 -0.12200 31.88800
O  10.84300 0.46900 33.12400
C  10.10100 -0.09200 34.33900
H  5.61200 5.81300 29.77300
H  6.07400 4.53500 23.46300
H  10.15400 -0.21500 24.63300
H  8.47600 2.71100 32.35100
H  7.35500 5.33900 31.70000
H  5.49800 4.12500 32.87400
H  6.08300 2.61600 32.21400
H  5.14600 3.56900 31.19400
H  10.07900 5.10900 31.38800
H  10.69200 3.66600 32.20900
H  8.53500 4.85500 33.83700
H  9.56500 6.11500 33.22100
H  3.09600 6.91100 27.47000
H  4.21700 8.18000 27.57100
H  4.07000 7.07700 28.93900
H  2.63500 7.16900 25.44900
H  2.78800 7.68000 23.96300
H  3.74500 8.52100 25.38000
H  8.01500 3.22400 22.10500
H  8.12600 0.36200 22.98800
H  5.34200 2.20700 22.69200
H  6.37300 1.02900 21.74200
H  6.11100 2.63900 21.11500
H  10.77600 1.15000 22.59200
H  9.94300 2.24900 21.50700
H  9.93800 0.71900 20.02900
H  8.85600 -0.22000 21.02800
H  10.60400 -0.54500 21.07700
H  12.69500 -1.10200 26.64100
H  11.27500 -1.57100 25.89200
H  11.53700 -2.19500 27.60200
H  11.41300 1.85300 31.26600
H  9.53700 -0.98400 34.06600
H  9.33900 0.58400 34.72700
H  10.81700 -0.33800 35.12300
Mg 47.18100 17.12600 28.28000
C  45.33000 16.81500 31.26500
C  49.27100 19.50300 29.86300
C  48.28700 18.11100 25.32900
C  44.51500 15.47000 26.70000
N  47.18400 18.10600 30.26600
C  46.49400 17.63300 31.33300
C  47.08200 18.17900 32.62300
C  48.22400 19.15600 32.16400
C  48.27200 18.92800 30.64900
C  48.08100 20.66600 32.61300
C  47.48600 16.98400 33.53900
C  46.97900 17.01900 34.94400
H  46.73100 18.43800 35.66000
N  48.89600 18.34100 27.70900
C  49.53400 19.26800 28.44500
C  50.47800 19.82200 27.61000
C  50.36300 19.34000 26.29500
C  49.13700 18.55500 26.38200
C  51.35800 20.87500 27.98000
C  51.22200 19.55400 25.09700
O  50.91500 19.17200 23.94100
C  52.47000 20.43200 25.20600
N  46.53300 16.79300 26.32700
C  47.14400 17.38300 25.24500
C  46.41700 16.99600 23.98100
C  45.16400 16.22000 24.42700
C  45.40800 16.18900 25.93000
C  46.17200 18.27900 23.14800
C  44.92400 14.85100 23.79500
C  44.51500 14.82600 22.33600
N  45.40200 16.21100 28.82600
C  44.46200 15.55900 28.11000
C  43.40900 15.07700 28.99100
C  43.76200 15.47600 30.27500
C  44.96600 16.24400 30.15400
C  42.21500 14.12800 28.54900
C  43.38100 15.40600 31.67400
O  42.45600 14.83500 32.23100
C  44.38100 16.30700 32.36900
C  43.62800 17.53000 33.01800
O  43.27300 18.53400 32.46500
O  43.36500 17.26300 34.30400
C  42.67300 18.27800 35.08000
H  49.97200 20.13100 30.41700
H  48.72900 18.36300 24.36300
H  43.69300 15.02700 26.13400
H  46.31500 18.74500 33.15200
H  49.18900 18.86200 32.57400
H  48.07800 21.46300 31.87000
H  48.90800 20.88000 33.29000
H  47.15700 20.78800 33.17700
H  48.56800 16.93500 33.41700
H  47.14200 16.03000 33.13800
H  47.67400 16.47900 35.58600
H  46.01300 16.51400 34.92700
H  52.36700 20.48200 27.85500
H  51.47300 21.07900 29.04500
H  50.97500 21.76100 27.47300
H  53.27900 19.84400 25.63800
H  52.28400 21.33100 25.79500
H  52.65900 20.72600 24.17400
H  47.15200 16.40500 23.43300
H  44.26500 16.78300 24.17400
H  45.11900 18.39800 22.89400
H  46.64300 18.32100 22.16600
H  46.47700 19.19900 23.64700
H  43.94400 14.52600 24.14400
H  45.62100 14.09700 24.15700
H  44.48800 15.84100 21.94100
H  43.52700 14.36700 22.30400
H  45.21400 14.23000 21.74800
H  42.39800 13.20600 27.99700
H  41.46200 14.64700 27.95600
H  41.72000 13.83500 29.47600
H  44.75700 15.81700 33.26700
H  42.55500 18.03300 36.13600
H  41.66100 18.40100 34.69400
H  43.26100 19.19000 34.98300

