158

Mg -0.82800 18.29200 26.96500
C  -1.56800 15.85100 29.54900
C  -1.71000 20.80600 29.13900
C  -0.55500 20.37600 24.43700
C  -0.51900 15.52500 24.76400
N  -1.56900 18.25700 29.00100
C  -1.69900 17.16800 29.90800
C  -1.92100 17.69400 31.37100
C  -2.28400 19.23300 31.13200
C  -1.89800 19.48600 29.62400
C  -3.79400 19.59900 31.40700
C  -0.59900 17.65100 32.17200
C  -0.92800 17.28100 33.61500
H  0.17700 17.09500 34.68900
N  -0.97600 20.33800 26.83800
C  -1.22700 21.20400 27.83800
C  -1.20100 22.54900 27.32600
C  -0.78600 22.50000 25.96400
C  -0.77700 21.02100 25.69000
C  -1.61100 23.70400 28.17500
C  -0.40200 23.59100 24.99600
O  -0.15400 23.33200 23.82100
C  -0.17000 25.01000 25.59400
N  -0.72400 17.97300 24.96900
C  -0.53000 19.04300 24.11700
C  -0.39900 18.64800 22.67300
C  -0.29500 17.14300 22.74900
C  -0.45900 16.86800 24.22500
C  -1.53300 19.16200 21.81100
C  1.06600 16.66200 22.22600
C  2.31900 17.25500 22.93200
N  -1.05700 16.15800 27.05100
C  -0.89400 15.19400 26.09600
C  -1.24400 13.94000 26.62400
C  -1.45900 14.15100 28.01700
C  -1.35700 15.47600 28.22200
C  -1.36500 12.69800 25.86200
C  -1.79800 13.49200 29.30700
O  -1.96400 12.32300 29.62900
C  -1.72400 14.56300 30.30700
C  -0.57200 14.27700 31.17900
O  0.49100 14.84600 31.00600
O  -0.90300 13.49100 32.22800
C  0.08500 13.13500 33.23900
H  -2.04800 21.57800 29.83200
H  -0.30700 21.01500 23.58700
H  -0.44700 14.70500 24.04700
H  -2.70800 17.12400 31.86500
H  -1.73200 19.86600 31.82800
H  -4.01200 20.31800 32.19600
H  -4.23700 18.65600 31.72800
H  -4.20500 19.98200 30.47300
H  -0.07300 18.58800 32.35700
H  0.20000 17.02400 31.77700
H  -1.21400 16.25700 33.37800
H  -1.79100 17.86500 33.93400
H  -0.74300 24.15900 28.65300
H  -2.28600 23.42600 28.98500
H  -2.06100 24.46600 27.54000
H  0.19800 25.48500 24.68500
H  0.67800 24.87700 26.26500
H  -1.01100 25.51900 26.06500
H  0.48400 19.13600 22.25900
H  -1.05000 16.55400 22.22800
H  -2.07100 18.31900 21.37800
H  -1.10900 19.67900 20.95000
H  -2.30000 19.76800 22.29400
H  1.15900 17.03400 21.20600
H  1.12000 15.58000 22.10600
H  2.91600 17.68900 22.13000
H  2.73800 16.34200 23.35400
H  2.05700 17.92100 23.75400
H  -1.47700 12.89200 24.79600
H  -2.33800 12.24200 26.04800
H  -0.57300 12.02900 26.19700
H  -2.65800 14.60400 30.86600
H  1.03900 13.62200 33.03800
H  0.10100 12.05000 33.34000
H  -0.30800 13.46600 34.20000
Mg -10.36800 38.75600 40.50900
C  -8.23200 36.09300 39.57300
C  -7.95600 40.92700 39.14900
C  -12.57300 41.13800 40.48100
C  -12.83100 36.39200 41.38300
N  -8.37700 38.48600 39.24700
C  -7.73700 37.33100 39.04100
C  -6.35200 37.58200 38.38300
C  -6.14900 39.13300 38.66200
C  -7.58300 39.59000 39.00300
C  -5.16300 39.60000 39.72800
C  -6.42800 37.22500 36.90100
C  -5.71200 35.93100 36.39800
H  -6.37400 35.38200 35.18100
N  -10.26800 40.79500 40.14000
C  -9.20100 41.52000 39.59800
C  -9.44900 42.91100 39.67700
C  -10.76900 43.07700 40.22500
C  -11.26900 41.65800 40.30900
C  -8.58900 43.99400 39.17900
C  -11.53500 44.40900 40.56200
O  -11.04700 45.52800 40.43000
C  -12.82900 44.25700 41.30000
N  -12.41500 38.72500 40.62400
C  -13.11500 39.90000 40.63600
C  -14.63800 39.59200 40.73300
C  -14.75800 38.03900 40.94200
C  -13.22000 37.70600 41.02300
C  -15.40100 40.43300 41.78900
C  -15.47600 37.25600 39.86000
C  -16.55500 36.33000 40.32700
N  -10.52600 36.68000 40.54800
C  -11.54000 35.89100 41.00000
C  -11.08000 34.52100 41.08100
C  -9.76100 34.57000 40.50300
C  -9.49400 35.90800 40.21400
C  -11.81900 33.35400 41.75800
C  -8.57300 33.77700 40.16800
O  -8.45700 32.58200 40.18800
C  -7.51300 34.74300 39.68900
C  -6.32800 34.76400 40.59200
O  -5.89300 35.76400 41.24800
O  -5.79600 33.47900 40.71000
C  -4.97500 33.09000 41.91400
H  -7.13700 41.62700 38.97000
H  -13.31600 41.93600 40.42100
H  -13.54600 35.65400 41.75300
H  -5.69900 36.94300 38.97700
H  -5.83900 39.57800 37.71700
H  -5.83000 39.88600 40.54100
H  -4.58500 40.44000 39.34300
H  -4.54700 38.83400 40.20000
H  -6.00500 38.04200 36.31700
H  -7.48000 37.23300 36.61600
H  -5.56200 35.19400 37.18700
H  -4.69500 36.24800 36.16500
H  -8.32400 44.66100 39.99900
H  -9.22100 44.50900 38.45600
H  -7.76600 43.54500 38.62200
H  -13.59400 44.03300 40.55600
H  -13.04100 45.23300 41.73700
H  -12.77000 43.58600 42.15600
H  -14.98400 39.79600 39.72000
H  -15.15400 37.79700 41.92800
H  -14.77700 41.14600 42.32800
H  -15.86100 39.92100 42.63500
H  -16.23900 40.92800 41.29800
H  -14.76800 36.51400 39.49200
H  -15.89400 37.90200 39.08800
H  -17.48100 36.88600 40.18300
H  -16.45200 36.06600 41.38000
H  -16.59200 35.47700 39.65000
H  -11.25900 32.43700 41.57200
H  -12.84900 33.14800 41.46700
H  -11.70000 33.53700 42.82600
H  -7.25900 34.35900 38.70000
H  -3.90700 33.17500 41.71200
H  -5.19800 32.06300 42.20200
H  -5.25200 33.74300 42.74200

