158

Mg 17.31200 -2.09700 27.61800
C  16.37400 -0.43000 30.50300
C  19.33500 -4.02700 29.54500
C  18.28500 -3.78500 24.73800
C  15.57800 0.22600 25.74900
N  17.85400 -2.14100 29.71900
C  17.25700 -1.44900 30.74000
C  17.69500 -1.96900 32.11900
C  18.90800 -2.90100 31.80000
C  18.76100 -3.05200 30.26500
C  20.37000 -2.63900 32.23200
C  16.54200 -2.64700 32.87300
C  16.42300 -2.16600 34.34900
H  17.74600 -1.93000 35.13900
N  18.65500 -3.64700 27.22000
C  19.26500 -4.33700 28.19800
C  19.99600 -5.43100 27.58200
C  19.67800 -5.48000 26.11800
C  18.85300 -4.24000 25.92700
C  20.78600 -6.45700 28.38500
C  20.16900 -6.44700 25.05100
O  19.81700 -6.32800 23.87500
C  21.30200 -7.47300 25.34000
N  16.98400 -1.89700 25.53100
C  17.41600 -2.72000 24.53400
C  17.00500 -2.17400 23.16100
C  15.88700 -1.04800 23.53200
C  16.24400 -0.83300 25.03300
C  18.20300 -1.77400 22.19800
C  14.37900 -1.24900 23.34400
C  13.90100 -0.84800 21.95200
N  16.13500 -0.52000 27.89400
C  15.49300 0.36400 27.08500
C  14.77000 1.41000 27.83700
C  15.13300 1.16400 29.19800
C  15.90900 -0.02000 29.18600
C  14.01200 2.56900 27.21100
C  15.07100 1.69800 30.48100
O  14.51600 2.73700 30.79000
C  15.64100 0.61200 31.43200
C  16.62300 1.32100 32.39800
O  17.80100 1.55300 32.18300
O  15.91800 1.70700 33.54700
C  16.68600 2.52100 34.45200
H  19.74700 -4.77200 30.23000
H  18.52700 -4.38500 23.85800
H  15.01100 0.96100 25.17400
H  18.06200 -1.08700 32.64400
H  18.65300 -3.85300 32.26500
H  20.39400 -1.58900 32.52600
H  21.06400 -2.68000 31.39200
H  20.72800 -3.16700 33.11500
H  16.65700 -3.72800 32.78600
H  15.66900 -2.32400 32.30600
H  16.04500 -3.00300 34.93500
H  15.69600 -1.36800 34.50200
H  21.03900 -6.16300 29.40400
H  21.67400 -6.95300 27.99500
H  20.05100 -7.25700 28.47200
H  21.59100 -8.04600 24.45900
H  21.02800 -8.18800 26.11600
H  22.22800 -6.98200 25.64000
H  16.48800 -3.00900 22.68700
H  16.10400 -0.09500 23.05000
H  19.16400 -1.77700 22.71200
H  18.12200 -0.88200 21.57700
H  18.19900 -2.57100 21.45400
H  13.75400 -1.02100 24.20700
H  14.21900 -2.32700 23.31100
H  12.83300 -1.01700 22.09200
H  14.26800 -1.54100 21.19500
H  13.96600 0.19600 21.64400
H  13.95700 3.47700 27.81100
H  13.00200 2.16400 27.13800
H  14.48900 2.79100 26.25600
H  14.85200 0.13800 32.01500
H  17.69900 2.24400 34.74300
H  16.09600 2.53600 35.36800
H  16.70400 3.55500 34.10800
Mg 46.89900 16.08600 28.07900
C  44.98700 15.82300 30.74700
C  49.20500 17.84900 29.94200
C  48.58000 17.04100 25.20100
C  44.47700 14.50000 26.17600
N  46.98900 16.78200 30.05700
C  46.09100 16.56900 31.02400
C  46.65900 16.99700 32.38000
C  47.74600 18.08700 31.97600
C  48.00500 17.58500 30.50300
C  47.33100 19.56600 32.07900
C  47.04400 15.72800 33.28100
C  46.46700 15.82300 34.70400
H  46.31300 17.17900 35.41700
N  48.78200 17.04800 27.63500
C  49.54700 17.62200 28.60900
C  50.82300 18.02600 27.97600
C  50.65600 17.89500 26.54500
C  49.25800 17.33000 26.41100
C  51.99900 18.63100 28.78500
C  51.60900 18.32300 25.49500
O  51.32400 18.32200 24.32500
C  52.91400 18.95500 25.83100
N  46.57100 15.87700 26.01800
C  47.34000 16.45000 25.03800
C  46.81000 16.04100 23.69700
C  45.63900 15.12000 24.02900
C  45.48700 15.18300 25.51000
C  46.43100 17.33500 22.82600
C  45.80900 13.70300 23.57200
C  44.69200 13.15500 22.64900
N  45.05000 15.26500 28.36200
C  44.25800 14.60600 27.54700
C  43.10500 14.10400 28.31000
C  43.35100 14.46800 29.62000
C  44.57600 15.24400 29.55000
C  41.91800 13.34700 27.75400
C  42.85400 14.52300 30.94200
O  41.90600 13.96900 31.49900
C  43.93800 15.35100 31.71200
C  43.32800 16.43800 32.52300
O  43.00200 17.55600 32.08700
O  43.17000 15.97300 33.77300
C  42.36000 16.86200 34.51800
H  50.02000 18.33600 30.48000
H  49.16000 17.32500 24.32100
H  43.65600 13.92600 25.74100
H  45.85300 17.49400 32.92100
H  48.59200 17.87100 32.62800
H  46.28400 19.69800 32.35400
H  47.53000 20.02000 31.10800
H  47.78000 20.20900 32.83600
H  48.13200 15.66200 33.29300
H  46.74200 14.81400 32.76900
H  47.18300 15.24700 35.29100
H  45.50800 15.33600 34.87900
H  51.93600 18.53200 29.86900
H  51.84300 19.69300 28.59400
H  52.90500 18.16800 28.39400
H  52.59700 19.81800 26.41700
H  53.42100 19.40000 24.97500
H  53.53700 18.29000 26.42900
H  47.60200 15.54600 23.13300
H  44.76800 15.66200 23.66200
H  46.57400 18.30600 23.29900
H  45.42900 17.31300 22.39800
H  47.13200 17.38600 21.99200
H  45.84900 13.12100 24.49300
H  46.74300 13.62700 23.01500
H  43.71700 13.62700 22.77000
H  44.51600 12.09900 22.85600
H  45.01000 13.24600 21.61000
H  42.40900 12.38600 27.60000
H  41.60800 13.76100 26.79500
H  41.11100 13.38200 28.48700
H  44.40500 14.67900 32.43100
H  41.34000 17.04500 34.18000
H  42.91300 17.76900 34.76300
H  42.26500 16.39000 35.49600

