158

Mg -2.01000 17.17800 26.34500
C  -2.58400 14.71100 28.63600
C  -2.58900 19.71600 28.56500
C  -1.69200 19.48900 23.70100
C  -2.36000 14.65100 23.84300
N  -2.68900 17.20000 28.37500
C  -2.76300 16.01400 29.20600
C  -2.92100 16.48200 30.72100
C  -2.97400 18.07100 30.55300
C  -2.73300 18.36800 29.07300
C  -4.25700 18.75900 31.17300
C  -1.81000 15.89500 31.61200
C  -1.61500 16.69100 32.98100
H  -1.06100 15.92300 34.22200
N  -2.11600 19.30800 26.22000
C  -2.28500 20.13100 27.30100
C  -2.19000 21.51600 26.83300
C  -1.88300 21.47100 25.40200
C  -1.86700 20.02500 25.05600
C  -2.39200 22.81200 27.68100
C  -1.75000 22.60500 24.40300
O  -1.36500 22.43300 23.19600
C  -1.89100 24.08200 24.83100
N  -2.00700 17.06600 24.04500
C  -1.84500 18.15800 23.25700
C  -1.93300 17.75400 21.79500
C  -2.37900 16.24400 21.85000
C  -2.20600 15.95000 23.34000
C  -2.83900 18.78700 20.99700
C  -1.61600 15.27300 20.89700
C  -2.48200 14.42200 19.97600
N  -2.13100 15.09400 26.18400
C  -2.23700 14.17800 25.18600
C  -2.40200 12.86400 25.72400
C  -2.49800 13.01400 27.09800
C  -2.37800 14.35500 27.30300
C  -2.44500 11.63700 24.91400
C  -2.59700 12.25800 28.35600
O  -2.62500 11.06400 28.45500
C  -2.59300 13.34800 29.41000
C  -1.36500 13.07700 30.17900
O  -0.20900 13.40900 29.85100
O  -1.63700 12.32900 31.29500
C  -0.64300 12.14600 32.36300
H  -2.76300 20.56900 29.22400
H  -1.56200 20.15300 22.84400
H  -2.69400 14.01900 23.01800
H  -3.86700 16.04500 31.04000
H  -2.05600 18.48000 30.97300
H  -3.76600 19.53100 31.76600
H  -4.67100 18.08100 31.91900
H  -5.02300 18.99200 30.43400
H  -0.86100 15.86900 31.07700
H  -2.08800 14.86800 31.85000
H  -2.58100 17.07200 33.31100
H  -1.00200 17.57900 32.82800
H  -1.45500 23.36700 27.71900
H  -2.74700 22.71100 28.70700
H  -3.05600 23.40700 27.05400
H  -2.87300 24.28400 25.25800
H  -1.77600 24.74900 23.97700
H  -1.13100 24.34400 25.56800
H  -0.92700 17.69600 21.37900
H  -3.42200 16.19900 21.53600
H  -3.29900 19.56300 21.60900
H  -3.50700 18.29400 20.29200
H  -2.05500 19.28400 20.42500
H  -0.86600 14.63500 21.36600
H  -1.08000 15.99300 20.27800
H  -2.77400 15.05500 19.13800
H  -3.36600 14.01700 20.46700
H  -1.95500 13.59300 19.50300
H  -3.25100 11.83700 24.20800
H  -2.66700 10.81300 25.59200
H  -1.47100 11.43300 24.47000
H  -3.37900 13.26800 30.16000
H  0.14500 12.89800 32.34300
H  -0.18200 11.16700 32.49600
H  -1.27100 12.33700 33.23300
Mg 1.42200 41.77700 25.53200
C  3.07700 41.91800 28.58600
C  -1.42300 40.76900 27.25000
C  0.04700 40.98500 22.53400
C  4.48200 42.62200 23.84000
N  0.86000 41.59700 27.74100
C  1.68900 41.73400 28.81000
C  0.85300 41.60300 30.17600
C  -0.61500 41.19100 29.66600
C  -0.41600 41.24300 28.15600
C  -1.06000 39.78800 30.24800
C  0.88600 42.86500 31.13300
C  1.41700 42.74900 32.61400
H  1.31200 41.42100 33.44500
N  -0.38400 41.00500 25.03600
C  -1.44000 40.58200 25.80200
C  -2.56900 40.18800 24.98900
C  -2.09800 40.13700 23.66900
C  -0.79700 40.74400 23.63000
C  -3.97500 39.83700 25.59100
C  -2.86100 39.82000 22.41800
O  -2.34000 39.73300 21.30100
C  -4.29700 39.40500 22.42600
N  2.10500 42.00000 23.50400
C  1.34200 41.56000 22.44000
C  2.04000 41.65500 21.12200
C  3.39000 42.32900 21.46800
C  3.32800 42.42600 23.01400
C  2.17700 40.32400 20.33500
C  3.61200 43.68300 20.76100
C  2.84800 44.85200 21.35800
N  3.38000 42.38200 26.04000
C  4.54500 42.55000 25.28800
C  5.69200 42.59900 26.17100
C  5.15000 42.41800 27.46700
C  3.74500 42.18400 27.34400
C  7.10500 42.78100 25.78500
C  5.46800 42.32000 28.87000
O  6.56900 42.49400 29.35400
C  4.16900 41.99000 29.68900
C  4.36000 40.82600 30.53800
O  3.99100 39.68600 30.32100
O  5.11300 41.22100 31.59700
C  5.32000 40.29800 32.68100
H  -2.31500 40.52100 27.82900
H  -0.34000 40.60100 21.58800
H  5.44300 42.83700 23.36700
H  1.28900 40.79900 30.76900
H  -1.25500 42.02600 29.94900
H  -1.01700 38.96500 29.53400
H  -2.11200 39.85600 30.52300
H  -0.53900 39.44100 31.14100
H  -0.07300 43.37700 31.21700
H  1.52500 43.59500 30.63700
H  1.21600 43.59300 33.27300
H  2.49400 42.77800 32.44500
H  -4.68200 40.52400 25.12500
H  -4.13800 39.93600 26.66400
H  -4.21500 38.82800 25.25600
H  -4.89600 40.22000 22.83100
H  -4.34800 38.45100 22.95100
H  -4.74500 39.47800 21.43500
H  1.28000 42.24200 20.60700
H  4.22300 41.70900 21.13600
H  1.36100 40.29200 19.61400
H  2.12300 39.51800 21.06700
H  3.11400 40.32300 19.77700
H  3.37700 43.53900 19.70600
H  4.65800 43.97000 20.86200
H  2.08200 44.56200 22.07700
H  2.29600 45.36300 20.56900
H  3.50500 45.57800 21.83900
H  7.30700 42.34200 24.80800
H  7.76600 42.32300 26.52000
H  7.43900 43.81100 25.65900
H  4.15800 42.86000 30.34600
H  6.39100 40.14700 32.81200
H  4.82700 39.33700 32.53600
H  4.88000 40.79200 33.54700

