158

Mg 47.24000 25.24100 28.18500
C  48.11900 27.53800 30.64800
C  46.19300 23.05200 30.55900
C  46.41700 23.08200 25.74200
C  48.50000 27.39700 25.73300
N  47.24200 25.27400 30.37000
C  47.53300 26.34700 31.17400
C  47.39400 26.03400 32.69800
C  46.84600 24.55600 32.57600
C  46.81900 24.26100 31.06300
C  47.65000 23.58400 33.40300
C  46.54500 27.16700 33.41600
C  45.83700 26.62600 34.69500
H  45.42300 27.63300 35.84000
N  46.43800 23.34900 28.13000
C  46.08100 22.57900 29.21400
C  45.63700 21.26100 28.82300
C  45.55600 21.27900 27.42300
C  46.16000 22.57200 27.00900
C  45.34000 20.09300 29.74700
C  45.04400 20.19400 26.50000
O  45.05100 20.36700 25.28600
C  44.54400 18.90100 27.03000
N  47.36900 25.21600 25.97900
C  47.02700 24.27600 25.27000
C  47.22400 24.43700 23.75500
C  47.69700 25.94300 23.67100
C  47.89900 26.24300 25.22600
C  48.15600 23.39800 23.06100
C  46.80100 26.94400 22.95000
C  47.32100 27.37800 21.51800
N  48.17000 27.04700 28.16600
C  48.56400 27.85300 27.13200
C  49.08900 29.09900 27.62200
C  48.97300 29.07400 28.97900
C  48.36900 27.76600 29.28200
C  49.73100 30.20300 26.91300
C  49.19300 29.74000 30.23900
O  49.65300 30.85000 30.49200
C  48.53100 28.88200 31.30000
C  49.49600 28.71800 32.37400
O  50.31700 27.83300 32.62900
O  49.11800 29.60200 33.37900
C  49.74700 29.48500 34.66700
H  45.69400 22.50600 31.36200
H  46.20100 22.36400 24.94800
H  48.84000 28.09900 24.96900
H  48.44500 26.14100 32.96400
H  45.82500 24.47600 32.95000
H  47.84400 22.71300 32.77700
H  47.08500 23.20500 34.25500
H  48.63700 23.97900 33.64600
H  45.91700 27.73300 32.72800
H  47.21900 27.91200 33.83700
H  46.49800 25.85900 35.09800
H  44.90900 26.15300 34.37300
H  46.04900 19.31800 29.45300
H  44.30400 19.76200 29.81700
H  45.63900 20.37300 30.75700
H  45.44700 18.61600 27.57000
H  44.29600 18.27600 26.17300
H  43.74200 19.05200 27.75300
H  46.27500 24.47200 23.22000
H  48.72400 25.90100 23.30600
H  49.03400 23.89700 22.65100
H  47.63300 23.06100 22.16500
H  48.45500 22.54700 23.67300
H  46.79200 27.77800 23.65100
H  45.77700 26.56900 22.92900
H  46.36900 27.37300 20.98800
H  48.01100 26.61300 21.16100
H  47.75000 28.37800 21.57800
H  49.36300 31.09200 27.42500
H  49.54600 30.29600 25.84300
H  50.80700 30.06800 27.02200
H  47.60300 29.36400 31.60700
H  49.25800 28.78500 35.34400
H  49.90500 30.43600 35.17600
H  50.81100 29.28700 34.53600
Mg 16.51600 51.90700 26.43900
C  18.59700 50.53800 29.10800
C  14.32000 52.98200 28.92100
C  14.40300 52.92000 24.08200
C  18.62600 50.48300 24.19700
N  16.38500 51.58600 28.75700
C  17.43700 51.22700 29.58600
C  17.10300 51.59200 31.07300
C  15.63800 52.09700 30.98600
C  15.43600 52.29000 29.48700
C  14.64700 51.17300 31.56700
C  18.13700 52.63000 31.59700
C  18.59000 52.43700 33.08900
H  17.75100 51.63700 34.12600
N  14.62700 52.92200 26.47800
C  13.91400 53.25100 27.57100
C  12.66700 53.99900 27.09300
C  12.78300 54.09100 25.66700
C  13.94000 53.28500 25.34400
C  11.63300 54.48600 28.05300
C  11.87300 54.73300 24.63300
O  12.08700 54.73700 23.38000
C  10.72900 55.54100 25.10800
N  16.51800 51.81100 24.41200
C  15.48100 52.24300 23.61800
C  15.71500 51.86300 22.09300
C  17.07400 51.10700 22.18400
C  17.50900 51.17800 23.70100
C  14.52000 51.10100 21.44200
C  18.12700 51.68800 21.11000
C  19.02600 52.88100 21.52300
N  18.22600 50.69900 26.55000
C  18.99000 50.22400 25.51500
C  20.15600 49.62000 26.08400
C  20.08000 49.65300 27.49200
C  18.85800 50.31900 27.72600
C  21.35200 48.96600 25.39400
C  20.65800 49.25200 28.77200
O  21.62600 48.56700 28.99200
C  19.71300 49.80400 29.90600
C  19.24500 48.74500 30.82900
O  18.51000 47.84300 30.47400
O  19.78500 48.92000 32.04500
C  19.45900 47.93400 33.05000
H  13.64800 53.33000 29.70800
H  13.65800 53.09300 23.30200
H  19.32900 50.11500 23.44700
H  17.14700 50.74100 31.75300
H  15.50800 52.97100 31.62300
H  14.24100 51.68600 32.43900
H  15.12200 50.24700 31.89300
H  13.81200 50.91300 30.91700
H  17.76800 53.64200 31.43500
H  18.95600 52.59800 30.87800
H  18.95300 53.37700 33.50400
H  19.53400 51.90400 32.97500
H  10.61600 54.31500 27.70200
H  11.82400 55.55100 28.18100
H  11.71000 54.06300 29.05500
H  10.08100 54.68800 25.31300
H  10.36900 56.16000 24.28600
H  11.08800 56.12300 25.95700
H  15.88200 52.80400 21.56900
H  16.86800 50.08300 21.87200
H  14.90400 50.33600 20.76800
H  13.81400 51.70100 20.86700
H  13.90200 50.56900 22.16500
H  17.46000 52.02200 20.31600
H  18.79000 50.86400 20.84900
H  20.05300 52.70200 21.20300
H  18.98400 53.02300 22.60300
H  18.71000 53.73900 20.93000
H  21.13300 47.97100 25.00600
H  22.18700 49.00600 26.09400
H  21.58600 49.53700 24.49600
H  20.30900 50.51400 30.47900
H  19.97000 46.99400 32.84200
H  18.38200 47.80100 33.15500
H  19.88800 48.35300 33.96000

