158

Mg -0.01500 7.84800 26.46900
C  0.84000 9.84400 29.39900
C  -0.28900 5.15800 28.59200
C  -0.42100 6.11900 23.78900
C  0.42400 10.74800 24.63100
N  0.48900 7.51400 28.72900
C  0.59200 8.49000 29.75900
C  0.44500 7.83900 31.11300
C  0.20600 6.32600 30.73100
C  0.13500 6.32400 29.24700
C  1.33500 5.39100 31.33300
C  -0.71300 8.39200 31.94300
C  -0.39800 8.74000 33.40300
H  0.83500 8.11900 33.99200
N  -0.28000 5.91400 26.22800
C  -0.41800 4.93500 27.18800
C  -0.83600 3.67300 26.58400
C  -0.81000 3.92600 25.18400
C  -0.55400 5.39000 25.01400
C  -1.23600 2.45600 27.38600
C  -1.04500 3.00100 24.01100
O  -1.02600 3.30600 22.82200
C  -1.29400 1.50300 24.21200
N  0.02500 8.26800 24.51300
C  -0.14700 7.37100 23.49800
C  0.05100 8.05300 22.14000
C  -0.26600 9.56800 22.44600
C  0.00500 9.53500 23.99700
C  1.36300 7.91300 21.36100
C  -1.71500 9.95500 22.30400
C  -2.10600 10.60600 20.99800
N  0.55100 9.90700 26.79400
C  0.76400 10.93200 25.97300
C  1.21700 12.15800 26.67700
C  1.13700 11.73900 28.02300
C  0.81600 10.36700 28.02000
C  1.54400 13.46800 26.02400
C  1.34900 12.19400 29.30400
O  1.68300 13.31700 29.64900
C  1.16000 10.97700 30.28600
C  2.33500 10.95000 31.13800
O  3.31500 10.28100 30.81100
O  2.20300 11.73900 32.24700
C  3.28000 11.82200 33.29800
H  -0.63300 4.27500 29.13400
H  -0.41400 5.56000 22.85000
H  0.61300 11.53500 23.89900
H  1.43300 7.85700 31.57300
H  -0.73100 5.91500 31.10600
H  0.99200 5.11000 32.32900
H  2.30500 5.87300 31.21200
H  1.48700 4.48300 30.74900
H  -1.58600 7.74500 32.03200
H  -1.01400 9.28600 31.39800
H  -1.27600 8.41100 33.95900
H  -0.28600 9.81300 33.55400
H  -0.90000 1.56400 26.85600
H  -2.31700 2.50200 27.25200
H  -0.87800 2.39200 28.41400
H  -0.53500 0.93800 24.75300
H  -1.54600 1.11300 23.22600
H  -2.20900 1.44700 24.80300
H  -0.72100 7.66800 21.47400
H  0.40700 10.25900 21.94000
H  2.05200 8.74100 21.53000
H  1.19300 7.71400 20.30300
H  1.94200 7.11100 21.81700
H  -1.97200 10.74000 23.01600
H  -2.33800 9.07900 22.48900
H  -1.55200 10.41700 20.07800
H  -2.01600 11.69100 21.06600
H  -3.10300 10.31000 20.67100
H  0.60600 14.02000 25.96000
H  2.06200 13.28900 25.08200
H  2.11800 14.07200 26.72600
H  0.27100 11.21900 30.86900
H  4.16900 11.41700 32.81500
H  3.18800 11.22000 34.20300
H  3.44600 12.86100 33.58100
Mg 35.31100 48.39700 24.59500
C  35.45900 46.74600 27.73000
C  33.93300 51.15700 26.09600
C  34.73200 49.71200 21.52900
C  36.13600 45.23500 23.15700
N  34.61900 48.73400 26.76000
C  35.00100 48.04400 27.87000
C  34.70000 48.93300 29.15700
C  34.11300 50.27800 28.52900
C  34.21000 50.04600 26.99000
C  32.67200 50.59100 28.96500
C  35.85200 49.14400 30.21400
C  35.54900 48.66500 31.60000
H  34.10900 48.57500 32.10800
N  34.58100 50.16100 23.92900
C  34.13700 51.19000 24.64600
C  33.90500 52.33800 23.89000
C  33.98700 51.87400 22.49900
C  34.41600 50.52800 22.58800
C  33.49600 53.62100 24.39500
C  33.61900 52.64000 21.21400
O  33.70000 52.09200 20.10200
C  33.24900 53.99000 21.20300
N  35.33800 47.53600 22.69800
C  35.23900 48.33100 21.58900
C  35.53400 47.56400 20.34800
C  36.02700 46.13700 20.80100
C  35.81000 46.27600 22.32300
C  34.48000 47.56700 19.27100
C  37.49600 45.78500 20.51300
C  38.46800 46.80200 21.21900
N  35.73600 46.40300 25.22700
C  36.08600 45.32300 24.54000
C  36.43500 44.24500 25.44300
C  36.19100 44.76200 26.71400
C  35.80300 46.09000 26.53300
C  36.85600 42.93800 25.01600
C  36.28400 44.41300 28.07200
O  36.50400 43.37800 28.65500
C  35.81200 45.80900 28.80500
C  34.64400 45.42900 29.71100
O  33.45700 45.18300 29.41700
O  35.14800 45.18800 30.94000
C  34.34700 44.58100 31.98300
H  33.67300 52.07400 26.62800
H  34.56100 50.13300 20.53600
H  36.35900 44.34000 22.57300
H  33.95500 48.29400 29.63000
H  34.71800 51.16600 28.71500
H  32.19700 49.78000 29.51600
H  32.11500 50.77800 28.04700
H  32.64500 51.46200 29.62000
H  36.14300 50.19300 30.27300
H  36.71200 48.65400 29.75700
H  36.10700 49.27600 32.31000
H  36.10600 47.73600 31.71700
H  33.64600 54.48000 23.74100
H  34.04000 53.85300 25.31000
H  32.43700 53.66000 24.65100
H  34.12800 54.59100 21.43800
H  32.48900 54.26200 21.93600
H  32.85000 54.33200 20.24800
H  36.38100 48.15600 20.00100
H  35.29300 45.43100 20.41400
H  34.58600 46.61400 18.75300
H  34.60100 48.45400 18.64900
H  33.52100 47.58400 19.78800
H  37.69300 45.86200 19.44300
H  37.77200 44.75300 20.72700
H  39.12900 47.33500 20.53500
H  39.28300 46.44400 21.84900
H  37.93100 47.54800 21.80600
H  37.91600 42.68500 25.00400
H  36.31200 42.58500 24.13900
H  36.51600 42.41600 25.91000
H  36.65300 46.21900 29.36400
H  34.15300 43.54100 31.72100
H  33.40900 45.09600 32.18600
H  34.89400 44.55900 32.92600

