158

Mg 1.48900 7.47700 25.79200
C  1.83900 9.69000 28.38800
C  1.93800 4.83300 27.90200
C  0.82700 5.61800 23.19500
C  1.75500 10.32700 23.57500
N  2.08200 7.31600 27.82800
C  2.01700 8.35200 28.80700
C  2.08000 7.81500 30.25500
C  2.23500 6.25800 30.01300
C  1.99000 6.11700 28.47700
C  3.55400 5.56200 30.46100
C  0.82000 8.19800 31.11700
C  1.07800 8.82700 32.53000
H  2.05000 8.08700 33.47100
N  1.46800 5.47100 25.59700
C  1.78900 4.50100 26.55700
C  1.64500 3.20800 25.93000
C  1.12900 3.38500 24.59300
C  1.03600 4.87200 24.47600
C  2.10200 1.99100 26.64400
C  0.86200 2.31400 23.48900
O  0.55800 2.64500 22.34400
C  0.97300 0.83300 23.76400
N  1.45400 7.87100 23.63200
C  1.11700 6.91900 22.84600
C  0.86400 7.40100 21.44200
C  1.21600 8.96500 21.43500
C  1.39200 9.08800 23.00700
C  1.63100 6.60300 20.39100
C  0.06900 9.84500 20.96800
C  0.33000 10.88300 19.82500
N  1.73700 9.62700 25.91600
C  1.79200 10.57900 24.96600
C  1.89000 11.95200 25.66000
C  1.85400 11.55900 27.02600
C  1.82700 10.18400 27.08500
C  2.03000 13.26200 24.96100
C  1.90900 12.12100 28.32400
O  1.95600 13.33400 28.64600
C  1.89200 10.94100 29.35100
C  3.18300 10.91700 30.12600
O  4.25000 10.47600 29.70600
O  3.04500 11.48300 31.31000
C  4.28500 11.39700 32.06600
H  2.19200 4.06400 28.63400
H  0.69500 4.94200 22.34700
H  1.93900 11.13200 22.86000
H  3.02500 8.17200 30.66400
H  1.49200 5.72800 30.60900
H  4.22600 6.18700 31.04900
H  4.16900 5.28200 29.60600
H  3.29600 4.67100 31.03300
H  0.15600 7.36500 31.34900
H  0.12700 8.80800 30.53700
H  0.15900 8.92900 33.10700
H  1.50600 9.81700 32.37800
H  2.77000 1.41300 26.00700
H  1.19500 1.41200 26.81900
H  2.48300 2.27900 27.62400
H  0.13300 0.61400 24.42300
H  1.95900 0.68200 24.20400
H  1.04600 0.20000 22.88000
H  -0.21500 7.33000 21.30800
H  2.14900 9.21200 20.92800
H  2.57600 7.08800 20.14400
H  1.02900 6.27500 19.54300
H  1.96200 5.63300 20.76200
H  -0.31900 10.45100 21.78700
H  -0.79300 9.22800 20.71500
H  0.23700 10.41000 18.84700
H  1.39100 11.10300 19.94000
H  -0.35500 11.72300 19.94500
H  3.03100 13.26000 24.53000
H  1.84300 14.08800 25.64700
H  1.31400 13.31900 24.14100
H  0.98700 11.05500 29.94800
H  4.18500 12.14700 32.85100
H  5.15300 11.79600 31.54200
H  4.51900 10.36100 32.31400
Mg 26.10000 -0.48100 29.00700
C  28.16200 -0.79300 31.77000
C  23.26900 -0.50100 31.02600
C  24.28900 -0.57900 26.15700
C  29.02600 -1.39800 26.98800
N  25.83700 -0.85700 31.14700
C  26.83800 -0.77000 32.05300
C  26.22600 -0.67800 33.47300
C  24.69500 -0.59300 33.20300
C  24.53700 -0.69500 31.71400
C  23.81000 -1.56200 33.97400
C  26.71000 0.50600 34.24200
C  25.96000 0.96100 35.56400
H  26.71300 1.11700 36.85400
N  24.12200 -0.39300 28.66400
C  23.08700 -0.33100 29.61600
C  21.81300 -0.15900 28.95800
C  22.04400 -0.18000 27.54800
C  23.54500 -0.38500 27.37900
C  20.60700 0.01100 29.79800
C  20.99300 -0.16600 26.39200
O  21.29900 -0.19800 25.19300
C  19.48500 -0.11100 26.68800
N  26.60900 -0.85600 26.86700
C  25.66000 -0.74700 25.88100
C  26.30500 -0.88900 24.51100
C  27.84500 -1.03900 24.83600
C  27.85000 -1.11900 26.34000
C  25.74700 -1.98100 23.55700
C  28.81800 0.02400 24.27300
C  30.14900 -0.34400 23.56500
N  28.21700 -1.02800 29.29400
C  29.28700 -1.36200 28.41600
C  30.51000 -1.53100 29.16400
C  30.13500 -1.29200 30.54400
C  28.77000 -1.02500 30.55000
C  31.87000 -1.92900 28.60000
C  30.58000 -1.08800 31.87400
O  31.71200 -1.18500 32.33000
C  29.30400 -0.92400 32.70300
C  29.05400 -2.03200 33.70400
O  28.62300 -3.18200 33.44100
O  29.33900 -1.56600 34.95600
C  29.26700 -2.65800 35.97700
H  22.46400 -0.40200 31.75800
H  23.59400 -0.49500 25.31900
H  29.84000 -1.64100 26.30200
H  26.42200 -1.59700 34.02700
H  24.37800 0.43900 33.35400
H  24.16500 -1.97100 34.92000
H  23.76300 -2.46700 33.36900
H  22.86800 -1.01500 33.92900
H  26.72800 1.40200 33.62100
H  27.74700 0.37200 34.54700
H  25.05300 0.45400 35.89300
H  25.75200 1.99400 35.28400
H  20.15000 0.95400 29.49600
H  20.61400 0.05100 30.88700
H  19.93100 -0.79800 29.52000
H  19.25100 0.86700 27.10800
H  19.24700 -0.83500 27.46700
H  18.77600 -0.23500 25.86900
H  26.22000 0.10400 24.06900
H  28.19100 -2.02600 24.52800
H  25.78200 -2.92700 24.09800
H  26.42900 -2.00300 22.70700
H  24.70500 -1.83100 23.27600
H  29.09300 0.62300 25.14200
H  28.20100 0.55700 23.55000
H  30.23900 0.46000 22.83500
H  30.12600 -1.32500 23.09000
H  31.00500 -0.23200 24.23000
H  32.50600 -1.04400 28.61400
H  31.86000 -2.22400 27.55100
H  32.34700 -2.68500 29.22400
H  29.38400 -0.01300 33.29500
H  29.24100 -3.68800 35.62200
H  28.39800 -2.51600 36.61900
H  30.15100 -2.59800 36.61300

