158

Mg 2.35400 -0.64200 43.94200
C  5.74400 0.12000 43.24900
C  1.43900 2.22900 42.46100
C  -0.60700 -1.80500 44.10600
C  3.67200 -3.78100 45.34300
N  3.48600 0.94500 43.00300
C  4.84400 1.12300 42.88100
C  5.20500 2.49100 42.30600
C  3.81500 3.26400 42.28600
C  2.85700 2.08600 42.56900
C  3.62600 4.47100 43.27900
C  5.82900 2.42500 40.94000
C  6.91300 3.50100 40.55100
H  6.71600 4.04600 39.14300
N  0.57000 0.12400 43.46100
C  0.37000 1.32700 42.81200
C  -1.05600 1.51000 42.57300
C  -1.68400 0.37900 43.13100
C  -0.60700 -0.48600 43.60900
C  -1.66100 2.80000 41.97600
C  -3.14700 0.18000 43.27600
O  -3.99600 1.01800 43.03000
C  -3.79600 -1.08700 43.80800
N  1.68500 -2.54400 44.63500
C  0.35500 -2.74800 44.46900
C  0.04000 -4.24400 44.91000
C  1.36200 -4.86800 45.36500
C  2.33300 -3.67600 45.09200
C  -1.20600 -4.37000 45.88700
C  1.70600 -6.19000 44.72300
C  2.17100 -7.25500 45.73800
N  4.28900 -1.70000 44.25000
C  4.62200 -2.84700 44.90800
C  6.09500 -2.94000 44.98500
C  6.54800 -1.81300 44.32700
C  5.41300 -1.07100 43.89000
C  6.94200 -4.05400 45.58200
C  7.79300 -1.13700 43.90300
O  8.93200 -1.48400 43.99800
C  7.30500 0.14000 43.18300
C  7.74300 1.17600 44.10600
O  7.31900 1.36400 45.22000
O  8.64500 1.97400 43.53800
C  9.15000 3.02300 44.37600
H  1.25200 3.26900 42.18300
H  -1.58900 -2.25600 43.95200
H  4.05300 -4.69900 45.79400
H  5.91100 2.98600 42.97300
H  3.55900 3.67500 41.30900
H  4.36900 4.53400 44.07400
H  2.68600 4.45700 43.83200
H  3.68200 5.32200 42.60100
H  5.04900 2.32600 40.18500
H  6.26000 1.44900 40.71600
H  7.84200 2.94300 40.67100
H  6.75300 4.27500 41.30100
H  -0.97100 3.30900 41.30400
H  -1.76700 3.52800 42.78000
H  -2.47500 2.58500 41.28300
H  -4.85000 -0.83200 43.91800
H  -3.37400 -1.20100 44.80700
H  -3.61900 -2.01800 43.26900
H  -0.30200 -4.72700 43.99400
H  1.37500 -4.99600 46.44800
H  -0.84800 -4.68600 46.86600
H  -1.95900 -5.03000 45.45600
H  -1.71100 -3.42700 46.09700
H  2.61500 -6.03300 44.14300
H  1.01800 -6.54900 43.95700
H  2.18700 -8.26400 45.32700
H  1.53000 -7.26000 46.62000
H  3.21500 -7.01900 45.94700
H  6.87300 -4.91200 44.91300
H  6.58700 -4.38400 46.55900
H  7.94600 -3.68200 45.78400
H  7.75700 0.27700 42.20100
H  9.93200 3.41000 43.72300
H  9.71000 2.77800 45.27800
H  8.39200 3.77300 44.60000
Mg 9.51500 48.38000 26.16300
C  7.28300 48.49800 28.80900
C  12.00900 49.23100 28.58000
C  11.81500 47.92800 23.75700
C  6.97600 47.69000 23.95300
N  9.58700 48.91100 28.40200
C  8.57100 48.82600 29.32100
C  9.06600 49.16900 30.78700
C  10.44100 49.84400 30.54500
C  10.71500 49.25300 29.14300
C  10.43700 51.40100 30.60200
C  9.13100 47.94300 31.73000
C  8.75400 48.14200 33.17900
H  9.14200 47.07900 34.17800
N  11.59700 48.56900 26.20500
C  12.46000 48.83200 27.27600
C  13.87600 48.81200 26.75300
C  13.85200 48.32500 25.39400
C  12.34300 48.28200 25.07300
C  15.08800 49.09800 27.57400
C  14.96400 47.94100 24.47600
O  14.79200 47.57400 23.28800
C  16.33200 47.89000 24.91400
N  9.44600 47.97600 24.08800
C  10.51200 47.84800 23.35500
C  10.09900 47.46700 21.90000
C  8.57200 47.59200 21.92300
C  8.24100 47.65400 23.42500
C  10.88500 48.17500 20.75400
C  7.80000 46.46300 21.20800
C  6.79100 47.02100 20.18000
N  7.51200 48.30600 26.30100
C  6.62000 47.96100 25.28800
C  5.31800 47.80400 25.88300
C  5.49400 48.05100 27.28900
C  6.88700 48.33400 27.47200
C  4.06600 47.34800 25.15600
C  4.75800 48.15500 28.55700
O  3.56900 48.02700 28.78800
C  5.95100 48.37400 29.57300
C  6.03900 47.12500 30.33100
O  6.67600 46.13500 30.01500
O  5.20800 47.17000 31.41200
C  5.29100 46.14900 32.46500
H  12.80800 49.59500 29.23000
H  12.61500 47.73800 23.04000
H  6.12000 47.55300 23.28800
H  8.41900 49.88900 31.28700
H  11.15200 49.40900 31.24800
H  11.28800 51.64900 31.23600
H  9.61300 51.71800 31.24200
H  10.42900 51.95400 29.66300
H  10.06100 47.37500 31.69800
H  8.47500 47.19300 31.28700
H  7.67100 48.27300 33.16700
H  9.11000 49.10200 33.55300
H  15.85200 49.68000 27.05900
H  15.57600 48.15200 27.81100
H  14.86000 49.60600 28.51100
H  16.45500 47.29100 25.81700
H  16.83700 48.83700 25.10300
H  16.94500 47.44900 24.12800
H  10.39900 46.41900 21.88400
H  8.17700 48.52500 21.52100
H  11.02600 49.21000 21.06500
H  10.16900 48.14700 19.93200
H  11.72900 47.61000 20.36000
H  7.18700 45.85500 21.87300
H  8.42500 45.87400 20.53700
H  6.15500 46.20300 19.84100
H  7.28300 47.36100 19.26900
H  6.20500 47.87400 20.52300
H  4.28700 46.56300 24.43300
H  3.70900 48.16800 24.53300
H  3.26900 47.02500 25.82500
H  5.70400 49.27400 30.13400
H  6.17000 45.51000 32.37700
H  4.33700 45.62400 32.51100
H  5.39700 46.45000 33.50700

