158

Mg 1.12900 7.38300 26.10700
C  1.68700 9.59300 28.98200
C  0.77000 4.89200 28.32900
C  0.68900 5.45800 23.46500
C  1.60400 10.17700 24.06200
N  1.31500 7.32500 28.43300
C  1.53300 8.23500 29.37200
C  1.57700 7.60900 30.76200
C  1.36000 6.13300 30.43600
C  1.18600 6.06200 28.96600
C  2.43400 5.09900 30.94800
C  0.57800 8.22100 31.80600
C  0.81700 8.00600 33.30300
H  2.08900 7.43400 33.88600
N  0.86700 5.37400 25.93300
C  0.61300 4.52300 26.89700
C  0.24900 3.22100 26.40500
C  0.35000 3.32400 24.99000
C  0.63000 4.75700 24.75500
C  0.12700 1.97700 27.25600
C  0.16800 2.29900 23.90200
O  0.42400 2.54000 22.72000
C  -0.11900 0.87200 24.31200
N  1.04600 7.81600 24.10800
C  0.84900 6.81700 23.16600
C  0.62000 7.37100 21.74300
C  1.06800 8.87800 21.91800
C  1.26000 8.98900 23.41800
C  1.40800 6.62800 20.67200
C  -0.00600 9.99900 21.51400
C  0.19900 10.74300 20.18500
N  1.54000 9.42300 26.41300
C  1.70200 10.37400 25.46500
C  1.94600 11.71400 26.16200
C  1.96100 11.39800 27.57500
C  1.67600 10.01500 27.67300
C  2.23700 13.05600 25.49700
C  2.20500 11.91000 28.90500
O  2.52200 12.97600 29.31600
C  2.04800 10.77300 29.93800
C  3.35500 10.70600 30.70000
O  4.38700 10.19400 30.33400
O  3.14200 11.07300 32.02200
C  4.40100 11.55300 32.68000
H  0.66800 4.16000 29.13300
H  0.48900 4.84400 22.58500
H  2.03700 10.93600 23.40800
H  2.56800 7.76400 31.18900
H  0.42300 5.85100 30.91500
H  3.13700 5.57100 31.63400
H  2.95500 4.61700 30.12100
H  1.95100 4.24500 31.42400
H  -0.43400 7.86600 31.61400
H  0.58500 9.30800 31.72900
H  -0.06100 7.46700 33.66000
H  0.71700 9.01700 33.69800
H  0.67600 1.11300 26.88200
H  -0.94200 1.84300 27.41700
H  0.63000 2.24600 28.18500
H  -0.31400 0.31600 23.39600
H  -1.02100 0.82500 24.92200
H  0.72300 0.41500 24.83100
H  -0.44400 7.27200 21.52700
H  2.04600 8.96700 21.44700
H  2.04900 7.31200 20.11600
H  0.81900 6.03100 19.97700
H  2.05300 5.89000 21.15000
H  -0.24000 10.69300 22.32200
H  -0.94200 9.44000 21.52300
H  -0.60600 10.54200 19.47900
H  1.04400 10.39300 19.59300
H  0.38900 11.80000 20.37400
H  3.22500 13.50000 25.62100
H  1.49900 13.70800 25.96400
H  2.07500 13.02200 24.42000
H  1.31400 11.03900 30.69800
H  4.96100 12.11600 31.93300
H  5.03200 10.79500 33.14400
H  3.95400 12.29700 33.33900
Mg 40.41000 41.62400 27.57900
C  39.95400 44.06100 30.02000
C  41.10800 39.35000 29.97900
C  41.47500 39.37300 25.16500
C  40.43100 44.08700 25.19100
N  40.65200 41.80400 29.77100
C  40.27300 42.84100 30.58800
C  40.05400 42.42100 32.07800
C  40.67000 40.98300 32.07100
C  40.83000 40.66600 30.50300
C  41.92100 40.81500 33.01400
C  38.60600 42.52600 32.61200
C  38.44300 41.70700 33.85800
H  37.84800 42.36800 35.09900
N  41.16000 39.64500 27.54500
C  41.27800 38.83800 28.63300
C  41.60700 37.51000 28.33600
C  41.80000 37.43900 26.88200
C  41.44100 38.88600 26.45400
C  41.79600 36.44200 29.37800
C  42.14000 36.34700 25.95500
O  42.20300 36.50000 24.74100
C  42.35800 34.98200 26.39000
N  41.15900 41.78300 25.43900
C  41.33700 40.72700 24.64700
C  41.37500 41.08100 23.21400
C  40.80300 42.56700 23.22200
C  40.79700 42.82600 24.74400
C  42.66600 40.80300 22.43400
C  39.48100 42.59600 22.34200
C  38.09500 42.11900 22.97900
N  40.21400 43.67300 27.52600
C  40.19600 44.59100 26.47400
C  39.84600 45.90700 26.96100
C  39.77400 45.78000 28.36900
C  40.02700 44.40000 28.63000
C  39.87100 47.13400 26.09600
C  39.47400 46.46200 29.54100
O  39.24100 47.67400 29.76800
C  39.49400 45.42500 30.72400
C  40.48200 46.05600 31.70100
O  41.63500 46.37100 31.54900
O  39.90700 46.26400 32.89700
C  40.70500 46.61800 34.02900
H  41.23900 38.62900 30.78900
H  41.73800 38.67000 24.37200
H  40.20700 44.92500 24.52700
H  40.64500 43.13400 32.65400
H  39.99100 40.17500 32.34300
H  41.90500 39.94500 33.67100
H  42.06500 41.71800 33.60700
H  42.80300 40.77600 32.37400
H  37.90700 42.32900 31.79900
H  38.43500 43.57300 32.86200
H  39.34900 41.21000 34.20600
H  37.67600 40.97600 33.59900
H  42.84600 36.20600 29.54800
H  41.24800 35.55700 29.05400
H  41.40400 36.74200 30.35000
H  43.08100 34.91900 27.20300
H  42.76700 34.41600 25.55400
H  41.44000 34.44300 26.62400
H  40.60500 40.43800 22.78800
H  41.61600 43.21600 22.89500
H  43.37100 40.24800 23.05200
H  43.11900 41.77100 22.22000
H  42.42800 40.24600 21.52800
H  39.51400 42.02200 21.41600
H  39.32300 43.60700 21.96600
H  38.33400 42.10800 24.04300
H  37.88600 41.06100 22.81800
H  37.31000 42.83500 22.73600
H  38.85700 47.40200 25.79800
H  40.47200 47.04200 25.19100
H  40.30200 48.05800 26.48200
H  38.54000 45.36700 31.24800
H  41.51300 45.90000 34.16400
H  40.19500 46.65500 34.99200
H  41.19200 47.58300 33.88700

