158

Mg 42.77100 42.24900 26.09400
C  41.60400 44.28400 28.63400
C  44.24000 40.14200 28.33700
C  43.84000 40.26500 23.58700
C  41.83400 44.67600 23.72200
N  43.01100 42.31300 28.32700
C  42.26700 43.12700 29.12900
C  42.44700 42.62000 30.52200
C  43.53600 41.47600 30.51500
C  43.59400 41.22500 28.98300
C  44.90000 41.89800 31.17400
C  41.03000 42.30100 31.17000
C  40.70900 43.15000 32.48400
H  41.57000 42.82900 33.65300
N  43.90600 40.55500 25.95800
C  44.35800 39.82800 26.99200
C  44.95500 38.58600 26.58400
C  44.69000 38.49100 25.24000
C  44.11500 39.84500 24.86200
C  45.79400 37.67200 27.44500
C  44.90500 37.29500 24.32100
O  44.56800 37.32500 23.15400
C  45.31200 35.91700 24.91700
N  42.89200 42.52300 24.02000
C  43.35100 41.55400 23.19400
C  43.33000 41.95600 21.71400
C  42.37300 43.27300 21.78700
C  42.44400 43.55700 23.23900
C  44.77200 42.21700 21.15900
C  40.87100 43.10700 21.22500
C  40.01200 42.04400 21.86400
N  41.99700 44.12000 26.07400
C  41.62000 45.07200 25.08300
C  40.98800 46.25900 25.66700
C  41.00300 45.92400 27.06800
C  41.58700 44.62800 27.25600
C  40.58900 47.52500 25.08000
C  40.61600 46.39000 28.37100
O  40.07200 47.44200 28.64500
C  40.91800 45.35400 29.41700
C  41.84800 46.04000 30.41500
O  43.02100 46.32600 30.19200
O  41.20400 46.42000 31.53900
C  42.12500 46.71900 32.65900
H  44.72900 39.41000 28.98300
H  44.22800 39.61100 22.80400
H  41.41900 45.41200 23.03000
H  42.75700 43.48700 31.10500
H  43.32000 40.55900 31.06400
H  45.54500 42.36800 30.43300
H  45.43300 41.00500 31.50300
H  44.65500 42.45300 32.07900
H  40.92600 41.26800 31.50000
H  40.23400 42.54600 30.46600
H  39.71400 42.90100 32.85200
H  40.70200 44.22400 32.29600
H  46.45500 38.10500 28.19600
H  46.52300 37.08500 26.88700
H  45.15600 36.95600 27.96400
H  44.64000 35.82100 25.76900
H  46.35400 35.88900 25.23600
H  45.10100 35.15500 24.16700
H  42.75700 41.24800 21.11500
H  42.73200 44.17300 21.28700
H  45.09200 41.52500 20.38100
H  45.44300 41.97000 21.98200
H  44.94500 43.26300 20.90700
H  41.07200 42.97000 20.16200
H  40.29700 44.03200 21.27200
H  40.33700 41.47000 22.73200
H  39.82700 41.22000 21.17500
H  39.06200 42.50400 22.13400
H  39.52900 47.48100 25.33100
H  40.79300 47.53700 24.00900
H  40.96900 48.43700 25.54000
H  40.02000 44.96700 29.89900
H  42.41700 47.75800 32.50900
H  43.00300 46.07500 32.66200
H  41.52100 46.69400 33.56600
Mg -2.45600 34.31300 26.53100
C  -3.97400 32.45000 29.13500
C  -1.05800 36.24700 29.00000
C  -1.16200 36.16800 24.22200
C  -4.14800 32.33200 24.18700
N  -2.67300 34.39200 28.89700
C  -3.12700 33.43800 29.70200
C  -2.93900 33.81100 31.16400
C  -2.13600 35.14800 31.04200
C  -1.91800 35.29600 29.53200
C  -2.90600 36.39400 31.66600
C  -2.22400 32.76800 32.03100
C  -2.92400 32.36700 33.33300
H  -2.25200 32.36100 34.69100
N  -1.19700 36.00100 26.55300
C  -0.82000 36.69600 27.65500
C  -0.09300 37.83500 27.24200
C  -0.15700 37.94900 25.87900
C  -0.82800 36.70600 25.46200
C  0.64000 38.73500 28.25700
C  0.27900 39.09700 24.93700
O  -0.05300 39.07900 23.75100
C  1.03400 40.26300 25.34100
N  -2.62200 34.21800 24.42700
C  -1.96600 35.05700 23.67800
C  -2.21200 34.77000 22.18100
C  -2.95700 33.42000 22.20900
C  -3.22000 33.26100 23.69200
C  -2.98000 35.88600 21.42000
C  -2.28100 32.30000 21.49400
C  -1.53400 31.30300 22.42500
N  -3.75300 32.74800 26.59000
C  -4.34000 32.04400 25.54300
C  -5.20200 31.06800 26.13500
C  -5.11300 31.14300 27.50600
C  -4.21500 32.23200 27.73300
C  -6.17600 30.23800 25.29600
C  -5.58700 30.62300 28.79500
O  -6.39700 29.73600 29.05200
C  -4.80600 31.45900 29.91700
C  -5.83200 32.13500 30.87500
O  -6.43300 33.18500 30.65100
O  -5.91500 31.46800 32.01200
C  -6.98000 31.87900 32.99800
H  -0.46100 36.74100 29.77000
H  -0.62900 36.69700 23.42900
H  -4.54100 31.65200 23.42900
H  -3.92600 34.08600 31.53600
H  -1.20700 35.18300 31.61100
H  -3.73300 36.65500 31.00600
H  -2.15000 37.15800 31.85000
H  -3.34200 36.20000 32.64600
H  -1.31000 33.18000 32.45700
H  -2.14800 31.84700 31.45200
H  -3.15800 31.31100 33.19800
H  -3.86600 32.89900 33.46600
H  1.37800 39.42800 27.85100
H  1.14700 38.13700 29.01500
H  -0.18300 39.40500 28.50900
H  0.52200 40.95400 26.01100
H  1.32600 40.83800 24.46200
H  1.97000 39.86300 25.73200
H  -1.22300 34.55400 21.77700
H  -3.99300 33.53200 21.88800
H  -3.98600 35.56900 21.14400
H  -2.38600 36.11500 20.53600
H  -3.04500 36.78500 22.03200
H  -1.53300 32.59800 20.76000
H  -3.11700 31.70000 21.13300
H  -2.26100 30.62300 22.87000
H  -0.96800 31.77400 23.22800
H  -0.90800 30.67700 21.78800
H  -5.67700 29.75100 24.45900
H  -6.96500 30.85700 24.86900
H  -6.63000 29.47700 25.93000
H  -4.30600 30.78700 30.61500
H  -6.44100 32.39300 33.79400
H  -7.37300 30.99700 33.50400
H  -7.84100 32.40100 32.58100

