158

Mg 0.69900 8.61400 28.05600
C  1.71100 10.78400 30.60900
C  0.61900 5.99100 30.25300
C  0.33500 6.53700 25.35800
C  1.49000 11.24100 25.76000
N  1.11000 8.46200 30.20000
C  1.40100 9.51800 31.10100
C  1.32500 8.98600 32.53300
C  1.41500 7.43300 32.30200
C  0.96000 7.27200 30.81700
C  2.83900 7.00300 32.59900
C  -0.00500 9.45800 33.17100
C  -0.18800 9.35300 34.69600
H  0.84800 8.72200 35.61100
N  0.39000 6.63100 27.79700
C  0.31800 5.68200 28.89600
C  -0.12000 4.42800 28.36800
C  -0.27900 4.60300 26.91300
C  0.10100 5.95300 26.66200
C  -0.27100 3.12300 29.25200
C  -0.63800 3.59500 25.80400
O  -0.62800 3.77000 24.59700
C  -1.06300 2.19900 26.22100
N  0.78900 8.88700 25.89300
C  0.74000 7.84700 25.05000
C  1.26600 8.20400 23.65300
C  1.26200 9.79900 23.74100
C  1.15200 10.01900 25.20100
C  2.65000 7.73200 23.20000
C  0.19400 10.52500 22.87300
C  -1.30700 10.15300 22.95000
N  1.39900 10.61400 28.10700
C  1.61900 11.57800 27.12000
C  1.94800 12.84700 27.70700
C  1.92200 12.54700 29.08300
C  1.59600 11.21800 29.26600
C  2.34200 14.10700 26.92700
C  2.14400 13.17000 30.35800
O  2.38300 14.34100 30.67800
C  1.87300 12.15500 31.43900
C  2.93500 12.06100 32.43800
O  4.11200 11.88100 32.25300
O  2.30800 12.33300 33.66700
C  3.17600 12.55000 34.82900
H  0.66400 5.18900 30.99300
H  0.47500 5.89300 24.48700
H  1.90700 11.93000 25.02300
H  2.17800 9.44100 33.03700
H  0.61400 6.84900 32.75400
H  3.46600 6.77900 31.73600
H  2.69200 6.04600 33.10000
H  3.36600 7.74000 33.20500
H  -0.69800 8.73600 32.74000
H  -0.22500 10.47800 32.85300
H  -1.10900 8.83800 34.96600
H  -0.37900 10.39500 34.95600
H  -1.33000 2.88200 29.15200
H  0.07600 3.20400 30.28200
H  0.32600 2.26000 28.95800
H  -1.49600 1.65500 25.38100
H  -1.89500 2.30700 26.91600
H  -0.17300 1.61700 26.46100
H  0.58500 7.77100 22.92100
H  2.22300 10.18300 23.39700
H  2.97000 8.50000 22.49500
H  2.67500 6.73300 22.76700
H  3.33900 7.70100 24.04500
H  0.63300 10.33700 21.89300
H  0.16400 11.59600 23.07400
H  -1.32100 9.15600 22.50900
H  -2.01700 10.85700 22.51700
H  -1.61100 10.09900 23.99600
H  2.31400 14.97800 27.58100
H  1.65000 14.13800 26.08600
H  3.34200 13.95500 26.52000
H  0.91600 12.39600 31.90100
H  3.83900 13.41500 34.80000
H  3.64900 11.69700 35.31500
H  2.43100 12.86000 35.56300
Mg 46.18500 4.35300 47.02100
C  44.09500 7.09200 46.70000
C  43.49600 2.41400 46.07400
C  48.31700 1.72300 46.79200
C  49.03100 6.45900 47.02200
N  44.06700 4.74200 46.45100
C  43.46300 5.93800 46.33200
C  41.90800 5.75300 46.25600
C  41.74100 4.25200 46.03100
C  43.18100 3.75100 46.27500
C  40.72300 3.47300 46.91100
C  41.19100 6.59700 45.08900
C  42.02600 6.65100 43.74800
H  41.34900 6.11700 42.46300
N  45.95100 2.30600 46.64100
C  44.75900 1.69900 46.16300
C  44.93300 0.27500 45.97900
C  46.33000 0.04600 46.24300
C  46.98700 1.38000 46.64200
C  43.85000 -0.68000 45.54100
C  46.94800 -1.38200 46.14700
O  46.24100 -2.28700 45.80200
C  48.37600 -1.53800 46.44000
N  48.40300 4.12700 47.12000
C  48.97300 2.94200 46.93700
C  50.46400 2.93800 47.01100
C  50.75200 4.50300 46.85500
C  49.32400 5.11100 47.12300
C  50.96500 2.26800 48.31300
C  51.34500 5.01200 45.45200
C  51.67300 4.02700 44.35600
N  46.52400 6.31500 47.10300
C  47.70700 7.04400 47.05900
C  47.31700 8.44700 47.08300
C  45.90100 8.52400 47.04700
C  45.51900 7.23000 46.96400
C  48.26600 9.63000 46.91200
C  44.75800 9.38200 46.96300
O  44.67000 10.62100 46.92600
C  43.48100 8.47400 46.75500
C  42.55800 8.56500 47.85300
O  42.46400 7.80400 48.83600
O  41.75500 9.70300 47.73000
C  40.91300 10.07400 48.83100
H  42.69400 1.80700 45.65000
H  49.01900 0.89600 46.66500
H  49.88500 7.13800 46.99100
H  41.36700 6.05600 47.15300
H  41.67500 4.01400 44.96900
H  39.84900 4.03800 47.23400
H  41.21600 3.12800 47.82000
H  40.28200 2.59900 46.43000
H  40.98600 7.60200 45.45800
H  40.25800 6.04500 44.97500
H  42.89800 6.00800 43.86100
H  42.44500 7.63800 43.55100
H  44.03100 -1.23300 44.61900
H  42.88500 -0.19500 45.39700
H  43.78800 -1.43600 46.32400
H  48.53500 -1.19200 47.46100
H  48.95500 -0.99900 45.69000
H  48.60800 -2.59300 46.29100
H  50.95500 2.30600 46.27200
H  51.40200 4.82200 47.66900
H  51.69000 2.85900 48.87100
H  51.46000 1.33500 48.04300
H  50.12000 2.10500 48.98200
H  52.24400 5.51700 45.80700
H  50.71800 5.81300 45.06100
H  52.66400 3.66700 44.63200
H  51.63800 4.41800 43.33900
H  50.91500 3.24900 44.45100
H  49.24100 9.53500 47.38900
H  47.85500 10.59400 47.21100
H  48.47500 9.62900 45.84200
H  42.84100 8.82100 45.94400
H  41.07200 9.58300 49.79100
H  39.86100 9.95000 48.57200
H  40.99700 11.15100 48.97500

