158

Mg 44.66400 3.84400 46.59300
C  42.49800 6.75200 46.63800
C  41.85900 1.91100 46.03200
C  46.81700 1.37500 45.62000
C  47.31100 6.17500 46.59300
N  42.39800 4.38000 46.15500
C  41.75300 5.58300 46.37000
C  40.25400 5.35600 46.23500
C  40.07300 3.74700 46.40700
C  41.52900 3.27800 46.28200
C  39.47100 3.25500 47.81100
C  39.44700 6.00100 45.08900
C  39.98300 5.70500 43.68700
H  39.86600 6.79100 42.56000
N  44.35900 1.86000 45.94400
C  43.12400 1.25900 45.85700
C  43.37000 -0.14400 45.55800
C  44.81700 -0.33000 45.27900
C  45.43900 0.97600 45.60200
C  42.21000 -1.10300 45.35800
C  45.43800 -1.64200 44.65000
O  44.77600 -2.66000 44.34200
C  46.91200 -1.74300 44.39200
N  46.63300 3.82500 46.05600
C  47.31300 2.61700 45.86800
C  48.81500 2.93200 45.80000
C  48.94200 4.45100 45.97000
C  47.49700 4.84400 46.24800
C  49.63800 1.99500 46.73600
C  49.81100 5.16500 44.82100
C  51.22100 5.51000 45.30500
N  44.93300 6.05800 46.81200
C  46.09500 6.84800 46.73800
C  45.76600 8.26600 46.86500
C  44.34700 8.29000 46.75700
C  43.91600 6.94200 46.71900
C  46.83000 9.32500 46.90800
C  43.18500 9.20800 46.65000
O  43.14900 10.42200 46.58900
C  41.94500 8.21300 46.67500
C  41.16300 8.45200 47.94500
O  41.60700 8.09500 49.02700
O  39.91000 9.02800 47.77600
C  39.11300 8.91300 48.99000
H  41.07900 1.14800 46.08100
H  47.62100 0.65200 45.46600
H  48.15400 6.86500 46.66200
H  39.82900 5.74100 47.16200
H  39.46700 3.42300 45.56100
H  38.73000 3.94500 48.21400
H  40.21800 2.99600 48.56100
H  38.86900 2.37900 47.56900
H  39.48600 7.07600 45.26300
H  38.43500 5.61700 45.21800
H  39.23900 4.94600 43.44400
H  40.95500 5.21100 43.67300
H  42.53200 -2.14200 45.43200
H  41.93300 -0.79900 44.34900
H  41.45300 -0.95800 46.12900
H  47.51700 -1.63600 45.29200
H  47.22200 -0.98800 43.66900
H  47.11800 -2.70400 43.92000
H  49.08600 2.67300 44.77700
H  49.43100 4.66400 46.92000
H  49.95000 1.19000 46.07100
H  49.05500 1.60300 47.56900
H  50.41500 2.66500 47.10300
H  49.21700 6.05500 44.61100
H  49.94200 4.45100 44.00800
H  51.39900 6.57400 45.14700
H  51.92900 4.91100 44.73300
H  51.30500 5.19700 46.34500
H  46.60800 9.82000 47.85400
H  46.65300 10.12100 46.18500
H  47.86600 8.98900 46.92000
H  41.31200 8.41200 45.81100
H  38.94200 7.91800 49.40100
H  38.10300 9.10200 48.62600
H  39.20600 9.57400 49.85200
Mg 9.44200 48.02200 25.40300
C  7.30000 48.06500 28.09200
C  11.95200 49.17200 27.59300
C  11.58400 47.95400 22.92600
C  6.75300 47.47500 23.21800
N  9.50500 49.03000 27.65600
C  8.54400 48.58100 28.51000
C  9.04600 48.77400 30.00500
C  10.37000 49.53100 29.67200
C  10.68400 49.27900 28.19200
C  10.35500 51.07100 29.97100
C  9.29600 47.46600 30.87700
C  8.88000 47.53400 32.30000
H  9.06100 46.34000 33.16200
N  11.47700 48.37200 25.33900
C  12.33000 48.79400 26.36200
C  13.72900 48.64200 25.82900
C  13.56100 48.25200 24.47600
C  12.14700 48.17200 24.16400
C  14.95100 49.11800 26.63300
C  14.78700 47.98200 23.55500
O  14.70700 47.93900 22.36300
C  16.21100 47.77800 24.19100
N  9.16400 48.12300 23.29700
C  10.27800 47.86500 22.50400
C  9.85000 47.50400 21.06400
C  8.30600 47.33600 21.20600
C  8.03900 47.70500 22.66500
C  10.41800 48.36500 19.87400
C  7.78300 46.04500 20.63800
C  8.27200 44.73400 21.33500
N  7.41900 47.83100 25.56400
C  6.42500 47.50900 24.61600
C  5.18800 47.34100 25.23100
C  5.49400 47.47500 26.62000
C  6.86100 47.81700 26.76900
C  3.86700 46.92600 24.73200
C  4.93200 47.35000 27.90100
O  3.76600 47.06900 28.17600
C  6.04800 47.79300 28.96100
C  6.27600 46.57400 29.80000
O  6.88100 45.56100 29.53200
O  5.51200 46.70600 30.90400
C  5.40300 45.52200 31.82200
H  12.78700 49.24600 28.29300
H  12.38800 47.71100 22.22800
H  6.06700 47.22300 22.40700
H  8.24700 49.35700 30.46200
H  11.16100 49.14200 30.31400
H  9.36600 51.49700 29.80300
H  11.10000 51.53900 29.32900
H  10.58900 51.23600 31.02300
H  10.37800 47.48100 31.00300
H  8.89100 46.59400 30.36400
H  7.81000 47.73000 32.37200
H  9.38700 48.43700 32.64000
H  15.48000 48.30000 27.12100
H  14.59400 49.78900 27.41500
H  15.65900 49.67000 26.01500
H  16.17200 47.27900 25.16000
H  16.73600 48.73000 24.26500
H  16.87300 47.24400 23.50900
H  10.42100 46.59400 20.88000
H  7.70900 48.04400 20.63200
H  11.16800 49.02700 20.30600
H  9.64700 48.97900 19.41000
H  10.99400 47.76500 19.17000
H  8.15500 46.00600 19.61400
H  6.69600 45.96700 20.62100
H  7.47200 44.09600 21.71100
H  8.79100 44.93800 22.27100
H  8.82600 44.14300 20.60700
H  4.20900 46.28600 23.91800
H  3.49300 47.84300 24.27800
H  3.16300 46.53000 25.46300
H  5.79800 48.64500 29.59300
H  5.91200 45.70300 32.76900
H  5.73500 44.57300 31.39900
H  4.36200 45.44300 32.13500

