158

Mg 16.36400 -1.19800 28.18500
C  15.16000 0.68200 30.79400
C  18.37300 -2.90500 30.42000
C  17.79400 -2.90800 25.61900
C  14.62600 0.80000 25.95400
N  16.72800 -1.08000 30.43700
C  16.12000 -0.17600 31.29800
C  16.58300 -0.42300 32.72900
C  17.85400 -1.38600 32.52400
C  17.55700 -1.93500 31.10400
C  19.21600 -0.70100 32.57300
C  15.51200 -1.13200 33.64300
C  15.37200 -0.45700 35.03000
H  16.57800 0.23400 35.63100
N  17.85200 -2.72000 28.01300
C  18.43300 -3.37000 29.08300
C  19.22000 -4.53800 28.63600
C  19.13100 -4.48300 27.22500
C  18.26700 -3.35200 26.87600
C  20.02900 -5.50200 29.46100
C  19.86000 -5.39300 26.20200
O  19.93200 -5.03800 25.05300
C  20.54100 -6.70600 26.65700
N  16.40500 -0.87800 26.12800
C  17.02200 -1.78700 25.33400
C  16.75100 -1.32900 23.83800
C  15.52200 -0.45100 23.97400
C  15.50900 -0.21900 25.43900
C  17.96700 -0.56700 23.27900
C  14.23700 -1.14800 23.43600
C  13.79100 -0.73800 21.99700
N  15.15400 0.48900 28.32300
C  14.50100 1.19900 27.30400
C  13.62100 2.15900 27.90200
C  13.78700 2.00800 29.25400
C  14.82900 1.07300 29.46500
C  12.91200 3.19400 27.22300
C  13.45100 2.51600 30.59500
O  12.61500 3.36800 30.92300
C  14.31500 1.60500 31.64700
C  15.16900 2.50800 32.56100
O  16.30800 2.94400 32.18900
O  14.49100 2.81900 33.68400
C  15.02400 3.92200 34.46200
H  18.85500 -3.46700 31.22300
H  18.12400 -3.44000 24.72500
H  14.02800 1.18300 25.12400
H  16.95500 0.50500 33.16500
H  17.83700 -2.20500 33.24200
H  19.65300 -0.84200 31.58400
H  19.86700 -1.21800 33.27700
H  19.00700 0.33600 32.83500
H  15.59800 -2.21700 33.69700
H  14.53300 -1.01300 33.18000
H  15.05400 -1.25400 35.70100
H  14.64500 0.35500 35.02200
H  19.58000 -6.46800 29.22900
H  19.96900 -5.23300 30.51500
H  21.03400 -5.52500 29.04000
H  21.53000 -6.59600 27.10300
H  20.69100 -7.28800 25.74800
H  19.83200 -7.14600 27.35900
H  16.59200 -2.21900 23.23000
H  15.61600 0.56700 23.59500
H  18.80800 -0.40800 23.95300
H  17.65500 0.42200 22.94100
H  18.38500 -1.24000 22.53000
H  13.48000 -0.81800 24.14700
H  14.34900 -2.23200 23.47000
H  12.70300 -0.70400 21.95700
H  14.22300 -1.35400 21.20800
H  14.24800 0.24600 21.88800
H  13.00800 3.25500 26.13900
H  13.34300 4.13000 27.57800
H  11.84800 3.19900 27.45900
H  13.63400 1.08200 32.31900
H  14.81000 4.86700 33.96300
H  16.08800 3.79200 34.66200
H  14.60400 3.96400 35.46700
Mg 34.41500 3.59000 30.30200
C  32.20700 4.53000 32.72800
C  36.99000 3.69400 32.68800
C  36.68100 2.90100 27.87900
C  31.93100 3.82400 27.84700
N  34.59700 4.05300 32.37800
C  33.49000 4.17700 33.21700
C  33.84800 4.25800 34.74600
C  35.46300 4.29800 34.63600
C  35.69600 3.92500 33.13400
C  36.12200 5.74200 34.94900
C  33.23200 3.10600 35.63800
C  32.81300 3.70100 36.99400
H  33.68500 4.76800 37.67300
N  36.51100 3.38100 30.30600
C  37.38400 3.43800 31.37400
C  38.72300 3.10200 30.95600
C  38.62800 2.80300 29.55300
C  37.22700 3.01700 29.18300
C  39.91500 3.23500 31.79800
C  39.65300 2.23400 28.61600
O  39.53700 2.08000 27.37500
C  40.91400 1.55200 29.12500
N  34.26100 3.36400 28.13100
C  35.34600 2.98300 27.36200
C  34.99300 2.77900 25.90300
C  33.44700 3.13600 25.99700
C  33.20900 3.49200 27.42700
C  35.77100 3.77800 24.96000
C  32.61600 2.00100 25.33900
C  32.10900 0.94400 26.29800
N  32.45300 4.08100 30.23000
C  31.55800 4.04500 29.21300
C  30.25200 4.37000 29.73300
C  30.40300 4.51300 31.13100
C  31.76100 4.37000 31.35500
C  28.95700 4.50900 28.98900
C  29.75800 4.77300 32.40900
O  28.60700 5.03000 32.69700
C  30.97100 4.90400 33.50200
C  31.06700 6.21100 34.13700
O  31.56600 7.27000 33.65300
O  30.51900 6.11800 35.33200
C  30.54100 7.27000 36.22500
H  37.85000 3.83900 33.34500
H  37.30700 2.61900 27.02900
H  31.16200 3.87300 27.07300
H  33.42800 5.20400 35.08900
H  35.95600 3.52000 35.22000
H  35.44500 6.39700 35.49900
H  36.47600 6.10600 33.98400
H  37.01500 5.71300 35.57300
H  33.99600 2.33900 35.76500
H  32.47400 2.65700 34.99500
H  32.74300 2.89900 37.72900
H  31.82400 4.14200 36.86500
H  39.88800 3.89300 32.66600
H  40.79700 3.53200 31.23000
H  40.32000 2.26700 32.09300
H  40.61700 0.62000 29.60500
H  41.32400 2.30500 29.79900
H  41.55700 1.44600 28.25200
H  35.16100 1.74400 25.60400
H  33.25800 4.03300 25.40700
H  35.16000 4.46700 24.37800
H  36.37500 3.24200 24.22700
H  36.28800 4.52200 25.56600
H  33.17000 1.48800 24.55200
H  31.82800 2.50700 24.78100
H  32.71800 1.05300 27.19600
H  32.12100 -0.09500 25.96800
H  31.08300 1.10500 26.62600
H  28.47400 3.54300 28.84400
H  29.10400 4.83600 27.96000
H  28.36000 5.18000 29.60700
H  30.85600 4.20700 34.33200
H  31.27800 8.03900 35.99600
H  30.79500 6.92900 37.22900
H  29.54400 7.69500 36.34000

