158

Mg -9.77500 40.15700 42.16900
C  -8.61700 36.82000 41.02000
C  -6.88300 41.43300 40.85800
C  -11.39600 43.08400 42.21500
C  -12.89000 38.41700 42.78100
N  -7.94900 39.20000 41.01800
C  -7.67600 37.85200 40.76800
C  -6.24700 37.72100 40.08700
C  -5.68900 39.17700 40.23300
C  -6.89300 40.01700 40.68300
C  -4.50400 39.31300 41.19500
C  -6.45100 37.08900 38.67200
C  -5.50000 35.90800 38.34300
H  -4.55600 36.25900 37.09300
N  -9.16100 41.99400 41.80600
C  -7.96600 42.31900 41.31200
C  -7.95400 43.77100 41.22100
C  -9.16000 44.27600 41.73000
C  -9.94600 43.12900 42.00600
C  -6.76600 44.52000 40.65200
C  -9.56300 45.75500 41.94400
O  -8.84100 46.70500 41.52800
C  -10.73600 46.12200 42.62500
N  -11.82300 40.62400 42.32800
C  -12.21500 41.90200 42.33900
C  -13.75700 42.04100 42.44300
C  -14.22800 40.53700 42.63100
C  -12.88700 39.79300 42.57200
C  -14.19900 43.05200 43.59400
C  -15.22600 40.02000 41.59200
C  -16.47200 39.24100 42.27600
N  -10.54700 38.09600 42.07900
C  -11.80700 37.64700 42.44600
C  -11.82300 36.17700 42.35300
C  -10.56100 35.86100 41.77800
C  -9.88000 37.03800 41.54400
C  -12.84400 35.25400 42.85000
C  -9.80700 34.73600 41.26400
O  -9.97900 33.47300 41.28200
C  -8.52900 35.34100 40.76600
C  -7.36800 34.67600 41.60400
O  -7.15800 34.63700 42.79900
O  -6.56200 34.06500 40.66000
C  -5.27300 33.53600 41.25300
H  -5.98800 41.99400 40.58200
H  -12.06100 43.95000 42.18900
H  -13.77800 37.81900 43.00100
H  -5.74100 36.97200 40.69700
H  -5.32400 39.33900 39.21800
H  -4.05200 38.35000 41.43200
H  -4.86600 39.82500 42.08600
H  -3.68200 39.92500 40.82300
H  -6.36700 37.90300 37.95200
H  -7.44600 36.66400 38.54200
H  -6.14300 35.10300 37.98900
H  -4.91900 35.67400 39.23500
H  -7.21100 45.37900 40.15000
H  -6.19500 43.84900 40.01100
H  -6.14000 44.81500 41.49400
H  -10.66200 47.10400 43.09300
H  -11.08900 45.40800 43.36900
H  -11.48400 46.23900 41.84100
H  -14.15400 42.51500 41.54500
H  -14.68600 40.32300 43.59600
H  -13.34200 43.44100 44.14300
H  -14.91000 42.58700 44.27800
H  -14.71200 43.89500 43.13100
H  -14.80600 39.37900 40.81700
H  -15.55700 40.84700 40.96300
H  -16.46700 39.09200 43.35500
H  -16.61400 38.20100 41.98300
H  -17.42600 39.69300 42.00500
H  -13.44400 35.84900 43.53700
H  -12.37200 34.43100 43.38700
H  -13.51400 34.83800 42.09800
H  -8.52600 35.02700 39.72200
H  -4.75300 32.97700 40.47500
H  -5.55300 32.80000 42.00600
H  -4.62000 34.26900 41.72700
Mg -0.91100 34.30100 26.55500
C  -2.59600 32.52900 29.21200
C  0.54400 36.27800 28.79600
C  -0.00200 36.26800 24.04000
C  -2.76600 32.30300 24.30700
N  -1.13700 34.33400 28.71500
C  -1.75600 33.57400 29.71200
C  -1.34100 33.96700 31.07800
C  -0.42100 35.21800 30.80300
C  -0.37500 35.33900 29.30600
C  -0.94200 36.54800 31.49700
C  -0.70800 32.81800 31.98900
C  -1.47700 32.47400 33.28400
H  -0.78000 32.27500 34.63800
N  0.33300 35.93500 26.37200
C  0.76900 36.68000 27.47100
C  1.67500 37.65100 27.00200
C  1.61600 37.66400 25.59200
C  0.61300 36.59300 25.29700
C  2.51800 38.52400 28.05400
C  2.36200 38.47600 24.58500
O  2.20200 38.31900 23.38900
C  3.39900 39.41000 25.05600
N  -1.37800 34.37100 24.53800
C  -0.88300 35.27200 23.67300
C  -1.21100 34.97500 22.21500
C  -1.77000 33.55100 22.34400
C  -2.03300 33.36500 23.84600
C  -2.25100 35.97600 21.52700
C  -0.82500 32.50400 21.74700
C  0.37400 32.04900 22.59000
N  -2.37600 32.70600 26.69300
C  -3.01300 32.00400 25.67000
C  -3.98800 31.11900 26.26400
C  -3.82100 31.23200 27.66700
C  -2.84300 32.21100 27.85700
C  -4.94700 30.30400 25.57300
C  -4.18700 30.70100 28.96700
O  -5.14300 29.94500 29.23500
C  -3.36900 31.48900 30.00200
C  -4.27100 32.08100 31.06900
O  -4.93500 33.09100 30.93900
O  -4.33800 31.21800 32.14700
C  -5.29200 31.49000 33.19700
H  1.23700 36.75000 29.49500
H  0.40000 36.85800 23.21400
H  -3.21900 31.65900 23.55100
H  -2.13600 34.40000 31.68500
H  0.59500 34.96000 31.10000
H  -1.47900 37.12500 30.74400
H  -0.02800 37.11800 31.66400
H  -1.56900 36.42400 32.38000
H  0.23400 33.22500 32.35700
H  -0.45600 31.88800 31.48000
H  -1.98100 31.51500 33.16100
H  -2.34100 33.13700 33.33100
H  3.58800 38.56200 27.84700
H  2.39200 38.27800 29.10800
H  2.17200 39.55300 27.95600
H  3.39700 40.26500 24.38000
H  4.36000 38.89600 25.08200
H  3.16300 39.79800 26.04600
H  -0.24500 34.92900 21.71300
H  -2.70100 33.49200 21.78000
H  -2.60300 36.69500 22.26700
H  -3.17700 35.47800 21.24100
H  -1.77100 36.32300 20.61200
H  -0.52200 32.74900 20.72900
H  -1.50500 31.65700 21.65400
H  0.00800 31.71000 23.55800
H  1.04400 32.87800 22.82200
H  0.85100 31.28300 21.97900
H  -5.69000 31.00500 25.19300
H  -5.41300 29.50800 26.15400
H  -4.46100 29.93200 24.67100
H  -2.74200 30.71500 30.44500
H  -4.79600 31.46800 34.16700
H  -5.97000 30.63900 33.11900
H  -5.98200 32.33300 33.17100

