158

Mg 49.42200 35.86800 27.14700
C  47.37200 34.34400 29.46800
C  50.23000 38.30300 29.39600
C  51.52400 37.21200 24.76400
C  48.83500 33.35800 24.87800
N  48.79100 36.25500 29.16000
C  48.05300 35.47600 30.01300
C  48.23600 35.97900 31.49200
C  48.90100 37.40100 31.41500
C  49.35200 37.33500 29.88000
C  48.16700 38.68700 31.79000
C  49.13800 35.03000 32.34500
C  48.94700 34.89100 33.91200
H  48.06300 35.85500 34.57800
N  50.62500 37.62400 26.98100
C  50.82800 38.47700 28.05000
C  51.74300 39.48200 27.70400
C  52.27900 39.20500 26.40600
C  51.49800 37.92900 25.98400
C  52.05600 40.70100 28.65000
C  53.30800 39.91200 25.51600
O  53.63300 39.43500 24.44100
C  54.04600 41.14500 26.04400
N  49.86900 35.52800 24.97100
C  50.83500 36.14700 24.26900
C  51.06800 35.55900 22.85700
C  50.42400 34.19000 23.08500
C  49.67200 34.38800 24.37200
C  50.26900 36.42800 21.89100
C  51.38400 33.00400 23.19400
C  51.51800 32.26000 21.91400
N  48.21900 34.24800 27.09800
C  48.15600 33.32800 26.14100
C  47.34600 32.19600 26.65700
C  46.94400 32.60000 27.94000
C  47.52200 33.82700 28.19200
C  47.15500 30.88100 25.90300
C  46.21100 32.19900 29.04500
O  45.55800 31.11800 29.23300
C  46.34000 33.42600 30.01700
C  46.51600 32.79600 31.42300
O  47.42000 32.06100 31.85400
O  45.38000 33.17300 32.12300
C  45.37900 32.61900 33.51500
H  50.71200 38.92200 30.15600
H  52.42500 37.49100 24.21300
H  48.70500 32.43700 24.30700
H  47.31200 36.18200 32.03300
H  49.75700 37.41400 32.09000
H  48.63600 39.19100 32.63500
H  47.15100 38.43900 32.09700
H  48.01900 39.40400 30.98300
H  50.17500 35.21200 32.06400
H  49.02000 34.00100 32.00600
H  49.92800 34.95000 34.38400
H  48.52000 33.89400 34.02900
H  52.37900 41.59400 28.11500
H  52.84500 40.49700 29.37500
H  51.15100 41.01800 29.16700
H  53.37400 42.00100 26.10600
H  54.90300 41.53000 25.49100
H  54.44000 40.84400 27.01500
H  52.11100 35.51400 22.54500
H  49.78000 34.15100 22.20600
H  50.50500 37.39500 22.33500
H  49.19400 36.29200 22.01400
H  50.66900 36.50500 20.88000
H  51.09300 32.20200 23.87200
H  52.33700 33.46400 23.45700
H  50.54800 32.20100 21.41900
H  52.01800 31.29300 21.86400
H  52.01600 33.01900 21.31100
H  48.06200 30.47700 25.45500
H  46.39200 31.07000 25.14800
H  46.76700 30.17400 26.63600
H  45.33400 33.84200 29.96000
H  45.29700 31.53300 33.46600
H  44.51500 33.00300 34.05600
H  46.27900 32.96300 34.02600
Mg 1.65300 41.02100 25.74500
C  2.74400 41.37600 28.99800
C  -1.30700 39.86700 26.78600
C  1.23200 40.28300 22.47600
C  4.94100 42.23500 24.70800
N  0.70000 40.97400 27.67100
C  1.40900 41.00800 28.88600
C  0.35500 40.86200 30.00800
C  -0.80600 40.09000 29.33900
C  -0.45800 40.27000 27.83000
C  -0.92200 38.60600 29.63500
C  -0.04700 42.24200 30.64900
C  -0.08900 42.33800 32.17400
H  -0.87900 41.18800 32.84200
N  0.19100 40.19800 24.77000
C  -1.03400 39.83800 25.37500
C  -1.94800 39.41700 24.28700
C  -1.20900 39.37100 23.06300
C  0.13500 39.94300 23.39400
C  -3.38400 38.98800 24.66500
C  -1.60900 39.04300 21.62700
O  -0.86700 39.05000 20.68900
C  -3.05100 38.71000 21.36300
N  2.86400 41.38800 23.81500
C  2.44300 40.90600 22.69100
C  3.48300 41.16700 21.55100
C  4.46700 42.06600 22.19200
C  4.08200 41.87300 23.70300
C  4.19600 39.92700 20.85300
C  4.49000 43.56200 21.69700
C  3.16900 44.33100 21.98200
N  3.48500 41.72200 26.65700
C  4.71200 42.06200 26.08900
C  5.62300 42.42400 27.13800
C  4.95600 42.20300 28.37600
C  3.65700 41.77000 27.99400
C  7.05400 42.80000 26.87700
C  4.99900 42.10100 29.77300
O  5.89600 42.32600 30.56100
C  3.53800 41.62200 30.25200
C  3.63000 40.40400 31.13700
O  4.28200 39.32900 30.93700
O  2.91200 40.66100 32.26100
C  2.71800 39.50100 33.06600
H  -2.22600 39.39800 27.14400
H  1.27100 40.00100 21.42200
H  5.88700 42.69500 24.41500
H  0.77900 40.24900 30.80300
H  -1.73000 40.58800 29.63600
H  -0.10100 38.23500 30.24800
H  -0.87800 38.07600 28.68300
H  -1.85000 38.27300 30.10000
H  -0.98600 42.65100 30.27500
H  0.69200 42.98000 30.33800
H  -0.48200 43.32500 32.41500
H  0.93500 42.34500 32.54700
H  -4.08700 38.99000 23.83200
H  -3.81200 39.60600 25.45500
H  -3.45700 37.98900 25.09400
H  -3.66800 39.59900 21.49600
H  -3.46100 37.83800 21.87200
H  -3.19700 38.51100 20.30100
H  2.84400 41.68500 20.83500
H  5.51400 41.76400 22.15500
H  4.27800 39.15200 21.61500
H  5.21100 40.26200 20.63800
H  3.64500 39.53600 19.99700
H  4.51400 43.44700 20.61400
H  5.35400 44.08800 22.10300
H  3.15800 45.10600 21.21500
H  3.31700 44.72400 22.98800
H  2.24300 43.75900 22.02300
H  7.28800 43.56200 27.62000
H  7.28000 43.24300 25.90700
H  7.65400 41.89100 26.84700
H  2.96900 42.37400 30.79900
H  2.47900 38.55500 32.58000
H  1.78600 39.83300 33.52200
H  3.45900 39.38600 33.85700

