158

Mg 49.44900 46.11800 42.88900
C  46.01600 46.21500 41.87600
C  49.59100 42.76300 41.95900
C  52.76400 46.48900 42.70300
C  49.06400 49.52900 43.65800
N  48.02900 44.72300 41.87400
C  46.68700 44.99400 41.69200
C  46.04900 43.69800 41.17100
C  47.05900 42.56400 41.60200
C  48.33800 43.34100 41.79100
C  46.77400 41.56700 42.77100
C  45.76100 43.62700 39.64900
C  44.53100 42.82000 39.24000
H  44.01900 43.12800 37.85200
N  51.03400 44.76900 42.47400
C  50.84300 43.42200 42.15300
C  52.19900 42.89500 41.96500
C  53.16400 43.92800 42.26800
C  52.38700 45.12900 42.47400
C  52.48500 41.42900 41.78700
C  54.63100 43.76700 42.41400
O  55.19000 42.70500 42.16600
C  55.58500 44.87700 42.98600
N  50.79800 47.69800 43.28400
C  52.09000 47.64800 43.08400
C  52.80000 48.93200 43.45400
C  51.65200 49.89200 43.85800
C  50.35300 49.03900 43.53800
C  53.92000 48.91600 44.53500
C  51.67500 51.30100 43.11000
C  51.20600 52.51300 43.90600
N  47.91800 47.61300 42.82900
C  47.91400 48.86900 43.27500
C  46.52700 49.32600 43.27900
C  45.85100 48.37000 42.67300
C  46.67400 47.34600 42.41500
C  46.09900 50.64400 43.86700
C  44.50600 48.06700 42.30000
O  43.58200 48.87300 42.30400
C  44.54600 46.65100 41.76000
C  43.69700 45.84400 42.61100
O  43.86600 45.59800 43.76900
O  42.70600 45.26000 41.83200
C  41.77900 44.32700 42.40200
H  49.49000 41.69100 41.77600
H  53.82300 46.75600 42.67400
H  48.91700 50.58500 43.89600
H  45.12400 43.55400 41.73000
H  47.12500 41.79300 40.83400
H  45.82500 41.90500 43.18900
H  47.60200 41.59000 43.47800
H  46.57500 40.55000 42.43300
H  46.70500 43.30000 39.21100
H  45.55000 44.59800 39.20200
H  43.69800 42.97500 39.92600
H  44.78700 41.76700 39.35900
H  51.55200 40.98800 41.43700
H  52.59600 40.89800 42.73300
H  53.26300 41.12000 41.08900
H  55.67500 45.71000 42.29000
H  56.56400 44.47600 43.24800
H  55.16100 45.18400 43.94300
H  53.24400 49.41800 42.58500
H  51.49400 50.02100 44.92900
H  54.90500 49.03200 44.08400
H  54.08700 48.02500 45.14000
H  53.81000 49.73500 45.24600
H  51.00300 51.29300 42.25200
H  52.69200 51.42000 42.73600
H  50.90100 52.28800 44.92800
H  50.34200 52.98900 43.44200
H  51.98400 53.27600 43.86900
H  46.59800 51.52500 43.46300
H  46.42200 50.72600 44.90400
H  45.02000 50.79200 43.83100
H  44.02000 46.74800 40.81100
H  41.17400 43.71000 41.73700
H  41.15400 44.98200 43.00900
H  42.33500 43.65700 43.05700
Mg -13.25300 16.79200 42.23800
C  -10.45600 14.41700 41.71000
C  -11.32300 19.05900 40.43700
C  -16.02800 18.51200 41.96200
C  -15.01600 13.97200 43.55000
N  -11.24400 16.66600 41.11400
C  -10.24500 15.67600 41.11400
C  -8.96700 16.12800 40.50400
C  -9.23900 17.62700 40.09200
C  -10.66200 17.82400 40.68900
C  -8.17700 18.72600 40.58400
C  -8.46500 15.11900 39.37200
C  -6.98500 14.56900 39.59800
H  -5.85700 15.11300 38.60500
N  -13.62900 18.68500 41.43500
C  -12.66000 19.45700 40.74400
C  -13.34000 20.71300 40.43800
C  -14.72500 20.63500 40.94700
C  -14.90400 19.21000 41.41400
C  -12.72000 21.79500 39.77300
C  -15.74300 21.74600 40.98500
O  -15.40200 22.81600 40.56800
C  -17.10100 21.61100 41.70900
N  -15.36100 16.19000 42.37800
C  -16.25500 17.19700 42.42200
C  -17.53100 16.74700 42.96900
C  -17.13400 15.35500 43.68100
C  -15.79300 15.08400 43.16300
C  -18.30300 17.78200 43.86300
C  -18.11100 14.17500 43.63000
C  -18.52800 13.57500 45.01600
N  -12.87100 14.63600 42.74000
C  -13.69000 13.74000 43.24100
C  -12.92100 12.54200 43.55300
C  -11.63000 12.75900 43.00700
C  -11.65600 14.07800 42.42800
C  -13.45600 11.25300 44.13600
C  -10.29000 12.22600 42.87600
O  -9.79300 11.13200 43.17500
C  -9.49300 13.25700 41.95100
C  -8.18900 13.46300 42.55900
O  -7.95600 14.33500 43.37200
O  -7.31800 12.48800 42.10000
C  -6.04900 12.50800 42.83100
H  -10.65500 19.74700 39.91500
H  -16.87800 19.07700 41.57300
H  -15.45800 13.16700 44.14000
H  -8.37100 16.06900 41.41500
H  -9.27000 17.72200 39.00600
H  -8.58700 19.35400 41.37500
H  -7.99000 19.33200 39.69700
H  -7.19800 18.36200 40.89400
H  -8.53700 15.59800 38.39600
H  -9.06300 14.20900 39.33800
H  -6.94900 13.48200 39.51600
H  -6.62500 14.81900 40.59600
H  -13.28400 21.91600 38.84800
H  -11.65800 21.69600 39.55000
H  -12.90800 22.72100 40.31700
H  -17.52600 22.61100 41.79100
H  -16.91900 21.18600 42.69600
H  -17.60700 20.91100 41.04500
H  -18.20100 16.57800 42.12500
H  -16.82600 15.58600 44.70100
H  -18.82200 17.41000 44.74700
H  -19.16000 18.25900 43.38700
H  -17.62200 18.58200 44.15200
H  -17.80100 13.41900 42.90800
H  -19.06200 14.43100 43.16400
H  -19.44300 14.03100 45.39500
H  -17.78200 13.88500 45.74700
H  -18.64300 12.49100 45.01700
H  -14.26600 10.98600 43.45800
H  -13.93300 11.31500 45.11300
H  -12.72500 10.44400 44.14400
H  -9.32000 12.59800 41.10000
H  -5.35200 13.23400 42.41000
H  -5.65800 11.54900 42.49000
H  -6.12700 12.61500 43.91300

