158

Mg 16.76800 -1.37000 27.97900
C  15.80800 0.78600 30.64400
C  18.84800 -3.00600 29.97100
C  18.10100 -2.91000 25.20100
C  14.88300 0.82400 25.72100
N  17.24100 -1.04000 30.00300
C  16.75600 -0.19800 30.94900
C  17.38500 -0.54900 32.32600
C  18.43000 -1.61300 32.02000
C  18.15700 -1.90700 30.56400
C  19.93700 -1.20000 32.21100
C  16.21900 -1.04600 33.22400
C  16.05700 -0.33200 34.60900
H  17.21900 0.45000 35.29000
N  18.18300 -2.92700 27.68600
C  18.94700 -3.44600 28.64600
C  19.80700 -4.44900 28.10600
C  19.45300 -4.52700 26.72700
C  18.58400 -3.37600 26.47300
C  20.79700 -5.17700 28.82700
C  20.09400 -5.45700 25.68300
O  19.75100 -5.42000 24.50600
C  20.89300 -6.62500 26.13300
N  16.53000 -1.13900 25.76100
C  17.21800 -1.89400 24.86800
C  17.02100 -1.36700 23.45600
C  15.70500 -0.57600 23.61200
C  15.67200 -0.22100 25.13300
C  18.28800 -0.53700 22.92500
C  14.43400 -1.40800 23.27500
C  13.81700 -1.06600 21.95900
N  15.60200 0.39900 28.13000
C  14.92700 1.10200 27.11400
C  14.24600 2.25900 27.79600
C  14.47500 2.07300 29.17500
C  15.29400 0.95400 29.29400
C  13.38000 3.35300 27.22300
C  14.21600 2.71600 30.42200
O  13.58400 3.71900 30.70100
C  15.06500 1.86400 31.45000
C  15.97900 2.83500 32.03700
O  17.08600 3.10700 31.58000
O  15.43800 3.35500 33.14800
C  16.30800 4.39400 33.75400
H  19.46000 -3.46300 30.75100
H  18.52500 -3.38900 24.31600
H  14.34100 1.48000 25.03800
H  17.80900 0.37100 32.72800
H  18.24000 -2.58000 32.48500
H  20.38700 -0.86500 31.27600
H  20.47200 -2.03600 32.66100
H  20.07800 -0.33400 32.85900
H  16.29600 -2.10900 33.45200
H  15.28400 -1.00300 32.66600
H  15.81500 -1.10600 35.33700
H  15.16600 0.29300 34.55000
H  20.60300 -6.24000 28.68800
H  20.81900 -4.98700 29.90000
H  21.81400 -4.92400 28.52900
H  20.35400 -7.13700 26.93000
H  21.88500 -6.29800 26.44700
H  20.95500 -7.17000 25.19100
H  16.88100 -2.24700 22.82900
H  15.66200 0.36000 23.05400
H  18.03700 0.33600 22.32200
H  18.95300 -1.16600 22.33200
H  18.88400 -0.18700 23.76800
H  13.61200 -1.23000 23.96800
H  14.66700 -2.46500 23.14700
H  12.74700 -1.17200 22.13500
H  14.05500 -1.63700 21.06200
H  13.90700 -0.02400 21.65400
H  12.63400 3.60700 27.97600
H  12.77500 3.03400 26.37400
H  13.97900 4.20300 26.89500
H  14.45300 1.44900 32.25100
H  16.33800 5.22100 33.04500
H  17.23600 3.87300 33.99100
H  15.84000 4.69200 34.69300
Mg 10.07900 47.90600 26.74500
C  8.35300 47.78400 29.90300
C  12.76600 48.85100 28.41200
C  11.63200 47.62700 23.73700
C  7.01500 46.92500 25.31100
N  10.45100 48.34300 28.91500
C  9.69400 48.18500 30.00800
C  10.38900 48.49200 31.32500
C  11.63500 49.31700 30.72900
C  11.66100 48.87400 29.28400
C  11.68000 50.81600 30.77500
C  10.84700 47.17700 32.17500
C  10.50000 47.24200 33.71200
H  10.41400 45.95600 34.56600
N  11.88900 48.33000 26.13000
C  12.92700 48.64500 26.98600
C  14.17900 48.64100 26.22100
C  13.74800 48.39300 24.84600
C  12.32200 48.12200 24.82000
C  15.52700 48.95600 26.86800
C  14.62700 48.31300 23.65200
O  14.21600 48.16400 22.46700
C  16.14500 48.33900 23.66500
N  9.40100 47.39800 24.87700
C  10.21000 47.25200 23.75400
C  9.44300 47.05700 22.52000
C  8.01500 46.58500 23.08900
C  8.15700 46.96100 24.51100
C  9.37800 48.36300 21.63300
C  7.88900 45.00900 22.96900
C  9.06100 44.10300 23.43700
N  8.03800 47.68700 27.34300
C  6.91700 47.25600 26.65200
C  5.71200 47.31800 27.48900
C  6.33200 47.41700 28.78700
C  7.69400 47.62300 28.65400
C  4.24900 46.83400 27.13900
C  5.95600 47.23400 30.11900
O  4.96100 46.79600 30.57900
C  7.31800 47.57300 30.98300
C  7.47300 46.33100 31.83300
O  7.98800 45.29600 31.42200
O  6.80800 46.50200 32.94900
C  6.60000 45.28300 33.78600
H  13.61500 49.23700 28.98100
H  12.09100 47.49800 22.75500
H  6.07300 46.73700 24.79200
H  9.82900 49.16100 31.97900
H  12.56600 48.87900 31.09000
H  12.57400 51.16800 31.29000
H  10.88300 51.41500 31.21600
H  11.73000 51.21900 29.76300
H  11.89700 46.89300 32.10200
H  10.39200 46.24800 31.83200
H  9.53900 47.73600 33.85000
H  11.26100 47.84600 34.20500
H  15.51200 48.87300 27.95500
H  15.81600 49.97900 26.63000
H  16.30400 48.36700 26.38000
H  16.61000 49.24700 24.04900
H  16.43400 48.10400 22.64100
H  16.39600 47.50200 24.31600
H  9.89100 46.26400 21.92100
H  7.20900 47.09300 22.56000
H  10.08400 49.11700 21.98200
H  8.39000 48.82200 21.66600
H  9.62700 48.08200 20.61000
H  7.75200 44.58300 21.97500
H  7.01200 44.72300 23.55000
H  9.44600 43.54400 22.58500
H  8.54900 43.40100 24.09600
H  9.85600 44.53400 24.04500
H  4.05200 46.89900 26.06900
H  3.54400 47.39900 27.74800
H  4.08300 45.79600 27.42600
H  7.08000 48.40900 31.64100
H  6.75700 45.57200 34.82500
H  7.08000 44.35600 33.47100
H  5.52400 45.11400 33.74200

