158

Mg -0.01500 7.30300 24.96700
C  0.66300 9.44400 27.82300
C  0.57400 4.63100 27.01400
C  -0.46100 5.48400 22.30600
C  -0.08600 10.28400 23.06000
N  0.44300 7.08500 27.16300
C  0.70700 8.05000 28.11900
C  0.91500 7.47200 29.53300
C  0.87000 5.94500 29.13600
C  0.60600 5.82500 27.69800
C  2.08200 5.06700 29.57600
C  -0.10400 7.93300 30.63700
C  0.36400 7.93600 32.16200
H  1.63100 7.12800 32.58000
N  -0.05500 5.29600 24.73600
C  0.31900 4.36700 25.67000
C  0.34000 3.05700 25.00400
C  -0.03300 3.30700 23.64600
C  -0.21900 4.72100 23.50300
C  0.77200 1.75600 25.74400
C  0.06000 2.32400 22.50600
O  -0.07300 2.68000 21.31900
C  0.24800 0.85500 22.73700
N  0.28000 7.77800 22.83800
C  -0.17700 6.84600 22.01600
C  -0.59200 7.45900 20.69500
C  -0.75700 8.99300 21.02300
C  -0.21300 8.99200 22.42900
C  0.45700 7.14400 19.56000
C  -2.27300 9.45600 21.00900
C  -2.57100 10.69200 20.07900
N  0.35500 9.45800 25.30900
C  0.23000 10.54000 24.42200
C  0.36900 11.80000 25.12000
C  0.65800 11.41700 26.47600
C  0.53600 9.98700 26.48900
C  0.34100 13.16200 24.49400
C  0.99300 11.93400 27.79700
O  1.16600 13.09900 28.21800
C  0.86500 10.73700 28.73400
C  2.18900 10.68100 29.41900
O  3.23800 10.38800 28.91200
O  1.94000 11.15800 30.65900
C  3.14300 11.51400 31.47300
H  0.61000 3.74700 27.65400
H  -0.82300 4.83000 21.51000
H  -0.45000 11.11300 22.44900
H  1.89700 7.79200 29.88000
H  -0.05600 5.55500 29.55800
H  1.67500 4.24300 30.16100
H  2.84400 5.59000 30.15500
H  2.57000 4.75100 28.65400
H  -0.92000 7.21400 30.56700
H  -0.44500 8.90200 30.27200
H  -0.55300 7.65200 32.67800
H  0.50200 9.00300 32.34100
H  1.83400 1.55400 25.60300
H  0.24900 0.83600 25.48100
H  0.55500 1.79400 26.81100
H  -0.55000 0.47000 23.37300
H  1.26600 0.61100 23.03900
H  0.23800 0.33900 21.77700
H  -1.49900 6.90900 20.44400
H  -0.08300 9.61500 20.43500
H  1.17100 6.36100 19.81500
H  1.00800 8.05700 19.33500
H  0.00400 6.71900 18.66400
H  -2.47200 9.73800 22.04300
H  -3.06800 8.75000 20.76600
H  -2.10500 10.47300 19.11900
H  -2.05700 11.54400 20.52400
H  -3.62800 10.93400 19.97200
H  -0.55000 13.60700 24.93500
H  0.24900 13.15900 23.40800
H  1.19700 13.73300 24.85600
H  0.08900 11.01900 29.44600
H  4.00900 11.68700 30.83400
H  3.28700 10.73400 32.22000
H  2.84600 12.45600 31.93500
Mg 47.58800 25.23200 29.67600
C  48.18400 27.68800 32.07000
C  46.14900 23.22200 31.97300
C  46.95800 23.03900 27.20800
C  49.32100 27.24600 27.36000
N  47.24600 25.48200 31.80500
C  47.49900 26.55600 32.57300
C  47.01500 26.31700 34.03500
C  46.65800 24.79300 33.96600
C  46.67100 24.45900 32.49000
C  47.51700 23.87400 34.86200
C  45.80700 27.26700 34.34600
C  45.03700 27.05800 35.63100
H  45.74000 26.96900 37.02100
N  46.70100 23.44500 29.62600
C  46.23400 22.70500 30.64900
C  45.67800 21.43100 30.20500
C  45.91800 21.36800 28.78800
C  46.52400 22.66200 28.47100
C  45.08700 20.46800 31.10500
C  45.56800 20.26700 27.86500
O  45.85200 20.23100 26.67700
C  44.74800 19.16900 28.29100
N  48.13600 25.08000 27.54900
C  47.58900 24.16900 26.75100
C  47.99500 24.40000 25.28000
C  48.62300 25.85600 25.36600
C  48.66600 26.14900 26.86700
C  49.06300 23.35100 24.82000
C  47.77100 26.88500 24.49400
C  48.57400 27.71800 23.54000
N  48.45200 27.11600 29.62400
C  49.21400 27.76500 28.63300
C  49.66500 29.04200 29.10200
C  49.30600 29.04000 30.52000
C  48.61200 27.84500 30.72000
C  50.46900 30.08600 28.30100
C  49.29000 29.79600 31.75300
O  49.70500 30.94000 31.93800
C  48.54900 28.99400 32.83600
C  49.38400 28.71400 34.05200
O  50.46000 28.21000 34.02500
O  48.84000 29.43300 35.03500
C  49.67000 29.68000 36.26600
H  45.80900 22.66800 32.85100
H  46.72200 22.30500 26.43500
H  49.80600 27.90800 26.64000
H  47.86600 26.43800 34.70500
H  45.65200 24.66300 34.36400
H  47.91400 24.42200 35.71700
H  48.20500 23.29000 34.25100
H  46.84900 23.12200 35.28200
H  45.13900 27.11000 33.49900
H  46.07700 28.31400 34.21300
H  44.50800 26.12300 35.44600
H  44.21600 27.75700 35.79200
H  44.02400 20.25300 31.00400
H  45.20800 20.71000 32.16000
H  45.60500 19.51200 31.03000
H  45.27500 18.41000 28.87000
H  44.30500 18.66100 27.43400
H  43.95800 19.62300 28.88900
H  47.11200 24.51000 24.64900
H  49.66200 25.83600 25.03700
H  50.00700 23.65700 25.27200
H  49.17000 23.27900 23.73800
H  48.86200 22.32100 25.11400
H  47.28800 27.49000 25.26200
H  46.98100 26.31500 24.00600
H  48.06000 27.79600 22.58200
H  49.61200 27.39300 23.47500
H  48.71500 28.68600 24.02200
H  51.30100 29.67300 27.73100
H  50.80700 30.82100 29.03200
H  49.76300 30.50300 27.58300
H  47.71700 29.61000 33.17700
H  50.73600 29.46500 36.19800
H  49.26100 29.22500 37.16900
H  49.59500 30.76400 36.34900

