158

Mg 48.84000 45.43400 42.90000
C  45.40600 45.45800 41.66700
C  48.90200 41.99400 41.98100
C  52.17900 45.41600 43.17400
C  48.87100 48.87700 42.71400
N  47.39600 43.90900 41.82100
C  46.00000 44.16000 41.50200
C  45.25600 42.88700 41.19000
C  46.38800 41.80800 41.25900
C  47.67300 42.57000 41.76400
C  46.11800 40.62700 42.29200
C  44.46300 42.95000 39.79300
C  45.24400 43.29300 38.50100
H  45.44600 42.32200 37.29300
N  50.30500 43.87700 42.76800
C  50.11400 42.54600 42.42000
C  51.34000 41.88500 42.71600
C  52.30500 42.81000 43.16900
C  51.60600 44.15100 43.03600
C  51.59500 40.41800 42.43900
C  53.78000 42.64000 43.63800
O  54.18800 41.47800 43.63800
C  54.77700 43.62900 44.26000
N  50.32400 46.95800 42.74800
C  51.61900 46.65300 43.14000
C  52.36500 48.00900 43.26600
C  51.40100 49.05200 42.60100
C  50.15400 48.27600 42.70300
C  52.78100 48.39100 44.77200
C  51.70600 49.37200 41.13700
C  52.30100 50.68100 40.74200
N  47.44400 46.88800 42.48400
C  47.62500 48.21300 42.59700
C  46.27100 48.86100 42.48000
C  45.46200 47.76700 41.98000
C  46.16200 46.58200 42.06200
C  45.90800 50.33300 42.60200
C  44.13400 47.47900 41.60800
O  43.13500 48.23300 41.58600
C  44.05500 46.02800 41.29100
C  42.81700 45.44900 41.91500
O  41.79600 44.98200 41.36100
O  42.94300 45.41100 43.27100
C  41.70900 45.24800 44.06400
H  48.92700 40.90500 41.89700
H  53.26600 45.33900 43.24000
H  48.85200 49.96800 42.77200
H  44.52900 42.78400 41.99600
H  46.66800 41.37600 40.29800
H  46.81000 40.80700 43.11500
H  46.22100 39.62200 41.88400
H  45.13500 40.69200 42.75900
H  43.60700 43.57900 40.03800
H  44.11600 41.94300 39.56100
H  46.23700 43.69800 38.69700
H  44.68100 44.16200 38.15900
H  51.61000 39.78500 43.32600
H  52.48600 40.17500 41.85900
H  50.78900 39.92100 41.90000
H  55.50700 43.22200 44.96000
H  54.12900 44.29900 44.82400
H  55.30200 44.18400 43.48100
H  53.32400 47.83400 42.77800
H  51.33700 49.98800 43.15600
H  53.86500 48.28600 44.82600
H  52.29800 47.74500 45.50400
H  52.52100 49.39400 45.10900
H  50.91200 49.14800 40.42400
H  52.42900 48.65400 40.75100
H  53.37600 50.53700 40.63100
H  52.06000 51.41700 41.50900
H  51.82800 51.12600 39.86700
H  44.90400 50.57000 42.25000
H  46.55200 50.97900 42.00600
H  46.03200 50.65500 43.63500
H  43.99600 46.00900 40.20300
H  41.34600 44.22200 44.01700
H  40.95000 45.96600 43.75400
H  42.01700 45.55700 45.06400
Mg 48.56800 34.67000 27.38500
C  46.41800 33.23000 29.92300
C  48.58100 37.57100 29.33500
C  49.84700 36.16700 24.70300
C  47.80800 31.82400 25.39900
N  47.60900 35.27000 29.46300
C  46.89100 34.48600 30.36500
C  46.74700 35.26200 31.69600
C  47.04000 36.73300 31.22000
C  47.74800 36.56300 29.90100
C  45.79000 37.55200 31.09600
C  47.72700 34.55200 32.71300
C  48.69300 35.49100 33.46900
H  48.04200 36.45100 34.37500
N  49.31000 36.54900 27.15400
C  49.31400 37.57300 28.06900
C  50.37300 38.47800 27.64900
C  50.61200 38.19900 26.24600
C  49.91500 36.92700 25.96100
C  50.82400 39.62900 28.53200
C  51.40100 39.05400 25.26900
O  51.61800 38.67300 24.11700
C  52.04500 40.35800 25.66800
N  48.70600 34.01900 25.36000
C  49.34300 34.82100 24.45700
C  49.52400 34.14400 23.06000
C  49.29400 32.68100 23.49100
C  48.52800 32.79200 24.80100
C  48.45700 34.63000 22.04600
C  50.61900 31.84700 23.60600
C  50.52400 30.33300 23.70800
N  47.44500 32.82200 27.62800
C  47.32800 31.74500 26.72300
C  46.58000 30.69400 27.40200
C  46.19300 31.25300 28.68000
C  46.72600 32.54500 28.73000
C  46.18600 29.26700 26.90800
C  45.43100 30.89200 29.91000
O  44.85000 29.88400 30.16400
C  45.34500 32.35500 30.63400
C  45.45500 32.00800 32.07500
O  46.52300 31.59400 32.61500
O  44.27500 32.44500 32.66500
C  44.16400 32.19300 34.10800
H  48.76300 38.49600 29.88600
H  50.23200 36.66600 23.81100
H  47.59600 30.95700 24.77100
H  45.73300 35.15000 32.08000
H  47.78000 37.17500 31.88600
H  45.62600 37.96600 32.09100
H  44.95400 36.94700 30.74600
H  45.87900 38.33400 30.34200
H  48.21400 33.77200 32.12600
H  47.26300 34.01800 33.54200
H  49.48300 35.88500 32.82900
H  49.15100 34.79500 34.17200
H  51.86500 39.86600 28.31000
H  50.77100 39.40400 29.59700
H  50.39400 40.59400 28.26400
H  51.35900 40.86900 26.34300
H  52.27800 40.99800 24.81700
H  52.93300 40.12400 26.25500
H  50.48500 34.35400 22.59000
H  48.65000 32.14900 22.79000
H  47.83300 35.37200 22.54500
H  47.70600 33.95400 21.63600
H  49.05400 34.90200 21.17500
H  51.14500 32.10000 24.52700
H  51.19700 32.17400 22.74300
H  50.69400 30.17300 24.77300
H  51.22800 29.85300 23.02700
H  49.49500 30.02900 23.51400
H  46.91500 28.79400 26.24900
H  45.24600 29.37200 26.36700
H  45.99700 28.63500 27.77600
H  44.35700 32.75800 30.40900
H  44.75900 31.40500 34.57000
H  43.10900 31.94200 34.21400
H  44.30200 33.15000 34.61100

