158

Mg 0.49100 7.68500 25.75600
C  1.36900 9.75700 28.35100
C  0.70000 4.92900 27.86700
C  -0.18900 5.69100 23.04500
C  0.61700 10.47000 23.53600
N  1.07200 7.36400 27.83800
C  1.20400 8.40900 28.75100
C  1.21300 7.77900 30.19400
C  1.30200 6.26300 29.98700
C  1.01100 6.18900 28.45500
C  2.56500 5.48900 30.50300
C  -0.13800 8.20700 31.06900
C  0.24100 8.78300 32.44300
H  1.47200 8.15100 33.20100
N  0.22300 5.61600 25.52700
C  0.33300 4.65800 26.55200
C  0.03700 3.34800 26.02000
C  -0.10400 3.53200 24.56300
C  -0.03600 4.97300 24.27700
C  -0.01600 2.12200 26.86200
C  -0.42800 2.50000 23.56000
O  -0.46100 2.62300 22.36200
C  -0.89500 1.21700 24.09900
N  0.44000 7.95900 23.56200
C  -0.05000 6.98400 22.74900
C  -0.26000 7.45900 21.31400
C  -0.20200 9.03500 21.51000
C  0.30300 9.19600 22.98100
C  0.90100 6.87800 20.42900
C  -1.57300 9.69600 21.33600
C  -1.58100 11.05800 20.78000
N  0.90700 9.72100 25.87100
C  0.83300 10.69200 24.91900
C  1.11500 11.93800 25.54100
C  1.36400 11.61700 26.88800
C  1.26100 10.26600 27.06300
C  1.35300 13.27100 24.93300
C  1.76400 12.09000 28.21900
O  2.09900 13.21100 28.56000
C  1.59600 10.95200 29.16300
C  2.76300 10.91900 30.05700
O  3.71700 10.21400 29.89000
O  2.37900 11.54700 31.24300
C  3.50600 11.79900 32.19600
H  0.63800 4.13000 28.61000
H  -0.49000 5.07700 22.19400
H  0.44300 11.37400 22.94900
H  2.07900 8.23200 30.67600
H  0.37800 5.78000 30.30600
H  2.27100 4.89500 31.36800
H  3.33100 6.17900 30.85900
H  3.10400 4.91300 29.75100
H  -0.78600 7.33900 31.18600
H  -0.63400 9.00000 30.50900
H  -0.55200 8.69000 33.18600
H  0.42200 9.85500 32.36000
H  0.44800 2.31800 27.82900
H  0.76900 1.45200 26.51000
H  -1.00600 1.69000 27.00600
H  -1.74100 1.39700 24.76200
H  -0.17200 0.70700 24.73600
H  -1.13100 0.56900 23.25500
H  -1.20400 7.19600 20.83700
H  0.46600 9.53000 20.80600
H  1.77000 6.84700 21.08600
H  0.98400 7.56300 19.58600
H  0.57200 5.87900 20.14300
H  -2.08400 9.76900 22.29700
H  -2.15200 9.09800 20.63200
H  -2.25100 11.07100 19.91900
H  -0.57600 11.31000 20.44200
H  -1.95300 11.83300 21.45000
H  0.34900 13.68900 24.86200
H  1.83300 13.37500 23.95900
H  1.79100 14.02900 25.58100
H  0.71000 11.04300 29.79200
H  3.47800 12.78600 32.65800
H  4.40200 11.69800 31.58400
H  3.68500 11.00700 32.92300
Mg 16.54600 51.31300 24.72500
C  18.20600 50.30100 27.69500
C  14.06900 52.54100 26.68000
C  14.93400 52.19400 21.81500
C  19.06400 49.98100 23.00400
N  16.17000 51.46200 26.95800
C  17.03400 51.03800 27.97000
C  16.52300 51.43900 29.34900
C  15.06400 51.82900 28.91600
C  15.05600 51.93900 27.43300
C  13.83500 50.92700 29.44300
C  17.33200 52.58500 29.99900
C  17.42400 52.60000 31.55300
H  16.31100 51.84900 32.23300
N  14.79300 52.32000 24.27200
C  13.90100 52.73800 25.21400
C  12.80400 53.32100 24.59400
C  13.03100 53.25600 23.17500
C  14.26200 52.61300 23.00700
C  11.60500 53.92800 25.29400
C  12.26600 53.81700 21.99100
O  12.70100 53.78000 20.90300
C  10.97700 54.47300 22.14700
N  16.87300 51.02200 22.73100
C  16.12300 51.45300 21.71800
C  16.73900 51.07300 20.36300
C  18.17000 50.65700 20.69200
C  18.02100 50.53800 22.23200
C  16.08600 50.04800 19.41000
C  19.29700 51.63100 20.31200
C  20.35500 51.05100 19.31900
N  18.22000 50.22000 25.18200
C  19.21000 49.76500 24.34700
C  20.27700 49.11400 25.02500
C  19.91000 49.34000 26.35500
C  18.66400 49.96600 26.39700
C  21.61100 48.61400 24.57500
C  20.32200 49.16200 27.75600
O  21.33600 48.59100 28.18500
C  19.16100 49.69800 28.67200
C  18.61100 48.56800 29.46600
O  18.15200 47.48200 29.10200
O  18.74300 48.95400 30.77000
C  18.42400 47.91700 31.83900
H  13.29400 52.95600 27.32800
H  14.51100 52.43500 20.83700
H  19.92400 49.59800 22.45000
H  16.54600 50.59600 30.03900
H  14.92300 52.83200 29.32000
H  13.30700 51.56500 30.15200
H  14.26500 50.16400 30.09100
H  13.33200 50.51500 28.56900
H  16.96000 53.57100 29.71900
H  18.36700 52.68100 29.67300
H  17.42700 53.63900 31.88400
H  18.38800 52.22500 31.89700
H  10.76600 53.23500 25.22700
H  11.37600 54.90100 24.86000
H  11.91300 54.16600 26.31200
H  10.36000 53.93800 22.86900
H  10.32500 54.34000 21.28400
H  11.04900 55.54800 22.31000
H  16.71800 51.96700 19.73900
H  18.38900 49.66000 20.31000
H  15.01600 50.04300 19.61900
H  16.44900 49.02900 19.54400
H  16.10000 50.40300 18.37900
H  19.85800 51.83800 21.22300
H  18.95000 52.58200 19.90700
H  21.32700 50.94500 19.80100
H  20.38100 51.67000 18.42200
H  19.95000 50.07500 19.04900
H  22.25100 49.42200 24.22000
H  21.50300 47.96200 23.70900
H  22.02900 47.93500 25.31800
H  19.51800 50.48000 29.34200
H  19.15400 47.10800 31.80700
H  17.40500 47.54900 31.72000
H  18.59800 48.43200 32.78400

