158

Mg 24.87700 1.18000 30.09300
C  27.25200 0.72700 32.61100
C  22.47700 1.61900 32.53200
C  22.55500 1.29400 27.57100
C  27.34300 0.21300 27.62600
N  24.89800 1.15900 32.32100
C  26.01700 1.11100 33.12300
C  25.68200 1.31500 34.56600
C  24.13900 1.43200 34.61100
C  23.76800 1.40300 33.06100
C  23.29800 0.32700 35.44400
C  26.39800 2.58300 35.15100
C  27.24100 2.59300 36.40900
H  26.51900 1.89300 37.59300
N  22.81700 1.40500 30.02700
C  22.02300 1.56000 31.15500
C  20.64000 1.68900 30.71000
C  20.66000 1.67700 29.31300
C  21.99900 1.47300 28.91900
C  19.53900 1.86300 31.75000
C  19.42000 1.70600 28.35800
O  19.44700 1.45000 27.13600
C  18.13000 2.09600 28.90700
N  24.94800 0.82400 27.86700
C  23.84300 1.03500 27.12500
C  24.22200 1.19400 25.68200
C  25.72100 0.76700 25.66700
C  26.06800 0.59700 27.11400
C  23.33700 0.30500 24.68100
C  26.58000 1.74300 24.86100
C  26.75500 3.13100 25.57400
N  26.78200 0.42200 30.09900
C  27.69100 0.23600 29.02300
C  29.01200 -0.06300 29.55600
C  28.87700 0.05700 30.95800
C  27.50200 0.43200 31.22000
C  30.21800 -0.40300 28.63400
C  29.61400 -0.02800 32.13600
O  30.74100 -0.47300 32.39000
C  28.54700 0.41700 33.28500
C  28.45000 -0.60500 34.42700
O  27.79300 -1.62000 34.47300
O  29.42600 -0.24600 35.38000
C  29.32400 -1.00400 36.60900
H  21.74100 1.82100 33.31400
H  21.82200 1.53800 26.79900
H  28.15500 -0.01300 26.93200
H  25.93600 0.39300 35.08700
H  23.90400 2.39300 35.06700
H  22.99300 0.85200 36.34900
H  23.88700 -0.53400 35.75900
H  22.46200 -0.06800 34.86700
H  25.63900 3.34800 35.31800
H  26.99700 2.96800 34.32600
H  27.52100 3.59600 36.73200
H  28.14400 2.05200 36.12600
H  19.82300 1.68800 32.78800
H  18.66000 1.24400 31.57000
H  19.26100 2.91700 31.77100
H  17.91400 1.29700 29.61700
H  17.39900 1.89500 28.12400
H  18.05600 3.12300 29.26300
H  24.18200 2.26400 25.47600
H  25.80200 -0.27400 25.35300
H  22.82500 0.87900 23.90900
H  22.61800 -0.25500 25.27900
H  23.91700 -0.38300 24.06500
H  26.17100 1.81800 23.85400
H  27.58100 1.33300 24.72800
H  26.42200 2.94000 26.59400
H  26.27700 3.95600 25.04600
H  27.75900 3.54600 25.66700
H  31.07900 -0.57800 29.27900
H  30.37500 0.26100 27.78400
H  29.95900 -1.39000 28.25100
H  28.92100 1.32000 33.76800
H  29.88000 -1.94200 36.63500
H  28.29700 -1.27200 36.85800
H  29.76500 -0.29400 37.30900
Mg -1.91400 34.03000 27.13700
C  -3.38100 32.37900 29.79300
C  -0.63800 36.37900 29.34800
C  -1.03900 35.88800 24.47400
C  -3.61900 31.84200 24.92100
N  -2.08700 34.42600 29.31200
C  -2.62500 33.50100 30.18700
C  -2.36900 33.98200 31.66100
C  -1.56800 35.30500 31.51300
C  -1.44800 35.44400 29.94000
C  -2.26600 36.51200 32.27700
C  -1.74700 33.00200 32.66200
C  -2.60300 32.36600 33.78800
H  -1.86000 32.08900 35.10600
N  -0.89900 35.82600 26.95900
C  -0.41600 36.60100 27.97000
C  0.22000 37.76100 27.41700
C  0.24500 37.61500 25.98000
C  -0.57300 36.45500 25.69700
C  0.79900 38.83600 28.20800
C  0.89500 38.42100 24.93400
O  0.74600 38.17500 23.74300
C  1.79900 39.66400 25.16100
N  -2.34300 33.92500 24.97300
C  -1.84600 34.82000 24.06500
C  -2.25800 34.42400 22.67500
C  -2.79500 33.00700 22.83400
C  -2.95700 32.89900 24.32100
C  -3.28600 35.54800 22.14000
C  -1.83400 31.85400 22.23000
C  -0.78400 31.14100 23.11800
N  -3.14900 32.44200 27.29600
C  -3.80600 31.62400 26.31500
C  -4.70000 30.65200 26.88600
C  -4.52300 30.87600 28.30600
C  -3.62900 31.96400 28.42900
C  -5.67600 29.73800 26.21700
C  -4.82000 30.43300 29.65900
O  -5.49000 29.48700 30.07500
C  -4.20800 31.42000 30.65200
C  -5.31400 32.06200 31.39800
O  -5.91500 33.07000 31.03300
O  -5.56800 31.39400 32.55200
C  -6.50800 32.07200 33.41600
H  -0.22500 37.05100 30.10200
H  -0.62100 36.40700 23.60900
H  -4.05500 31.26700 24.10100
H  -3.38900 34.15100 32.00700
H  -0.61500 35.12200 32.00800
H  -1.37600 37.08800 32.53200
H  -2.74300 36.19900 33.20500
H  -2.87500 37.07900 31.57300
H  -0.88700 33.46000 33.14900
H  -1.40500 32.14700 32.07900
H  -3.07600 31.42500 33.50600
H  -3.31400 33.15700 34.02700
H  1.85300 38.77600 27.93500
H  0.76800 38.62900 29.27800
H  0.25100 39.76100 28.02700
H  2.32300 39.96500 24.25300
H  2.51100 39.40400 25.94400
H  1.15500 40.45300 25.54700
H  -1.42600 34.53400 21.98000
H  -3.74700 32.80900 22.34100
H  -3.24700 36.45800 22.73900
H  -4.30300 35.16700 22.23400
H  -3.04700 35.87000 21.12600
H  -1.35100 32.40300 21.42200
H  -2.57500 31.18000 21.80000
H  -0.70400 31.39500 24.17500
H  0.22800 31.40600 22.81200
H  -0.92300 30.06200 23.18400
H  -5.53300 28.75700 26.67000
H  -5.48500 29.58900 25.15500
H  -6.64700 30.15600 26.48500
H  -3.68700 30.68400 31.26400
H  -7.40700 32.35600 32.87000
H  -6.06400 33.01200 33.74400
H  -6.73800 31.43300 34.26900

