158

Mg 41.99200 9.08500 29.69100
C  43.59200 10.10900 32.61300
C  39.65300 7.57100 31.61100
C  40.55900 7.90600 26.81600
C  44.75200 10.05400 27.83600
N  41.70400 8.77900 31.82800
C  42.33400 9.46200 32.79400
C  41.72900 9.19300 34.17900
C  40.75800 8.04300 33.85000
C  40.63900 8.23900 32.32200
C  41.15700 6.66200 34.30000
C  41.15300 10.46400 34.87900
C  41.07600 10.59900 36.41300
H  41.26600 11.94300 37.07100
N  40.27500 8.00900 29.27600
C  39.42400 7.39900 30.25900
C  38.30300 6.73300 29.56800
C  38.48700 7.05200 28.14100
C  39.84100 7.71700 28.02600
C  37.29700 5.86800 30.33700
C  37.60900 6.55700 27.01800
O  37.79200 6.76000 25.80700
C  36.34400 5.74000 27.37700
N  42.52100 8.98700 27.63800
C  41.83600 8.44600 26.65100
C  42.56100 8.47900 25.28000
C  43.91500 9.25700 25.69200
C  43.67200 9.56500 27.17100
C  42.90400 7.11300 24.67000
C  44.05800 10.59900 24.93100
C  43.14100 11.76900 25.24500
N  43.85800 9.96300 30.11600
C  44.83300 10.27700 29.25600
C  45.80200 11.09300 29.99400
C  45.33400 11.12300 31.34400
C  44.21400 10.31900 31.32800
C  47.00300 11.75500 29.50400
C  45.50800 11.54800 32.73900
O  46.31000 12.34100 33.18500
C  44.45100 10.90100 33.64000
C  44.97100 10.03200 34.73500
O  45.72100 9.10100 34.55500
O  44.48800 10.48400 35.96900
C  45.12400 9.91600 37.10800
H  38.96200 7.25100 32.39400
H  40.18000 7.45400 25.89700
H  45.57500 10.47000 27.25200
H  42.57300 8.84000 34.77100
H  39.81200 8.20700 34.36600
H  40.37300 6.26200 34.94300
H  42.18200 6.57500 34.66100
H  41.13500 6.05600 33.39400
H  40.11500 10.50800 34.55000
H  41.73900 11.29500 34.48600
H  41.64300 9.76100 36.81900
H  40.02800 10.38700 36.62600
H  37.32700 4.79200 30.17100
H  36.28200 6.20900 30.13200
H  37.54900 5.90600 31.39700
H  36.59200 4.75200 27.76500
H  35.78700 5.54700 26.46000
H  35.64400 6.19500 28.07800
H  42.01600 9.08400 24.55500
H  44.78800 8.61800 25.56100
H  43.97200 6.92700 24.56100
H  42.39400 7.12700 23.70700
H  42.50600 6.31100 25.29200
H  43.99000 10.37700 23.86700
H  45.09200 10.93000 25.02400
H  42.29500 11.46500 25.86000
H  42.66900 12.26300 24.39600
H  43.78600 12.51800 25.70400
H  46.76200 12.73100 29.08300
H  47.60800 11.17400 28.80800
H  47.67300 12.04000 30.31500
H  43.98200 11.79700 34.04500
H  46.15400 9.58400 36.98200
H  44.60300 8.99400 37.36600
H  45.20900 10.57600 37.97100
Mg 10.07900 47.90600 26.74500
C  8.35300 47.78400 29.90300
C  12.76600 48.85100 28.41200
C  11.63200 47.62700 23.73700
C  7.01500 46.92500 25.31100
N  10.45100 48.34300 28.91500
C  9.69400 48.18500 30.00800
C  10.38900 48.49200 31.32500
C  11.63500 49.31700 30.72900
C  11.66100 48.87400 29.28400
C  11.68000 50.81600 30.77500
C  10.84700 47.17700 32.17500
C  10.50000 47.24200 33.71200
H  10.41400 45.95600 34.56600
N  11.88900 48.33000 26.13000
C  12.92700 48.64500 26.98600
C  14.17900 48.64100 26.22100
C  13.74800 48.39300 24.84600
C  12.32200 48.12200 24.82000
C  15.52700 48.95600 26.86800
C  14.62700 48.31300 23.65200
O  14.21600 48.16400 22.46700
C  16.14500 48.33900 23.66500
N  9.40100 47.39800 24.87700
C  10.21000 47.25200 23.75400
C  9.44300 47.05700 22.52000
C  8.01500 46.58500 23.08900
C  8.15700 46.96100 24.51100
C  9.37800 48.36300 21.63300
C  7.88900 45.00900 22.96900
C  9.06100 44.10300 23.43700
N  8.03800 47.68700 27.34300
C  6.91700 47.25600 26.65200
C  5.71200 47.31800 27.48900
C  6.33200 47.41700 28.78700
C  7.69400 47.62300 28.65400
C  4.24900 46.83400 27.13900
C  5.95600 47.23400 30.11900
O  4.96100 46.79600 30.57900
C  7.31800 47.57300 30.98300
C  7.47300 46.33100 31.83300
O  7.98800 45.29600 31.42200
O  6.80800 46.50200 32.94900
C  6.60000 45.28300 33.78600
H  13.61500 49.23700 28.98100
H  12.09100 47.49800 22.75500
H  6.07300 46.73700 24.79200
H  9.82900 49.16100 31.97900
H  12.56600 48.87900 31.09000
H  12.57400 51.16800 31.29000
H  10.88300 51.41500 31.21600
H  11.73000 51.21900 29.76300
H  11.89700 46.89300 32.10200
H  10.39200 46.24800 31.83200
H  9.53900 47.73600 33.85000
H  11.26100 47.84600 34.20500
H  15.51200 48.87300 27.95500
H  15.81600 49.97900 26.63000
H  16.30400 48.36700 26.38000
H  16.61000 49.24700 24.04900
H  16.43400 48.10400 22.64100
H  16.39600 47.50200 24.31600
H  9.89100 46.26400 21.92100
H  7.20900 47.09300 22.56000
H  10.08400 49.11700 21.98200
H  8.39000 48.82200 21.66600
H  9.62700 48.08200 20.61000
H  7.75200 44.58300 21.97500
H  7.01200 44.72300 23.55000
H  9.44600 43.54400 22.58500
H  8.54900 43.40100 24.09600
H  9.85600 44.53400 24.04500
H  4.05200 46.89900 26.06900
H  3.54400 47.39900 27.74800
H  4.08300 45.79600 27.42600
H  7.08000 48.40900 31.64100
H  6.75700 45.57200 34.82500
H  7.08000 44.35600 33.47100
H  5.52400 45.11400 33.74200

