158

Mg -2.59500 16.93400 26.67000
C  -2.92400 14.80600 29.34200
C  -2.53800 19.56300 28.79000
C  -2.57900 18.91400 23.98300
C  -2.65100 14.22400 24.56000
N  -2.85300 17.13500 28.80500
C  -2.94500 16.16000 29.72300
C  -2.83700 16.66500 31.18800
C  -3.01300 18.22600 30.91500
C  -2.69500 18.34100 29.38800
C  -4.43300 18.71300 31.30600
C  -1.58100 16.12000 31.83600
C  -0.77900 16.93400 32.86300
H  -0.36200 16.29100 34.17600
N  -2.58800 18.96500 26.44300
C  -2.57800 19.86400 27.44000
C  -2.66200 21.20400 26.83600
C  -2.55200 21.05800 25.44300
C  -2.55100 19.59800 25.22400
C  -2.67600 22.48300 27.64000
C  -2.39400 22.16700 24.36600
O  -2.31800 21.91100 23.15200
C  -2.30900 23.55100 24.78600
N  -2.83400 16.64100 24.58400
C  -2.72500 17.55500 23.64700
C  -2.80900 17.09800 22.19900
C  -2.58100 15.57100 22.43100
C  -2.69600 15.46800 23.94800
C  -4.15100 17.38600 21.57500
C  -1.19800 15.07800 21.96700
C  -1.13300 13.87300 21.02200
N  -2.94000 14.91300 26.88600
C  -2.86900 13.91500 25.92000
C  -2.86800 12.60300 26.50700
C  -2.95800 12.91100 27.80100
C  -2.94300 14.30800 28.06500
C  -2.86500 11.24600 25.92700
C  -3.01400 12.33100 29.10500
O  -3.06900 11.14700 29.36300
C  -2.91500 13.54700 30.16300
C  -1.74200 13.23700 30.91300
O  -0.63800 13.39000 30.49800
O  -2.18500 12.76900 32.13100
C  -1.21200 12.40300 33.11600
H  -2.48500 20.41100 29.47500
H  -2.55000 19.55800 23.10200
H  -2.45600 13.36100 23.92100
H  -3.64100 16.17900 31.74200
H  -2.24300 18.78500 31.44700
H  -5.04900 18.89800 30.42600
H  -4.29700 19.59500 31.93300
H  -4.99600 17.96900 31.87000
H  -0.94900 15.87200 30.98400
H  -1.78800 15.23800 32.44200
H  -1.36400 17.82100 33.10800
H  0.09900 17.33700 32.35700
H  -2.89300 22.26500 28.68600
H  -3.52900 23.11600 27.39500
H  -1.78200 23.09600 27.52600
H  -3.30300 23.89000 25.07800
H  -1.98000 24.08200 23.89300
H  -1.56200 23.86600 25.51400
H  -1.98900 17.47400 21.58800
H  -3.29000 14.89000 21.96000
H  -4.88600 17.79400 22.26900
H  -4.59000 16.49900 21.11700
H  -4.17600 18.13900 20.78700
H  -0.54600 14.90600 22.82300
H  -0.61000 15.80300 21.40400
H  -0.41300 13.08000 21.22900
H  -0.98000 14.25300 20.01200
H  -2.06300 13.30700 20.96700
H  -3.86900 10.82300 25.87700
H  -2.24100 10.51900 26.44700
H  -2.58400 11.25100 24.87400
H  -3.84200 13.54200 30.73600
H  -1.37600 11.34400 33.31100
H  -1.30400 12.98600 34.03200
H  -0.17400 12.54600 32.81600
Mg 16.08600 -2.48500 27.45500
C  15.06600 -0.44800 30.11700
C  17.64400 -4.50600 29.73500
C  17.38900 -4.20900 24.84600
C  14.90000 -0.09100 25.22300
N  16.50000 -2.38200 29.68200
C  15.92500 -1.47600 30.59400
C  16.28700 -1.78700 32.06800
C  17.36000 -3.02900 31.80200
C  17.16300 -3.37300 30.34000
C  18.88300 -2.82900 32.12700
C  14.98300 -2.18300 32.84300
C  14.88700 -1.55600 34.29600
H  16.09300 -0.80600 34.94400
N  17.32700 -4.08200 27.30200
C  17.83300 -4.85800 28.41900
C  18.66100 -5.91900 27.91200
C  18.57200 -5.84300 26.54000
C  17.75400 -4.64800 26.14200
C  19.23500 -7.06200 28.82400
C  19.16400 -6.77500 25.55600
O  18.97100 -6.76900 24.33200
C  20.13900 -7.91400 26.01200
N  16.21300 -2.23300 25.38000
C  16.66000 -3.10000 24.47900
C  16.47900 -2.56500 22.99500
C  15.54400 -1.36600 23.18400
C  15.60100 -1.18800 24.68800
C  17.85600 -2.21800 22.27800
C  14.05000 -1.45300 22.72400
C  12.91400 -1.89800 23.65600
N  15.21900 -0.63600 27.57800
C  14.59900 0.14800 26.57500
C  13.76200 1.15000 27.16600
C  13.98900 1.02600 28.57000
C  14.82600 -0.09500 28.74400
C  12.98600 2.29100 26.43700
C  13.64500 1.58200 29.88800
O  12.98500 2.58000 30.20100
C  14.34200 0.65900 30.96800
C  15.29300 1.45200 31.83000
O  16.53700 1.40100 31.77300
O  14.54200 2.32100 32.63800
C  15.27200 3.22500 33.50900
H  18.18800 -5.16000 30.42000
H  17.59400 -4.86600 23.99800
H  14.37000 0.65600 24.62800
H  16.90600 -1.03500 32.55700
H  16.99500 -3.93700 32.28000
H  19.14200 -3.68500 32.74900
H  18.96200 -1.88500 32.66700
H  19.48200 -2.92000 31.22100
H  14.93200 -3.27100 32.88000
H  14.07200 -1.87400 32.33000
H  14.67300 -2.31200 35.05200
H  14.11900 -0.78300 34.33200
H  18.83200 -7.98800 28.41500
H  18.89500 -7.02800 29.85800
H  20.32400 -7.06100 28.86500
H  19.58800 -8.59300 26.66300
H  20.99800 -7.42300 26.46900
H  20.45300 -8.43600 25.10800
H  16.01800 -3.33200 22.37300
H  16.04200 -0.52400 22.70300
H  18.15100 -1.16900 22.30800
H  17.87800 -2.61600 21.26300
H  18.61400 -2.73200 22.86900
H  13.98200 -2.13200 21.87400
H  13.80100 -0.44200 22.40000
H  13.28000 -2.46800 24.51000
H  12.24100 -2.56700 23.12000
H  12.39300 -1.03100 24.06100
H  12.69100 1.91900 25.45600
H  13.68900 3.12100 26.36400
H  12.06600 2.59500 26.93600
H  13.63200 0.27300 31.69900
H  15.05600 4.26000 33.24600
H  16.31700 2.93700 33.61700
H  14.79500 2.97500 34.45600

