158

Mg -11.18800 38.53300 41.45800
C  -9.46400 35.54100 40.76000
C  -8.67400 40.24600 39.71300
C  -13.23200 41.21000 41.15400
C  -13.83500 36.63300 42.66700
N  -9.43300 37.92900 40.21400
C  -8.87300 36.63200 40.14600
C  -7.45000 36.65200 39.62000
C  -7.22500 38.19000 39.29500
C  -8.54100 38.88300 39.80100
C  -5.88300 38.63900 39.87300
C  -7.28300 35.74400 38.39500
C  -6.06500 34.71100 38.56300
H  -4.87700 34.76400 37.51100
N  -10.92900 40.49200 40.74700
C  -9.81200 40.97700 40.03100
C  -10.03100 42.39400 39.69200
C  -11.29600 42.77200 40.18900
C  -11.87500 41.49300 40.73500
C  -9.02400 43.25400 39.00200
C  -11.92200 44.19700 40.06200
O  -11.17900 45.08300 39.64400
C  -13.30200 44.52200 40.51600
N  -13.28800 38.81300 41.56600
C  -13.90700 39.99800 41.49400
C  -15.39400 39.95400 41.77500
C  -15.54300 38.55900 42.39800
C  -14.11200 37.97600 42.29300
C  -16.03300 41.09100 42.63000
C  -16.62600 37.62100 41.67200
C  -17.33700 36.72400 42.68200
N  -11.60300 36.44800 41.75100
C  -12.69900 35.88500 42.32500
C  -12.41700 34.47300 42.46600
C  -11.18700 34.29800 41.82600
C  -10.70300 35.54800 41.40900
C  -13.41000 33.44900 42.98900
C  -10.22500 33.33100 41.43800
O  -10.25400 32.11400 41.50400
C  -9.01000 34.10800 40.88600
C  -7.85500 33.82900 41.80000
O  -7.09000 32.83100 41.70800
O  -7.53000 34.82000 42.77500
C  -6.55900 34.56200 43.85700
H  -7.76100 40.72800 39.35800
H  -13.85300 42.10100 41.04700
H  -14.67800 36.10100 43.11300
H  -6.64000 36.39600 40.30300
H  -7.01400 38.33900 38.23600
H  -5.09700 37.90400 39.69900
H  -6.03400 38.54400 40.94800
H  -5.73300 39.69500 39.64700
H  -7.29500 36.37000 37.50400
H  -8.23200 35.20800 38.36700
H  -6.49700 33.71300 38.63600
H  -5.52600 34.89200 39.49300
H  -8.92100 44.22700 39.48300
H  -8.99500 43.41600 37.92400
H  -8.05900 42.76400 39.13500
H  -13.50900 44.09900 41.49900
H  -14.00100 44.06500 39.81600
H  -13.50200 45.59300 40.47400
H  -15.72800 39.88100 40.74000
H  -15.68500 38.70400 43.46800
H  -16.57100 41.64200 41.85800
H  -15.39000 41.85000 43.07600
H  -16.72500 40.64900 43.34700
H  -16.09500 36.96600 40.98200
H  -17.27200 38.28900 41.10100
H  -18.34000 36.49400 42.32400
H  -17.54100 37.19400 43.64400
H  -16.88000 35.73500 42.69300
H  -13.78800 33.60400 43.99900
H  -13.09100 32.41000 42.90600
H  -14.24800 33.50500 42.29400
H  -8.72000 33.60200 39.96500
H  -6.85800 33.67800 44.42100
H  -6.57700 35.36900 44.58900
H  -5.58300 34.52400 43.37500
Mg -2.08900 34.36300 26.93500
C  -3.63000 32.54100 29.48800
C  -0.74400 36.41800 29.27100
C  -0.72900 36.01400 24.40600
C  -3.94800 32.43300 24.61400
N  -2.30600 34.64500 29.16500
C  -2.75500 33.57700 29.94900
C  -2.42900 33.89200 31.39100
C  -1.67100 35.29300 31.38600
C  -1.55300 35.50500 29.85600
C  -2.17700 36.45800 32.21500
C  -1.74300 32.68800 32.14300
C  -1.35200 32.88600 33.64200
H  -1.83900 31.88600 34.71900
N  -0.93900 35.95500 26.79200
C  -0.46200 36.67900 27.87500
C  0.47600 37.60500 27.33200
C  0.61300 37.42100 25.97100
C  -0.30600 36.40700 25.62500
C  1.11300 38.52700 28.33100
C  1.45100 38.22200 24.94600
O  1.41400 38.03500 23.76700
C  2.40700 39.21500 25.38200
N  -2.42000 34.28100 24.78500
C  -1.70800 35.07000 23.98300
C  -1.90100 34.73500 22.48100
C  -2.94800 33.55900 22.52100
C  -3.22900 33.44200 24.02900
C  -2.35400 36.00800 21.74700
C  -2.46600 32.18200 21.89500
C  -1.33400 31.39300 22.52200
N  -3.53000 32.83000 27.00200
C  -4.03400 32.07300 25.96600
C  -4.91700 31.09800 26.48200
C  -4.83300 31.24400 27.87700
C  -3.89200 32.27400 28.13200
C  -5.71000 30.10900 25.69800
C  -5.31400 30.77300 29.13700
O  -6.15500 29.97500 29.41700
C  -4.45900 31.49600 30.24700
C  -5.29300 32.08700 31.26600
O  -5.92500 33.10300 30.97600
O  -5.32700 31.38800 32.47900
C  -6.44700 31.73200 33.37200
H  -0.34000 37.04700 30.06600
H  -0.39000 36.60900 23.55500
H  -4.56100 31.79400 23.97400
H  -3.39300 34.14100 31.83600
H  -0.70500 35.06300 31.83400
H  -2.91500 36.06000 32.91100
H  -2.73400 36.99400 31.44700
H  -1.53700 37.17400 32.73000
H  -0.93800 32.32200 31.50700
H  -2.51000 31.91300 32.14300
H  -1.85000 33.82200 33.89600
H  -0.26600 32.94500 33.71200
H  1.93900 39.12500 27.94600
H  1.52700 37.89500 29.11700
H  0.31500 39.06900 28.83800
H  1.95600 40.14100 25.73800
H  2.89700 39.59400 24.48500
H  3.14000 38.86100 26.10700
H  -0.95500 34.41400 22.04600
H  -3.89500 33.88200 22.09000
H  -2.42700 36.87300 22.40500
H  -3.31600 35.89700 21.24600
H  -1.56800 36.17600 21.01000
H  -2.07700 32.54100 20.94100
H  -3.35800 31.56600 21.78800
H  -0.54200 31.29300 21.77900
H  -1.75400 30.43200 22.81700
H  -0.84400 31.81100 23.40100
H  -6.63200 30.48300 25.25200
H  -5.86200 29.19100 26.26600
H  -5.02100 29.69500 24.96200
H  -3.80200 30.79200 30.75800
H  -6.56400 32.80900 33.48600
H  -6.26000 31.30500 34.35700
H  -7.35000 31.21500 33.04700

