158

Mg 48.64600 14.95900 28.82800
C  46.56500 15.20700 31.69400
C  51.07700 16.72400 30.37800
C  50.20500 14.93400 25.98900
C  45.75200 13.51800 27.18600
N  48.69200 15.97000 30.72700
C  47.79300 15.87800 31.81400
C  48.43200 16.47600 33.09200
C  49.75900 17.14800 32.58400
C  49.89400 16.61000 31.14600
C  49.67700 18.71200 32.53900
C  48.69900 15.55700 34.24100
C  48.08500 15.89900 35.58600
H  48.91600 15.48300 36.79900
N  50.49600 15.67600 28.26300
C  51.34200 16.36700 29.03800
C  52.53700 16.64300 28.29100
C  52.31800 16.17800 26.97600
C  50.96600 15.56800 26.99300
C  53.76400 17.37500 28.95600
C  53.14700 16.23600 25.67700
O  52.81100 15.65500 24.62200
C  54.49500 16.90200 25.79600
N  47.95200 14.47900 26.78200
C  48.91000 14.53100 25.77100
C  48.31400 13.88900 24.53400
C  46.88800 13.34500 24.93300
C  46.81300 13.72900 26.39100
C  48.29100 14.85600 23.25500
C  46.71100 11.83900 24.78600
C  47.83400 10.81300 25.24500
N  46.64000 14.28100 29.38000
C  45.62600 13.74700 28.56400
C  44.47500 13.50000 29.39000
C  44.77900 13.98900 30.65500
C  46.11800 14.46200 30.57300
C  43.22500 12.80800 29.03900
C  44.24500 14.24800 31.93800
O  43.12400 14.05700 32.44500
C  45.46200 15.01000 32.69300
C  44.86300 16.22000 33.31000
O  44.41500 17.18100 32.66400
O  44.72200 16.10300 34.69200
C  44.04400 17.09500 35.53100
H  51.77700 17.18600 31.07700
H  50.75600 14.54000 25.13200
H  44.80800 13.15100 26.77600
H  47.79100 17.27500 33.46500
H  50.63200 17.00300 33.22100
H  50.54100 19.20800 32.98100
H  48.76600 19.09300 33.00200
H  49.61100 19.07100 31.51200
H  49.76700 15.54600 34.45400
H  48.45100 14.56500 33.86200
H  47.06300 15.52100 35.60300
H  47.97900 16.98300 35.53900
H  53.37500 17.95300 29.79400
H  54.37100 18.05300 28.35600
H  54.41700 16.64200 29.42900
H  55.16800 16.23200 26.33000
H  54.52600 17.90600 26.21800
H  54.95900 16.88100 24.81000
H  49.09900 13.17400 24.28900
H  46.13700 13.96700 24.44500
H  48.87600 14.34400 22.49000
H  48.65300 15.87100 23.41900
H  47.28800 14.87700 22.82900
H  46.46300 11.47700 23.78800
H  45.81700 11.49700 25.30600
H  47.53600 9.78500 25.03400
H  47.93100 10.94400 26.32200
H  48.74700 11.07300 24.71000
H  42.90300 12.76400 27.99900
H  42.38800 13.11500 29.66700
H  43.37800 11.74200 29.20300
H  45.81800 14.30700 33.44700
H  44.70300 17.24300 36.38700
H  43.01300 16.86700 35.80000
H  44.01000 18.04100 34.99200
Mg 47.27300 24.16900 28.97700
C  47.97900 26.70100 31.40600
C  46.46200 22.20500 31.48800
C  47.15400 21.75200 26.65300
C  48.44100 26.47800 26.41800
N  47.31500 24.45400 31.22100
C  47.52100 25.54900 32.01600
C  47.09600 25.33000 33.46600
C  46.70500 23.84200 33.44300
C  46.76200 23.45700 31.92000
C  47.57800 22.92100 34.28900
C  45.92700 26.34900 33.90500
C  46.36900 27.25400 35.03800
H  45.33400 27.45200 36.11200
N  46.82100 22.22600 29.05300
C  46.52500 21.55500 30.19900
C  46.34500 20.15800 29.91600
C  46.43300 20.05700 28.51900
C  46.83300 21.36100 28.01500
C  46.01700 19.20700 31.13400
C  46.07600 18.83500 27.65000
O  46.01700 18.87500 26.43800
C  45.69700 17.50500 28.21700
N  47.80800 24.12100 26.91100
C  47.56700 22.98300 26.14400
C  47.94600 23.14300 24.69600
C  48.38100 24.62300 24.68400
C  48.15100 25.13900 26.08500
C  49.06300 22.07300 24.24700
C  47.60200 25.43400 23.52500
C  46.09700 25.70700 23.88300
N  48.05300 26.16000 28.91300
C  48.36200 26.94400 27.78000
C  48.86900 28.21600 28.27900
C  48.71800 28.16500 29.69900
C  48.12400 26.90900 30.02900
C  49.50300 29.31400 27.52000
C  48.91600 28.91900 30.89800
O  49.39500 30.03200 31.16200
C  48.42900 28.00600 32.10600
C  49.65300 27.69300 32.90700
O  50.41700 26.76100 32.68000
O  49.72600 28.58000 33.95800
C  50.46400 28.12700 35.13900
H  46.14800 21.62800 32.36100
H  47.28700 20.87500 26.01600
H  48.92200 27.06600 25.63300
H  47.96000 25.36000 34.13000
H  45.64500 23.72300 33.66500
H  47.03700 22.04100 34.63600
H  48.13800 23.34900 35.12100
H  48.32800 22.51900 33.60800
H  45.07300 25.77100 34.25900
H  45.66000 26.96700 33.04800
H  46.74400 28.23900 34.76200
H  47.28000 26.80900 35.43800
H  45.92600 18.16300 30.83500
H  45.10100 19.41500 31.68600
H  46.78400 19.12700 31.90400
H  46.63400 17.20200 28.68600
H  45.46600 16.74500 27.47100
H  44.94700 17.54200 29.00700
H  47.05200 22.84400 24.14800
H  49.42400 24.49400 24.39500
H  49.83500 22.46700 23.58500
H  48.70600 21.17200 23.74900
H  49.63500 21.73800 25.11200
H  47.59500 24.85100 22.60400
H  48.12400 26.36400 23.29700
H  45.55300 25.26200 23.05000
H  46.02100 26.79300 23.94700
H  45.81500 25.15300 24.77800
H  48.88600 29.39200 26.62500
H  50.57300 29.14900 27.39100
H  49.34900 30.18000 28.16300
H  47.68300 28.49800 32.73100
H  50.90700 29.01200 35.59600
H  51.28700 27.42900 34.98900
H  49.72900 27.65500 35.79000

