158

Mg 24.06100 -5.70100 44.83700
C  26.41900 -3.47000 43.59600
C  21.66600 -4.32400 42.85200
C  22.08800 -8.47400 45.31100
C  26.63300 -7.39100 46.44300
N  24.14800 -4.22400 43.30300
C  25.16900 -3.36600 42.95400
C  24.71900 -2.30000 41.92500
C  23.19100 -2.38200 42.12000
C  22.94700 -3.72800 42.82800
C  22.57600 -1.22200 42.91100
C  25.22900 -2.70700 40.50200
C  26.03400 -1.65600 39.68300
H  25.97600 -1.64900 38.13000
N  22.11500 -6.29300 44.21300
C  21.28100 -5.53600 43.48700
C  19.95900 -6.16900 43.44400
C  20.04200 -7.43200 44.11600
C  21.43500 -7.46000 44.58000
C  18.86600 -5.48200 42.68900
C  18.88900 -8.47800 44.37200
O  17.77600 -8.27700 43.93700
C  19.10300 -9.85200 45.10000
N  24.32800 -7.66700 45.63400
C  23.37200 -8.64900 45.70700
C  23.77000 -9.88800 46.50500
C  25.21500 -9.47000 46.99600
C  25.47800 -8.11300 46.25200
C  22.73000 -10.40600 47.59600
C  26.23000 -10.60300 46.58200
C  27.35100 -10.74600 47.65800
N  26.12900 -5.40700 45.17700
C  26.97400 -6.05800 45.97100
C  28.28500 -5.42100 45.94600
C  28.09400 -4.44700 44.99500
C  26.75600 -4.43900 44.59400
C  29.43200 -5.93400 46.77600
C  28.76900 -3.33600 44.18900
O  29.93600 -2.91300 44.18600
C  27.69100 -2.67500 43.30500
C  27.48000 -1.26600 43.54800
O  26.48600 -0.78600 44.09500
O  28.56100 -0.58100 43.03500
C  28.27600 0.82200 43.09100
H  20.95400 -3.72700 42.27800
H  21.43400 -9.34500 45.38300
H  27.38200 -7.90000 47.05400
H  25.14300 -1.33100 42.19100
H  22.70800 -2.31500 41.14500
H  23.35100 -0.51200 43.20000
H  22.00200 -1.48100 43.80100
H  21.99600 -0.65700 42.18100
H  24.36200 -2.89200 39.86800
H  25.76900 -3.65000 40.58400
H  27.08100 -1.78000 39.96200
H  25.71200 -0.67900 40.04200
H  17.96800 -5.79700 43.22000
H  18.71200 -5.71700 41.63600
H  18.90900 -4.39800 42.79800
H  18.20700 -10.47200 45.11800
H  19.38500 -9.65900 46.13600
H  19.88900 -10.45600 44.64600
H  23.85600 -10.59300 45.67800
H  25.32500 -9.23000 48.05400
H  22.46100 -11.43000 47.33700
H  21.79700 -9.85000 47.49900
H  23.24000 -10.26900 48.55000
H  26.74700 -10.36400 45.65300
H  25.67100 -11.53700 46.52400
H  26.98900 -11.32100 48.51000
H  27.62200 -9.78000 48.08400
H  28.25100 -11.12100 47.16900
H  29.86100 -6.82900 46.32600
H  29.07300 -6.30600 47.73600
H  30.15400 -5.12500 46.88400
H  28.00800 -2.80400 42.27000
H  28.25900 1.06500 44.15300
H  27.28000 1.03100 42.70100
H  29.08600 1.36100 42.60000
Mg 53.24900 25.10400 44.04300
C  50.48900 27.44200 43.67200
C  51.13800 22.69900 43.14600
C  55.91600 23.28100 43.61900
C  55.27700 27.92900 44.72400
N  51.04100 25.14000 43.30200
C  50.10100 26.13600 43.31900
C  48.66400 25.56500 43.05600
C  48.89100 24.06000 43.24200
C  50.43800 23.90600 43.29800
C  48.29400 23.46000 44.55400
C  48.05000 26.09600 41.71800
C  49.01200 26.57400 40.63900
H  49.42300 25.49600 39.57100
N  53.51200 23.24100 43.53600
C  52.48900 22.29500 43.26200
C  53.07000 20.97700 42.95500
C  54.47700 21.24500 43.14600
C  54.72300 22.60400 43.48200
C  52.18800 19.76800 42.48300
C  55.46700 20.13400 42.90200
O  55.02400 18.99000 42.58400
C  56.93600 20.30300 42.90000
N  55.21000 25.64100 44.01000
C  56.17700 24.58300 43.86000
C  57.58300 25.15400 43.75600
C  57.40700 26.65400 44.23500
C  55.86000 26.77900 44.29800
C  58.79800 24.42800 44.38100
C  58.12200 27.71500 43.34900
C  59.30800 28.49800 43.93000
N  52.93800 27.29400 44.20800
C  53.88600 28.21400 44.69300
C  53.20100 29.42800 44.97100
C  51.84000 29.15300 44.51900
C  51.77000 27.81700 44.07600
C  53.87800 30.70100 45.50600
C  50.52400 29.69700 44.40600
O  50.06700 30.73500 44.79000
C  49.63500 28.66400 43.72500
C  49.33300 29.23300 42.41200
O  50.07000 29.54200 41.46100
O  47.94900 29.36600 42.41300
C  47.34600 29.96000 41.17700
H  50.45600 21.88400 42.89500
H  56.86500 22.76200 43.46700
H  55.87600 28.80700 44.97300
H  48.06100 26.00700 43.84900
H  48.50900 23.44300 42.42900
H  47.53900 24.17500 44.87900
H  49.06800 23.21900 45.28400
H  47.74900 22.52900 44.39600
H  47.39200 26.94000 41.92300
H  47.50000 25.25900 41.28900
H  49.86600 27.06600 41.10600
H  48.53800 27.35400 40.04300
H  52.30000 19.43000 41.45300
H  51.12600 19.90800 42.68500
H  52.50400 18.92300 43.09500
H  57.40300 19.36200 42.60900
H  57.37700 20.67400 43.82500
H  57.19500 21.08900 42.19000
H  57.79400 25.19600 42.68700
H  57.76200 26.75200 45.26000
H  59.57700 25.04400 44.83000
H  59.16300 23.82000 43.55300
H  58.33300 23.80600 45.14600
H  57.35600 28.45400 43.11400
H  58.22700 27.24500 42.37100
H  59.36000 29.55900 43.68600
H  60.19700 28.08200 43.45600
H  59.15000 28.47400 45.00800
H  53.29600 31.10300 46.33500
H  54.14900 31.34600 44.67000
H  54.73700 30.28000 46.02800
H  48.73800 28.55600 44.33500
H  47.69600 30.98900 41.08600
H  46.26500 29.82400 41.17500
H  47.82900 29.46100 40.33600

