158

Mg 34.34500 2.83900 28.87400
C  32.34500 3.62500 31.69100
C  36.94900 2.56500 30.92400
C  36.29100 2.74100 26.04000
C  31.64100 3.65100 26.83900
N  34.59800 2.88900 31.10600
C  33.63900 3.15200 32.01900
C  34.25000 3.13000 33.45700
C  35.79900 2.95700 33.10900
C  35.77800 2.74800 31.66200
C  36.65200 4.15900 33.52400
C  33.59300 2.03700 34.32800
C  33.49300 2.32500 35.84200
H  34.25000 3.55700 36.33500
N  36.23700 2.47800 28.54100
C  37.13000 2.25200 29.51900
C  38.36600 1.80200 28.90600
C  38.22700 1.81900 27.50200
C  36.89600 2.44400 27.27100
C  39.45900 1.33700 29.79700
C  39.16200 1.18300 26.44500
O  39.11100 1.62500 25.31000
C  40.20600 0.11000 26.72700
N  34.01400 3.34400 26.72800
C  34.95600 3.09200 25.77200
C  34.41200 3.18800 24.34400
C  32.86900 3.09300 24.60800
C  32.79900 3.37800 26.18200
C  34.68200 4.52100 23.62600
C  32.14900 1.72400 24.22100
C  30.69900 1.83300 23.65900
N  32.37100 3.48900 29.12000
C  31.38500 3.75100 28.17400
C  30.19400 4.04900 28.82300
C  30.47700 3.96800 30.19000
C  31.87200 3.71500 30.34800
C  28.87200 4.40500 28.24500
C  29.91400 4.13900 31.56600
O  28.81800 4.46100 31.96400
C  31.16400 3.90100 32.55400
C  31.29100 5.20000 33.33100
O  32.03900 6.12600 33.03400
O  30.44700 5.25200 34.38900
C  30.52200 6.50900 35.23100
H  37.81600 2.54200 31.58700
H  36.81100 2.67600 25.08200
H  30.75100 3.62800 26.20700
H  34.12500 4.12800 33.87700
H  36.15400 2.04000 33.58000
H  36.96100 4.83500 32.72700
H  37.54300 3.70400 33.95800
H  36.15000 4.69100 34.33200
H  34.16000 1.12000 34.16700
H  32.59400 1.75500 33.99700
H  33.82200 1.46600 36.42600
H  32.43100 2.50400 36.00900
H  39.68800 0.27300 29.73000
H  39.33900 1.56500 30.85600
H  40.38900 1.86100 29.57600
H  41.17700 0.49400 27.04000
H  40.33600 -0.50200 25.83500
H  39.91100 -0.59700 27.50300
H  34.73300 2.31800 23.77100
H  32.30700 3.89200 24.12500
H  35.17400 5.25100 24.26900
H  33.74800 4.94000 23.25200
H  35.32000 4.40100 22.75000
H  31.99000 1.19000 25.15800
H  32.69800 1.21300 23.43000
H  29.95400 1.40000 24.32600
H  30.66300 1.13800 22.82100
H  30.37900 2.81400 23.30800
H  28.83500 4.17900 27.18000
H  28.58300 5.41400 28.53900
H  28.03800 3.74700 28.48800
H  30.95500 3.00000 33.13000
H  30.36800 7.34100 34.54500
H  31.47400 6.47800 35.76100
H  29.70400 6.54800 35.95000
Mg 29.26100 57.73300 41.31800
C  26.70300 55.70700 40.26100
C  31.46400 55.53900 40.16900
C  31.72700 60.15800 41.67700
C  26.89300 60.28300 42.13900
N  29.06500 55.78600 40.42800
C  27.93900 55.14600 40.04600
C  28.23600 53.83400 39.30000
C  29.79000 53.66100 39.71600
C  30.19600 55.07500 40.10200
C  29.98600 52.70500 40.99100
C  28.01600 53.79100 37.83100
C  28.49000 55.00600 37.01600
H  27.75300 55.25000 35.59000
N  31.27600 57.77300 40.92800
C  32.02400 56.73000 40.46800
C  33.44500 57.09500 40.45100
C  33.55600 58.41900 40.91500
C  32.13900 58.85100 41.18400
C  34.49500 56.08200 40.06000
C  34.90900 59.18100 41.11100
O  35.99500 58.70400 40.79600
C  34.98700 60.52800 41.68600
N  29.33100 59.95500 41.81900
C  30.45400 60.66000 42.01700
C  30.09700 62.11700 42.33200
C  28.57500 62.12200 42.56000
C  28.25400 60.62700 42.31400
C  30.93000 62.67000 43.54000
C  27.76200 63.13000 41.68900
C  26.58100 63.74900 42.44100
N  27.22600 57.99000 41.27400
C  26.41300 59.03500 41.65300
C  25.05800 58.55400 41.57300
C  25.14100 57.32800 41.02000
C  26.45700 57.00000 40.80200
C  23.82700 59.29700 41.94000
C  24.30900 56.22100 40.51200
O  23.11200 56.11200 40.40900
C  25.28400 55.12900 40.00300
C  24.98000 53.89500 40.88400
O  25.23600 53.88100 42.09400
O  24.64300 52.76400 40.17600
C  24.62000 51.50900 40.97000
H  32.22000 54.76400 40.03000
H  32.53400 60.86700 41.87400
H  26.05200 60.97100 42.24300
H  27.65900 53.03200 39.76000
H  30.35400 53.17900 38.91800
H  29.15300 52.07000 41.29100
H  30.40700 53.29300 41.80700
H  30.81200 52.05500 40.70100
H  26.95600 53.64800 37.62100
H  28.64400 53.02400 37.37800
H  29.56400 54.89900 36.86300
H  28.23500 55.85400 37.65200
H  34.13400 55.52200 39.19700
H  34.64400 55.35400 40.85800
H  35.44400 56.51200 39.74100
H  34.55300 61.27200 41.01800
H  35.98600 60.83800 41.99300
H  34.37200 60.62400 42.58000
H  30.28100 62.66200 41.40600
H  28.34900 62.32600 43.60700
H  31.52300 61.92300 44.06900
H  30.46600 63.24600 44.34100
H  31.60000 63.38500 43.06400
H  27.44300 62.65200 40.76300
H  28.45600 63.93600 41.45200
H  25.64500 63.25500 42.18200
H  26.45200 64.82500 42.32300
H  26.69100 63.63000 43.51900
H  23.83600 60.16000 41.27500
H  24.01500 59.70900 42.93100
H  22.93900 58.66600 41.89900
H  25.12000 54.88900 38.95200
H  24.14100 51.63300 41.94100
H  25.62400 51.11000 41.11400
H  24.04800 50.75300 40.43100

