158

Mg 53.47200 24.64000 44.54500
C  50.69400 26.78700 44.16900
C  51.38800 22.01800 44.23300
C  56.22900 22.78000 43.98200
C  55.54200 27.41400 44.86000
N  51.27700 24.48600 44.10500
C  50.30700 25.44900 44.07400
C  48.90600 24.95400 44.09700
C  49.20100 23.47300 44.63600
C  50.70200 23.26300 44.31400
C  48.96800 23.09000 46.08800
C  48.12300 25.01500 42.79800
C  48.59700 24.14700 41.56900
H  49.64200 24.66500 40.59900
N  53.76500 22.70700 44.14600
C  52.79500 21.77500 44.13100
C  53.42900 20.49800 44.05900
C  54.80800 20.61400 44.01500
C  54.99500 22.08400 44.04700
C  52.69400 19.18400 44.08400
C  55.89700 19.52200 44.15600
O  55.59300 18.33600 43.95900
C  57.40800 19.75000 44.35300
N  55.66700 25.11400 44.15800
C  56.53800 24.10100 44.06100
C  58.01200 24.57700 43.97000
C  57.74800 26.06900 44.40700
C  56.23600 26.24800 44.52100
C  59.17600 23.93500 44.74300
C  58.34500 27.13000 43.48600
C  59.37800 28.09200 44.07100
N  53.20800 26.69900 44.52700
C  54.14700 27.71400 44.76000
C  53.52600 28.97300 44.79100
C  52.14300 28.65100 44.55800
C  51.94300 27.28400 44.43800
C  54.17500 30.27300 44.92900
C  50.85300 29.29100 44.42700
O  50.53500 30.48500 44.50200
C  49.85200 28.09000 44.11700
C  49.16800 28.45100 42.82300
O  49.67700 28.52900 41.72700
O  47.81600 28.68400 43.03100
C  47.01100 28.77500 41.79300
H  50.90500 21.05100 44.38300
H  57.02600 22.13600 43.60300
H  56.25900 28.18200 45.16000
H  48.44700 25.57000 44.87000
H  48.53000 22.85600 44.03900
H  48.37300 23.86300 46.57200
H  49.79300 22.87000 46.76600
H  48.36500 22.18200 46.06200
H  48.23700 26.05200 42.48300
H  47.06100 24.78000 42.87000
H  47.74800 23.69600 41.05500
H  49.03400 23.28700 42.07500
H  52.15000 18.93000 43.17500
H  51.90700 19.24700 44.83600
H  53.32800 18.32000 44.28300
H  57.86200 19.84200 43.36600
H  57.97600 18.95900 44.84200
H  57.50400 20.63800 44.97800
H  58.38000 24.51500 42.94600
H  58.06200 26.33400 45.41600
H  59.94300 23.54100 44.07700
H  58.75900 23.04000 45.20400
H  59.70200 24.59600 45.43100
H  57.50800 27.62600 42.99400
H  58.94100 26.57800 42.76000
H  60.37400 28.04700 43.63000
H  59.54100 27.88600 45.12900
H  59.00400 29.10700 43.93500
H  54.69000 30.59700 44.02400
H  54.93500 30.17400 45.70400
H  53.55200 31.10700 45.25200
H  49.06500 28.11100 44.87100
H  46.66700 29.79300 41.60900
H  46.12400 28.20400 42.06800
H  47.37000 28.31900 40.87100
Mg 1.59800 42.49600 25.78000
C  3.00500 42.64900 29.05700
C  -1.19800 41.19100 27.12600
C  0.54700 41.92200 22.65200
C  4.74600 43.43100 24.58800
N  1.02200 42.09200 27.82000
C  1.69700 42.34100 29.01000
C  0.79100 42.09700 30.18800
C  -0.52200 41.57500 29.51600
C  -0.22100 41.51100 28.02900
C  -1.01200 40.15100 30.02800
C  0.61100 43.43700 30.96400
C  0.93600 43.48400 32.45900
H  0.02200 42.74400 33.43300
N  -0.09900 41.58200 25.02100
C  -1.13200 41.15000 25.70500
C  -2.16800 40.75300 24.82700
C  -1.79000 40.99400 23.49300
C  -0.40100 41.48100 23.67100
C  -3.41800 40.15600 25.28700
C  -2.45000 40.79100 22.11900
O  -1.95200 40.95400 21.01600
C  -3.89300 40.24400 22.06100
N  2.51000 42.59000 23.87500
C  1.79300 42.46300 22.72600
C  2.58700 42.80100 21.47600
C  3.79600 43.54300 22.12600
C  3.71700 43.13600 23.61200
C  2.99500 41.55200 20.67700
C  3.84700 45.05300 21.79400
C  4.29500 45.42900 20.28100
N  3.53500 42.92700 26.60200
C  4.65800 43.32200 25.94200
C  5.68300 43.58000 26.95000
C  5.07200 43.39700 28.17400
C  3.78700 42.95700 27.92600
C  7.16100 44.02200 26.71400
C  5.24600 43.37100 29.56100
O  6.27900 43.52800 30.19400
C  3.90300 42.97900 30.23200
C  4.06400 41.76500 31.12400
O  4.18600 40.61400 30.69200
O  4.13300 42.09800 32.39300
C  4.29400 41.11300 33.40600
H  -2.13300 40.90800 27.61300
H  0.19800 41.76100 21.62900
H  5.61300 43.86200 24.08300
H  1.18500 41.24600 30.74500
H  -1.40100 42.21100 29.61200
H  -0.70500 39.92700 31.05000
H  -0.62100 39.36100 29.38700
H  -2.09600 40.15400 30.14100
H  -0.44800 43.67600 30.85800
H  1.00000 44.26600 30.37300
H  0.92200 44.53800 32.73900
H  1.96000 43.12200 32.54500
H  -3.40800 39.06900 25.20600
H  -4.24100 40.60900 24.73500
H  -3.58500 40.42500 26.33000
H  -4.45300 40.94700 22.67700
H  -3.87400 39.28800 22.58400
H  -4.25800 40.12300 21.04100
H  2.05700 43.49200 20.82100
H  4.67500 43.15600 21.61100
H  2.70500 40.65900 21.23200
H  4.08000 41.45400 20.65400
H  2.45700 41.54400 19.72900
H  4.60600 45.54600 22.40100
H  2.84100 45.38900 22.04600
H  3.52700 45.93600 19.69600
H  4.63900 44.51100 19.80500
H  5.10000 46.15300 20.40800
H  7.64500 43.92400 25.74300
H  7.80900 43.50800 27.42400
H  7.15900 45.06800 27.02400
H  3.51500 43.85100 30.75900
H  5.28000 41.24600 33.85000
H  4.11200 40.07800 33.11700
H  3.51400 41.30500 34.14300

