158

Mg 2.03800 8.24500 27.06200
C  2.15000 10.45000 29.86500
C  2.07200 5.69700 29.32900
C  1.91600 6.15800 24.50300
C  2.46200 10.96900 24.87700
N  2.05300 8.12800 29.38100
C  2.00800 9.10100 30.25200
C  1.86400 8.57500 31.71800
C  2.20800 7.05900 31.59800
C  2.19000 6.93800 30.02700
C  3.62100 6.60300 32.22900
C  0.44300 8.85300 32.39800
C  0.54000 9.60400 33.70300
H  1.13100 8.83600 34.92300
N  1.87500 6.27200 26.90000
C  1.90500 5.35200 27.93400
C  1.78300 3.97800 27.44400
C  1.81600 4.09400 26.06200
C  1.88800 5.57400 25.80200
C  1.57600 2.75000 28.39800
C  1.74600 3.02900 24.94700
O  1.90300 3.25500 23.77100
C  1.64400 1.58600 25.33500
N  2.01200 8.51900 25.02300
C  1.98000 7.49000 24.11400
C  2.19400 8.08400 22.67500
C  1.86600 9.58800 22.88700
C  2.25000 9.69200 24.35600
C  3.58800 7.85400 21.98100
C  0.35500 9.98800 22.57600
C  -0.00900 11.35600 22.11400
N  2.42300 10.27200 27.27500
C  2.60100 11.24200 26.27700
C  2.73900 12.47100 26.93600
C  2.63000 12.21500 28.33000
C  2.49000 10.84300 28.52200
C  2.95800 13.83500 26.20800
C  2.55200 12.80200 29.66200
O  2.76000 13.93200 30.02700
C  2.25600 11.67300 30.63900
C  3.34000 11.61500 31.69300
O  4.44100 11.07900 31.62600
O  2.81800 12.18700 32.85700
C  3.71200 12.08700 34.00900
H  2.03400 4.90300 30.07900
H  1.74600 5.46200 23.67900
H  2.75000 11.74800 24.16800
H  2.68800 9.03200 32.26600
H  1.50300 6.39200 32.09400
H  3.37900 5.60800 32.60300
H  3.95100 7.34000 32.96100
H  4.43800 6.59600 31.50800
H  -0.11200 7.93700 32.60100
H  -0.14500 9.38100 31.64600
H  -0.44900 10.03100 33.86900
H  1.17600 10.45500 33.46000
H  2.47000 2.42600 28.93000
H  1.13800 1.91500 27.85000
H  0.93700 3.05800 29.22700
H  0.63200 1.28400 25.60300
H  2.31400 1.51200 26.19100
H  2.00200 0.85700 24.60700
H  1.50300 7.67800 21.93700
H  2.68700 10.01600 22.31200
H  4.00900 7.03200 22.56100
H  4.29800 8.68000 22.00500
H  3.47800 7.40200 20.99500
H  -0.21600 9.76700 23.47800
H  0.03800 9.24400 21.84500
H  0.87200 11.83100 21.68100
H  -0.56600 11.99500 22.79900
H  -0.74800 11.30700 21.31400
H  2.18000 13.83700 25.44500
H  3.92000 13.91700 25.70300
H  2.78800 14.69000 26.86300
H  1.33600 11.86700 31.19000
H  3.78300 11.05600 34.35600
H  3.40100 12.75700 34.81000
H  4.71300 12.43200 33.75100
Mg -11.39500 38.89600 42.09200
C  -9.55300 36.16500 40.91900
C  -9.46400 40.93200 40.07200
C  -13.72000 41.28700 42.41300
C  -13.73500 36.53400 43.38700
N  -9.74200 38.56400 40.50300
C  -9.12200 37.35500 40.29300
C  -7.99200 37.56800 39.33000
C  -7.89600 39.13800 39.21300
C  -9.05200 39.56700 40.01900
C  -6.55600 39.71300 39.63800
C  -8.38100 36.94400 37.91600
C  -7.37100 36.00700 37.27700
H  -6.52400 36.70300 36.19100
N  -11.47100 40.86000 41.46600
C  -10.54400 41.55300 40.73200
C  -11.01900 42.95900 40.67400
C  -12.23800 43.09600 41.44500
C  -12.52400 41.68800 41.83100
C  -10.10700 43.97700 40.06500
C  -13.04600 44.34600 41.66400
O  -12.57000 45.38100 41.16700
C  -14.22800 44.49500 42.57900
N  -13.42800 38.95800 42.99100
C  -14.20900 40.08900 42.94400
C  -15.62300 39.80400 43.34700
C  -15.64000 38.23600 43.71700
C  -14.17600 37.88000 43.38100
C  -15.91400 40.71300 44.56000
C  -16.73100 37.43900 42.91400
C  -17.65700 36.62200 43.84200
N  -11.53600 36.84400 42.28000
C  -12.52500 36.04200 42.87500
C  -11.98400 34.69800 43.03600
C  -10.77500 34.71600 42.28700
C  -10.63900 35.98000 41.77700
C  -12.72300 33.57400 43.78800
C  -9.72100 33.90500 41.78600
O  -9.39800 32.76000 41.98300
C  -8.81600 34.80700 40.88500
C  -7.47300 34.82700 41.41800
O  -6.55800 34.03800 41.15000
O  -7.18400 35.91900 42.15700
C  -5.85900 35.82300 42.79800
H  -8.94800 41.65800 39.44100
H  -14.55200 41.99500 42.42900
H  -14.41700 35.78700 43.79800
H  -7.04300 37.12900 39.63800
H  -8.07000 39.51700 38.20500
H  -6.37100 40.56700 38.98700
H  -5.72600 39.05000 39.39700
H  -6.52300 39.89900 40.71200
H  -8.74300 37.70600 37.22700
H  -9.29700 36.37600 38.07900
H  -7.93600 35.23100 36.76200
H  -6.81700 35.48300 38.05600
H  -10.65700 44.62100 39.38000
H  -9.27300 43.55600 39.50500
H  -9.75700 44.46900 40.97300
H  -14.14800 45.51200 42.96400
H  -14.14100 43.94400 43.51500
H  -15.16800 44.31000 42.05900
H  -16.25900 40.12000 42.52100
H  -15.71100 38.12700 44.79900
H  -15.01600 40.79500 45.17100
H  -16.67000 40.25900 45.20100
H  -16.40400 41.65000 44.29500
H  -16.23500 36.85200 42.14100
H  -17.40800 38.13200 42.41600
H  -17.47300 35.58800 43.54900
H  -18.67500 36.91200 43.58600
H  -17.68400 36.70200 44.92900
H  -12.26500 32.58800 43.72300
H  -13.72600 33.51200 43.36600
H  -12.77300 33.87200 44.83500
H  -8.82800 34.48600 39.84400
H  -5.86300 36.37900 43.73500
H  -5.13700 36.36100 42.18300
H  -5.40200 34.86900 43.06200

