158

Mg 8.36600 4.38600 28.24400
C  9.82100 2.87700 31.13600
C  6.39400 6.17100 30.36300
C  7.00000 5.69600 25.44000
C  10.03300 1.99900 26.17000
N  8.18000 4.51000 30.50100
C  8.86800 3.86100 31.50400
C  8.53100 4.32800 32.91900
C  7.36600 5.28000 32.58900
C  7.28700 5.35600 31.07000
C  5.93000 5.01500 33.22600
C  9.78300 4.83500 33.74200
C  9.45400 5.71100 34.91200
H  10.08300 5.35700 36.31300
N  6.91100 5.68000 27.94400
C  6.18400 6.31600 28.96200
C  5.32700 7.26700 28.28900
C  5.64600 7.21700 26.92000
C  6.54700 6.18500 26.69700
C  4.26700 8.12600 29.00100
C  5.14300 8.18000 25.74600
O  5.56500 8.06500 24.61500
C  4.31800 9.38500 25.99400
N  8.34800 3.75200 26.10900
C  7.82000 4.59100 25.14900
C  8.08900 4.13300 23.70900
C  9.21200 3.07600 24.00100
C  9.16700 2.84800 25.50100
C  6.88900 3.42600 23.03800
C  10.58400 3.31200 23.36200
C  11.56300 4.25900 24.00200
N  9.70900 2.85900 28.55700
C  10.24900 1.98100 27.60400
C  11.14200 1.05200 28.29200
C  11.04600 1.39900 29.71800
C  10.08500 2.43600 29.80400
C  11.92300 0.00400 27.63700
C  11.43500 1.01100 31.00100
O  12.16200 0.05500 31.37800
C  10.82700 2.08300 31.94500
C  10.29600 1.39800 33.17900
O  9.17600 0.91800 33.24700
O  11.28600 1.45100 34.13600
C  11.13300 0.57000 35.35600
H  5.89900 7.02100 30.83700
H  6.57400 6.01900 24.48800
H  10.47100 1.19600 25.57400
H  8.07000 3.49000 33.44200
H  7.58200 6.27400 32.98000
H  5.91700 3.97700 33.55600
H  5.13900 5.05100 32.47700
H  5.58600 5.68600 34.01400
H  10.50100 5.41900 33.16600
H  10.36700 4.04200 34.20700
H  8.37200 5.72200 35.04400
H  9.84200 6.70100 34.67400
H  4.59900 9.15800 28.88000
H  4.05100 7.92100 30.04900
H  3.30600 8.03200 28.49600
H  3.25900 9.20900 26.18300
H  4.45700 10.12300 25.20400
H  4.81400 9.86700 26.83600
H  8.50300 4.97100 23.14700
H  8.84400 2.15500 23.55000
H  7.02800 3.02400 22.03400
H  6.10000 4.16200 22.88800
H  6.60100 2.64000 23.73600
H  10.42100 3.69800 22.35600
H  11.14200 2.37900 23.29900
H  11.03400 4.79800 24.78700
H  12.04300 4.96800 23.32700
H  12.29300 3.63000 24.51200
H  11.32800 -0.62600 26.97600
H  12.33300 -0.63400 28.42000
H  12.81000 0.29300 27.07200
H  11.52400 2.81100 32.36200
H  10.78900 1.30100 36.08800
H  12.05200 0.07000 35.66300
H  10.33400 -0.15800 35.21100
Mg -13.24600 16.33800 41.74300
C  -10.22000 14.63900 41.08800
C  -11.81900 19.16500 40.30200
C  -16.19900 17.63500 42.00700
C  -14.50900 13.22600 42.85200
N  -11.24700 16.83900 40.76400
C  -10.22400 15.99000 40.63500
C  -9.01300 16.68000 39.88600
C  -9.49300 18.19500 39.77900
C  -10.87600 18.08400 40.34500
C  -8.56800 19.19000 40.54900
C  -8.58700 15.95700 38.55700
C  -7.12600 15.55900 38.44800
H  -6.45600 16.02800 37.18900
N  -13.92800 18.12800 41.18800
C  -13.20500 19.16800 40.65300
C  -14.10700 20.38100 40.58500
C  -15.40800 20.00800 41.14900
C  -15.21500 18.50600 41.51300
C  -13.71700 21.77900 40.02900
C  -16.55300 20.99300 41.40200
O  -16.45300 22.17300 41.06000
C  -17.74800 20.53800 42.22300
N  -15.20000 15.34800 42.10600
C  -16.23400 16.26800 42.36600
C  -17.55300 15.40100 42.61600
C  -16.83900 14.17800 43.23600
C  -15.44200 14.19600 42.69400
C  -18.54800 16.05800 43.62000
C  -17.60400 12.84600 42.92100
C  -17.61300 11.74500 43.98100
N  -12.54000 14.29800 41.99000
C  -13.16100 13.16600 42.46700
C  -12.15800 12.11500 42.55400
C  -11.01900 12.62700 42.05000
C  -11.26100 13.95200 41.66000
C  -12.45100 10.80700 43.08000
C  -9.62200 12.25600 41.72100
O  -8.96800 11.22100 41.90200
C  -9.06400 13.59200 41.01900
C  -7.79900 14.03700 41.79100
O  -7.75400 14.93800 42.62100
O  -6.71600 13.37000 41.28000
C  -5.47200 13.70000 41.91900
H  -11.40700 20.09600 39.90600
H  -17.23200 17.98600 42.04100
H  -14.80300 12.28300 43.31900
H  -8.17200 16.62700 40.57700
H  -9.56200 18.41700 38.71500
H  -8.16200 19.91700 39.84600
H  -7.73700 18.66500 41.02000
H  -9.15800 19.71800 41.29800
H  -8.75900 16.60900 37.70100
H  -9.20200 15.08100 38.35400
H  -6.98800 14.49100 38.62100
H  -6.51900 15.88700 39.29200
H  -14.35400 21.96200 39.16300
H  -12.70400 21.75700 39.62600
H  -13.67100 22.55700 40.79100
H  -18.43600 19.88100 41.69200
H  -18.46300 21.35000 42.35800
H  -17.48400 19.85200 43.02800
H  -18.04800 15.11900 41.68700
H  -16.80800 14.30500 44.31900
H  -18.26800 17.08800 43.84200
H  -18.70100 15.56100 44.57700
H  -19.49300 16.09300 43.07800
H  -17.20400 12.54400 41.95300
H  -18.65900 13.04400 42.72700
H  -18.68300 11.62700 44.15600
H  -17.09700 12.03600 44.89600
H  -17.15700 10.90900 43.45200
H  -13.12100 10.25900 42.41800
H  -13.03000 10.98000 43.98700
H  -11.61600 10.22600 43.47200
H  -8.73900 13.22300 40.04600
H  -5.28900 14.76600 41.78500
H  -4.66300 13.33300 41.28700
H  -5.50800 13.38400 42.96200

