158

Mg 26.56000 50.29100 26.94000
C  24.56900 51.53500 29.55300
C  29.03300 49.70500 29.17000
C  28.41700 49.10300 24.43900
C  24.11200 51.58700 24.72700
N  26.81400 50.84100 29.09700
C  25.76500 51.01900 29.95500
C  26.14900 50.68800 31.38100
C  27.63300 50.58900 31.21700
C  27.86400 50.30700 29.70200
C  28.52100 51.68200 31.82400
C  25.47200 49.42000 32.03100
C  24.56100 49.69100 33.27000
H  24.82900 48.75800 34.44800
N  28.52700 49.55700 26.85900
C  29.34700 49.42600 27.85200
C  30.57600 48.79500 27.32700
C  30.47500 48.81000 25.96300
C  29.03000 49.14400 25.67000
C  31.75400 48.61800 28.23300
C  31.51000 48.60600 24.91500
O  31.25800 48.65400 23.69700
C  32.90400 48.12000 25.27200
N  26.44300 50.55500 24.85400
C  27.30600 49.87600 24.01900
C  26.79400 49.93100 22.54400
C  25.37500 50.60000 22.72300
C  25.30400 51.02800 24.17100
C  27.76600 50.70000 21.60700
C  24.23900 49.62300 22.27900
C  23.97400 48.45800 23.24600
N  24.73100 51.34800 27.06500
C  23.79500 51.64700 26.12900
C  22.66100 52.19900 26.68100
C  22.88900 52.05100 28.09700
C  24.16800 51.69300 28.21100
C  21.49100 52.77800 25.98000
C  22.28900 52.17400 29.36400
O  21.19300 52.53800 29.77800
C  23.48300 51.90700 30.42200
C  23.66400 53.03600 31.30000
O  24.36600 54.00600 31.04100
O  22.92700 52.86900 32.47100
C  23.13800 53.88900 33.58100
H  29.72600 49.34500 29.93300
H  28.89700 48.70300 23.54400
H  23.33600 51.92100 24.03600
H  25.79700 51.44700 32.08000
H  28.04200 49.67400 31.64600
H  29.13000 51.41900 32.68900
H  27.80500 52.44200 32.13700
H  29.08000 52.15200 31.01500
H  26.22600 48.74000 32.42700
H  24.91300 48.90100 31.25200
H  23.50700 49.51000 33.05700
H  24.73500 50.69800 33.65000
H  31.54300 48.65500 29.30100
H  32.40100 49.45400 27.96500
H  32.24300 47.70200 27.90200
H  33.51600 48.90700 25.71300
H  33.30300 47.89600 24.28300
H  32.80600 47.19000 25.83300
H  26.60800 48.91400 22.19900
H  25.35700 51.49100 22.09600
H  28.60100 51.03400 22.22200
H  27.37000 51.62500 21.18700
H  28.07000 50.03600 20.79700
H  24.41500 49.13700 21.32000
H  23.37900 50.29200 22.23300
H  24.22100 47.56000 22.68000
H  22.89600 48.46200 23.40900
H  24.39200 48.58300 24.24500
H  21.49400 52.13200 25.10200
H  21.67400 53.78300 25.60200
H  20.66500 52.55900 26.65600
H  23.24700 51.00100 30.98000
H  23.60700 54.76900 33.14000
H  23.85900 53.47700 34.28700
H  22.21800 54.28300 34.01300
Mg -12.76100 16.11800 41.87700
C  -9.72300 14.41100 41.49500
C  -11.19500 18.93200 40.65300
C  -15.74000 17.42700 41.48300
C  -14.22700 13.00100 42.68500
N  -10.76000 16.54900 41.02700
C  -9.68800 15.70300 41.03200
C  -8.39600 16.45000 40.57500
C  -8.81000 18.00800 40.71600
C  -10.35800 17.85900 40.82600
C  -8.16100 18.70200 41.92600
C  -7.85200 16.20400 39.08200
C  -6.33500 16.18200 39.00900
H  -5.77100 16.92200 37.80400
N  -13.45600 17.98100 41.06600
C  -12.64100 19.06100 40.77000
C  -13.43300 20.24900 40.53100
C  -14.79700 19.80200 40.67900
C  -14.75400 18.33500 41.12500
C  -12.88200 21.63800 40.05900
C  -16.06300 20.71100 40.62000
O  -16.07100 21.92000 40.25100
C  -17.42200 20.10000 40.88000
N  -14.64100 15.28600 42.04500
C  -15.68300 16.10300 41.95500
C  -16.97800 15.45100 42.29900
C  -16.50500 13.99300 42.61900
C  -15.05500 14.03300 42.41300
C  -17.70900 16.08300 43.46000
C  -17.21800 12.83600 41.70500
C  -17.95300 11.83700 42.57900
N  -12.12900 14.12600 42.14800
C  -12.83000 12.95000 42.47700
C  -11.90700 11.87800 42.68400
C  -10.65700 12.41600 42.35600
C  -10.85600 13.72000 41.95400
C  -12.12700 10.51900 43.22000
C  -9.24100 12.15200 42.28000
O  -8.56500 11.15300 42.50700
C  -8.56700 13.44200 41.66000
C  -7.44300 13.89300 42.56200
O  -7.59500 14.45400 43.65600
O  -6.27200 13.88000 41.82900
C  -5.12600 14.53500 42.45900
H  -10.72400 19.85400 40.30400
H  -16.76900 17.79100 41.44400
H  -14.75700 12.09100 42.97200
H  -7.60900 16.11700 41.25200
H  -8.60000 18.67400 39.87900
H  -8.66900 18.62900 42.88800
H  -8.04100 19.74700 41.64200
H  -7.18000 18.23300 41.99700
H  -8.30400 16.90700 38.38200
H  -8.20500 15.21400 38.79400
H  -6.07000 15.12500 39.03200
H  -5.83500 16.52300 39.91500
H  -13.42400 21.86700 39.14200
H  -11.80600 21.66800 39.88700
H  -13.18300 22.43200 40.74200
H  -18.15400 20.88800 40.70300
H  -17.38100 19.85100 41.94000
H  -17.72200 19.31000 40.19200
H  -17.71700 15.47000 41.49900
H  -16.62000 13.67800 43.65600
H  -17.27700 15.87200 44.43900
H  -18.78500 15.92800 43.39000
H  -17.47100 17.13800 43.59600
H  -16.40000 12.26400 41.26700
H  -17.79000 13.27200 40.88700
H  -18.90100 11.62600 42.08400
H  -18.24600 12.25700 43.54000
H  -17.42600 10.88900 42.69300
H  -12.29700 10.50100 44.29600
H  -11.24700 9.89100 43.07900
H  -13.00200 10.03900 42.78100
H  -8.14800 13.17800 40.68900
H  -5.17100 15.61600 42.32900
H  -4.20700 14.15800 42.00900
H  -4.91500 14.28200 43.49800

