158

Mg 36.44800 0.51000 30.16000
C  34.59400 1.85100 32.71000
C  39.13800 0.33100 32.11200
C  38.12400 -0.55600 27.35300
C  33.54200 0.78300 28.09100
N  36.71300 0.99400 32.15400
C  35.85100 1.42700 33.04000
C  36.50300 1.69900 34.37900
C  38.08400 1.71600 34.00800
C  37.98100 0.92900 32.72200
C  38.80500 3.04800 34.10100
C  36.08400 0.51900 35.36200
C  35.37900 0.90100 36.68700
H  35.83900 2.09900 37.45200
N  38.29400 -0.17100 29.83400
C  39.22000 -0.30900 30.83800
C  40.37600 -0.98100 30.31800
C  40.15300 -1.06400 28.90900
C  38.79400 -0.61300 28.61500
C  41.54700 -1.33900 31.23000
C  41.19000 -1.57300 27.92500
O  41.02200 -1.55600 26.66700
C  42.54400 -2.00400 28.23800
N  35.89700 0.33900 28.00700
C  36.83100 -0.02500 27.09700
C  36.23800 -0.19200 25.68100
C  34.70600 0.08000 26.00800
C  34.69800 0.48000 27.45900
C  36.89600 0.75800 24.65200
C  33.82000 -1.17400 25.77900
C  33.78600 -1.94400 24.41800
N  34.50000 1.38600 30.23700
C  33.43900 1.40400 29.37400
C  32.37300 2.12200 29.98400
C  32.72400 2.23200 31.31900
C  34.06700 1.79100 31.38600
C  31.03800 2.39800 29.34000
C  32.35400 2.66100 32.56800
O  31.28900 3.19700 32.92300
C  33.45100 2.37400 33.53600
C  33.76500 3.69900 34.19300
O  34.29200 4.71200 33.71400
O  33.04300 3.67000 35.40100
C  33.02300 4.98800 36.04500
H  39.99000 0.21900 32.78600
H  38.68900 -1.02400 26.54400
H  32.60700 0.66600 27.53900
H  36.16700 2.63100 34.83400
H  38.64000 1.16300 34.76500
H  39.66700 3.00200 34.76800
H  38.14000 3.76800 34.57800
H  38.96500 3.41500 33.08700
H  36.88600 -0.21000 35.47200
H  35.28400 -0.09200 34.94500
H  35.51400 -0.00100 37.28300
H  34.30100 1.02000 36.57500
H  41.86300 -2.38300 31.22300
H  41.56900 -0.92300 32.23700
H  42.37400 -0.87100 30.69600
H  42.51900 -2.88400 28.88000
H  42.97100 -1.16800 28.79100
H  43.22500 -2.26700 27.42800
H  36.41400 -1.23100 25.40400
H  34.36400 0.92300 25.40800
H  37.94100 0.97300 24.87400
H  36.38000 1.71500 24.57100
H  36.80400 0.21200 23.71300
H  32.80100 -0.79500 25.85900
H  33.96900 -1.87900 26.59700
H  33.98700 -2.97000 24.72600
H  34.39300 -1.43200 23.67100
H  32.77600 -2.06700 24.02800
H  30.90200 1.89400 28.38300
H  31.01300 3.47000 29.14600
H  30.25000 2.10700 30.03500
H  33.17700 1.74900 34.38600
H  32.43700 5.67100 35.43000
H  34.06300 5.31400 36.07700
H  32.72800 4.98100 37.09500
Mg 48.22500 34.66100 26.49300
C  46.32800 33.17000 29.20200
C  48.53800 37.47200 28.41300
C  49.57900 36.11500 23.83800
C  46.98300 32.07400 24.43100
N  47.62700 35.16200 28.66000
C  46.90300 34.40800 29.50200
C  46.86900 35.12400 30.82900
C  47.16300 36.61600 30.44800
C  47.85800 36.39800 29.09500
C  45.94500 37.64000 30.41400
C  47.89800 34.55400 31.81600
C  47.37200 34.39600 33.18300
H  46.49400 35.53900 33.69600
N  49.07500 36.45100 26.23500
C  49.22100 37.46400 27.14600
C  50.08200 38.50400 26.58800
C  50.33000 38.15200 25.26400
C  49.65400 36.86000 25.09800
C  50.53200 39.59700 27.42700
C  51.04800 38.87600 24.19600
O  51.24900 38.41600 23.06300
C  51.55900 40.22000 24.55400
N  48.25200 34.22400 24.33600
C  48.86600 34.97300 23.45800
C  48.88200 34.34300 22.11900
C  48.00700 33.08800 22.24800
C  47.75600 33.05300 23.75400
C  48.32700 35.32000 20.98700
C  48.64100 31.84000 21.63800
C  47.63100 30.82500 21.08900
N  47.03900 32.95100 26.71800
C  46.63500 31.99100 25.78300
C  45.77100 30.95900 26.49900
C  45.70000 31.42000 27.81000
C  46.45500 32.62200 27.91000
C  45.13400 29.67500 25.96900
C  45.13400 31.03900 29.09000
O  44.45900 30.09800 29.50700
C  45.40400 32.29200 29.93900
C  45.78700 31.86700 31.27200
O  46.84900 31.41900 31.63000
O  44.69600 31.98300 32.06300
C  44.90800 31.34200 33.33500
H  48.51000 38.42000 28.95500
H  50.03400 36.50500 22.92500
H  46.58300 31.25000 23.83700
H  45.81000 34.96700 31.03100
H  47.86500 37.11600 31.11500
H  45.09300 37.27500 30.98700
H  45.70300 37.64800 29.35100
H  46.23000 38.60800 30.82500
H  48.74000 35.24400 31.75200
H  48.29300 33.60500 31.45100
H  48.17400 34.37900 33.92200
H  46.89000 33.41800 33.17700
H  50.58400 39.36100 28.49000
H  49.88000 40.46900 27.48300
H  51.53200 39.88800 27.10700
H  50.99200 40.70600 25.34800
H  51.44400 40.85600 23.67700
H  52.59700 40.05300 24.84100
H  49.93400 34.08400 21.99700
H  46.99500 33.25300 21.87900
H  47.64200 34.84500 20.28500
H  49.20300 35.68200 20.44900
H  47.71100 35.91100 21.66500
H  49.18300 31.37900 22.46400
H  49.38800 32.09300 20.88600
H  47.66000 30.96400 20.00800
H  46.60100 31.04300 21.36900
H  47.84300 29.79700 21.38200
H  44.75100 29.04700 26.77400
H  45.82600 29.09700 25.35700
H  44.25000 29.93700 25.38800
H  44.43700 32.78900 30.02000
H  43.94500 31.18300 33.82100
H  45.57800 32.02800 33.85300
H  45.33900 30.34300 33.28000

