158

Mg 49.28600 44.79400 42.01000
C  45.84900 45.36600 41.19900
C  48.76600 41.68600 40.69800
C  52.54600 44.45300 41.94400
C  49.59900 48.31500 42.27400
N  47.43100 43.66500 41.16800
C  46.16000 44.05800 40.91400
C  45.31700 43.05000 40.15100
C  46.20200 41.81100 40.27100
C  47.59200 42.42200 40.69300
C  45.78800 40.79500 41.35000
C  45.12900 43.69700 38.75300
C  43.75200 43.68200 38.07600
H  43.52100 42.63100 37.00300
N  50.50300 43.18900 41.63700
C  50.11600 42.00800 41.04900
C  51.26000 41.16900 40.94000
C  52.42700 41.93500 41.35900
C  51.86500 43.23800 41.73200
C  51.13000 39.73900 40.34700
C  53.83300 41.39300 41.58100
O  54.08600 40.24600 41.26200
C  54.98000 42.16300 42.14400
N  50.85900 46.18100 42.04300
C  52.10700 45.75900 42.06800
C  53.15000 46.94500 41.91900
C  52.22600 48.15500 42.21800
C  50.79100 47.52200 42.19600
C  54.33400 46.78700 42.87800
C  52.56100 49.42900 41.40800
C  52.29300 50.75000 42.16900
N  48.04800 46.55200 41.99900
C  48.26600 47.89200 42.21500
C  47.08100 48.61100 42.34200
C  46.12000 47.69800 41.91600
C  46.74600 46.41600 41.70700
C  46.87900 50.04700 42.76400
C  44.62800 47.53100 41.59200
O  43.71800 48.36800 41.50000
C  44.47700 45.99300 41.18300
C  43.63400 45.42500 42.19400
O  44.00500 44.70700 43.13400
O  42.32900 45.69900 41.90400
C  41.36200 45.13900 42.76900
H  48.68600 40.64100 40.39200
H  53.60000 44.35700 41.67500
H  49.70200 49.40300 42.26400
H  44.36500 42.97900 40.67500
H  46.19400 41.35700 39.28000
H  44.79300 41.14000 41.63200
H  46.44600 40.84100 42.21700
H  45.70500 39.80300 40.90600
H  45.84400 43.15500 38.13500
H  45.40500 44.74800 38.67200
H  43.52500 44.70500 37.77500
H  43.09000 43.45300 38.91100
H  50.71800 39.05500 41.08800
H  51.99600 39.17100 40.00700
H  50.35200 39.76300 39.58400
H  54.53100 42.76800 42.93200
H  55.32600 42.77600 41.31200
H  55.75100 41.52400 42.57500
H  53.52800 46.90300 40.89800
H  52.37400 48.51800 43.23500
H  55.29300 46.45800 42.47800
H  54.01700 46.14000 43.69600
H  54.57700 47.73200 43.36400
H  51.98500 49.39800 40.48300
H  53.64500 49.53300 41.35100
H  51.92100 50.52000 43.16800
H  51.51800 51.25200 41.58900
H  53.18000 51.38100 42.22200
H  47.72400 50.33200 43.39200
H  45.94000 50.12000 43.31400
H  46.88400 50.53400 41.78900
H  44.10400 45.84200 40.17100
H  41.72900 44.20700 43.19700
H  40.49900 44.89400 42.15000
H  41.02700 45.81400 43.55600
Mg 16.56700 51.82000 26.40800
C  18.47500 50.83000 29.20200
C  14.08400 52.75000 28.46900
C  14.85900 52.82100 23.65900
C  19.21300 50.86600 24.34800
N  16.33900 51.85000 28.55100
C  17.22000 51.40000 29.53700
C  16.65500 51.58100 30.93500
C  15.15000 51.89000 30.61000
C  15.19400 52.17800 29.10800
C  14.05500 50.82300 30.99500
C  17.40600 52.65500 31.78600
C  17.80800 52.21000 33.15600
H  16.80700 52.70100 34.20100
N  14.78000 52.75700 26.15200
C  13.84300 53.01400 27.12800
C  12.72300 53.73100 26.54200
C  12.91000 53.74600 25.14100
C  14.19800 53.02900 24.95400
C  11.54600 54.30300 27.39400
C  12.07200 54.36700 24.02600
O  12.39100 54.37300 22.87900
C  10.68200 54.95200 24.31800
N  16.89000 51.68500 24.29100
C  16.05700 52.24700 23.36900
C  16.68800 52.29300 21.95500
C  18.08200 51.65900 22.20900
C  18.12600 51.47800 23.69500
C  15.84400 51.67300 20.85400
C  19.33100 52.50600 21.75200
C  20.29300 51.90500 20.72900
N  18.39000 50.82500 26.65600
C  19.38200 50.54700 25.72500
C  20.55100 49.92000 26.39100
C  20.24300 50.07800 27.76400
C  18.90900 50.58900 27.86200
C  21.85100 49.44200 25.81900
C  20.72000 49.88000 29.11300
O  21.84000 49.52300 29.49400
C  19.56400 50.20000 30.13000
C  19.14100 48.94000 30.83800
O  18.65400 47.95600 30.31100
O  19.21700 49.14900 32.16700
C  18.73800 48.05500 33.08600
H  13.32800 53.08200 29.18400
H  14.37300 53.07200 22.71400
H  20.10900 50.60100 23.78400
H  16.74000 50.60500 31.41200
H  14.85300 52.79700 31.13800
H  13.47000 51.12400 31.86500
H  14.59200 49.87700 31.05500
H  13.36600 50.67900 30.16200
H  16.90200 53.62100 31.79600
H  18.37200 52.83200 31.31300
H  18.77900 52.63500 33.41100
H  17.90800 51.12700 33.22800
H  10.62500 53.87600 26.99700
H  11.55200 55.38700 27.28600
H  11.57900 53.99300 28.43800
H  10.20500 55.09100 23.34800
H  10.89200 55.76800 25.00900
H  10.07600 54.11300 24.66100
H  16.83600 53.35300 21.75300
H  18.15300 50.67400 21.74700
H  16.19200 50.73600 20.41800
H  15.73400 52.50800 20.16200
H  14.92000 51.35200 21.33600
H  19.86100 52.92900 22.60500
H  18.96400 53.40500 21.25600
H  21.18100 52.53600 20.75900
H  19.81500 51.99900 19.75400
H  20.44400 50.83400 20.86900
H  21.72600 48.51600 25.25800
H  22.59800 49.36900 26.61000
H  22.07100 50.15300 25.02200
H  20.07200 50.83300 30.85600
H  17.68700 48.29900 33.24000
H  19.23300 48.06600 34.05700
H  18.88300 47.06200 32.66200

