158

Mg 2.34700 -1.46900 43.29700
C  5.63700 -0.51000 43.11800
C  1.54600 1.51200 41.71800
C  -0.86500 -2.63200 42.65500
C  3.29900 -4.46700 44.80000
N  3.49800 0.24900 42.36900
C  4.80400 0.50400 42.58300
C  5.18500 1.83000 41.99700
C  3.78100 2.57500 41.90200
C  2.89200 1.39300 42.02300
C  3.61300 3.86600 42.77500
C  6.22300 1.83800 40.77300
C  5.97400 0.71900 39.82300
H  5.15600 1.19300 38.56800
N  0.60200 -0.71700 42.24700
C  0.53900 0.57000 41.78600
C  -0.76600 0.80400 41.22100
C  -1.51200 -0.44200 41.46800
C  -0.58400 -1.34700 42.17100
C  -1.21500 2.03300 40.52900
C  -2.82100 -0.64200 40.78800
O  -3.29100 0.21200 40.03200
C  -3.57300 -1.96000 41.03900
N  1.42600 -3.31200 43.51700
C  0.05900 -3.50400 43.32000
C  -0.41100 -4.87400 43.87200
C  0.91200 -5.37500 44.60300
C  2.00700 -4.39300 44.25000
C  -1.60900 -4.88300 44.85800
C  1.24700 -6.84900 44.18900
C  1.24200 -7.77500 45.38800
N  4.02100 -2.42800 43.80600
C  4.32700 -3.64600 44.38900
C  5.72900 -3.83300 44.61600
C  6.34300 -2.58800 44.12900
C  5.21600 -1.81300 43.60600
C  6.31400 -4.96200 45.45300
C  7.57400 -1.83500 44.04300
O  8.71900 -2.14000 44.33400
C  7.18100 -0.55000 43.31200
C  7.60400 0.55900 44.28600
O  7.22100 0.64400 45.46700
O  8.45600 1.50300 43.68400
C  8.79000 2.61200 44.50400
H  1.31500 2.54000 41.43000
H  -1.85200 -3.07000 42.49300
H  3.50200 -5.39500 45.33800
H  5.84000 2.32600 42.71400
H  3.64700 2.83100 40.85100
H  3.45500 3.68100 43.83800
H  2.66300 4.29300 42.45400
H  4.43800 4.54900 42.57300
H  7.22700 1.94700 41.18300
H  6.16100 2.75200 40.18200
H  5.22900 0.00800 40.18000
H  6.90400 0.18700 39.62300
H  -2.15800 2.35100 40.97300
H  -1.45200 1.80700 39.48900
H  -0.52500 2.86600 40.66200
H  -3.16600 -2.77800 40.44600
H  -4.58600 -1.76800 40.68500
H  -3.62600 -2.16700 42.10800
H  -0.68900 -5.36100 42.93800
H  0.84500 -5.35500 45.69100
H  -1.43900 -5.40700 45.79900
H  -2.44700 -5.36000 44.35000
H  -1.84200 -3.85200 45.12600
H  2.19000 -6.82200 43.64400
H  0.50100 -7.22800 43.49000
H  0.85300 -8.78600 45.26700
H  0.62500 -7.46000 46.22900
H  2.16800 -7.83200 45.95900
H  7.27800 -4.57600 45.78600
H  6.52600 -5.81900 44.81400
H  5.63400 -5.29800 46.23600
H  7.64800 -0.25100 42.37400
H  8.00100 2.86800 45.21000
H  8.87400 3.29300 43.65700
H  9.73700 2.44100 45.01700
Mg 53.40600 24.07600 44.29800
C  50.85000 26.03300 43.23600
C  51.95300 21.41200 42.59800
C  56.42500 22.28900 44.29100
C  55.22000 26.92400 45.22500
N  51.70000 23.85600 42.84900
C  50.77100 24.80400 42.66100
C  49.61100 24.19700 41.79100
C  49.76000 22.67300 42.05800
C  51.20800 22.61300 42.53500
C  48.81200 21.96500 43.09500
C  49.58700 24.69900 40.34000
C  48.20700 25.08600 39.73200
H  47.53800 23.77400 39.10400
N  54.01200 22.10500 43.62200
C  53.27700 21.18400 42.99300
C  53.99700 19.92900 42.89700
C  55.22500 20.09300 43.53500
C  55.26200 21.58000 43.89100
C  53.49500 18.70300 42.22600
C  56.22300 18.98800 43.73700
O  56.12600 17.87000 43.26200
C  57.50600 19.21500 44.60500
N  55.55400 24.50400 44.81600
C  56.63000 23.60400 44.62500
C  57.98100 24.36700 44.72300
C  57.53800 25.78200 45.14300
C  55.98600 25.78000 45.10400
C  59.07300 23.72500 45.49800
C  58.16600 26.95700 44.29500
C  58.82200 28.10200 45.04500
N  53.11100 26.05700 44.34700
C  53.82200 27.09800 44.83900
C  52.96400 28.28500 44.95600
C  51.80800 27.96400 44.31200
C  51.94300 26.60200 43.90200
C  53.25200 29.53000 45.64100
C  50.43000 28.36900 44.03300
O  49.82000 29.37700 44.22200
C  49.79500 27.07000 43.24100
C  49.37200 27.61300 42.02200
O  50.03400 28.00000 41.04000
O  47.99800 27.83200 42.21800
C  47.19000 28.34300 41.08300
H  51.41800 20.49200 42.35500
H  57.37300 21.74700 44.29000
H  55.75600 27.84500 45.46200
H  48.68400 24.63700 42.16000
H  49.85300 21.99800 41.20700
H  49.15200 22.05300 44.12700
H  48.54000 20.97100 42.74200
H  47.90300 22.55300 42.96900
H  49.87700 23.81100 39.77800
H  50.24000 25.55600 40.17400
H  48.24400 25.95500 39.07500
H  47.51200 25.36400 40.52400
H  54.15100 18.33100 41.43900
H  52.59900 18.86000 41.62600
H  53.18200 17.91300 42.90800
H  58.04800 18.32000 44.91000
H  57.07800 19.68900 45.48900
H  58.22600 19.77200 44.00600
H  58.32000 24.41000 43.68800
H  57.82700 25.92100 46.18400
H  58.74300 22.80500 45.97900
H  59.53700 24.43400 46.18400
H  59.92900 23.44900 44.88300
H  57.50100 27.37500 43.53900
H  58.97300 26.54000 43.69300
H  58.50400 28.00400 46.08300
H  58.60700 29.10400 44.67300
H  59.91200 28.08400 45.06300
H  53.47700 30.27600 44.87900
H  54.13300 29.40300 46.27000
H  52.40900 29.94200 46.19500
H  48.94200 26.76400 43.84600
H  47.72500 28.37600 40.13400
H  46.75000 29.33100 41.21700
H  46.46300 27.53100 41.05200

