158

Mg 25.47300 1.65400 29.46300
C  27.68400 1.31600 32.37100
C  22.86400 1.70700 31.56100
C  23.59800 2.06400 26.80100
C  28.21500 0.96600 27.52600
N  25.33000 1.41000 31.73400
C  26.30500 1.48000 32.70700
C  25.69600 1.69000 34.05600
C  24.12100 1.59300 33.84900
C  24.10400 1.56100 32.28000
C  23.37800 0.35600 34.45300
C  26.18100 2.87200 34.87300
C  26.76900 2.68700 36.26300
H  26.59300 3.80800 37.31900
N  23.44700 1.93900 29.27700
C  22.50400 1.85500 30.21900
C  21.19900 2.06500 29.76200
C  21.35900 2.20100 28.30300
C  22.85000 2.05300 28.06100
C  19.94800 2.06100 30.66100
C  20.29400 2.31800 27.19500
O  20.55800 2.49800 26.00400
C  18.82900 2.28000 27.65200
N  25.97600 1.72900 27.43100
C  24.96300 2.01800 26.52200
C  25.59000 2.09600 25.08700
C  27.06300 1.61800 25.33100
C  27.09200 1.34000 26.86900
C  24.85700 1.42800 23.86100
C  28.07200 2.68900 24.75300
C  28.29100 3.97700 25.64400
N  27.58600 1.31400 29.82400
C  28.55900 0.91900 28.92600
C  29.81500 0.67300 29.58200
C  29.55000 0.80400 30.93700
C  28.15800 1.20100 31.03600
C  31.15700 0.36600 28.83500
C  30.10700 0.77200 32.19400
O  31.19500 0.47200 32.62400
C  28.94000 1.16000 33.25800
C  28.94100 0.06700 34.18000
O  28.52400 -1.05500 33.92100
O  29.52200 0.43100 35.43500
C  29.35700 -0.65100 36.46000
H  22.14500 1.93400 32.35100
H  22.96800 2.09200 25.90900
H  29.09200 0.68600 26.93800
H  25.95600 0.84900 34.69800
H  23.65900 2.51500 34.20200
H  24.03000 -0.28500 35.04700
H  22.95700 -0.25900 33.65700
H  22.57600 0.75900 35.07100
H  25.55600 3.76400 34.90000
H  27.02700 3.24500 34.29500
H  27.83400 2.75400 36.04000
H  26.64800 1.66900 36.63600
H  20.21900 2.17500 31.71100
H  19.52200 1.06100 30.58800
H  19.20700 2.82400 30.42500
H  18.79000 1.28300 28.09200
H  18.14100 2.38700 26.81300
H  18.60700 3.11300 28.31900
H  25.53800 3.16900 24.90000
H  27.23900 0.68400 24.79600
H  24.00700 0.84900 24.21900
H  25.52900 0.71000 23.39200
H  24.59200 2.14700 23.08600
H  27.68900 3.06800 23.80600
H  28.97000 2.18400 24.39500
H  29.36900 4.11900 25.72200
H  27.80800 3.93200 26.62000
H  27.82900 4.79000 25.08400
H  31.25000 -0.68100 28.54700
H  32.01000 0.43600 29.51000
H  31.35300 0.98600 27.96000
H  29.17100 2.11900 33.72200
H  28.58900 -0.34800 37.17200
H  30.27700 -0.79700 37.02700
H  29.18000 -1.66100 36.09000
Mg 26.94800 49.84800 26.40500
C  24.67200 51.05400 28.84000
C  28.72400 48.50500 28.95500
C  29.08800 49.04800 24.04200
C  25.14400 51.67600 24.05300
N  26.66200 49.78100 28.61000
C  25.69300 50.28400 29.37800
C  25.76400 49.73900 30.84600
C  27.22900 49.22800 30.90900
C  27.57400 49.15000 29.36200
C  28.33100 49.94200 31.75900
C  24.58800 48.77600 31.35100
C  23.72500 49.35700 32.56400
H  23.91800 48.49100 33.77300
N  28.63800 48.85000 26.52600
C  29.28200 48.36900 27.63800
C  30.50900 47.77100 27.27500
C  30.63300 47.89600 25.86000
C  29.41100 48.59200 25.39000
C  31.42600 47.11100 28.29700
C  31.72700 47.43700 24.89700
O  31.51100 47.54100 23.69300
C  33.02000 46.84500 25.34300
N  27.10400 50.33600 24.43700
C  28.03400 49.80200 23.55200
C  27.92400 50.32500 22.07300
C  26.60200 51.17800 22.15300
C  26.27100 51.08200 23.65000
C  29.21000 50.96900 21.50700
C  25.34000 50.65700 21.33700
C  24.60800 51.76600 20.55900
N  25.19200 51.12800 26.38700
C  24.60400 51.74900 25.32100
C  23.43000 52.38000 25.75200
C  23.41900 52.15000 27.17800
C  24.52300 51.38300 27.51100
C  22.59800 53.26100 24.89000
C  22.72400 52.35800 28.36300
O  21.75400 53.02800 28.64100
C  23.43900 51.63900 29.48300
C  23.73100 52.48400 30.70800
O  24.66900 53.30600 30.84300
O  22.68300 52.44100 31.54400
C  22.63400 53.41600 32.66000
H  29.29300 48.00800 29.74400
H  29.64600 48.76600 23.14700
H  24.49000 52.20300 23.35500
H  25.87400 50.62000 31.47800
H  27.13900 48.24600 31.37300
H  28.99200 49.20700 32.21700
H  27.87800 50.61400 32.48800
H  28.93100 50.59200 31.12200
H  25.03300 47.78600 31.46000
H  23.80400 48.64400 30.60500
H  22.73900 49.32800 32.10100
H  23.99900 50.35200 32.91400
H  32.31600 47.74000 28.28700
H  31.57900 46.11500 27.88000
H  31.02400 47.07200 29.31000
H  33.57900 46.72100 24.41500
H  32.83600 45.94500 25.92900
H  33.58100 47.49100 26.01800
H  27.79800 49.48000 21.39700
H  26.86400 52.22000 21.97100
H  28.98400 52.00600 21.25800
H  29.73000 50.36700 20.76200
H  29.97400 50.98700 22.28300
H  24.68800 50.15900 22.05500
H  25.73500 49.98300 20.57700
H  23.61900 51.81800 21.01400
H  24.53200 51.42000 19.52800
H  25.06000 52.75600 20.61900
H  22.27500 54.06200 25.55500
H  21.69500 52.71600 24.61700
H  22.96000 53.66600 23.94500
H  22.83100 50.77900 29.76500
H  23.26500 54.29100 32.50400
H  23.07900 52.87200 33.49400
H  21.57800 53.66300 32.77000

