158

Mg 41.02800 8.09600 29.08200
C  42.64200 9.06900 32.01600
C  38.66600 6.68400 31.01000
C  39.50500 6.85400 26.21600
C  43.66900 9.30400 27.16100
N  40.69000 8.10200 31.28600
C  41.45500 8.45900 32.30400
C  40.69500 8.31700 33.67500
C  39.41600 7.53700 33.31500
C  39.60700 7.45200 31.77300
C  39.28300 6.08900 33.93300
C  40.32700 9.75300 34.21900
C  39.30400 9.93700 35.29300
H  39.75000 10.93700 36.40000
N  39.27100 6.95900 28.70500
C  38.43100 6.41400 29.67200
C  37.44200 5.67900 29.02900
C  37.57800 5.87800 27.65900
C  38.82700 6.59100 27.48700
C  36.36100 5.05800 29.79100
C  36.53500 5.59300 26.55400
O  36.74900 5.92000 25.38900
C  35.15900 4.95300 26.88700
N  41.45900 8.15800 26.89500
C  40.78400 7.52000 25.98300
C  41.50300 7.61300 24.64500
C  42.78000 8.52500 24.94400
C  42.66100 8.70000 26.44400
C  41.93400 6.20300 24.02400
C  43.01000 9.78200 24.02600
C  42.93900 11.15000 24.63200
N  42.85500 8.99300 29.42000
C  43.81500 9.44800 28.52300
C  44.94700 10.01200 29.29900
C  44.44200 9.98600 30.64900
C  43.25600 9.28400 30.67200
C  46.17500 10.75200 28.79100
C  44.79700 10.37800 32.04300
O  45.80700 10.89300 32.47600
C  43.57500 9.85500 32.96100
C  44.19000 9.06700 34.01900
O  44.95300 8.11200 33.80500
O  43.55200 9.31200 35.17700
C  43.84100 8.36800 36.30400
H  37.97400 6.14600 31.66100
H  39.14800 6.45600 25.26400
H  44.39000 9.70400 26.44500
H  41.22600 7.84700 34.50300
H  38.49100 8.08200 33.50400
H  39.54500 5.27800 33.25300
H  38.24000 5.94600 34.21400
H  39.80900 6.10300 34.88700
H  40.12600 10.41200 33.37400
H  41.26000 10.10600 34.65900
H  38.78400 9.09200 35.74400
H  38.49800 10.50500 34.82700
H  36.54700 5.09200 30.86400
H  36.27600 3.99600 29.56000
H  35.43700 5.61400 29.63200
H  35.13200 4.05300 27.50100
H  34.73700 4.56600 25.96000
H  34.49900 5.78100 27.14500
H  40.91400 8.03400 23.83100
H  43.63200 7.84500 24.92300
H  41.39800 6.05200 23.08700
H  41.74000 5.43300 24.77000
H  42.99300 6.05000 23.81500
H  42.27600 9.63300 23.23400
H  44.01700 9.73400 23.61100
H  42.53500 10.99400 25.63200
H  42.25700 11.78500 24.06700
H  43.88600 11.68900 24.61200
H  45.92900 11.45600 27.99600
H  46.79800 10.05600 28.23000
H  46.72900 11.25200 29.58600
H  43.08700 10.74800 33.35100
H  44.89600 8.43900 36.56900
H  43.59500 7.31900 36.14200
H  43.21000 8.76500 37.09900
Mg 47.92300 34.15400 26.89700
C  46.03700 32.50100 29.36200
C  48.21600 36.87200 29.02600
C  49.31800 35.77300 24.47400
C  47.25100 31.47500 24.76200
N  47.28100 34.64800 28.97100
C  46.52700 33.78000 29.80200
C  46.64700 34.30300 31.19200
C  46.76300 35.89300 30.96600
C  47.45600 35.84900 29.57900
C  45.40200 36.67200 31.03100
C  47.88500 33.70400 31.90400
C  47.75100 33.71800 33.47000
H  48.39700 34.88500 34.23900
N  48.71800 36.11600 26.77000
C  48.79800 37.07200 27.71000
C  49.51600 38.19900 27.25100
C  49.87100 37.90500 25.87000
C  49.20400 36.55100 25.64000
C  49.69700 39.35700 28.24700
C  50.65800 38.71000 24.81800
O  50.84200 38.24900 23.69700
C  51.23800 40.04400 25.12200
N  47.86700 33.82200 24.84700
C  48.70000 34.58100 24.13100
C  49.02300 33.98600 22.72900
C  48.50700 32.50300 22.80800
C  47.89400 32.56300 24.24800
C  48.35600 34.77000 21.51100
C  49.50700 31.39700 22.58300
C  50.24800 30.79500 23.89400
N  46.93700 32.22800 27.02900
C  46.69800 31.27600 26.07000
C  46.08100 30.11200 26.73100
C  45.71200 30.63900 27.94600
C  46.27400 31.91900 28.08700
C  45.92700 28.67800 26.14500
C  44.90800 30.33500 29.07400
O  44.18300 29.37900 29.35100
C  44.95800 31.66900 30.01600
C  45.23900 31.22200 31.40700
O  46.07100 30.39800 31.75500
O  44.29300 31.80400 32.32900
C  44.58900 31.49000 33.75300
H  48.11700 37.76400 29.64700
H  49.91400 36.19400 23.66100
H  47.30600 30.61000 24.09700
H  45.78600 33.94300 31.75400
H  47.37800 36.30700 31.76500
H  45.10300 37.18700 30.11800
H  45.59800 37.52500 31.68000
H  44.64100 36.00300 31.43300
H  48.78500 34.21000 31.55600
H  47.98200 32.63600 31.70800
H  48.00600 32.70800 33.79200
H  46.70100 33.89200 33.70300
H  50.44600 40.07400 27.91000
H  49.96800 38.93400 29.21400
H  48.68800 39.76800 28.22800
H  51.89000 40.21400 24.26500
H  51.85200 39.97000 26.01900
H  50.61300 40.92200 25.28300
H  50.08800 33.96600 22.49900
H  47.70500 32.35400 22.08400
H  47.97800 34.01100 20.82600
H  49.13400 35.22500 20.89900
H  47.55200 35.40800 21.87900
H  50.33500 31.73300 21.96000
H  49.09100 30.54800 22.04100
H  51.32600 30.90700 23.78100
H  49.96900 29.74300 23.94600
H  50.17700 31.53000 24.69600
H  44.86600 28.45300 26.03800
H  46.33000 27.99500 26.89300
H  46.45500 28.64400 25.19200
H  43.94000 32.03400 29.88300
H  44.46600 32.40100 34.33900
H  45.58900 31.12800 33.99400
H  43.86100 30.77800 34.14200

