158

Mg 9.64600 48.59200 26.06500
C  7.72200 48.70200 28.94100
C  12.12100 50.07500 27.80100
C  11.41300 48.91700 23.14400
C  6.79400 47.84100 24.17400
N  9.79200 49.44200 28.13400
C  8.99400 49.21200 29.20000
C  9.59700 49.65200 30.49100
C  10.77800 50.49600 29.94500
C  10.94300 49.99400 28.50000
C  10.43800 51.98400 30.02400
C  10.05000 48.42300 31.35800
C  10.34000 48.75800 32.83300
H  9.93800 47.64500 33.89800
N  11.54300 49.21900 25.60200
C  12.46100 49.71400 26.48600
C  13.71900 49.89900 25.79600
C  13.55700 49.32400 24.50300
C  12.09900 49.11900 24.38300
C  14.96700 50.46700 26.53500
C  14.59800 48.88000 23.49400
O  14.25900 48.40100 22.40200
C  16.06300 48.81200 23.89400
N  9.21200 48.35800 23.95000
C  10.08000 48.52300 22.94400
C  9.51200 48.17500 21.56900
C  8.12400 47.52400 21.99000
C  7.98900 47.97300 23.45600
C  9.28200 49.29600 20.58200
C  8.15700 45.94100 21.83500
C  8.74600 45.06200 22.94700
N  7.65600 48.40300 26.40800
C  6.63300 48.05500 25.53500
C  5.42000 47.82700 26.26000
C  5.84800 48.03600 27.61000
C  7.19600 48.41400 27.65600
C  4.09200 47.55500 25.70300
C  5.30900 48.12500 28.90600
O  4.19600 47.98400 29.34800
C  6.55600 48.43700 29.88900
C  6.75900 47.17100 30.67000
O  7.20000 46.08700 30.24100
O  6.35400 47.40900 31.97800
C  6.60300 46.28400 32.86300
H  12.96700 50.50900 28.33700
H  12.00500 49.04900 22.23700
H  5.95800 47.53600 23.54200
H  8.88500 50.21200 31.09800
H  11.70300 50.21800 30.45000
H  9.37000 52.18600 30.11300
H  10.91900 52.54200 29.22100
H  10.86200 52.38700 30.94300
H  11.00600 48.13900 30.91900
H  9.39100 47.57300 31.17900
H  9.91100 49.69600 33.18400
H  11.40500 48.90600 33.01100
H  15.50800 49.65100 27.01300
H  14.69100 51.16100 27.32900
H  15.70400 50.93100 25.87900
H  16.08000 48.45400 24.92300
H  16.42900 49.83900 23.86000
H  16.60400 48.13100 23.23600
H  10.17300 47.42200 21.14000
H  7.23300 47.91300 21.49800
H  9.53900 50.23800 21.06700
H  8.23800 49.39700 20.28400
H  9.94600 49.24100 19.72000
H  8.84700 45.67000 21.03600
H  7.17100 45.73100 21.42000
H  8.17700 44.18200 23.24500
H  9.07300 45.74200 23.73400
H  9.73300 44.68400 22.67900
H  3.87600 48.34400 24.98200
H  3.45200 47.73100 26.56700
H  3.98800 46.52400 25.36600
H  6.32100 49.26900 30.55200
H  7.55500 45.82600 32.59300
H  5.77200 45.58000 32.89300
H  6.59800 46.75400 33.84600
Mg -10.95300 15.61700 41.63400
C  -7.85700 14.07900 41.21800
C  -9.52100 18.51700 40.28700
C  -13.92800 16.82800 41.04700
C  -12.24900 12.48800 42.44400
N  -8.85000 16.27300 41.06100
C  -7.88500 15.39300 40.86000
C  -6.68000 16.14400 40.14600
C  -7.13500 17.63100 40.13000
C  -8.58000 17.49300 40.56200
C  -6.34100 18.71500 40.94100
C  -6.34400 15.58500 38.69000
C  -4.85700 15.42600 38.36600
H  -4.38000 16.26400 37.12200
N  -11.63900 17.43800 40.82700
C  -10.91200 18.44600 40.34000
C  -11.78100 19.57400 40.02200
C  -13.14100 19.13000 40.14100
C  -12.96500 17.74800 40.66800
C  -11.28600 21.00000 39.73000
C  -14.37200 19.95800 39.99000
O  -14.36900 21.14000 39.73000
C  -15.73200 19.31200 40.17100
N  -12.82800 14.73200 41.70000
C  -13.93700 15.45000 41.44300
C  -15.24300 14.68100 41.69100
C  -14.74900 13.37000 42.32400
C  -13.21400 13.43700 42.07700
C  -16.20000 15.51600 42.62000
C  -15.40300 12.03600 41.86600
C  -16.00400 11.06700 42.94300
N  -10.23100 13.75100 42.07400
C  -10.85900 12.62700 42.46900
C  -9.86500 11.62500 42.59200
C  -8.62700 12.14600 42.10800
C  -8.97200 13.40200 41.69900
C  -10.15900 10.22600 42.98200
C  -7.25100 11.77400 41.68100
O  -6.73000 10.65300 41.61400
C  -6.66900 13.06500 41.09200
C  -5.57700 13.42800 41.98700
O  -5.63200 13.65000 43.16600
O  -4.38000 13.25500 41.36300
C  -3.13800 13.57800 42.13300
H  -8.99500 19.32300 39.77100
H  -14.91900 17.27600 40.94800
H  -12.71200 11.50300 42.53600
H  -5.74300 15.93500 40.66400
H  -7.18400 17.96100 39.09200
H  -5.25900 18.59900 41.00000
H  -6.83400 18.81400 41.90800
H  -6.42600 19.70900 40.49900
H  -6.79700 16.21400 37.92400
H  -6.79400 14.60000 38.56100
H  -4.66800 14.41100 38.01600
H  -4.27200 15.70300 39.24300
H  -11.07000 21.26900 38.69600
H  -10.26400 21.01600 40.10800
H  -11.89000 21.81100 40.13700
H  -15.80600 18.46000 39.49500
H  -16.59600 19.89700 39.85600
H  -15.90500 19.05900 41.21700
H  -15.68700 14.51200 40.71000
H  -14.84400 13.40800 43.40900
H  -15.67600 16.40900 42.96300
H  -16.36400 14.89200 43.49800
H  -17.15400 15.71900 42.13300
H  -14.73000 11.49400 41.20100
H  -16.24100 12.38600 41.26300
H  -15.92400 11.54000 43.92100
H  -15.43400 10.14100 42.86800
H  -17.06500 10.87000 42.78900
H  -11.07400 9.85000 42.52500
H  -10.33300 10.28000 44.05700
H  -9.28900 9.69700 42.59200
H  -6.22300 12.76800 40.14300
H  -2.44300 13.61700 41.29400
H  -2.91200 12.82400 42.88800
H  -3.36900 14.49000 42.68200

