158

Mg 1.27200 8.55000 27.09500
C  1.87000 10.76200 29.91500
C  1.45700 5.95400 29.32300
C  1.46200 6.49800 24.42900
C  1.51100 11.29100 25.09400
N  1.71000 8.38900 29.39100
C  1.85600 9.35600 30.27900
C  1.69600 8.83600 31.68900
C  1.98700 7.31700 31.57900
C  1.67900 7.21100 30.04300
C  3.33700 6.71400 31.85600
C  0.31800 9.18800 32.30400
C  0.25200 9.26500 33.85000
H  1.29400 8.53400 34.69600
N  1.31400 6.51900 26.90500
C  1.27000 5.62500 27.93300
C  1.20900 4.26800 27.37700
C  1.29600 4.42800 25.95200
C  1.33200 5.85900 25.71800
C  1.11400 3.08200 28.22400
C  1.22000 3.40300 24.82500
O  1.35500 3.68400 23.58900
C  0.76200 2.01300 25.19200
N  1.67800 8.90400 24.98000
C  1.57100 7.85300 24.10000
C  1.55800 8.37900 22.63700
C  1.32300 9.88200 22.88900
C  1.45100 10.07500 24.39600
C  2.82800 7.98700 21.81100
C  0.03100 10.47400 22.25900
C  -1.20500 10.74200 23.09700
N  1.58300 10.59600 27.42800
C  1.63100 11.59000 26.45900
C  1.61600 12.91300 27.12500
C  1.74700 12.59600 28.51400
C  1.66800 11.23000 28.64300
C  1.70300 14.24800 26.61700
C  1.98800 13.15900 29.81800
O  2.17200 14.32400 30.20800
C  1.97900 11.99600 30.81800
C  3.08000 12.04400 31.74400
O  4.23700 11.69300 31.51500
O  2.67300 12.49900 32.95300
C  3.66100 12.47700 34.09400
H  1.50800 5.09100 29.99100
H  1.48700 5.95700 23.48100
H  1.36500 12.23400 24.56200
H  2.47600 9.37000 32.23100
H  1.24800 6.77600 32.17200
H  3.77400 6.14400 31.03600
H  3.18700 5.90100 32.56600
H  4.01100 7.52300 32.13800
H  -0.51900 8.56300 31.99200
H  0.07400 10.14800 31.84800
H  -0.82100 9.18900 34.02900
H  0.42300 10.29100 34.17500
H  0.17000 2.57800 28.01500
H  1.04700 3.33500 29.28200
H  2.01200 2.51200 27.98600
H  0.63500 1.46600 24.25800
H  -0.20500 2.08200 25.69200
H  1.38600 1.43700 25.87600
H  0.70800 7.91000 22.14100
H  2.10300 10.50900 22.45700
H  3.51000 7.55100 22.54000
H  3.32400 8.86400 21.39500
H  2.51300 7.25100 21.07100
H  -0.34700 9.71800 21.57100
H  0.24400 11.36300 21.66500
H  -2.00400 10.22000 22.57100
H  -1.38500 11.81700 23.11600
H  -1.25200 10.45600 24.14800
H  2.69600 14.55600 26.29100
H  1.44200 14.92300 27.43300
H  0.96500 14.58900 25.89100
H  1.03800 12.12800 31.35300
H  4.45200 11.74200 33.94600
H  3.09600 12.29600 35.00900
H  4.12700 13.45400 34.22600
Mg -10.39200 17.49200 40.96000
C  -6.69400 17.52700 40.62800
C  -10.17700 20.80600 40.25500
C  -13.64400 17.35200 40.21600
C  -10.21800 13.97400 41.07600
N  -8.56200 18.97100 40.59200
C  -7.22900 18.81200 40.49600
C  -6.51300 20.14100 40.13100
C  -7.57800 21.19500 40.50000
C  -8.87400 20.27000 40.47400
C  -7.39700 21.85700 41.86600
C  -5.98300 20.18200 38.62100
C  -4.55700 19.88500 38.37400
H  -4.33300 18.90600 37.29300
N  -11.76100 18.87600 40.42600
C  -11.50700 20.21600 40.17800
C  -12.72600 20.87500 39.88400
C  -13.76600 19.89300 39.87100
C  -13.06700 18.61200 40.12000
C  -12.66100 22.36800 39.44300
C  -15.26800 20.18700 39.61500
O  -15.69200 21.30200 39.55800
C  -16.28300 19.07500 39.60600
N  -11.78300 15.82500 40.73500
C  -13.06000 16.08700 40.52600
C  -13.84600 14.74800 40.43100
C  -12.72800 13.70800 40.82500
C  -11.45600 14.52700 40.83000
C  -15.09000 14.71300 41.28000
C  -12.52900 12.58800 39.74700
C  -13.74000 11.66800 39.51200
N  -8.82800 16.03500 40.99300
C  -9.00100 14.63100 41.07000
C  -7.67600 13.98000 41.10100
C  -6.73600 15.06900 41.05000
C  -7.52100 16.30000 40.87300
C  -7.30800 12.47400 41.15500
C  -5.31200 15.52000 41.17800
O  -4.34500 14.90700 41.53000
C  -5.23900 17.08100 40.85400
C  -4.50900 17.86200 41.81700
O  -3.45300 18.45100 41.60700
O  -5.18800 17.80500 43.02100
C  -4.59000 18.50100 44.21100
H  -10.11900 21.89000 40.38100
H  -14.70500 17.31100 39.96200
H  -10.14200 12.88500 41.10500
H  -5.64400 20.25300 40.77900
H  -7.75500 21.96400 39.74800
H  -6.43200 21.61900 42.31400
H  -8.27800 21.68200 42.48300
H  -7.28300 22.93400 41.74600
H  -6.10200 21.23300 38.35900
H  -6.65700 19.55300 38.04000
H  -3.99400 19.39700 39.17000
H  -3.98500 20.75100 38.04100
H  -13.63200 22.77100 39.15500
H  -12.01300 22.61000 38.60000
H  -12.26200 22.95100 40.27200
H  -16.02700 18.54500 38.68800
H  -17.23700 19.58900 39.49200
H  -16.14800 18.49700 40.51900
H  -14.11000 14.72700 39.37300
H  -12.92400 13.26500 41.80100
H  -15.96700 14.72400 40.63300
H  -15.04100 15.58700 41.93000
H  -15.17300 13.75100 41.78700
H  -11.71600 11.91600 40.02200
H  -12.29000 13.06900 38.79900
H  -13.98400 11.63000 38.45000
H  -14.62600 11.89900 40.10300
H  -13.60900 10.63300 39.82900
H  -6.89700 12.04300 40.24200
H  -8.17100 11.86900 41.43500
H  -6.55300 12.29500 41.92000
H  -4.79300 17.16000 39.86300
H  -5.41500 18.51700 44.92300
H  -4.05200 19.41300 43.95600
H  -3.77500 17.91900 44.64300

