158

Mg 54.40200 23.58400 44.08000
C  51.67800 25.72200 43.11900
C  52.80400 20.95100 42.51900
C  57.30000 22.08400 43.69200
C  55.86600 26.56600 45.11100
N  52.59900 23.42900 42.71700
C  51.57600 24.37300 42.50300
C  50.32600 23.81200 41.94500
C  50.57700 22.26400 42.22400
C  52.05200 22.15200 42.52100
C  49.86300 21.82100 43.53900
C  50.07900 24.04000 40.38400
C  51.28100 24.17000 39.37800
H  50.97900 25.05800 38.08200
N  54.93700 21.69700 43.43400
C  54.12800 20.76700 42.83900
C  54.83700 19.51100 42.86400
C  56.18500 19.82500 43.01200
C  56.16600 21.28100 43.43200
C  54.22800 18.18400 42.33300
C  57.36700 18.85000 42.86300
O  57.16300 17.64800 42.57800
C  58.74300 19.31500 43.04100
N  56.27800 24.33900 44.08700
C  57.32700 23.46300 44.07200
C  58.61600 24.15500 44.55700
C  58.17700 25.57800 45.06500
C  56.66600 25.49300 44.74800
C  59.49300 23.41900 45.68000
C  58.87700 26.76000 44.33400
C  59.19100 27.94300 45.32000
N  53.78800 25.54600 44.54800
C  54.51200 26.70200 44.95000
C  53.66800 27.90500 44.98500
C  52.53300 27.49300 44.34600
C  52.69500 26.12200 43.99800
C  53.99400 29.32300 45.48500
C  51.29800 28.00800 43.83800
O  50.89700 29.19400 43.87000
C  50.58800 26.85100 43.07000
C  50.18900 27.30100 41.70500
O  50.93000 27.51100 40.73800
O  48.87400 27.45900 41.79700
C  48.18900 28.05900 40.66100
H  52.28200 20.03200 42.24400
H  58.26900 21.60400 43.84800
H  56.36300 27.50100 45.37800
H  49.42100 24.22000 42.39400
H  50.36700 21.65600 41.34300
H  49.63000 22.74500 44.06800
H  50.37000 21.10300 44.18400
H  48.92500 21.36000 43.23000
H  49.45000 24.91700 40.23000
H  49.47600 23.24300 39.94800
H  51.62100 23.17100 39.10500
H  52.19300 24.53200 39.85200
H  53.17300 18.03300 42.56100
H  54.68000 17.26800 42.71300
H  54.17500 18.23100 41.24500
H  58.94800 19.38400 44.10900
H  58.95000 20.21200 42.45800
H  59.39700 18.47600 42.80400
H  59.17200 24.29400 43.63000
H  58.31500 25.63700 46.14500
H  60.46000 23.35000 45.18200
H  59.09500 22.42700 45.89200
H  59.62900 23.96300 46.61500
H  58.26200 27.20000 43.54800
H  59.87700 26.55800 43.95000
H  58.97200 27.69300 46.35800
H  58.60900 28.80100 44.98400
H  60.26600 28.11400 45.27400
H  54.87800 29.30500 46.12400
H  53.23500 29.77900 46.12000
H  54.22200 29.89800 44.58700
H  49.76800 26.50400 43.70000
H  48.64300 29.02600 40.44700
H  47.13300 27.83400 40.81300
H  48.55300 27.47600 39.81500
Mg 48.02500 35.29100 27.06700
C  46.23900 33.41800 29.57700
C  48.14700 37.80100 29.33000
C  49.11700 37.07100 24.49600
C  47.00600 32.69500 24.83000
N  47.33300 35.50800 29.24800
C  46.74000 34.60600 30.04800
C  46.72100 35.08500 31.52700
C  46.98900 36.64200 31.33300
C  47.54000 36.67500 29.90400
C  45.73500 37.55900 31.60000
C  47.97100 34.43900 32.26400
C  47.95000 34.37000 33.81900
H  47.02300 35.34800 34.51500
N  48.68800 37.14500 26.96600
C  48.79000 38.04400 28.03500
C  49.51100 39.22800 27.55200
C  49.73300 39.01200 26.11100
C  49.16400 37.68400 25.74700
C  49.78600 40.46100 28.40400
C  50.51400 39.90700 25.11200
O  50.66600 39.58700 23.97100
C  51.01400 41.23300 25.63600
N  48.05900 34.89000 25.01100
C  48.61600 35.81900 24.14600
C  48.66000 35.37100 22.75200
C  47.97600 33.93900 22.86500
C  47.66500 33.80000 24.34600
C  47.85900 36.31800 21.81300
C  48.98400 32.82500 22.42900
C  50.13600 32.44500 23.30700
N  47.08500 33.32900 27.18900
C  46.75600 32.40400 26.15300
C  46.11200 31.23700 26.78200
C  45.81900 31.55900 28.02800
C  46.41000 32.85000 28.27300
C  45.74700 29.95600 26.03300
C  45.11700 31.14100 29.23700
O  44.52400 30.16800 29.54100
C  45.39100 32.32100 30.26400
C  45.74500 31.94100 31.62600
O  46.82700 31.36000 31.83300
O  44.96900 32.30800 32.66500
C  45.17500 31.63800 33.94700
H  48.13500 38.62400 30.04800
H  49.57200 37.59800 23.65400
H  46.58000 31.95400 24.15200
H  45.75000 34.90600 31.99000
H  47.83800 37.00500 31.91100
H  44.95700 37.06900 32.18500
H  45.34100 38.00100 30.68400
H  46.00100 38.36200 32.28700
H  48.88700 34.96100 31.98600
H  48.13800 33.44300 31.85500
H  48.92400 34.42100 34.30600
H  47.59700 33.39100 34.14100
H  49.37400 40.17900 29.37300
H  49.22200 41.30900 28.01600
H  50.83600 40.60100 28.66100
H  50.24400 41.87600 26.06500
H  51.33800 41.77100 24.74500
H  51.79800 41.08500 26.37900
H  49.68200 35.43100 22.37900
H  47.07800 33.89900 22.24900
H  47.53700 37.12000 22.47800
H  47.00900 35.80900 21.36000
H  48.52800 36.65100 21.01900
H  49.38300 33.25500 21.51100
H  48.38300 31.94100 22.21400
H  51.11300 32.61900 22.85600
H  50.00200 31.36700 23.40300
H  50.14200 32.94400 24.27600
H  46.53900 29.29600 26.38700
H  45.71100 30.12200 24.95600
H  44.84100 29.46700 26.39100
H  44.37600 32.70000 30.38400
H  44.77600 30.62300 33.94200
H  44.70900 32.27300 34.70100
H  46.22700 31.51100 34.20200

