158

Mg -1.19200 18.17200 27.52400
C  -1.76300 15.80300 30.05800
C  -1.60900 20.68500 30.02600
C  -1.42900 20.46700 25.13400
C  -1.32000 15.61500 25.11900
N  -1.64500 18.22700 29.81000
C  -1.72900 17.10500 30.58200
C  -1.81500 17.54200 32.06600
C  -2.05200 19.08900 31.99100
C  -1.67100 19.36500 30.53900
C  -3.45400 19.61800 32.42500
C  -0.58200 17.03900 32.88700
C  -0.29200 17.68400 34.24000
H  0.41100 16.78200 35.33900
N  -1.36600 20.30400 27.61400
C  -1.51300 21.17700 28.67000
C  -1.60800 22.50300 28.18300
C  -1.79900 22.39700 26.76600
C  -1.54600 21.01100 26.44900
C  -1.65900 23.70000 29.07100
C  -2.23400 23.38400 25.72700
O  -2.47100 23.19100 24.53600
C  -2.45000 24.80400 26.20200
N  -1.42700 18.03500 25.50100
C  -1.35900 19.16300 24.73500
C  -1.21500 18.78300 23.28800
C  -0.96800 17.25600 23.31200
C  -1.23200 16.94000 24.74700
C  -2.51700 19.13500 22.46100
C  0.49100 16.83000 22.95300
C  1.70500 17.33400 23.87300
N  -1.35400 16.07400 27.47800
C  -1.54500 15.12800 26.44200
C  -1.67100 13.83700 26.99800
C  -1.81700 14.00400 28.40700
C  -1.68600 15.42100 28.65000
C  -1.81100 12.57800 26.21200
C  -1.99900 13.36800 29.71300
O  -2.21500 12.20100 30.00200
C  -1.79200 14.47900 30.82100
C  -0.62600 14.03100 31.65200
O  0.52000 14.17900 31.26500
O  -1.13100 13.43200 32.79000
C  -0.16100 12.53800 33.53700
H  -1.56400 21.50600 30.74500
H  -1.35700 21.13100 24.26900
H  -1.26300 14.84100 24.35100
H  -2.69100 17.07900 32.51900
H  -1.34000 19.54100 32.68100
H  -3.37400 20.42000 33.15900
H  -4.06400 18.87700 32.94200
H  -4.02400 20.07400 31.61600
H  0.29100 16.99200 32.23700
H  -0.77400 16.02200 33.22800
H  -1.25100 18.07800 34.57600
H  0.20000 18.64400 34.08400
H  -2.67800 24.05600 29.22500
H  -1.15400 24.49700 28.52500
H  -1.25800 23.46500 30.05600
H  -3.01100 25.38200 25.46800
H  -1.47000 25.23000 26.41500
H  -2.99800 24.68600 27.13700
H  -0.32200 19.24400 22.86700
H  -1.65100 16.70500 22.66500
H  -2.22600 19.85200 21.69200
H  -3.22000 19.54800 23.18500
H  -2.97800 18.34800 21.86400
H  0.62800 17.12400 21.91200
H  0.50700 15.75200 23.11300
H  1.40200 17.87000 24.77200
H  2.33700 17.97200 23.25500
H  2.38600 16.58100 24.26900
H  -1.68400 12.46400 25.13600
H  -2.87500 12.35300 26.28500
H  -1.35800 11.69700 26.66800
H  -2.72600 14.52900 31.38100
H  0.38500 11.80400 32.94400
H  -0.74200 11.93500 34.23500
H  0.51800 13.13100 34.14900
Mg 6.22100 54.27900 39.38200
C  5.66900 50.74300 39.50800
C  9.28800 53.53800 38.23200
C  6.55000 57.53700 38.80200
C  2.83000 54.68500 40.09500
N  7.32100 52.26400 38.71000
C  6.91200 50.99400 38.87500
C  8.10700 50.01500 38.58300
C  9.40700 51.00200 38.57000
C  8.63100 52.35000 38.54000
C  10.36600 50.93100 39.74200
C  7.94500 49.31200 37.17500
C  7.47000 50.10100 35.96600
H  6.00400 50.21100 35.48100
N  7.71300 55.37100 38.64100
C  8.90900 54.93500 38.19100
C  9.85300 56.11600 38.06700
C  9.09600 57.25800 38.21700
C  7.69900 56.77600 38.56700
C  11.22900 55.94500 37.55500
C  9.56400 58.70000 38.16700
O  10.74500 58.83100 37.93000
C  8.70900 59.94900 38.22200
N  4.77300 55.84200 39.19200
C  5.23200 57.09300 38.99500
C  4.13800 58.13600 39.34200
C  2.94900 57.17100 39.66600
C  3.53700 55.77100 39.60600
C  4.50100 59.21400 40.47000
C  1.74500 57.36700 38.66500
C  0.82700 58.58100 39.07300
N  4.45800 53.02100 39.66700
C  3.27500 53.34000 40.15400
C  2.53000 52.13600 40.46900
C  3.46600 51.07800 40.28100
C  4.61700 51.64900 39.71600
C  1.03400 52.07800 40.88200
C  3.67000 49.62800 40.46400
O  2.96700 48.73400 40.89300
C  5.13100 49.35100 39.88900
C  4.79700 48.46400 38.68400
O  4.14000 48.81900 37.74100
O  5.41600 47.23600 38.75400
C  4.96200 46.10100 37.91900
H  10.30200 53.37100 37.86200
H  6.75600 58.60900 38.76600
H  1.83900 54.80000 40.54000
H  8.21600 49.26500 39.36600
H  10.05400 50.83800 37.70800
H  11.29700 50.73100 39.21300
H  10.11900 50.16300 40.47500
H  10.51300 51.87700 40.26500
H  7.18600 48.54900 37.34300
H  8.90200 48.80400 37.05700
H  8.09900 49.69200 35.17600
H  7.76800 51.10900 36.25600
H  11.93600 55.94700 38.38500
H  11.39700 56.72600 36.81400
H  11.35200 55.00300 37.02000
H  9.29000 60.84800 38.01200
H  8.19300 59.98000 39.18200
H  7.98100 59.70800 37.44800
H  4.01800 58.68800 38.41000
H  2.72400 57.36400 40.71500
H  5.57600 59.16500 40.64400
H  4.04300 59.01200 41.43800
H  4.39500 60.24500 40.13300
H  1.05700 56.52400 38.61100
H  2.09600 57.51200 37.64300
H  -0.02200 58.10900 39.56900
H  0.27400 59.02500 38.24600
H  1.30000 59.25200 39.79000
H  0.53500 53.04500 40.93700
H  0.88100 51.55800 41.82700
H  0.51900 51.43400 40.16900
H  5.68500 48.58100 40.42500
H  3.90100 45.92200 38.09400
H  5.53500 45.21400 38.18900
H  5.06100 46.33800 36.85900

