158

Mg 25.37900 -7.44400 47.92800
C  27.72900 -4.98800 46.92700
C  23.32600 -6.50400 45.28900
C  23.57700 -10.23200 48.36000
C  27.81700 -8.74600 50.02400
N  25.59000 -6.07700 46.11500
C  26.61200 -5.07800 45.97900
C  26.32600 -4.05500 44.90200
C  24.82800 -4.45000 44.60400
C  24.56700 -5.80600 45.28200
C  23.76500 -3.31500 45.01100
C  27.34300 -4.34200 43.80900
C  28.23300 -3.17700 43.24900
H  27.80600 -2.62200 41.83900
N  23.61400 -8.23300 46.98600
C  22.90400 -7.65900 46.00800
C  21.75800 -8.48600 45.76800
C  21.75000 -9.50500 46.76900
C  22.98200 -9.39300 47.43600
C  20.71000 -8.12200 44.69300
C  20.56700 -10.57200 46.88700
O  19.50900 -10.42800 46.33400
C  20.56500 -11.73200 47.92400
N  25.52900 -9.16000 49.16500
C  24.64700 -10.17100 49.14700
C  25.13200 -11.32600 50.04400
C  26.50700 -10.87700 50.63700
C  26.65900 -9.47700 49.97200
C  24.06300 -11.58900 51.15100
C  27.67200 -11.88700 50.31800
C  28.56200 -12.14300 51.52600
N  27.32100 -6.79500 48.66200
C  28.18000 -7.51300 49.46300
C  29.48800 -6.85000 49.36600
C  29.33100 -5.72400 48.60500
C  28.00800 -5.81400 48.04300
C  30.72900 -7.35500 49.98900
C  29.96700 -4.55100 48.00800
O  31.10300 -4.10200 48.17600
C  28.93600 -3.94200 47.00600
C  28.55200 -2.55500 47.40100
O  27.83800 -2.26900 48.30100
O  28.93900 -1.72200 46.37800
C  28.35900 -0.38600 46.38600
H  22.61300 -6.12100 44.55600
H  22.95300 -11.10700 48.55900
H  28.59900 -9.25000 50.59600
H  26.56100 -3.09400 45.35800
H  24.73500 -4.64200 43.53500
H  24.24100 -2.41300 45.39800
H  23.12800 -3.72200 45.79600
H  23.25600 -2.96700 44.11200
H  26.80900 -4.71000 42.93300
H  28.01600 -5.15600 44.07800
H  29.20100 -3.65900 43.11300
H  28.31100 -2.44900 44.05700
H  20.30100 -9.01000 44.20900
H  21.10700 -7.41700 43.96300
H  19.91600 -7.58300 45.21100
H  20.74000 -11.35600 48.93200
H  21.36100 -12.40500 47.60400
H  19.56500 -12.16500 47.95000
H  25.22000 -12.18500 49.37900
H  26.48600 -10.68200 51.70900
H  23.45400 -12.45300 50.88500
H  23.32100 -10.79500 51.06700
H  24.62300 -11.81300 52.05900
H  28.23100 -11.54500 49.44700
H  27.31900 -12.86200 49.98100
H  28.96600 -13.15000 51.42500
H  28.00700 -11.92700 52.43900
H  29.41300 -11.46700 51.43200
H  31.35400 -6.48600 50.19300
H  31.28500 -7.90900 49.23300
H  30.57300 -7.90600 50.91600
H  29.32100 -3.91500 45.98600
H  28.52000 -0.06100 45.35800
H  29.01800 0.28600 46.93400
H  27.31300 -0.27200 46.67200
Mg 17.97000 -1.85900 27.60300
C  17.18900 0.23000 30.32000
C  19.88600 -3.77300 29.70500
C  18.94000 -3.54100 24.92500
C  16.08300 0.45800 25.54800
N  18.42700 -1.76500 29.80700
C  17.98100 -0.83100 30.67100
C  18.41400 -1.17400 32.06200
C  19.49100 -2.30500 31.95800
C  19.33100 -2.61000 30.40000
C  20.93100 -2.08100 32.30100
C  17.20100 -1.70300 32.95400
C  17.08000 -1.10800 34.38600
H  18.31400 -0.43300 35.04300
N  19.22400 -3.49700 27.37100
C  19.79700 -4.19400 28.34600
C  20.40200 -5.41700 27.75700
C  20.30200 -5.25400 26.38700
C  19.49300 -4.06700 26.14800
C  21.00700 -6.36800 28.68200
C  20.79900 -6.23800 25.23600
O  20.66200 -5.98100 24.04600
C  21.45500 -7.55300 25.46600
N  17.55400 -1.59100 25.57200
C  18.12300 -2.36900 24.63700
C  17.67900 -1.97200 23.23100
C  16.57500 -0.85900 23.50800
C  16.75400 -0.62800 25.01600
C  18.80200 -1.56100 22.31400
C  15.13800 -1.14400 23.03000
C  14.55600 -0.10700 22.03500
N  16.89500 -0.05600 27.83300
C  16.12700 0.71900 26.93300
C  15.45500 1.85100 27.56700
C  15.91700 1.71100 28.90800
C  16.74100 0.55100 29.03300
C  14.61400 3.01100 27.01800
C  15.78900 2.16500 30.22600
O  15.23800 3.17000 30.58200
C  16.48700 1.25800 31.21100
C  17.45500 1.99700 32.06200
O  18.46100 2.57300 31.61900
O  16.82900 2.26200 33.26000
C  17.52500 3.28500 34.05600
H  20.60100 -4.33200 30.31300
H  19.32000 -4.04000 24.03100
H  15.42700 1.02700 24.88400
H  18.82500 -0.30100 32.56900
H  19.09600 -3.20100 32.43600
H  21.56000 -2.07400 31.41100
H  21.20300 -2.94300 32.91100
H  20.92200 -1.20900 32.95400
H  17.29500 -2.78000 33.09700
H  16.20300 -1.57100 32.53700
H  16.63900 -1.78300 35.11900
H  16.26000 -0.39200 34.43100
H  22.07500 -6.15800 28.74100
H  20.79400 -7.37700 28.33000
H  20.48300 -6.26900 29.63200
H  22.37100 -7.43000 26.04400
H  21.68100 -7.94400 24.47400
H  20.76000 -8.21500 25.98300
H  17.24200 -2.82800 22.71600
H  16.90000 0.07000 23.04000
H  18.75600 -0.48100 22.17400
H  18.69000 -2.08700 21.36600
H  19.77200 -1.83800 22.72600
H  14.40400 -1.23000 23.83200
H  15.28300 -2.13600 22.60300
H  15.08200 -0.42900 21.13600
H  14.93300 0.90700 22.16300
H  13.46900 -0.14200 21.95700
H  14.57500 3.05200 25.93000
H  15.01800 3.88500 27.52900
H  13.58500 2.92000 27.36700
H  15.72500 0.75800 31.80800
H  16.97400 4.22400 34.11300
H  18.56000 3.53000 33.81600
H  17.56700 2.86900 35.06200

