158

Mg 46.92500 25.69900 28.59100
C  47.65000 27.95200 31.23800
C  45.79700 23.53600 30.97500
C  47.11600 23.39600 26.40700
C  48.48800 27.97400 26.45700
N  46.81500 25.72200 30.82100
C  47.04400 26.76400 31.63500
C  46.66300 26.36400 33.09000
C  46.29400 24.91000 33.01000
C  46.30400 24.73500 31.48700
C  47.31100 23.86000 33.57200
C  45.47300 27.27200 33.56700
C  45.63900 28.03300 34.86000
H  44.49400 28.01600 35.83800
N  46.36000 23.76200 28.67000
C  45.90400 23.00800 29.68900
C  45.60900 21.63400 29.29200
C  46.09200 21.51700 27.96600
C  46.62500 22.92900 27.60300
C  44.99200 20.62700 30.18800
C  46.16300 20.32300 26.96900
O  46.65300 20.47400 25.84800
C  45.86200 18.84800 27.35400
N  47.54200 25.80400 26.67300
C  47.56500 24.62300 25.93300
C  48.35300 24.80000 24.56000
C  48.45000 26.36400 24.51000
C  48.06100 26.75500 25.91500
C  49.66700 23.92600 24.50700
C  47.58200 27.00000 23.37800
C  46.05000 26.72500 23.48600
N  47.77600 27.64800 28.68100
C  48.37600 28.46200 27.74300
C  48.98900 29.63000 28.33500
C  48.62300 29.46300 29.71800
C  47.98400 28.25400 29.92300
C  49.64500 30.67400 27.53400
C  48.83400 30.09700 31.00800
O  49.41000 31.07700 31.39800
C  48.34000 28.99500 32.07000
C  49.50200 28.49900 32.90400
O  50.29500 27.61600 32.64200
O  49.55800 29.26400 34.06100
C  50.27800 28.69000 35.15700
H  45.44000 22.99800 31.85600
H  47.15800 22.61500 25.64500
H  49.15400 28.55100 25.81200
H  47.46300 26.34600 33.83000
H  45.33200 24.64800 33.45000
H  48.16600 24.35600 34.03100
H  47.52100 23.12200 32.79800
H  46.62700 23.43300 34.30600
H  44.49700 26.80500 33.69400
H  45.39900 28.09500 32.85600
H  45.80900 29.09000 34.65300
H  46.60700 27.70300 35.23700
H  44.37000 19.87900 29.69800
H  44.46000 21.03500 31.04800
H  45.79800 19.97100 30.51700
H  46.52200 18.13500 26.85900
H  44.82100 18.65000 27.09800
H  45.89100 18.80100 28.44200
H  47.62600 24.39600 23.85600
H  49.50400 26.56100 24.31600
H  49.96600 23.46500 23.56600
H  49.58000 23.11000 25.22400
H  50.54000 24.53000 24.75300
H  47.77600 26.57000 22.39500
H  47.70800 28.08200 23.35700
H  45.79000 26.04600 22.67400
H  45.43700 27.60100 23.26900
H  45.74400 26.12700 24.34400
H  49.74700 31.48800 28.25200
H  49.14500 30.94600 26.60400
H  50.67900 30.36900 27.37300
H  47.60500 29.43200 32.74600
H  49.83200 27.81000 35.62000
H  50.29800 29.46800 35.91900
H  51.28700 28.41200 34.85000
Mg 48.09200 35.76300 28.34900
C  46.31200 33.57600 30.69800
C  48.42600 37.95300 30.99900
C  48.88800 37.93600 26.18100
C  46.87300 33.44500 25.77400
N  47.41400 35.79600 30.51400
C  46.79900 34.81300 31.29600
C  46.73300 35.19100 32.80500
C  47.05100 36.75800 32.79600
C  47.67800 36.88700 31.33600
C  45.88200 37.70100 33.09400
C  47.87100 34.44000 33.61300
C  47.44400 33.88200 35.07200
H  46.47600 34.78300 35.88200
N  48.85000 37.65500 28.55800
C  48.95100 38.36000 29.69900
C  49.70000 39.53800 29.35200
C  49.86100 39.57400 27.90500
C  49.17200 38.34400 27.47300
C  50.18500 40.52400 30.47600
C  50.63700 40.56700 27.05500
O  50.75400 40.41900 25.89800
C  51.21800 41.69500 27.75300
N  47.92300 35.71300 26.25500
C  48.35400 36.80900 25.55900
C  48.09400 36.56100 24.04800
C  47.56000 35.07100 23.84400
C  47.46800 34.66700 25.33200
C  47.15900 37.71200 23.44800
C  48.55500 34.12300 23.16400
C  48.19200 33.79500 21.73000
N  47.04000 33.82500 28.22300
C  46.66600 33.02500 27.11200
C  45.96600 31.83700 27.55400
C  45.77700 32.09500 28.89100
C  46.45000 33.26900 29.30100
C  45.53800 30.64900 26.77300
C  45.07000 31.48700 30.07800
O  44.41500 30.44700 30.11800
C  45.21400 32.59000 31.18600
C  45.34100 31.99000 32.53500
O  46.35400 31.44100 32.91100
O  44.07200 32.06300 33.18500
C  44.00200 31.86200 34.59200
H  48.59100 38.76300 31.71200
H  49.21200 38.65200 25.42300
H  46.47700 32.85300 24.94600
H  45.72400 34.95900 33.14700
H  47.75800 37.00800 33.58600
H  46.05400 38.59000 33.70000
H  44.96900 37.20600 33.42400
H  45.55900 38.11900 32.14100
H  48.71700 35.12100 33.71100
H  48.24300 33.67400 32.93300
H  48.33900 33.60500 35.62900
H  46.92700 32.96600 34.78800
H  51.16800 40.92800 30.23500
H  50.26500 40.04100 31.45000
H  49.56300 41.41800 30.52500
H  50.43200 42.03200 28.42900
H  51.45600 42.51200 27.07100
H  52.08100 41.27900 28.27200
H  49.05900 36.62600 23.54400
H  46.56300 34.95100 23.42000
H  46.82500 38.26100 24.32800
H  46.25500 37.26800 23.03100
H  47.54500 38.34700 22.65000
H  48.60100 33.18800 23.72200
H  49.52800 34.61400 23.17200
H  47.14300 33.91400 21.45800
H  48.37300 32.75200 21.47000
H  48.88900 34.32400 21.08000
H  46.33900 29.93600 26.57700
H  45.08500 31.07600 25.87800
H  44.71000 30.22600 27.34200
H  44.22900 33.05600 31.18100
H  43.06100 32.14700 35.06200
H  44.81600 32.29700 35.17200
H  44.24100 30.80900 34.74800

