158

Mg -2.26300 35.03300 26.69200
C  -3.87600 32.94900 29.16500
C  -0.77600 36.64600 29.25500
C  -1.12400 37.04800 24.39300
C  -3.95900 33.05200 24.25400
N  -2.48500 34.80100 28.99000
C  -3.08500 33.89200 29.79800
C  -2.77300 34.06500 31.24500
C  -1.76600 35.27600 31.27400
C  -1.63200 35.61500 29.73700
C  -2.28200 36.44200 32.14400
C  -2.07400 32.89700 31.87900
C  -2.72100 32.20800 33.09000
H  -1.81500 31.93800 34.26400
N  -1.11800 36.72300 26.83700
C  -0.57500 37.17500 27.95400
C  0.39700 38.20500 27.61300
C  0.33900 38.32500 26.21000
C  -0.72500 37.42300 25.75100
C  1.15300 39.09900 28.62400
C  1.14900 39.12600 25.32200
O  0.95500 39.10100 24.10900
C  2.21700 40.11100 25.81200
N  -2.59800 35.10100 24.69700
C  -1.95500 36.05100 23.90900
C  -2.13500 35.78100 22.39400
C  -2.83000 34.33900 22.32200
C  -3.07900 34.08400 23.88800
C  -2.92000 36.93900 21.64300
C  -1.90800 33.27100 21.70400
C  -0.75400 32.85700 22.54600
N  -3.74500 33.40800 26.67500
C  -4.28000 32.69200 25.61100
C  -5.07400 31.60200 26.08900
C  -4.96300 31.68000 27.49000
C  -4.09500 32.75200 27.75500
C  -5.80700 30.64100 25.25600
C  -5.31400 31.00000 28.73800
O  -6.03400 30.02700 28.99400
C  -4.64400 31.81100 29.82400
C  -5.67800 32.28000 30.77300
O  -6.24100 33.37000 30.68200
O  -5.95700 31.32800 31.76700
C  -6.72000 31.87300 32.93700
H  -0.11600 37.07600 30.01100
H  -0.64000 37.56300 23.56000
H  -4.20900 32.28900 23.51400
H  -3.74200 34.30300 31.68500
H  -0.76200 35.02400 31.61500
H  -1.76300 37.36100 31.87400
H  -1.94100 36.08900 33.11700
H  -3.37100 36.49900 32.17000
H  -1.09300 33.12900 32.29500
H  -1.87000 32.05100 31.22400
H  -3.11800 31.21500 32.87700
H  -3.59600 32.75100 33.44800
H  0.68500 40.07300 28.76700
H  2.20000 39.30600 28.40100
H  1.09500 38.62200 29.60200
H  2.62500 40.76500 25.04200
H  3.04100 39.63900 26.34800
H  1.75700 40.80900 26.51100
H  -1.09000 35.65400 22.11200
H  -3.65300 34.48000 21.62200
H  -2.99600 37.78200 22.33000
H  -3.95700 36.65900 21.45800
H  -2.39000 37.45300 20.84200
H  -1.45200 33.57900 20.76400
H  -2.59300 32.43700 21.55200
H  -0.81900 31.77600 22.66300
H  -0.81400 33.43900 23.46600
H  0.20200 33.00200 22.04300
H  -5.19600 30.35300 24.40100
H  -6.69400 31.20500 24.96800
H  -6.04300 29.75800 25.84900
H  -3.91800 31.22300 30.38700
H  -6.18100 32.70200 33.39500
H  -6.91100 31.02700 33.59700
H  -7.73600 32.23300 32.77400
Mg -5.91300 25.41700 26.32900
C  -3.93000 26.91600 29.00500
C  -7.04900 23.20600 28.60200
C  -7.25000 23.93300 23.64000
C  -4.03900 27.62900 24.12900
N  -5.45500 25.07900 28.57400
C  -4.67400 25.80600 29.43300
C  -5.12900 25.49800 30.88300
C  -5.85800 24.17800 30.70400
C  -6.18600 24.06800 29.20100
C  -4.95000 22.95400 31.14400
C  -6.04800 26.61000 31.55200
C  -5.93900 26.89400 33.04100
H  -5.57700 25.83800 34.02400
N  -7.08500 23.89600 26.11900
C  -7.52900 23.09900 27.20400
C  -8.47000 22.17000 26.61600
C  -8.43700 22.30600 25.13600
C  -7.56000 23.45400 24.87700
C  -9.43800 21.36700 27.56000
C  -9.15800 21.54800 24.12200
O  -9.04500 21.79700 22.91100
C  -10.04900 20.40400 24.54500
N  -5.57200 25.73500 24.19700
C  -6.25500 24.92300 23.33500
C  -5.98400 25.28000 21.90200
C  -5.09800 26.61600 22.02600
C  -4.86000 26.68200 23.54300
C  -5.44900 24.16600 21.01300
C  -5.68300 27.94300 21.43000
C  -5.80500 28.07400 19.88500
N  -4.32900 26.92500 26.45400
C  -3.75000 27.76300 25.51700
C  -2.81700 28.67300 26.09700
C  -2.87400 28.31200 27.41500
C  -3.80300 27.28700 27.65100
C  -1.92700 29.71100 25.47400
C  -2.29000 28.73600 28.63600
O  -1.41900 29.57400 28.85100
C  -3.09300 27.85900 29.78200
C  -2.09000 27.05900 30.58600
O  -1.23200 26.30300 30.14500
O  -2.30300 27.26200 31.90700
C  -1.39200 26.57400 32.88300
H  -7.50600 22.56100 29.35600
H  -7.65700 23.54000 22.70600
H  -3.52000 28.25500 23.40100
H  -4.31500 25.20300 31.54500
H  -6.81500 24.07500 31.21600
H  -5.56200 22.05500 31.22200
H  -4.42500 23.29400 32.03700
H  -4.06200 22.77700 30.53600
H  -7.05400 26.22400 31.39000
H  -5.92100 27.56700 31.04600
H  -6.94400 27.23600 33.28800
H  -5.17900 27.66000 33.19400
H  -8.98600 20.41600 27.84100
H  -10.45900 21.28700 27.18700
H  -9.40300 21.97700 28.46300
H  -9.35200 19.75700 25.07900
H  -10.43700 19.86600 23.68000
H  -10.91200 20.79500 25.08400
H  -6.92000 25.63800 21.47300
H  -4.18200 26.48500 21.44900
H  -6.08600 24.14200 20.12900
H  -5.51000 23.21000 21.53400
H  -4.41600 24.33000 20.70800
H  -5.06400 28.70900 21.89700
H  -6.69900 27.99400 21.82100
H  -6.70900 28.64100 19.66400
H  -5.70000 27.08300 19.44400
H  -4.89800 28.60000 19.58600
H  -0.92600 29.28200 25.52900
H  -1.94800 30.62400 26.06900
H  -2.16700 29.89800 24.42800
H  -3.70100 28.41300 30.49800
H  -1.71800 26.57700 33.92300
H  -0.41500 27.05900 32.88400
H  -1.17300 25.62500 32.39400

