158

Mg 17.18200 -1.65700 27.84000
C  16.22300 0.57200 30.34900
C  19.07900 -3.25500 30.01600
C  18.63800 -3.21500 25.19800
C  15.61400 0.55900 25.53500
N  17.73900 -1.19600 29.93800
C  17.08200 -0.41600 30.79000
C  17.40800 -0.70900 32.23900
C  18.56300 -1.74300 32.15100
C  18.42200 -2.19500 30.61600
C  20.00200 -1.09700 32.37800
C  16.10500 -1.24600 32.87200
C  15.97400 -0.89600 34.39300
H  17.15900 -0.30200 35.17600
N  18.57900 -3.14600 27.66100
C  19.16700 -3.74000 28.65600
C  19.89100 -4.89400 28.12000
C  19.68500 -4.90700 26.73200
C  18.87500 -3.71200 26.48000
C  20.31400 -5.97200 29.05800
C  20.16200 -5.91100 25.71200
O  19.92100 -5.73700 24.52100
C  20.88100 -7.14400 26.08100
N  17.09300 -1.40100 25.64500
C  17.84700 -2.18200 24.77200
C  17.64200 -1.72400 23.33000
C  16.47900 -0.62600 23.44200
C  16.33200 -0.49400 24.99000
C  18.97100 -1.47200 22.59100
C  15.14400 -0.89600 22.67900
C  13.86300 -1.39000 23.51600
N  15.98200 0.10400 27.93800
C  15.40300 0.85400 26.94700
C  14.63400 1.91500 27.49700
C  14.93800 1.85700 28.86100
C  15.86500 0.83900 29.02600
C  13.78800 2.91400 26.77200
C  14.59100 2.38000 30.14200
O  13.86300 3.30400 30.46800
C  15.43800 1.56900 31.20500
C  16.28800 2.56700 31.89500
O  17.50100 2.76200 31.77700
O  15.54600 3.07000 32.86500
C  16.15500 3.98800 33.85300
H  19.58000 -3.77400 30.83700
H  19.14800 -3.62900 24.32500
H  15.02500 1.18900 24.86500
H  17.70900 0.24900 32.66400
H  18.35800 -2.66200 32.70000
H  19.88100 -0.09600 32.79200
H  20.53100 -0.96500 31.43500
H  20.59300 -1.65900 33.10200
H  16.12300 -2.30400 32.60800
H  15.24100 -0.77700 32.40300
H  15.63800 -1.78900 34.92100
H  15.20300 -0.13400 34.50400
H  21.37700 -6.15600 28.90400
H  19.70500 -6.85500 28.86100
H  20.35200 -5.68000 30.10800
H  21.77700 -6.93600 26.66500
H  21.20200 -7.52400 25.11100
H  20.18600 -7.89900 26.44900
H  17.14400 -2.55300 22.82700
H  16.89400 0.32400 23.10500
H  18.80300 -0.48100 22.16700
H  19.34900 -2.28600 21.97300
H  19.73800 -1.45000 23.36500
H  15.32300 -1.68500 21.94800
H  14.88800 0.02800 22.16100
H  13.28500 -1.97800 22.80400
H  13.22600 -0.53500 23.74400
H  14.17500 -1.94100 24.40300
H  14.25300 3.36100 25.89300
H  13.57400 3.69900 27.49700
H  12.84700 2.47900 26.43300
H  14.72200 1.11200 31.88800
H  17.09700 4.41300 33.50600
H  16.20600 3.51800 34.83500
H  15.55700 4.89600 33.94200
Mg 9.11200 48.16600 26.47700
C  7.43100 48.52700 29.54200
C  11.91800 49.20000 28.02900
C  10.54400 48.15300 23.58400
C  6.02800 48.34000 24.89900
N  9.56300 48.78500 28.56300
C  8.77400 48.80700 29.64200
C  9.59600 49.00700 30.94300
C  10.88900 49.62700 30.34100
C  10.83800 49.13000 28.87600
C  11.00700 51.19600 30.28800
C  9.80400 47.69200 31.65600
C  9.39400 47.72200 33.09700
H  9.37300 46.38200 33.94400
N  11.04400 48.37800 25.92200
C  12.06700 48.75600 26.70200
C  13.26600 48.85600 25.92000
C  12.88700 48.54600 24.57400
C  11.45500 48.30900 24.66700
C  14.65300 49.14200 26.64400
C  13.69700 48.34700 23.27600
O  13.17400 48.00200 22.23600
C  15.25200 48.39600 23.49600
N  8.38700 48.26500 24.37200
C  9.16200 48.25300 23.38200
C  8.38100 48.10400 22.04000
C  6.93500 48.40700 22.47900
C  7.11100 48.28900 23.99900
C  8.77900 49.00600 20.87800
C  5.72200 47.61500 21.82000
C  5.31700 48.13800 20.40600
N  7.07800 48.36400 27.04900
C  5.94600 48.34300 26.25200
C  4.79500 48.25200 27.10500
C  5.31400 48.28300 28.41100
C  6.72900 48.34100 28.31900
C  3.33900 48.04700 26.74100
C  5.05900 48.21100 29.83000
O  4.03300 48.01100 30.45900
C  6.41000 48.31500 30.64200
C  6.57500 47.00500 31.32200
O  6.99200 45.94100 30.90300
O  6.05800 47.14100 32.58900
C  5.95600 45.83300 33.23300
H  12.76000 49.65700 28.55300
H  10.98400 48.04200 22.59100
H  5.05200 48.33100 24.40900
H  9.03500 49.75500 31.50500
H  11.84000 49.35400 30.79700
H  10.25800 51.62900 30.95200
H  10.87500 51.56100 29.27000
H  11.98300 51.48300 30.67800
H  10.86100 47.48000 31.49500
H  9.33500 46.86400 31.12600
H  8.35900 48.06400 33.13100
H  10.00400 48.42300 33.66700
H  14.51600 49.32900 27.70900
H  15.20200 49.92500 26.12000
H  15.29500 48.27500 26.49100
H  15.81300 47.51500 23.80700
H  15.44700 49.17600 24.23300
H  15.70500 48.89300 22.63800
H  8.51100 47.03800 21.85400
H  6.91100 49.49100 22.37600
H  9.76500 49.40500 21.11400
H  8.05000 49.74300 20.54100
H  8.88000 48.31700 20.04100
H  4.78100 47.48400 22.35500
H  6.18500 46.65800 21.57700
H  5.71800 47.53300 19.59300
H  5.62700 49.16800 20.23100
H  4.23400 48.06000 20.30700
H  3.04500 48.64900 25.88200
H  2.76000 48.35700 27.61000
H  3.28500 47.01200 26.40200
H  6.33300 49.12500 31.36700
H  4.98200 45.40800 32.98700
H  6.00300 45.84700 34.32200
H  6.72300 45.08400 33.03600

