158

Mg -0.35800 43.62400 26.95000
C  1.49400 43.48800 30.00800
C  -3.20600 42.92200 28.69600
C  -1.68000 42.67500 24.13600
C  2.73700 44.25300 25.36200
N  -0.83900 43.31800 29.03700
C  0.06800 43.39800 30.12700
C  -0.69500 43.42400 31.45300
C  -2.17500 43.10300 31.01700
C  -2.10800 43.13000 29.50700
C  -2.71000 41.71400 31.64800
C  -0.56200 44.85500 32.15100
C  -0.59700 44.95200 33.69400
H  -0.72400 43.65700 34.54600
N  -2.19900 42.95100 26.37500
C  -3.23600 42.81900 27.25200
C  -4.44100 42.46500 26.43300
C  -4.04300 42.39500 25.09900
C  -2.57400 42.63900 25.12800
C  -5.82200 42.24000 27.03400
C  -4.89200 42.12500 23.91500
O  -4.28900 41.83000 22.88100
C  -6.44600 42.04500 23.90800
N  0.37600 43.56900 25.06900
C  -0.40500 43.14100 24.03700
C  0.41600 43.25000 22.71800
C  1.70800 44.05500 23.16400
C  1.58700 44.00400 24.62900
C  0.72000 41.88400 21.96700
C  1.83200 45.49400 22.52700
C  2.11100 45.47300 21.00400
N  1.76900 43.83700 27.55700
C  2.83700 44.13600 26.77300
C  4.00300 44.22100 27.60400
C  3.56700 43.93100 28.91200
C  2.14000 43.68800 28.79200
C  5.51400 44.36500 27.25400
C  3.94600 43.65400 30.23800
O  5.13400 43.55400 30.59200
C  2.60700 43.51500 31.07900
C  2.63100 42.18600 31.71400
O  2.43700 41.10600 31.09200
O  3.00900 42.26800 33.03400
C  2.65300 41.10500 33.89700
H  -4.16600 42.80300 29.20300
H  -2.02700 42.43900 23.12800
H  3.64900 44.51600 24.82300
H  -0.37300 42.58400 32.06900
H  -2.83600 43.91000 31.33200
H  -1.83800 41.20500 32.05900
H  -3.09800 41.08100 30.85000
H  -3.32200 41.89900 32.53000
H  -1.39100 45.44500 31.76200
H  0.32800 45.31600 31.72300
H  -1.41500 45.63300 33.92700
H  0.34100 45.40900 34.01100
H  -6.38200 43.06200 26.58700
H  -5.80400 42.32400 28.12100
H  -6.34200 41.32800 26.74000
H  -6.86900 42.30000 22.93600
H  -6.92200 42.83500 24.49000
H  -6.70800 41.03700 24.23000
H  -0.06100 43.88400 21.97000
H  2.63600 43.53200 22.93500
H  0.34900 41.09600 22.62200
H  1.79600 41.80900 21.81200
H  0.19200 41.95000 21.01500
H  2.58100 46.15600 22.96000
H  0.87600 46.00500 22.63800
H  2.95200 46.15500 20.88000
H  1.27500 45.89200 20.44500
H  2.25300 44.46300 20.62100
H  6.06300 43.53900 26.80100
H  6.01600 44.47500 28.21500
H  5.71100 45.27100 26.68100
H  2.65000 44.32300 31.80900
H  1.61100 40.81500 33.76900
H  2.72800 41.32400 34.96200
H  3.43000 40.34500 33.81400
Mg -12.70900 16.14300 42.71800
C  -9.58200 14.53000 42.35900
C  -11.31500 18.76100 41.00300
C  -15.79800 17.38800 42.26700
C  -13.95700 13.15500 43.95200
N  -10.64000 16.53500 41.73500
C  -9.53400 15.79400 41.81300
C  -8.37500 16.44700 41.09500
C  -8.92800 17.90500 40.94000
C  -10.39100 17.75100 41.20900
C  -8.29200 18.98100 41.85100
C  -8.05400 15.73500 39.72300
C  -6.53200 15.44300 39.45900
H  -5.93500 16.34300 38.30800
N  -13.47500 17.90500 41.80500
C  -12.72300 18.83400 41.16200
C  -13.55500 19.90100 40.70700
C  -14.89500 19.52400 40.95800
C  -14.77300 18.21300 41.69500
C  -12.95600 21.09300 39.91200
C  -16.06400 20.36900 40.65600
O  -15.84000 21.46500 40.10200
C  -17.49300 19.99700 41.08800
N  -14.56700 15.38500 43.16200
C  -15.75600 16.09800 42.94000
C  -16.96900 15.31500 43.48900
C  -16.42500 13.91600 43.90100
C  -14.91300 14.09300 43.58300
C  -17.69800 16.23300 44.56600
C  -17.04000 12.69400 43.11700
C  -17.49000 11.38700 43.89000
N  -11.92700 14.22000 43.19200
C  -12.57000 13.08300 43.64600
C  -11.64900 11.94100 43.70400
C  -10.46500 12.51800 43.30300
C  -10.68000 13.91300 42.95100
C  -11.99300 10.52600 44.14000
C  -9.09200 12.18800 43.00800
O  -8.54800 11.11500 43.13000
C  -8.50800 13.48900 42.32700
C  -7.34300 13.89700 43.16100
O  -7.33300 13.84100 44.38100
O  -6.19700 14.25300 42.36600
C  -5.00300 14.45900 43.18200
H  -10.77300 19.58500 40.53300
H  -16.80800 17.76500 42.09100
H  -14.40400 12.24600 44.36100
H  -7.46300 16.45100 41.69200
H  -8.83800 18.24100 39.90700
H  -7.65000 18.58200 42.63600
H  -8.98500 19.63300 42.38100
H  -7.86400 19.75100 41.20900
H  -8.39100 16.34600 38.88600
H  -8.62900 14.81400 39.62800
H  -6.39500 14.38200 39.24700
H  -5.91900 15.63700 40.33900
H  -13.18600 21.15400 38.84800
H  -11.88500 21.28100 39.84000
H  -13.29700 21.91500 40.54100
H  -17.80300 19.14100 40.48800
H  -18.22500 20.75900 40.81700
H  -17.54800 19.73100 42.14400
H  -17.56200 15.16900 42.58700
H  -16.81700 13.82900 44.91400
H  -17.83500 15.66500 45.48600
H  -18.73500 16.45000 44.30900
H  -17.27500 17.21400 44.78000
H  -16.55200 12.34300 42.20700
H  -18.00700 13.05800 42.77000
H  -16.81500 10.60200 43.55100
H  -18.46300 10.96900 43.63000
H  -17.36000 11.47900 44.96800
H  -12.52800 10.41900 45.08300
H  -11.13800 9.85000 44.11100
H  -12.59400 10.06400 43.35700
H  -8.10800 13.11700 41.38400
H  -5.23300 15.35600 43.75800
H  -4.18300 14.62300 42.48200
H  -4.78200 13.75800 43.98800

