158

Mg 9.02800 3.91100 27.64400
C  10.59000 2.22100 30.45800
C  7.42900 5.92500 29.76200
C  7.35100 5.17900 25.05000
C  10.39000 1.37700 25.65800
N  8.86000 3.91800 29.88700
C  9.73200 3.33100 30.77700
C  9.56700 3.97200 32.18200
C  8.38000 4.98400 31.96600
C  8.16200 4.95500 30.46700
C  7.14200 4.69900 32.77400
C  10.88500 4.51300 32.78800
C  10.71000 5.13200 34.24600
H  11.58000 4.68000 35.37000
N  7.47200 5.26200 27.41800
C  7.00100 6.03400 28.44100
C  6.09900 7.01900 27.91500
C  6.25400 6.91400 26.51100
C  7.08400 5.78100 26.23500
C  5.27700 7.93000 28.82100
C  5.59300 7.77900 25.42000
O  5.93900 7.74600 24.22600
C  4.40100 8.54500 25.72200
N  9.04500 3.41700 25.58800
C  8.19100 4.05100 24.73900
C  8.20400 3.36100 23.35500
C  9.16300 2.17600 23.56600
C  9.57200 2.30800 25.02900
C  6.82900 3.02000 22.80600
C  10.38900 2.17600 22.61100
C  10.66600 0.84700 21.78200
N  10.31200 2.18700 27.95700
C  10.77600 1.29700 27.03400
C  11.67600 0.36300 27.62200
C  11.67300 0.67000 29.02400
C  10.83500 1.77700 29.18200
C  12.51400 -0.70400 26.92900
C  12.07800 0.22900 30.29800
O  12.64400 -0.79200 30.60400
C  11.59500 1.37400 31.29600
C  11.01600 0.61700 32.56500
O  9.99200 -0.08200 32.62100
O  11.82700 0.83500 33.67000
C  11.44100 0.27500 34.99500
H  7.07200 6.77400 30.34800
H  6.77500 5.57400 24.21100
H  10.69000 0.56700 24.98900
H  9.36400 3.17800 32.90000
H  8.86200 5.89700 32.31700
H  6.29200 4.44400 32.14200
H  6.87200 5.60500 33.31600
H  7.30200 3.84900 33.43700
H  11.24000 5.29400 32.11500
H  11.67000 3.75800 32.76200
H  9.65400 5.11300 34.51500
H  10.98700 6.15600 33.99500
H  5.54000 8.94600 28.52400
H  5.47700 7.91500 29.89300
H  4.20600 7.78600 28.67700
H  3.91000 8.75500 24.77200
H  4.64700 9.48300 26.22000
H  3.76700 8.01800 26.43500
H  8.64400 4.01300 22.60100
H  8.57800 1.27600 23.37800
H  6.14100 2.99700 23.65100
H  6.77400 2.00300 22.41700
H  6.48600 3.77200 22.09600
H  11.30700 2.44700 23.13200
H  10.29900 3.05600 21.97400
H  9.85600 0.15900 22.02500
H  11.60700 0.41200 22.11900
H  10.78300 0.91900 20.70000
H  13.19000 -1.07200 27.70000
H  12.99500 -0.17300 26.10700
H  11.93300 -1.45100 26.38800
H  12.47800 1.88800 31.67700
H  11.71000 1.02800 35.73500
H  12.17100 -0.50000 35.23000
H  10.39100 0.00900 35.11900
Mg 47.21900 25.09500 29.00800
C  47.98500 27.43600 31.48900
C  46.05800 22.90900 31.47900
C  46.45900 22.87700 26.57800
C  48.64500 27.15800 26.68100
N  47.14900 25.16800 31.25200
C  47.26700 26.32900 31.99700
C  46.71200 26.18600 33.42700
C  46.25300 24.64100 33.42400
C  46.46900 24.20600 31.93100
C  47.04100 23.73100 34.46800
C  45.51500 27.23000 33.68100
C  45.47800 27.99600 35.01600
H  45.05700 27.07200 36.20800
N  46.26500 23.23600 29.01500
C  45.95500 22.45700 30.12700
C  45.43400 21.16400 29.69100
C  45.50100 21.17900 28.26400
C  46.02600 22.49800 27.85000
C  44.79000 20.16900 30.63100
C  45.02400 20.14200 27.26700
O  45.04400 20.37900 26.04100
C  44.59900 18.81300 27.72000
N  47.53600 25.02300 26.91600
C  47.08800 24.02000 26.12200
C  47.56300 24.17700 24.73000
C  47.92400 25.70200 24.68300
C  48.07900 25.99100 26.16800
C  48.58200 23.14900 24.16900
C  46.81000 26.57700 23.96900
C  47.31800 27.96200 23.68500
N  48.26700 26.77400 29.08200
C  48.80500 27.52900 28.00800
C  49.37400 28.70600 28.50600
C  49.03700 28.74500 29.88600
C  48.39700 27.53800 30.17000
C  49.93700 29.81500 27.76300
C  49.05400 29.55200 31.12400
O  49.46800 30.70300 31.26100
C  48.47200 28.63000 32.24100
C  49.52700 28.58000 33.29800
O  50.25100 27.65900 33.61400
O  49.50300 29.73700 34.04000
C  50.15800 29.53100 35.34900
H  45.66900 22.24900 32.25700
H  46.51900 22.07400 25.84100
H  49.17600 27.83500 26.00900
H  47.48800 26.27900 34.18600
H  45.18400 24.55000 33.61600
H  47.95800 23.34200 34.02700
H  46.48200 22.82600 34.70800
H  47.26400 24.27800 35.38400
H  44.61300 26.62200 33.60800
H  45.54500 27.97300 32.88400
H  44.73900 28.79200 34.92900
H  46.48700 28.37700 35.17400
H  43.71000 20.05100 30.53900
H  44.91800 20.46500 31.67200
H  45.36100 19.27900 30.36800
H  45.17400 18.32000 28.50300
H  44.64500 18.18600 26.83000
H  43.60400 19.03000 28.10800
H  46.65600 24.06400 24.13600
H  48.88500 25.84800 24.18900
H  49.00500 22.46700 24.90500
H  49.38700 23.70800 23.69000
H  48.17700 22.47600 23.41300
H  45.90100 26.66900 24.56300
H  46.49800 26.09100 23.04400
H  46.64600 28.27500 22.88500
H  48.33500 27.91800 23.29700
H  47.30000 28.65500 24.52600
H  50.77700 29.57100 27.11300
H  50.26600 30.61700 28.42400
H  49.10800 30.05600 27.09700
H  47.70800 29.25000 32.70900
H  50.12800 30.42700 35.96800
H  51.23600 29.48200 35.19500
H  49.82700 28.75700 36.04100

