158

Mg 26.11500 0.89800 29.21600
C  28.14900 0.77700 32.05800
C  23.32900 1.37000 31.39000
C  24.05400 1.07200 26.59000
C  28.73200 -0.04000 27.30500
N  25.83400 1.09000 31.48600
C  26.85200 1.14100 32.41000
C  26.19500 1.55100 33.78700
C  24.58000 1.50200 33.52700
C  24.60700 1.31700 31.99000
C  23.76500 0.47800 34.34800
C  26.73000 2.86000 34.28400
C  27.75400 2.78200 35.44000
H  27.57300 3.74100 36.60000
N  23.99800 1.28800 28.99600
C  23.06000 1.36600 29.98700
C  21.77800 1.42100 29.37300
C  21.92200 1.46900 27.94700
C  23.36800 1.27300 27.75900
C  20.48100 1.42000 30.13200
C  20.97200 1.72300 26.83300
O  21.28100 1.74000 25.61800
C  19.51400 2.04800 27.06600
N  26.37900 0.71100 27.20600
C  25.40000 0.78900 26.27100
C  26.01700 0.60400 24.87000
C  27.49800 0.21000 25.10500
C  27.56100 0.32300 26.64600
C  25.24900 -0.44500 24.05000
C  28.57100 1.07300 24.41400
C  28.54500 1.07600 22.87200
N  28.02400 0.33700 29.53500
C  29.04700 0.04500 28.66500
C  30.23300 -0.26400 29.36500
C  29.93600 0.00100 30.76500
C  28.62500 0.49500 30.77700
C  31.54100 -0.74800 28.79300
C  30.46100 0.06000 32.11200
O  31.56000 -0.31500 32.50500
C  29.38700 0.60100 32.95200
C  29.25100 -0.37800 34.04800
O  28.65500 -1.43800 34.06700
O  29.87500 0.16800 35.17900
C  29.61700 -0.48300 36.44800
H  22.48200 1.60000 32.04000
H  23.41400 1.11000 25.70700
H  29.59600 -0.32000 26.70000
H  26.46000 0.75000 34.47800
H  24.06900 2.46000 33.61500
H  24.38400 0.16000 35.18700
H  23.57900 -0.39800 33.72700
H  22.85600 0.98200 34.67700
H  25.98800 3.60300 34.57800
H  27.32800 3.23700 33.45400
H  28.75200 2.97100 35.04500
H  27.82900 1.76100 35.81400
H  20.63300 0.92800 31.09300
H  19.73700 0.81900 29.60900
H  20.32900 2.48900 30.27500
H  19.04300 1.16500 27.49900
H  19.02300 2.31200 26.12900
H  19.44200 2.82200 27.83000
H  25.93000 1.58800 24.40900
H  27.61900 -0.85500 24.90400
H  24.64300 0.15100 23.36800
H  24.63200 -1.06000 24.70500
H  25.83400 -1.05700 23.36300
H  29.55800 0.74200 24.73700
H  28.32800 2.05500 24.82000
H  29.54700 0.98700 22.45100
H  28.05400 1.93600 22.41700
H  27.88700 0.27200 22.54200
H  32.34800 -0.34700 29.40600
H  31.62100 -0.44600 27.74900
H  31.58600 -1.82200 28.97800
H  29.65500 1.53100 33.45300
H  29.57200 -1.56700 36.33500
H  28.75900 0.00200 36.91300
H  30.52600 -0.37100 37.03900
Mg 48.03800 34.91200 27.55800
C  46.28300 33.02700 29.98300
C  48.22100 37.53100 29.68000
C  49.19100 36.77800 24.98300
C  47.24500 32.28900 25.17500
N  47.38800 35.16800 29.57500
C  46.86800 34.22500 30.47100
C  47.09900 34.72000 31.96200
C  47.31300 36.30500 31.80500
C  47.71200 36.34500 30.26700
C  46.15200 37.29100 32.22600
C  48.34600 34.01100 32.54200
C  48.24100 33.55900 34.11800
H  47.56000 34.57300 34.99900
N  48.80700 36.86600 27.43500
C  48.71700 37.80500 28.40900
C  49.34100 39.00300 27.91800
C  49.70800 38.76400 26.52800
C  49.17800 37.47200 26.26300
C  49.54800 40.15000 28.85200
C  50.46000 39.64300 25.51800
O  50.66400 39.21300 24.40700
C  50.96400 41.01500 25.91200
N  48.10900 34.62600 25.44600
C  48.79400 35.45900 24.66500
C  49.00200 34.99000 23.22000
C  48.73300 33.43400 23.36300
C  47.90600 33.44900 24.73200
C  48.01200 35.71000 22.26900
C  49.93400 32.40400 23.37900
C  49.91100 31.25500 22.27900
N  47.05700 33.03900 27.53900
C  46.73800 32.15400 26.48300
C  45.99500 30.99300 27.01300
C  45.81900 31.33900 28.36300
C  46.37600 32.59600 28.61000
C  45.62500 29.68200 26.32000
C  45.18800 30.85300 29.55000
O  44.47300 29.88500 29.71200
C  45.38700 31.94900 30.72100
C  45.87900 31.20600 32.03000
O  47.05500 30.92700 32.17100
O  44.82200 31.05800 32.94700
C  45.18200 30.80100 34.31900
H  48.51700 38.30700 30.38900
H  49.69800 37.32700 24.18600
H  47.06700 31.39100 24.57900
H  46.26900 34.51000 32.63600
H  48.17000 36.57800 32.42100
H  46.37500 38.07000 32.95600
H  45.40600 36.70700 32.76600
H  45.80300 37.89200 31.38700
H  49.24200 34.63100 32.51900
H  48.53900 33.10100 31.97400
H  49.23700 33.32100 34.49100
H  47.66800 32.63500 34.03000
H  49.47500 40.99900 28.17300
H  50.55600 40.13300 29.26900
H  48.83200 40.25400 29.66700
H  51.28200 40.93900 26.95200
H  50.25000 41.83800 25.94300
H  51.89500 41.29200 25.41900
H  50.04000 35.20100 22.96500
H  48.04400 33.16000 22.56400
H  48.62400 36.41500 21.70700
H  47.25000 36.33900 22.73000
H  47.59700 35.16100 21.42300
H  50.00500 31.99000 24.38500
H  50.83900 32.94000 23.09100
H  50.65400 31.24900 21.48200
H  48.92900 31.28500 21.80700
H  49.99700 30.27900 22.75700
H  44.76000 29.80700 25.66800
H  45.35000 28.89700 27.02500
H  46.55100 29.33400 25.86100
H  44.46100 32.38000 31.10100
H  46.23600 30.72200 34.58400
H  44.56200 30.00800 34.73700
H  44.76400 31.69000 34.79200

