158

Mg 44.91600 3.80900 46.69500
C  42.63800 6.31200 46.01400
C  42.27900 1.55400 46.85300
C  47.21900 1.49200 47.11500
C  47.49500 6.24000 46.10300
N  42.72300 3.94700 46.36300
C  42.01000 5.03800 46.00900
C  40.51700 4.68400 45.72800
C  40.41800 3.19100 46.30400
C  41.88700 2.87500 46.49100
C  39.67500 3.01800 47.65100
C  40.20900 4.65000 44.17700
C  39.26000 5.70300 43.63000
H  39.50100 6.55900 42.27600
N  44.82200 1.78600 46.90500
C  43.63700 1.06900 46.96800
C  44.03500 -0.31800 47.00200
C  45.46200 -0.42600 47.17000
C  45.93300 0.95200 47.03300
C  43.04000 -1.48300 46.98600
C  46.35300 -1.72400 47.24100
O  45.83100 -2.80000 47.09100
C  47.83000 -1.71400 47.58300
N  47.05900 3.82000 46.52300
C  47.81700 2.76100 46.91600
C  49.29400 3.13500 47.12000
C  49.37400 4.49000 46.35400
C  47.88300 4.92100 46.27600
C  49.77900 3.09500 48.63800
C  50.06100 4.44400 45.01000
C  51.59800 4.67900 44.96900
N  45.10300 5.87600 46.26400
C  46.18300 6.71300 46.06200
C  45.70700 8.08900 45.96400
C  44.30000 8.01600 45.91600
C  44.00200 6.58200 46.09600
C  46.54900 9.29700 45.84200
C  43.07900 8.70000 45.82600
O  42.89900 9.87400 45.64200
C  41.95400 7.71600 45.93700
C  41.12000 8.12400 47.09300
O  41.63200 8.39100 48.20200
O  39.80100 8.31600 46.69300
C  38.90500 8.61300 47.78700
H  41.47400 0.81700 46.80600
H  47.88400 0.72200 47.51100
H  48.35000 6.91800 46.15500
H  39.97700 5.42100 46.32300
H  39.87500 2.46400 45.70100
H  38.80400 2.36400 47.64000
H  39.43600 4.00900 48.03900
H  40.37200 2.54800 48.34600
H  39.61100 3.74900 44.03600
H  41.12000 4.52300 43.59200
H  39.06800 6.43300 44.41600
H  38.36100 5.14200 43.37800
H  42.88900 -1.85800 47.99800
H  43.35600 -2.32000 46.36200
H  42.10300 -1.11400 46.56900
H  48.11900 -1.00900 48.36300
H  48.33100 -1.50500 46.63800
H  48.12000 -2.73800 47.81800
H  49.87300 2.35700 46.62200
H  49.93900 5.25200 46.89100
H  50.33700 2.18600 48.86200
H  48.95300 3.19100 49.34200
H  50.46300 3.90100 48.90600
H  49.57300 5.09200 44.28100
H  49.79100 3.43400 44.70100
H  51.87500 5.01600 43.97000
H  52.05900 3.74400 45.28600
H  51.86400 5.45700 45.68500
H  47.50400 9.04600 46.30300
H  45.95400 10.15400 46.15700
H  46.72100 9.56900 44.80000
H  41.29000 7.81000 45.07800
H  38.98900 7.69000 48.36000
H  37.87400 8.77800 47.47500
H  39.11300 9.54300 48.31600
Mg -11.00700 40.41800 42.52800
C  -9.15700 37.50500 41.45800
C  -8.70100 42.33800 40.75800
C  -12.98100 42.95600 42.98600
C  -13.58800 38.08400 43.47200
N  -9.12000 39.96500 41.25000
C  -8.55100 38.73600 41.00100
C  -7.21400 38.82000 40.19600
C  -7.00200 40.34900 40.20800
C  -8.34900 40.96300 40.81100
C  -5.73800 40.76800 40.82100
C  -7.33000 38.18600 38.78700
C  -6.77800 36.81400 38.53300
H  -5.79200 36.60800 37.40900
N  -10.84800 42.42400 42.03500
C  -9.81400 43.07500 41.29200
C  -10.10100 44.50500 41.19000
C  -11.30100 44.70400 41.96000
C  -11.80300 43.31800 42.31100
C  -9.19200 45.43500 40.51900
C  -11.95500 46.03600 42.24400
O  -11.53100 47.08600 41.81900
C  -13.18000 46.19800 42.99000
N  -12.93700 40.48600 43.17900
C  -13.55400 41.69700 43.32700
C  -15.05300 41.63700 43.78100
C  -15.23500 40.04400 43.78600
C  -13.88500 39.46400 43.45000
C  -15.33000 42.29000 45.15100
C  -16.27900 39.41200 42.78700
C  -17.59400 38.90900 43.38700
N  -11.31300 38.32100 42.55100
C  -12.38900 37.54100 42.98900
C  -11.94100 36.17500 43.09300
C  -10.72900 36.11300 42.42100
C  -10.41000 37.47100 42.08100
C  -12.76400 35.04100 43.64500
C  -9.69400 35.17900 42.03700
O  -9.61600 33.93900 42.05700
C  -8.62600 36.07200 41.48300
C  -7.37800 35.99800 42.30200
O  -7.02600 36.64200 43.29700
O  -6.51500 35.14000 41.67500
C  -5.34400 34.55400 42.44800
H  -7.91500 42.93500 40.28900
H  -13.71800 43.75800 42.90900
H  -14.41400 37.46700 43.83100
H  -6.42600 38.42300 40.83700
H  -6.83900 40.75800 39.21100
H  -5.46100 41.82200 40.79200
H  -4.90000 40.31400 40.29200
H  -5.71500 40.44100 41.86100
H  -6.84900 38.85300 38.07100
H  -8.37400 38.22800 38.47800
H  -7.63200 36.16500 38.33900
H  -6.39300 36.50600 39.50500
H  -9.01900 46.25400 41.21700
H  -9.60400 45.74100 39.55700
H  -8.22100 45.00700 40.27000
H  -13.08900 45.58400 43.88600
H  -13.99000 45.82500 42.36300
H  -13.33200 47.25500 43.20900
H  -15.80500 42.13300 43.16700
H  -15.34800 39.76000 44.83300
H  -14.46000 42.29900 45.80700
H  -16.12300 41.81100 45.72500
H  -15.61900 43.33500 45.04200
H  -15.78100 38.63300 42.20900
H  -16.54400 40.28900 42.19700
H  -17.91300 39.64200 44.12800
H  -17.25500 38.00700 43.89600
H  -18.35500 38.54200 42.69800
H  -12.06800 34.24000 43.89300
H  -13.44400 34.66600 42.88000
H  -13.36900 35.30900 44.51200
H  -8.39900 35.66800 40.49700
H  -4.55400 34.15600 41.81200
H  -5.78000 33.66400 42.90000
H  -4.93000 35.21500 43.21000

