158

Mg 46.75200 24.96200 28.19200
C  47.47500 27.34400 30.72300
C  46.00900 22.76000 30.80400
C  46.34700 22.69900 25.91300
C  48.00800 27.24400 25.81900
N  46.82900 25.06300 30.55100
C  46.99800 26.13000 31.31500
C  46.74600 25.90000 32.80200
C  46.21600 24.40200 32.76400
C  46.42300 24.01100 31.26000
C  46.81200 23.43200 33.77700
C  45.74500 26.96600 33.36100
C  44.97000 26.46700 34.62100
H  44.86000 27.45400 35.77800
N  46.20300 23.01400 28.34400
C  45.91400 22.28200 29.46400
C  45.59300 20.92100 29.13000
C  45.73100 20.89000 27.71800
C  46.09000 22.22300 27.25100
C  45.15300 19.81900 30.17200
C  45.64200 19.62100 26.82000
O  45.99400 19.56800 25.65900
C  45.29200 18.32700 27.47300
N  47.40500 24.84900 26.18700
C  46.95200 23.87100 25.38700
C  47.22600 24.11100 23.92200
C  47.56500 25.70600 23.87600
C  47.66900 25.96400 25.38700
C  48.47000 23.28600 23.48400
C  46.49500 26.61300 23.10300
C  45.21200 26.76800 23.89300
N  47.55900 26.81700 28.22900
C  48.02100 27.61200 27.16500
C  48.36500 28.93600 27.61100
C  48.25600 28.80800 29.04900
C  47.68200 27.59000 29.32500
C  48.79600 30.06600 26.69000
C  48.34100 29.53200 30.25000
O  48.48500 30.72600 30.60400
C  47.87400 28.63300 31.35700
C  49.04000 28.49100 32.27500
O  50.11200 28.10800 31.88700
O  48.77400 29.05600 33.50700
C  49.76000 28.74500 34.56200
H  45.58100 22.11500 31.57400
H  46.07300 21.91600 25.20400
H  48.39900 27.92400 25.05900
H  47.64100 26.03000 33.41000
H  45.14800 24.52300 32.94700
H  47.57700 23.89900 34.39800
H  47.48200 22.75100 33.25100
H  46.06600 22.83100 34.29700
H  45.06300 27.31800 32.58800
H  46.21300 27.88800 33.70500
H  45.52400 25.59500 34.96800
H  43.97600 26.24900 34.23200
H  44.33300 19.23300 29.75800
H  44.79000 20.32200 31.06800
H  46.00200 19.14600 30.28900
H  44.35800 18.44600 28.02200
H  46.06700 18.09700 28.20500
H  45.24800 17.50500 26.75900
H  46.31700 23.94900 23.34200
H  48.57000 25.92200 23.51300
H  48.34100 22.76200 22.53700
H  48.72400 22.53000 24.22700
H  49.31800 23.94200 23.28700
H  46.26100 26.16200 22.13900
H  46.97200 27.59200 23.05700
H  44.93400 25.86000 24.42800
H  44.36300 26.82900 23.21200
H  45.29700 27.57100 24.62600
H  48.53000 31.00800 27.17100
H  48.32100 30.12300 25.71000
H  49.87700 30.05900 26.55400
H  47.07700 29.19800 31.84000
H  49.32200 28.06600 35.29400
H  50.15600 29.61900 35.07900
H  50.64000 28.18600 34.24500
Mg -9.89400 40.29700 42.37100
C  -8.95000 37.03000 41.49000
C  -6.70200 41.28900 41.39800
C  -10.98900 43.42100 42.28700
C  -13.12400 39.13100 43.18700
N  -8.13000 39.24300 41.32000
C  -7.94000 37.97000 41.15700
C  -6.48600 37.55500 40.68000
C  -5.80700 38.91200 41.05200
C  -6.89700 39.88600 41.31500
C  -4.71700 39.02100 42.16500
C  -6.51200 37.15000 39.17800
C  -5.63500 36.06600 38.73100
H  -4.81600 36.44400 37.44100
N  -8.96400 42.07000 41.90900
C  -7.69300 42.31900 41.55800
C  -7.44300 43.74500 41.44600
C  -8.68000 44.34000 41.61800
C  -9.61700 43.26200 42.01700
C  -6.16200 44.40800 40.94400
C  -8.85100 45.85700 41.50500
O  -7.90200 46.61000 41.20600
C  -10.22600 46.48000 41.61400
N  -11.87300 41.14400 42.40800
C  -12.01000 42.49200 42.57200
C  -13.34400 42.89700 43.14300
C  -13.96400 41.51900 43.55600
C  -12.94500 40.50100 42.98700
C  -13.21200 43.92300 44.27900
C  -15.41300 41.19700 43.15900
C  -16.29900 40.77200 44.38800
N  -10.88000 38.45200 42.46400
C  -12.16200 38.15400 42.78700
C  -12.37900 36.71000 42.65400
C  -11.08100 36.25500 42.32300
C  -10.23600 37.32300 42.12300
C  -13.70600 35.94400 42.79500
C  -10.42200 35.03800 41.95100
O  -10.78500 33.86300 41.84300
C  -9.00200 35.54400 41.37200
C  -7.88200 34.93400 42.17400
O  -7.83700 34.90900 43.43000
O  -6.96600 34.35500 41.29200
C  -5.92600 33.62600 41.92000
H  -5.67100 41.64500 41.34000
H  -11.26700 44.47700 42.30600
H  -14.01500 38.81400 43.73300
H  -6.16300 36.74400 41.33300
H  -5.26900 39.33100 40.20200
H  -3.71400 39.17800 41.76800
H  -4.70400 38.08300 42.72100
H  -4.85700 39.80100 42.91300
H  -6.36300 38.05500 38.58900
H  -7.54300 36.84300 38.99900
H  -6.06300 35.08500 38.52500
H  -4.89100 35.92600 39.51500
H  -6.32900 44.84800 39.96000
H  -5.39400 43.64200 40.84300
H  -5.78600 45.11400 41.68400
H  -10.55500 46.39600 42.65000
H  -10.90500 45.93700 40.95700
H  -10.24900 47.55500 41.43400
H  -13.86500 43.40600 42.33300
H  -13.74300 41.51400 44.62300
H  -12.14700 44.03100 44.48700
H  -13.69800 43.55100 45.18100
H  -13.55700 44.92200 44.01300
H  -15.36000 40.43900 42.37700
H  -15.85300 42.08500 42.70500
H  -16.63700 39.76700 44.13700
H  -17.16300 41.40200 44.60100
H  -15.62200 40.75700 45.24100
H  -13.58200 34.86100 42.81200
H  -14.38600 36.23800 41.99600
H  -14.21200 36.25700 43.70900
H  -8.89500 35.13800 40.36600
H  -5.88700 33.47200 42.99900
H  -5.00100 34.17400 41.74300
H  -5.79100 32.69400 41.37200

