158

Mg 2.63700 -2.85100 45.28800
C  5.64700 -1.29400 44.20900
C  0.84800 -0.35600 43.73900
C  -0.10200 -4.68600 45.63000
C  4.68700 -5.57000 46.55600
N  3.14800 -1.15600 43.96500
C  4.42800 -0.59900 43.81100
C  4.35600 0.71100 42.98000
C  2.86600 1.12100 43.18900
C  2.21200 -0.23200 43.60000
C  2.59100 2.13500 44.39200
C  4.71700 0.43200 41.44100
C  5.99700 1.15300 41.01800
H  7.04800 0.55500 40.12800
N  0.57200 -2.51800 44.86200
C  0.06200 -1.45800 44.23300
C  -1.31800 -1.60000 44.13000
C  -1.68400 -2.91000 44.61800
C  -0.44300 -3.43400 45.11200
C  -2.30300 -0.59200 43.42700
C  -3.04100 -3.48200 44.52000
O  -4.03600 -2.78800 44.09800
C  -3.26200 -4.81100 44.87000
N  2.38500 -4.69900 46.12800
C  1.12000 -5.25100 46.03700
C  1.16500 -6.74900 46.49000
C  2.64400 -6.94300 46.88600
C  3.32200 -5.70600 46.42600
C  0.25700 -7.04400 47.69000
C  3.18800 -8.27400 46.39400
C  4.04500 -8.97800 47.48700
N  4.76100 -3.36500 45.43100
C  5.39800 -4.40000 46.03800
C  6.82800 -4.19000 45.92200
C  6.94000 -3.02700 45.25200
C  5.62800 -2.56700 44.84900
C  7.92500 -5.05500 46.53400
C  7.93800 -2.07000 44.85300
O  9.16200 -2.01100 45.09100
C  7.05900 -0.86700 44.14000
C  7.25100 0.40400 44.93300
O  6.88500 0.60300 46.06100
O  7.76400 1.36600 44.08800
C  7.85500 2.71200 44.71000
H  0.34800 0.52700 43.33500
H  -0.97700 -5.33900 45.65000
H  5.24700 -6.42700 46.93600
H  5.01100 1.49900 43.35200
H  2.57800 1.62500 42.26700
H  2.10400 3.04200 44.03200
H  3.48200 2.26800 45.00700
H  1.90100 1.65100 45.08200
H  3.96300 0.88000 40.79400
H  4.89900 -0.62500 41.24400
H  6.45900 1.62900 41.88300
H  5.57900 2.06000 40.58000
H  -2.47000 -1.06500 42.45900
H  -1.93400 0.39100 43.13300
H  -3.22200 -0.32100 43.94600
H  -2.65000 -5.31600 44.12300
H  -4.30500 -5.08300 44.70500
H  -2.94000 -4.81900 45.91100
H  0.85100 -7.40500 45.67800
H  2.75000 -6.73600 47.95000
H  0.31900 -6.21300 48.39200
H  0.51100 -7.99500 48.15800
H  -0.75700 -7.06800 47.29200
H  3.82500 -8.10500 45.52600
H  2.39900 -8.98300 46.14100
H  3.60100 -9.91000 47.83500
H  4.17100 -8.29400 48.32700
H  5.10300 -9.05700 47.24000
H  8.41000 -5.60100 45.72500
H  7.60900 -5.62500 47.40800
H  8.70900 -4.36200 46.84000
H  7.47300 -0.73200 43.14100
H  7.03400 2.92100 45.39500
H  8.00700 3.41900 43.89400
H  8.79100 2.86400 45.24600
Mg 9.24700 48.53400 25.22900
C  7.09800 48.85400 28.07600
C  11.76300 49.74800 27.14600
C  11.16900 48.53600 22.46400
C  6.40000 47.82700 23.26700
N  9.31900 49.33700 27.34400
C  8.40700 49.24600 28.32200
C  8.97900 49.82300 29.69900
C  10.36000 50.37600 29.24400
C  10.51400 49.74700 27.79500
C  10.64600 51.97500 29.18900
C  9.06500 48.73100 30.83200
C  9.88900 49.01700 32.03200
H  9.38500 48.43500 33.34400
N  11.27200 49.05700 24.86000
C  12.13100 49.46800 25.83100
C  13.39700 49.52300 25.26200
C  13.30800 49.18000 23.84800
C  11.90800 48.91700 23.64800
C  14.54800 49.88300 26.18500
C  14.36600 49.04800 22.69700
O  14.01900 48.92900 21.49500
C  15.80500 49.07600 23.08900
N  8.83900 48.24600 23.20700
C  9.79200 48.29100 22.30500
C  9.30000 47.86400 20.90100
C  7.76200 47.45500 21.13900
C  7.63800 47.78200 22.63800
C  9.51300 48.87100 19.77400
C  7.38800 46.01300 20.67500
C  7.78600 44.77800 21.51000
N  7.18000 48.38100 25.56300
C  6.15200 48.13800 24.61900
C  4.83500 48.12200 25.28900
C  5.14900 48.37100 26.67400
C  6.60000 48.57200 26.77500
C  3.52100 47.77200 24.59400
C  4.63200 48.51400 28.03100
O  3.48700 48.39000 28.44800
C  5.80100 48.72700 28.96300
C  5.76700 47.57900 29.90300
O  6.37600 46.55200 29.83200
O  4.76700 47.80700 30.81900
C  4.42700 46.86800 31.82300
H  12.46900 50.27800 27.79000
H  11.66000 48.29900 21.51800
H  5.54900 47.68400 22.59900
H  8.38800 50.63500 30.12300
H  11.17600 49.97600 29.84500
H  11.07200 52.15000 28.20000
H  11.48600 52.15400 29.86100
H  9.72100 52.53100 29.33800
H  9.42400 47.84200 30.31400
H  8.02700 48.46300 31.03100
H  10.22800 50.04000 32.19500
H  10.85100 48.51300 31.94200
H  14.57700 50.95700 26.36900
H  15.54700 49.58300 25.86600
H  14.51600 49.33800 27.12800
H  16.36900 49.10500 22.15700
H  16.08600 48.26600 23.76200
H  15.94900 49.99500 23.65700
H  9.87000 46.96600 20.66200
H  7.10100 48.13600 20.60200
H  9.68900 49.89100 20.11400
H  8.58500 48.98900 19.21400
H  10.26600 48.48400 19.08800
H  7.76700 45.90300 19.65900
H  6.30000 45.96800 20.63100
H  6.99000 44.29500 22.07600
H  8.50100 45.04700 22.28700
H  8.27500 44.00500 20.91600
H  3.44800 46.69300 24.45700
H  3.61100 48.19100 23.59100
H  2.61900 48.19000 25.03800
H  5.70600 49.66900 29.50300
H  3.50400 47.29200 32.22000
H  5.23900 46.81000 32.54900
H  4.02200 45.95800 31.38200

