158

Mg 56.22900 25.74700 45.37300
C  53.15500 27.06800 44.10100
C  55.28200 22.69300 44.07200
C  59.28600 24.87900 45.57500
C  57.07800 29.12200 46.19900
N  54.41300 24.97400 44.23100
C  53.25800 25.67000 43.90300
C  52.14800 24.68600 43.37600
C  52.78900 23.29000 43.56300
C  54.26000 23.66600 43.99500
C  52.17000 22.38600 44.72200
C  51.75300 24.98200 41.86900
C  50.25300 24.88300 41.51800
H  50.06500 24.11400 40.17500
N  57.12500 23.97300 45.05200
C  56.59700 22.82000 44.55000
C  57.64400 21.75500 44.53600
C  58.79900 22.40600 44.99000
C  58.48300 23.76400 45.26100
C  57.45100 20.35600 43.88500
C  60.08600 21.62500 45.11300
O  60.18300 20.43900 44.70200
C  61.31500 22.19400 45.80100
N  57.98500 26.83100 45.83300
C  59.11300 26.21200 45.81000
C  60.26700 27.12200 46.15200
C  59.58100 28.42200 46.56200
C  58.05900 28.15400 46.18900
C  61.32700 26.53900 47.13300
C  60.03300 29.69100 45.76500
C  60.27400 30.90700 46.63300
N  55.41900 27.66100 45.15900
C  55.79800 28.90200 45.68900
C  54.66600 29.84000 45.80300
C  53.63700 29.17400 45.08400
C  54.09000 27.88200 44.76700
C  54.64300 31.20000 46.34500
C  52.28200 29.30900 44.60600
O  51.58300 30.32300 44.65500
C  52.07500 28.04700 43.78100
C  52.02700 28.41200 42.33500
O  52.96200 28.40500 41.55800
O  50.74800 28.72300 42.05200
C  50.31800 28.78200 40.63000
H  55.09300 21.65700 43.78600
H  60.34100 24.63900 45.71800
H  57.29400 30.13600 46.54200
H  51.28100 24.84300 44.01700
H  52.88700 22.68000 42.66400
H  51.34600 22.79700 45.30600
H  52.89600 22.25200 45.52500
H  51.91800 21.42700 44.26900
H  52.39600 24.32700 41.28200
H  52.14300 25.95700 41.57600
H  49.68100 25.80800 41.45500
H  49.87600 24.33500 42.38200
H  58.31000 20.24100 43.22400
H  56.49300 20.23900 43.37900
H  57.38700 19.68800 44.74400
H  61.81900 22.91600 45.15900
H  62.09200 21.45900 46.01500
H  60.82900 22.57000 46.70100
H  60.69000 27.22600 45.15300
H  59.67000 28.54900 47.64100
H  61.67600 27.34700 47.77600
H  62.21300 26.13700 46.64200
H  60.82100 25.79400 47.74700
H  59.28800 30.04000 45.05100
H  60.91100 29.41200 45.18300
H  59.88200 30.88300 47.64900
H  59.78400 31.70800 46.08000
H  61.35000 31.08000 46.61900
H  55.15300 31.95900 45.75200
H  55.17200 31.20900 47.29800
H  53.59300 31.48400 46.42500
H  51.09400 27.66200 44.05700
H  51.10800 29.11900 39.95800
H  49.55900 29.55500 40.50800
H  49.89300 27.80400 40.40600
Mg 26.84000 50.35000 26.49700
C  24.56600 51.36300 29.01600
C  29.14100 49.34000 28.79700
C  28.76700 49.46700 23.91500
C  24.68200 52.08700 24.19100
N  26.90200 50.46500 28.62200
C  25.82900 50.76100 29.48300
C  26.16000 50.24400 30.91500
C  27.59400 49.73300 30.76800
C  27.97000 49.86600 29.32700
C  28.65700 50.37800 31.77700
C  25.13600 49.14600 31.27400
C  24.26800 49.47300 32.51100
H  24.44500 48.72000 33.82900
N  28.65400 49.46200 26.40600
C  29.45500 49.05200 27.46100
C  30.56500 48.31600 26.89400
C  30.39700 48.28100 25.44700
C  29.23500 49.14300 25.20900
C  31.54700 47.66000 27.85900
C  31.13800 47.57400 24.37900
O  30.77200 47.46600 23.22400
C  32.27600 46.84700 24.95500
N  26.74300 50.67400 24.40800
C  27.68700 50.17900 23.53200
C  27.42200 50.48500 22.05400
C  26.01700 51.11800 22.18300
C  25.78000 51.34100 23.69800
C  28.50300 51.36800 21.35300
C  24.93600 50.27500 21.46700
C  24.15500 49.18800 22.23000
N  25.04000 51.53500 26.54300
C  24.38900 52.21400 25.56300
C  23.31700 52.94900 26.16100
C  23.21900 52.52700 27.48300
C  24.34000 51.70400 27.66600
C  22.34600 53.84700 25.40700
C  22.46400 52.66000 28.76600
O  21.50300 53.31200 29.14000
C  23.27400 51.78400 29.77000
C  23.37700 52.59800 31.05700
O  24.16900 53.50900 31.28400
O  22.31900 52.25100 31.86700
C  22.19800 53.15000 33.06400
H  29.76900 48.77200 29.48700
H  29.34300 49.09400 23.06500
H  24.10600 52.61400 23.42700
H  26.10900 51.02700 31.67100
H  27.59800 48.64300 30.75300
H  29.60500 49.84600 31.69100
H  28.24700 50.21200 32.77300
H  28.76800 51.45400 31.64400
H  25.65100 48.19800 31.43300
H  24.42000 49.04200 30.45900
H  23.25000 49.32400 32.15400
H  24.30700 50.53300 32.76100
H  31.50800 46.57100 27.88800
H  31.48700 48.07500 28.86500
H  32.60700 47.83900 27.68300
H  31.92700 46.06600 25.63000
H  32.86600 47.61700 25.45200
H  32.65400 46.22600 24.14200
H  27.46200 49.59600 21.42500
H  26.05500 52.08300 21.67700
H  29.39800 51.31400 21.97400
H  28.25300 52.42500 21.27100
H  28.69300 50.92800 20.37400
H  25.46800 49.75800 20.66800
H  24.24600 50.93200 20.93800
H  24.40000 49.16500 23.29200
H  24.41500 48.18400 21.89200
H  23.07100 49.29600 22.18500
H  21.94800 53.35200 24.52100
H  22.87400 54.71600 25.01400
H  21.54400 54.20400 26.05200
H  22.77900 50.85600 30.05800
H  21.11400 53.25500 33.09900
H  22.52200 54.18200 32.92500
H  22.59800 52.76300 34.00100

