158

Mg 44.98800 3.13200 46.65200
C  42.63900 5.54500 45.81200
C  42.30900 0.84300 46.43500
C  47.04600 0.61300 46.85200
C  47.39400 5.52600 46.71800
N  42.82400 3.12700 45.95600
C  42.07200 4.29500 45.78400
C  40.53100 4.01200 45.43800
C  40.43900 2.60000 46.15300
C  41.94100 2.14200 46.23800
C  39.50900 2.59300 47.40100
C  40.41700 4.07800 43.82700
C  39.45200 5.17600 43.16400
H  39.99000 5.88900 41.85600
N  44.69600 0.99900 46.65800
C  43.52500 0.21400 46.54100
C  43.84800 -1.20800 46.62700
C  45.23000 -1.26100 46.76900
C  45.74700 0.12300 46.67800
C  42.83000 -2.26300 46.55800
C  46.07400 -2.56100 46.81500
O  45.42100 -3.57700 46.84300
C  47.55600 -2.61900 46.87600
N  47.05600 3.06100 46.74500
C  47.65500 1.89300 46.97900
C  49.20100 2.07800 46.95700
C  49.23100 3.66900 47.12700
C  47.84200 4.13700 46.83600
C  49.88500 1.31900 48.12900
C  50.33700 4.35400 46.23200
C  51.71900 4.33300 46.92700
N  45.11300 5.15800 46.30000
C  46.10700 6.00600 46.52600
C  45.62800 7.41700 46.31000
C  44.27600 7.23400 46.00900
C  44.02400 5.86500 45.99400
C  46.43000 8.69900 46.50500
C  43.03200 7.97400 45.68700
O  42.77300 9.10700 45.49600
C  41.96400 6.87600 45.59400
C  40.90700 7.24600 46.60800
O  40.78300 6.79500 47.71300
O  39.98200 8.01700 45.92400
C  38.86900 8.47400 46.77500
H  41.37300 0.29000 46.33000
H  47.80400 -0.16100 46.98500
H  48.10800 6.35100 46.70400
H  39.85600 4.68700 45.96600
H  40.06400 1.86900 45.43700
H  38.93400 3.51900 47.42300
H  40.13700 2.60100 48.29200
H  38.87900 1.70300 47.39200
H  40.09600 3.07100 43.55900
H  41.43700 4.20200 43.46400
H  39.21000 5.92400 43.91900
H  38.51000 4.68300 42.92500
H  41.92800 -1.89100 47.04400
H  42.95900 -3.22600 47.05100
H  42.55300 -2.41800 45.51500
H  47.89200 -2.21000 45.92300
H  47.88700 -3.65600 46.92300
H  47.84900 -2.04800 47.75700
H  49.67600 1.68100 46.06100
H  49.46100 4.00600 48.13700
H  50.72800 0.73800 47.75600
H  49.28600 0.59700 48.68500
H  50.29300 2.05500 48.82100
H  50.04000 5.39600 46.11500
H  50.55200 3.83900 45.29600
H  51.68800 3.75400 47.85100
H  52.11600 5.31400 47.18900
H  52.49700 4.01600 46.23200
H  47.11000 9.00600 45.71100
H  46.87000 8.72300 47.50200
H  45.70800 9.50700 46.62800
H  41.62200 6.97100 44.56300
H  38.33000 9.32300 46.35400
H  39.26600 8.88200 47.70500
H  38.29700 7.56200 46.94300
Mg 26.53100 51.15700 25.79200
C  24.29500 52.41000 28.09800
C  28.76100 50.45900 28.30300
C  28.92100 50.67300 23.54100
C  24.40000 52.30500 23.18100
N  26.49000 51.46000 27.86400
C  25.52200 51.97200 28.61200
C  25.71800 51.96200 30.11600
C  27.25600 51.57700 30.09200
C  27.54400 51.16100 28.67000
C  28.25500 52.68400 30.51600
C  24.84100 51.01700 30.88000
C  23.93000 51.54800 32.05600
H  24.12700 50.93500 33.49300
N  28.42700 50.41800 25.93500
C  29.18900 50.22300 27.01700
C  30.49300 49.54100 26.63700
C  30.51300 49.54100 25.21300
C  29.27000 50.29400 24.77900
C  31.50200 49.10600 27.68300
C  31.59100 48.92200 24.25800
O  31.52400 49.11500 23.05300
C  32.81600 48.29100 24.91600
N  26.57100 51.40900 23.70000
C  27.67500 51.09100 23.00000
C  27.46100 51.24500 21.45000
C  26.00400 51.72300 21.32900
C  25.61000 51.73800 22.81300
C  28.48800 52.16400 20.73100
C  25.03800 50.88600 20.50500
C  24.56800 51.58200 19.19000
N  24.69700 52.10700 25.65700
C  23.93400 52.48500 24.53400
C  22.69300 53.14700 25.00000
C  22.84300 53.11700 26.43900
C  24.05100 52.48900 26.68900
C  21.60400 53.69300 24.15100
C  22.10500 53.45700 27.64400
O  20.98100 53.95400 27.87100
C  23.07400 53.04900 28.83300
C  23.62300 54.31100 29.51800
O  24.60000 54.99200 29.16200
O  22.78600 54.55200 30.52800
C  23.15100 55.67000 31.43600
H  29.45200 50.21100 29.11200
H  29.68700 50.59300 22.76600
H  23.70500 52.69200 22.43300
H  25.61900 52.95600 30.55400
H  27.38100 50.70400 30.73300
H  28.94400 53.04100 29.75000
H  28.87300 52.44700 31.38200
H  27.65500 53.57300 30.71200
H  25.46400 50.23600 31.31600
H  24.15900 50.45200 30.24400
H  22.88500 51.47200 31.75600
H  24.12000 52.60900 32.21600
H  31.38100 49.56400 28.66500
H  32.42600 49.61400 27.40900
H  31.49300 48.04500 27.93300
H  33.28400 49.13600 25.42100
H  33.51200 48.03500 24.11700
H  32.39100 47.37400 25.32300
H  27.51800 50.20900 21.11700
H  25.82100 52.70800 20.89800
H  28.86400 51.60100 19.87700
H  29.26600 52.41900 21.45100
H  28.00600 53.07200 20.37100
H  24.22400 50.58800 21.16600
H  25.44200 49.91900 20.20700
H  24.57200 50.83400 18.39700
H  25.16700 52.46600 18.97300
H  23.50400 51.81600 19.19300
H  21.26700 52.97200 23.40700
H  21.90800 54.60600 23.64000
H  20.78100 53.97600 24.80800
H  22.49900 52.38700 29.48000
H  23.66400 56.49000 30.93400
H  23.91700 55.35800 32.14600
H  22.19000 55.92000 31.88700

