158

Mg 24.64400 -4.89700 45.68500
C  26.70100 -2.34400 44.62600
C  22.05900 -3.70900 43.92100
C  23.10700 -7.95700 46.11500
C  27.46600 -6.24200 47.53300
N  24.44700 -3.29500 44.22000
C  25.38200 -2.28400 44.13700
C  24.89800 -1.36600 43.00300
C  23.32200 -1.58500 43.08000
C  23.25200 -2.94900 43.73700
C  22.51200 -0.59000 43.94100
C  25.66000 -1.79500 41.71400
C  26.25000 -0.75300 40.73900
H  25.95800 -0.80700 39.23000
N  22.76400 -5.64600 45.21600
C  21.86000 -4.99500 44.48600
C  20.67900 -5.81500 44.32800
C  20.99700 -7.06400 44.92800
C  22.35100 -6.94700 45.47900
C  19.42500 -5.46000 43.58100
C  20.07200 -8.27800 45.00600
O  18.86300 -8.22300 44.61800
C  20.51900 -9.67600 45.47600
N  25.32700 -6.92400 46.39300
C  24.37300 -7.91900 46.62200
C  25.01500 -9.07400 47.49400
C  26.29400 -8.43300 48.00900
C  26.43900 -7.15700 47.26100
C  23.94500 -9.55100 48.52300
C  27.59100 -9.27300 47.74600
C  28.63400 -9.29800 48.89100
N  26.77300 -4.47800 45.97700
C  27.73200 -5.05900 46.85000
C  28.90100 -4.18500 46.85600
C  28.56400 -3.10200 45.94000
C  27.25500 -3.35800 45.40900
C  30.14700 -4.32400 47.60200
C  29.04300 -1.98200 45.33000
O  30.09800 -1.40000 45.45500
C  27.83400 -1.40500 44.35800
C  27.56000 0.01900 44.59100
O  26.93000 0.47400 45.52300
O  28.19600 0.74100 43.64900
C  27.99800 2.18000 43.83000
H  21.19100 -3.34500 43.36700
H  22.67700 -8.92500 46.38000
H  28.30500 -6.57800 48.14600
H  25.16400 -0.32500 43.18400
H  22.80900 -1.62900 42.11900
H  21.82100 -0.02000 43.32100
H  23.16000 0.08400 44.50200
H  21.92000 -1.08100 44.71300
H  24.83900 -2.13300 41.08100
H  26.37300 -2.59000 41.93200
H  27.33600 -0.84700 40.72600
H  25.93700 0.25100 41.02600
H  19.05900 -6.15500 42.82500
H  19.59600 -4.50900 43.07700
H  18.51000 -5.25000 44.13500
H  20.76800 -9.72800 46.53600
H  21.43500 -10.00000 44.98300
H  19.71800 -10.40000 45.32400
H  25.19100 -9.97000 46.89900
H  26.17100 -8.10200 49.04100
H  24.36300 -9.58200 49.53000
H  23.47300 -10.51700 48.34800
H  23.17700 -8.78000 48.57400
H  28.07700 -8.88900 46.84900
H  27.13400 -10.25400 47.62000
H  28.47900 -10.26000 49.37900
H  28.38700 -8.56200 49.65800
H  29.64200 -9.13000 48.51400
H  30.27400 -3.51600 48.32200
H  31.01100 -4.36900 46.93900
H  30.15400 -5.23600 48.19800
H  28.11300 -1.50600 43.30900
H  28.68500 2.93500 43.44600
H  28.04700 2.38800 44.89900
H  26.99600 2.47900 43.52500
Mg 17.11800 -1.96200 27.35500
C  15.97000 -0.09700 30.11600
C  19.39600 -3.59600 29.43700
C  18.67100 -3.23600 24.64200
C  15.28300 0.22000 25.33600
N  17.64100 -1.76500 29.54100
C  16.95500 -0.97700 30.47200
C  17.66500 -1.13500 31.84600
C  18.79100 -2.21200 31.58400
C  18.66900 -2.55900 30.06100
C  20.24700 -1.79200 31.88100
C  16.67100 -1.58800 32.98900
C  16.63000 -0.78700 34.22300
H  17.79800 -0.03200 34.70700
N  18.70500 -3.40100 27.05800
C  19.40600 -4.03300 28.09400
C  20.21300 -5.11300 27.50800
C  19.93500 -5.02300 26.09900
C  19.15500 -3.80600 25.84600
C  21.13800 -6.02200 28.27900
C  20.41900 -5.96100 24.97700
O  20.19600 -5.71900 23.83700
C  21.05800 -7.21900 25.32900
N  17.06900 -1.52600 25.24500
C  17.81100 -2.19000 24.35000
C  17.44300 -1.78500 22.91000
C  16.28400 -0.72500 23.12300
C  16.17700 -0.69900 24.66700
C  18.72500 -1.34800 22.15300
C  14.93900 -0.76900 22.25600
C  14.93600 -0.07600 20.85600
N  15.74600 -0.44600 27.58800
C  15.01300 0.28800 26.68000
C  14.21000 1.21500 27.38700
C  14.53000 1.10300 28.72600
C  15.52700 0.08000 28.82100
C  13.42300 2.28900 26.78100
C  14.24300 1.64700 29.98700
O  13.48700 2.52500 30.44700
C  15.20400 0.95500 31.01100
C  16.05300 1.99200 31.62300
O  16.87700 2.71400 31.07500
O  15.68600 2.18800 32.88600
C  16.32800 3.39700 33.48200
H  20.05300 -4.14500 30.11500
H  19.02600 -3.76600 23.75600
H  14.82100 0.94800 24.66600
H  18.13200 -0.20500 32.17100
H  18.57400 -3.14600 32.10100
H  20.29600 -0.76400 32.24100
H  20.91700 -1.93800 31.03300
H  20.68800 -2.43500 32.64300
H  16.74800 -2.63400 33.28500
H  15.66400 -1.41000 32.61300
H  16.21300 -1.39100 35.02800
H  15.82600 -0.07400 34.04100
H  22.17500 -5.98300 27.94600
H  20.72900 -7.02800 28.18400
H  21.20200 -5.80300 29.34500
H  22.10700 -7.09000 25.59500
H  21.03800 -7.69800 24.35000
H  20.41500 -7.65400 26.09400
H  17.11300 -2.73800 22.49600
H  16.71100 0.25600 22.91500
H  19.59300 -1.18200 22.79100
H  18.48100 -0.39700 21.67900
H  19.01100 -1.99600 21.32400
H  14.10700 -0.40400 22.85900
H  14.73400 -1.81900 22.04600
H  14.21700 0.73400 20.73400
H  14.61100 -0.82300 20.13200
H  15.93500 0.28200 20.60700
H  12.65600 1.89300 26.11500
H  14.12000 2.86300 26.17100
H  12.96700 2.91200 27.55000
H  14.56600 0.54100 31.79100
H  15.81400 4.31500 33.19800
H  17.39300 3.62400 33.42200
H  16.18700 3.38500 34.56300

