158

Mg 48.00300 16.35100 28.03100
C  46.30700 16.11000 30.98500
C  50.45000 18.13400 29.67200
C  49.45700 16.95300 25.02500
C  45.27300 15.00600 26.37100
N  48.35200 17.03100 30.13400
C  47.48700 16.73800 31.25200
C  48.19800 17.14000 32.56100
C  49.32100 18.11800 32.06700
C  49.36300 17.83100 30.52500
C  49.10000 19.64200 32.32100
C  48.71000 16.06500 33.56900
C  48.73800 16.43400 35.05100
H  48.09100 17.75600 35.51200
N  49.78300 17.35200 27.48100
C  50.72000 17.93100 28.31100
C  51.91600 18.13000 27.48700
C  51.63200 17.78400 26.12900
C  50.24500 17.34200 26.20300
C  53.17000 18.65100 28.02300
C  52.52700 17.97900 24.85800
O  52.08700 17.84100 23.73700
C  53.89500 18.66400 24.96600
N  47.57000 15.86600 25.96300
C  48.29900 16.29900 24.89800
C  47.61500 15.97500 23.49900
C  46.31800 15.22600 24.03200
C  46.40900 15.25800 25.55500
C  47.32700 17.28100 22.73400
C  45.98900 13.80500 23.59400
C  45.68200 13.56100 22.14900
N  46.12200 15.71800 28.50400
C  45.15300 15.14500 27.75300
C  44.02500 14.83000 28.52900
C  44.45400 15.14700 29.85800
C  45.74300 15.65000 29.75900
C  42.67000 14.23200 28.09400
C  43.95400 15.25200 31.17300
O  42.90500 15.00200 31.69600
C  45.17700 15.84400 32.03300
C  44.65800 16.98000 32.84800
O  44.71300 18.22100 32.64100
O  43.94500 16.42900 33.90100
C  43.63000 17.39200 34.98100
H  51.25900 18.49200 30.31300
H  49.85000 17.13700 24.02300
H  44.51000 14.42800 25.84600
H  47.43100 17.74000 33.05100
H  50.27300 17.82500 32.51000
H  49.78200 19.89000 33.13400
H  48.03100 19.77100 32.49400
H  49.42000 20.23600 31.46500
H  49.71200 15.71400 33.32500
H  47.98200 15.28400 33.35200
H  49.77900 16.49700 35.36500
H  48.33100 15.55400 35.55000
H  53.67100 19.40400 27.41500
H  53.90000 17.89200 28.30400
H  52.94400 19.14400 28.96800
H  53.79300 19.69900 25.29000
H  54.33000 18.74900 23.97000
H  54.59900 18.09500 25.57200
H  48.28200 15.32500 22.93300
H  45.35100 15.68100 23.81700
H  46.31400 17.29100 22.33100
H  48.08800 17.39800 21.96300
H  47.38900 18.22300 23.27700
H  45.21200 13.27400 24.14500
H  46.87700 13.20700 23.79800
H  45.99600 12.53300 21.97300
H  46.26900 14.29500 21.59700
H  44.64900 13.72100 21.84100
H  42.82600 13.25600 27.63500
H  42.08900 14.91800 27.47800
H  42.02800 14.06000 28.95800
H  45.66300 15.16100 32.72900
H  43.24700 16.86300 35.85400
H  42.81500 18.09100 34.79300
H  44.48100 18.02800 35.22700
Mg 29.78600 57.01000 40.09500
C  27.19500 55.06100 38.76700
C  31.96700 54.63800 38.97300
C  32.15700 59.28800 40.30000
C  27.28000 59.43500 40.95600
N  29.58100 55.23300 38.84500
C  28.46100 54.57900 38.50100
C  28.69000 53.20300 37.95300
C  30.14200 52.99000 38.21100
C  30.63200 54.37000 38.72300
C  30.56700 51.89400 39.26400
C  28.35200 52.92300 36.46500
C  28.12200 54.20400 35.59600
H  28.45400 54.28300 34.15000
N  31.78300 56.95900 39.78700
C  32.51600 55.91600 39.37800
C  33.91900 56.24300 39.33900
C  34.03700 57.59700 39.71100
C  32.62200 58.01300 39.94000
C  34.98100 55.19800 39.01400
C  35.28400 58.47600 39.70300
O  36.36300 57.94700 39.41300
C  35.23500 59.99300 40.01300
N  29.75100 59.01000 40.66700
C  30.87700 59.73700 40.64900
C  30.49700 61.25900 40.85100
C  29.03800 61.18600 41.49500
C  28.58400 59.82000 40.97100
C  31.57200 62.01600 41.70300
C  28.11300 62.41200 41.09200
C  27.38000 63.06700 42.23700
N  27.66600 57.17400 40.00700
C  26.82000 58.19700 40.38100
C  25.45500 57.79400 40.11400
C  25.53700 56.52700 39.57800
C  26.88700 56.22300 39.47500
C  24.16600 58.50600 40.34700
C  24.82900 55.45400 38.98200
O  23.65100 55.31400 38.82700
C  25.88400 54.39900 38.53000
C  25.60300 53.16500 39.34900
O  26.04900 52.91700 40.47400
O  24.76300 52.35200 38.67700
C  24.44300 51.07600 39.22400
H  32.66000 53.79600 38.93000
H  32.84900 60.13200 40.29100
H  26.54900 60.14800 41.34600
H  28.09200 52.47200 38.49800
H  30.64400 52.73600 37.27800
H  29.85100 51.09700 39.46700
H  30.80000 52.31500 40.24100
H  31.44000 51.47800 38.76200
H  27.50100 52.24400 36.41200
H  29.10800 52.25900 36.04600
H  28.59900 55.05000 36.08900
H  27.03300 54.23600 35.61200
H  35.25700 55.26400 37.96200
H  34.79900 54.16600 39.31600
H  35.85300 55.42000 39.62900
H  36.29200 60.25000 39.94900
H  34.81100 60.05700 41.01500
H  34.71500 60.57100 39.24900
H  30.44300 61.70100 39.85600
H  29.08100 61.05600 42.57600
H  32.14500 61.35600 42.35400
H  31.10400 62.68900 42.42200
H  32.23600 62.77500 41.29000
H  27.40600 62.09000 40.32800
H  28.54800 63.32900 40.69500
H  26.95500 64.02100 41.92600
H  28.03300 63.16100 43.10600
H  26.49800 62.48200 42.49900
H  23.37300 57.88300 39.93400
H  24.05400 59.44700 39.80800
H  24.06300 58.64900 41.42300
H  25.65500 54.22800 37.47800
H  25.22200 50.45400 39.66500
H  24.09800 50.50300 38.36300
H  23.68800 51.07800 40.01100

