158

Mg 6.27300 54.43700 40.21100
C  5.44800 51.00600 39.94200
C  9.42200 53.68300 39.11000
C  7.00400 57.72200 39.75100
C  2.89200 55.14400 40.74800
N  7.32700 52.56200 39.39300
C  6.85600 51.26300 39.45400
C  7.77800 50.28400 38.75200
C  9.11800 51.04600 38.94500
C  8.62100 52.52900 39.12500
C  10.01500 50.70200 40.08900
C  7.30400 50.09500 37.23400
C  7.56200 48.71400 36.57000
H  6.51600 48.10500 35.67000
N  8.05600 55.53800 39.68100
C  9.30500 55.01800 39.40400
C  10.29900 56.10400 39.36800
C  9.58500 57.31800 39.52400
C  8.13800 56.86600 39.61600
C  11.81000 55.90100 39.25100
C  10.20200 58.76200 39.45600
O  11.42900 58.92500 39.28900
C  9.42200 60.00500 39.86300
N  5.07000 56.14100 40.20000
C  5.63900 57.40200 40.05200
C  4.54100 58.48500 40.23900
C  3.24000 57.63700 40.44600
C  3.70400 56.21300 40.50000
C  4.83000 59.60500 41.32300
C  2.10200 57.81500 39.30500
C  0.71600 57.93200 39.89800
N  4.57500 53.38700 40.37800
C  3.28800 53.73100 40.75500
C  2.46200 52.56000 40.99300
C  3.24100 51.45800 40.73000
C  4.51700 52.02800 40.37200
C  1.02900 52.64900 41.32300
C  3.26100 50.06100 40.58300
O  2.32400 49.24700 40.63800
C  4.76800 49.66200 40.14500
C  4.66200 48.70700 39.03600
O  4.16600 48.83100 37.91600
O  5.02400 47.47500 39.57800
C  4.85200 46.24000 38.80900
H  10.46200 53.47800 38.84600
H  7.21700 58.79300 39.77300
H  1.82200 55.28200 40.91700
H  7.84100 49.34100 39.29500
H  9.69200 50.92700 38.02600
H  9.49200 50.25000 40.93200
H  10.48600 51.61000 40.46500
H  10.84800 50.09600 39.73300
H  7.88700 50.69900 36.54000
H  6.31000 50.44900 36.96200
H  7.78000 48.04700 37.40400
H  8.52800 48.90200 36.10200
H  12.01800 54.98900 38.69200
H  12.31500 55.67500 40.19000
H  12.35600 56.73900 38.81900
H  8.63600 60.41900 39.23100
H  10.15700 60.80600 39.93200
H  9.11800 59.86100 40.90000
H  4.52500 59.00600 39.28100
H  2.78900 57.84000 41.41700
H  4.08200 59.63200 42.11500
H  4.86400 60.54800 40.77800
H  5.84000 59.41800 41.68700
H  2.15700 56.96400 38.62700
H  2.30100 58.65500 38.63900
H  0.07800 57.19200 39.41400
H  0.36700 58.96000 39.99300
H  0.81000 57.65300 40.94700
H  0.57500 53.03700 40.41100
H  0.78700 53.20700 42.22800
H  0.58500 51.67000 41.50500
H  5.08600 49.04200 40.98300
H  3.89200 45.74600 38.95800
H  5.65300 45.50800 38.92200
H  4.83300 46.47300 37.74400
Mg -5.13400 25.68700 25.96300
C  -3.69900 26.90700 28.80600
C  -7.01900 23.47300 27.86600
C  -6.51200 24.30300 23.08700
C  -2.68100 27.27600 24.04700
N  -5.34800 25.24300 28.06900
C  -4.70800 26.00000 29.09300
C  -5.23900 25.58800 30.39800
C  -5.95700 24.21300 30.13200
C  -6.11000 24.31800 28.57200
C  -5.26700 22.97500 30.68500
C  -6.19600 26.72100 31.06500
C  -6.13200 26.92100 32.60400
H  -5.55300 25.78800 33.41200
N  -6.71500 24.22600 25.50000
C  -7.31300 23.42500 26.44900
C  -8.28100 22.66800 25.76200
C  -8.19500 22.89400 24.36300
C  -7.14700 23.87900 24.25700
C  -9.28000 21.82800 26.44100
C  -9.02200 22.18500 23.23900
O  -8.80400 22.30700 22.05900
C  -10.15500 21.13600 23.54200
N  -4.81200 26.03200 23.84900
C  -5.38100 25.16700 22.93100
C  -4.80000 25.36300 21.50000
C  -3.67900 26.37800 21.79300
C  -3.65500 26.56600 23.34800
C  -4.24200 24.07600 20.79900
C  -3.84100 27.75900 21.07200
C  -2.54000 28.32400 20.42500
N  -3.51400 26.85900 26.22600
C  -2.58700 27.53400 25.43200
C  -1.70700 28.28000 26.28200
C  -2.10700 28.03200 27.57400
C  -3.18400 27.22500 27.52600
C  -0.52500 29.07400 25.76800
C  -1.77900 28.32900 28.96600
O  -0.79200 28.96300 29.40300
C  -2.85500 27.66700 29.80000
C  -2.14800 26.77800 30.78700
O  -1.91300 25.56800 30.61100
O  -1.83700 27.47200 31.96000
C  -1.18100 26.82200 33.12400
H  -7.58900 22.77400 28.48200
H  -6.85000 23.94300 22.11300
H  -1.80300 27.67100 23.53300
H  -4.38900 25.39500 31.05200
H  -6.91600 24.16600 30.64900
H  -4.70300 22.53400 29.86400
H  -6.03800 22.33300 31.11100
H  -4.57400 23.23600 31.48400
H  -7.22400 26.51200 30.76900
H  -6.02800 27.70500 30.62800
H  -7.12200 27.11600 33.01500
H  -5.60100 27.86300 32.74500
H  -10.27600 22.10400 26.09400
H  -9.23200 21.93800 27.52500
H  -9.16500 20.76000 26.25500
H  -11.00800 21.56300 24.07000
H  -9.62200 20.36900 24.10400
H  -10.54300 20.77400 22.59000
H  -5.59500 25.86800 20.95200
H  -2.77900 25.87000 21.44600
H  -4.71000 23.87900 19.83400
H  -4.37600 23.22400 21.46500
H  -3.17800 24.10700 20.56300
H  -4.20600 28.45900 21.82300
H  -4.66900 27.68400 20.36700
H  -2.69800 28.13700 19.36300
H  -1.53900 27.94700 20.63500
H  -2.65000 29.38400 20.65300
H  -0.78800 30.13100 25.81000
H  -0.32200 28.66400 24.77800
H  0.32400 28.99700 26.44700
H  -3.48400 28.29700 30.42900
H  -1.16700 27.67000 33.80900
H  -0.14500 26.63700 32.83800
H  -1.72900 25.96900 33.52300

