158

Mg 48.09200 35.76300 28.34900
C  46.31200 33.57600 30.69800
C  48.42600 37.95300 30.99900
C  48.88800 37.93600 26.18100
C  46.87300 33.44500 25.77400
N  47.41400 35.79600 30.51400
C  46.79900 34.81300 31.29600
C  46.73300 35.19100 32.80500
C  47.05100 36.75800 32.79600
C  47.67800 36.88700 31.33600
C  45.88200 37.70100 33.09400
C  47.87100 34.44000 33.61300
C  47.44400 33.88200 35.07200
H  46.47600 34.78300 35.88200
N  48.85000 37.65500 28.55800
C  48.95100 38.36000 29.69900
C  49.70000 39.53800 29.35200
C  49.86100 39.57400 27.90500
C  49.17200 38.34400 27.47300
C  50.18500 40.52400 30.47600
C  50.63700 40.56700 27.05500
O  50.75400 40.41900 25.89800
C  51.21800 41.69500 27.75300
N  47.92300 35.71300 26.25500
C  48.35400 36.80900 25.55900
C  48.09400 36.56100 24.04800
C  47.56000 35.07100 23.84400
C  47.46800 34.66700 25.33200
C  47.15900 37.71200 23.44800
C  48.55500 34.12300 23.16400
C  48.19200 33.79500 21.73000
N  47.04000 33.82500 28.22300
C  46.66600 33.02500 27.11200
C  45.96600 31.83700 27.55400
C  45.77700 32.09500 28.89100
C  46.45000 33.26900 29.30100
C  45.53800 30.64900 26.77300
C  45.07000 31.48700 30.07800
O  44.41500 30.44700 30.11800
C  45.21400 32.59000 31.18600
C  45.34100 31.99000 32.53500
O  46.35400 31.44100 32.91100
O  44.07200 32.06300 33.18500
C  44.00200 31.86200 34.59200
H  48.59100 38.76300 31.71200
H  49.21200 38.65200 25.42300
H  46.47700 32.85300 24.94600
H  45.72400 34.95900 33.14700
H  47.75800 37.00800 33.58600
H  46.05400 38.59000 33.70000
H  44.96900 37.20600 33.42400
H  45.55900 38.11900 32.14100
H  48.71700 35.12100 33.71100
H  48.24300 33.67400 32.93300
H  48.33900 33.60500 35.62900
H  46.92700 32.96600 34.78800
H  51.16800 40.92800 30.23500
H  50.26500 40.04100 31.45000
H  49.56300 41.41800 30.52500
H  50.43200 42.03200 28.42900
H  51.45600 42.51200 27.07100
H  52.08100 41.27900 28.27200
H  49.05900 36.62600 23.54400
H  46.56300 34.95100 23.42000
H  46.82500 38.26100 24.32800
H  46.25500 37.26800 23.03100
H  47.54500 38.34700 22.65000
H  48.60100 33.18800 23.72200
H  49.52800 34.61400 23.17200
H  47.14300 33.91400 21.45800
H  48.37300 32.75200 21.47000
H  48.88900 34.32400 21.08000
H  46.33900 29.93600 26.57700
H  45.08500 31.07600 25.87800
H  44.71000 30.22600 27.34200
H  44.22900 33.05600 31.18100
H  43.06100 32.14700 35.06200
H  44.81600 32.29700 35.17200
H  44.24100 30.80900 34.74800
Mg -5.25900 24.63800 26.47900
C  -3.64400 26.64000 28.86700
C  -6.13300 22.42700 28.90400
C  -6.97900 22.92500 24.14000
C  -4.01200 26.80500 23.95200
N  -5.16100 24.69700 28.60200
C  -4.54200 25.64800 29.41500
C  -4.71100 25.36400 30.92900
C  -5.35800 23.95200 30.83000
C  -5.49200 23.60600 29.31400
C  -4.36100 22.94200 31.42900
C  -5.60600 26.45200 31.61800
C  -5.17100 26.90100 32.99700
H  -4.65700 25.77100 33.99400
N  -6.38900 22.86800 26.52300
C  -6.54800 22.07700 27.59400
C  -7.30800 20.86100 27.18800
C  -7.52800 21.02700 25.80400
C  -6.92300 22.30700 25.39200
C  -7.67500 19.79200 28.26500
C  -8.23200 20.03800 24.84900
O  -8.40900 20.28800 23.67400
C  -8.95300 18.88300 25.44800
N  -5.49000 24.88000 24.34200
C  -6.28700 24.05900 23.62200
C  -6.09200 24.42600 22.07900
C  -5.24700 25.72100 22.10100
C  -4.79400 25.76700 23.52600
C  -5.36100 23.29400 21.29900
C  -5.95400 26.95900 21.53700
C  -5.21800 27.77900 20.48100
N  -4.09400 26.35600 26.37200
C  -3.58600 27.06800 25.32700
C  -2.82700 28.17500 25.83700
C  -2.87200 28.07700 27.21200
C  -3.57800 26.92000 27.48700
C  -2.14400 29.19100 24.98000
C  -2.36300 28.66200 28.44500
O  -1.69000 29.66700 28.63800
C  -2.85700 27.74000 29.57600
C  -1.63100 27.20200 30.24600
O  -0.67000 26.72800 29.65300
O  -1.73900 27.32700 31.61000
C  -0.67000 26.75400 32.34500
H  -6.34100 21.77000 29.75200
H  -7.53000 22.37300 23.37600
H  -3.64400 27.57500 23.27100
H  -3.75100 25.51300 31.42400
H  -6.32000 23.84700 31.33100
H  -3.87100 22.43300 30.59900
H  -4.89800 22.24300 32.07000
H  -3.57500 23.42600 32.00900
H  -6.62600 26.11200 31.79800
H  -5.66300 27.37700 31.04400
H  -5.98000 27.38900 33.54100
H  -4.28900 27.53300 32.89400
H  -8.76300 19.73500 28.23200
H  -7.30500 20.07500 29.25000
H  -7.07800 18.90400 28.05700
H  -8.25400 18.21000 25.94400
H  -9.62400 18.32900 24.79100
H  -9.50800 19.36000 26.25600
H  -7.11800 24.55100 21.73400
H  -4.26400 25.66900 21.63400
H  -5.49300 22.28200 21.68200
H  -4.28200 23.44800 21.30400
H  -5.76800 23.30900 20.28800
H  -6.25400 27.58400 22.37800
H  -6.86900 26.56800 21.09300
H  -5.98000 28.18000 19.81300
H  -4.45300 27.28700 19.88100
H  -4.74400 28.53300 21.11000
H  -2.81000 29.73800 24.31400
H  -1.41200 28.68300 24.35200
H  -1.69200 29.90300 25.67100
H  -3.50500 28.28100 30.26700
H  0.29600 26.75300 31.84000
H  -0.91400 25.73300 32.63900
H  -0.48200 27.39000 33.21000

