158

Mg 36.15600 50.21500 25.11400
C  36.53300 48.46200 28.08700
C  34.55800 52.74700 26.79200
C  35.82100 51.87100 22.14300
C  37.65000 47.58500 23.46200
N  35.65200 50.57900 27.17900
C  35.96600 49.73100 28.24100
C  35.62900 50.35400 29.60000
C  34.81100 51.65400 29.14900
C  35.01400 51.72400 27.61400
C  33.28200 51.67600 29.52400
C  36.92300 50.58900 30.50900
C  36.81700 50.24900 31.96700
H  35.42200 50.00200 32.53800
N  35.46800 52.16700 24.56000
C  34.70800 52.95900 25.35600
C  34.18900 54.07900 24.51300
C  34.66900 53.93800 23.21800
C  35.42900 52.62400 23.24000
C  33.31400 55.12600 25.21300
C  34.40900 54.81200 21.95600
O  34.83400 54.57700 20.80100
C  33.65700 56.07700 22.20300
N  36.73200 49.77400 23.06500
C  36.47800 50.65200 22.03400
C  36.74000 49.88800 20.67000
C  37.52200 48.63300 21.14500
C  37.28800 48.60800 22.63700
C  35.34300 49.50600 20.06400
C  38.95400 48.49400 20.57500
C  40.11000 48.38200 21.63800
N  36.85900 48.32800 25.58400
C  37.44900 47.33300 24.82700
C  37.69500 46.12400 25.59900
C  37.43100 46.55500 26.91700
C  36.98400 47.86600 26.88000
C  38.31600 44.84600 25.17800
C  37.46600 46.18100 28.29900
O  37.76500 45.06700 28.75300
C  37.00200 47.45400 29.13700
C  35.96600 46.90700 30.06000
O  34.78600 46.87800 29.82100
O  36.52100 46.33900 31.19700
C  35.55300 45.62700 32.04000
H  34.05200 53.55200 27.33100
H  35.67600 52.39000 21.19400
H  38.20200 46.86600 22.85200
H  35.03100 49.64100 30.16700
H  35.26200 52.52600 29.62200
H  32.84600 50.68100 29.61500
H  32.70200 52.17200 28.74600
H  33.06600 52.22000 30.44300
H  37.13900 51.65200 30.40100
H  37.77000 50.14800 29.98400
H  37.22900 51.00700 32.63300
H  37.40400 49.36700 32.22500
H  33.95500 55.95000 25.52300
H  32.76600 54.63600 26.01800
H  32.55400 55.64700 24.63000
H  32.58000 55.96500 22.33200
H  33.78000 56.74000 21.34600
H  34.09100 56.61500 23.04600
H  37.34900 50.40600 19.93000
H  36.90300 47.83500 20.73500
H  34.50500 50.12000 20.39400
H  35.14900 48.46900 20.33900
H  35.44800 49.65400 18.99000
H  39.18200 49.40400 20.02000
H  39.05500 47.64900 19.89400
H  39.86400 48.80400 22.61200
H  40.89800 49.07800 21.35000
H  40.46600 47.35600 21.72900
H  38.24000 44.77100 24.09300
H  37.93500 43.90800 25.58200
H  39.36700 44.87800 25.46500
H  37.77600 47.78000 29.83200
H  35.28900 44.68900 31.55200
H  34.66300 46.17900 32.34300
H  36.05300 45.31600 32.95700
Mg -11.70000 16.29000 41.91600
C  -9.00300 14.11400 41.30100
C  -10.23800 18.64600 39.91500
C  -14.54800 17.97800 41.79300
C  -13.61100 13.37600 42.73700
N  -9.82000 16.37800 40.80000
C  -8.84900 15.45000 40.75200
C  -7.56800 15.88700 39.89400
C  -7.94600 17.38700 39.58700
C  -9.47000 17.46400 40.07900
C  -6.92900 18.39600 40.18900
C  -7.27700 15.03600 38.62900
C  -5.77400 14.92700 38.45900
H  -5.32200 15.77800 37.25400
N  -12.16500 18.12200 41.26500
C  -11.41000 18.98700 40.48200
C  -12.10800 20.19800 40.19900
C  -13.34700 20.04200 40.93600
C  -13.41700 18.68400 41.46200
C  -11.70400 21.33900 39.21500
C  -14.49300 21.03900 41.08800
O  -14.34200 22.11400 40.53900
C  -15.67600 20.95200 42.03000
N  -13.84200 15.76300 42.14000
C  -14.77300 16.65600 42.15400
C  -16.16000 16.08400 42.30800
C  -15.90200 14.60500 42.54300
C  -14.39900 14.51200 42.48100
C  -17.09300 16.88500 43.33600
C  -16.56700 13.59200 41.54600
C  -18.11800 13.56000 41.49000
N  -11.38200 14.23200 42.08400
C  -12.24400 13.16100 42.47400
C  -11.53200 11.89700 42.66800
C  -10.22000 12.23200 42.19500
C  -10.25500 13.61900 41.78200
C  -12.01000 10.49000 43.08000
C  -8.86400 11.73100 41.90900
O  -8.34200 10.60400 41.83900
C  -8.04800 12.95300 41.37600
C  -6.85900 13.34800 42.23800
O  -6.86700 13.42900 43.45800
O  -5.79300 13.58500 41.35900
C  -4.54600 13.73700 42.13300
H  -9.65500 19.27000 39.23600
H  -15.53200 18.45300 41.78200
H  -14.10700 12.47200 43.09700
H  -6.77300 15.88500 40.63900
H  -7.95700 17.49500 38.50200
H  -7.58700 19.00200 40.81100
H  -6.47900 18.91000 39.34000
H  -6.15100 17.92400 40.79000
H  -7.73800 15.62800 37.83800
H  -7.67800 14.02300 38.65100
H  -5.42300 13.91700 38.24900
H  -5.29900 15.27800 39.37500
H  -12.47700 21.51200 38.46600
H  -10.70800 21.15100 38.81600
H  -11.71700 22.18500 39.90200
H  -16.04700 21.96300 42.19800
H  -15.27700 20.54500 42.95900
H  -16.46400 20.31100 41.63500
H  -16.68200 16.22700 41.36200
H  -16.30800 14.33000 43.51700
H  -17.52800 16.11300 43.97200
H  -17.94200 17.33500 42.82300
H  -16.50300 17.56900 43.94600
H  -16.37500 12.59300 41.93600
H  -16.06600 13.61700 40.57800
H  -18.42500 14.31100 42.21700
H  -18.62200 12.60800 41.66200
H  -18.33100 13.86200 40.46400
H  -12.03800 9.78700 42.24800
H  -12.99100 10.44800 43.55400
H  -11.28300 10.04200 43.75800
H  -7.65600 12.60400 40.42000
H  -4.43200 14.56700 42.83000
H  -3.82300 13.86300 41.32800
H  -4.38000 12.83800 42.72800

