158

Mg 34.74800 2.97900 29.60200
C  32.72000 4.14000 32.23800
C  37.37200 2.69300 31.81700
C  36.80900 2.49500 27.02700
C  32.07400 3.73900 27.50800
N  35.02100 3.45200 31.73500
C  34.03400 3.74600 32.65700
C  34.53900 3.58300 34.12400
C  36.10800 3.43000 33.92900
C  36.19000 3.12200 32.40400
C  37.03600 4.61100 34.23200
C  33.77600 2.43400 34.79500
C  33.13200 2.77100 36.13400
H  33.86900 3.83600 37.15200
N  36.81300 2.60900 29.41400
C  37.71900 2.53600 30.43600
C  39.04000 2.22900 29.89100
C  38.94500 2.10500 28.49600
C  37.49000 2.34500 28.26800
C  40.30400 2.03100 30.81800
C  40.03400 1.94400 27.38400
O  39.79700 1.95000 26.21100
C  41.47600 1.84200 27.88900
N  34.47700 3.14600 27.50700
C  35.48400 2.87300 26.63500
C  35.06100 3.18100 25.16500
C  33.50200 3.53100 25.38900
C  33.27400 3.39300 26.89700
C  35.81000 4.36100 24.47100
C  32.57400 2.69200 24.48600
C  32.18600 1.18200 24.81100
N  32.76200 3.69400 29.75200
C  31.77600 3.89700 28.85300
C  30.62400 4.42000 29.40600
C  30.88200 4.54000 30.78900
C  32.21600 4.13300 30.92100
C  29.35100 4.70400 28.64400
C  30.34000 4.82000 32.11400
O  29.25800 5.21000 32.49900
C  31.53800 4.50100 33.10800
C  31.69800 5.80600 33.91100
O  32.05300 6.90900 33.47900
O  31.19900 5.52600 35.18200
C  31.27800 6.62600 36.12700
H  38.17900 2.70100 32.55300
H  37.52600 2.46400 26.20400
H  31.37100 4.09700 26.75400
H  34.37000 4.58600 34.51600
H  36.49700 2.49200 34.32600
H  37.58000 4.89900 33.33200
H  37.75200 4.15000 34.91300
H  36.51500 5.39300 34.78500
H  34.52500 1.71200 35.12100
H  33.06800 1.84300 34.21300
H  33.14600 1.79000 36.60900
H  32.15100 3.18100 35.89300
H  40.15200 2.15600 31.89000
H  41.12300 2.70600 30.57400
H  40.62500 1.01800 30.57200
H  41.64000 2.77000 28.43700
H  42.11500 1.75500 27.01000
H  41.60000 0.98600 28.55200
H  35.04400 2.20400 24.68300
H  33.36000 4.59500 25.19700
H  36.36400 4.91900 25.22600
H  35.11000 5.06200 24.01700
H  36.42400 3.90500 23.69400
H  33.15500 2.48900 23.58700
H  31.68800 3.25500 24.19100
H  31.09900 1.11500 24.77200
H  32.49000 0.96400 25.83500
H  32.68400 0.43100 24.19800
H  28.85200 3.79900 28.29900
H  29.47100 5.30300 27.74100
H  28.57000 5.24800 29.17500
H  31.44900 3.78800 33.92700
H  31.19700 6.29700 37.16300
H  30.45500 7.32600 35.98300
H  32.23700 7.14100 36.06600
Mg -12.33100 15.52200 41.89500
C  -9.25700 13.91800 41.80000
C  -10.74000 18.26800 40.60700
C  -15.27500 16.90300 41.47900
C  -13.90700 12.38900 42.74400
N  -10.25900 15.94100 41.06100
C  -9.18200 15.12600 41.19600
C  -7.89600 15.76500 40.63500
C  -8.32900 17.24700 40.64500
C  -9.86400 17.24400 40.79300
C  -7.78200 18.09700 41.93700
C  -7.60900 15.15300 39.20400
C  -6.07600 14.88400 38.87000
H  -5.62500 15.76300 37.69600
N  -12.90700 17.39700 41.18900
C  -12.12900 18.42700 40.75000
C  -12.99500 19.55800 40.42700
C  -14.31800 19.21300 40.77400
C  -14.21500 17.76900 41.12700
C  -12.47500 20.87200 39.88700
C  -15.58700 20.02500 40.74300
O  -15.48800 21.14700 40.28900
C  -16.92200 19.59300 41.04500
N  -14.31100 14.65900 41.78800
C  -15.32500 15.51700 41.85500
C  -16.72900 14.87600 42.05700
C  -16.25600 13.36000 42.25800
C  -14.76600 13.46400 42.28900
C  -17.52900 15.36700 43.28300
C  -16.76200 12.39700 41.04100
C  -17.99600 11.53400 41.26900
N  -11.72300 13.58400 42.30800
C  -12.45600 12.48500 42.77100
C  -11.51400 11.46400 43.16900
C  -10.26700 11.93800 42.82600
C  -10.41400 13.18800 42.24300
C  -11.81100 10.12700 43.84500
C  -8.87500 11.64700 42.87700
O  -8.21600 10.69700 43.29200
C  -8.12100 12.96200 42.18000
C  -7.13700 13.63800 43.15900
O  -7.46600 14.38800 44.04500
O  -5.85600 13.49000 42.74900
C  -4.86100 14.31100 43.44400
H  -10.20900 19.21700 40.50400
H  -16.30800 17.25600 41.50300
H  -14.37600 11.42700 42.96100
H  -7.09700 15.56500 41.34900
H  -8.00800 17.76800 39.74300
H  -7.27500 17.42600 42.63100
H  -8.58000 18.70900 42.35700
H  -6.98500 18.70600 41.50900
H  -8.04800 15.80500 38.45000
H  -7.92700 14.11100 39.17700
H  -5.98900 13.84100 38.56500
H  -5.40600 15.06000 39.71100
H  -13.00400 21.28800 39.02900
H  -11.38900 20.89900 39.80700
H  -12.67800 21.56000 40.70800
H  -17.68300 20.37300 41.02100
H  -16.79800 19.30600 42.08900
H  -17.19500 18.73800 40.42700
H  -17.42400 14.88700 41.21800
H  -16.67200 12.95200 43.17900
H  -18.60300 15.44300 43.10900
H  -17.13200 16.32700 43.61200
H  -17.46300 14.72700 44.16300
H  -15.93600 11.84400 40.59500
H  -16.97500 13.11000 40.24400
H  -18.25800 11.40500 42.31900
H  -17.84800 10.49800 40.96400
H  -18.86400 11.96700 40.77300
H  -11.93400 10.22200 44.92400
H  -11.00500 9.45100 43.55900
H  -12.75000 9.65800 43.55200
H  -7.50000 12.66900 41.33300
H  -4.26300 14.79800 42.67400
H  -4.24500 13.62000 44.01900
H  -5.17600 15.10300 44.12300

