158

Mg 24.62000 -5.69500 45.88700
C  26.71100 -3.56600 44.12300
C  22.05500 -5.00800 43.54400
C  22.86200 -8.52300 46.75500
C  27.39200 -7.11600 47.45400
N  24.33600 -4.38300 44.21500
C  25.37100 -3.61000 43.66500
C  24.83600 -2.74400 42.47000
C  23.30500 -3.00800 42.48400
C  23.22000 -4.21200 43.44300
C  22.46200 -1.79400 43.04500
C  25.65600 -3.14800 41.19700
C  26.43700 -2.06600 40.40500
H  26.05200 -1.91200 38.86700
N  22.62100 -6.46200 45.43700
C  21.73800 -6.03300 44.42900
C  20.57400 -6.82300 44.44400
C  20.65800 -7.83900 45.54600
C  22.09200 -7.65500 46.01600
C  19.35300 -6.60100 43.47400
C  19.62900 -8.92600 45.93600
O  18.57400 -8.85900 45.34300
C  19.80800 -9.87900 47.01400
N  25.07900 -7.63700 47.00900
C  24.20600 -8.59500 47.15700
C  24.77400 -9.91800 47.74800
C  26.32600 -9.35900 48.06100
C  26.25400 -7.96300 47.45700
C  24.08300 -10.46900 49.06600
C  27.50200 -10.25900 47.38400
C  28.48400 -11.06200 48.26000
N  26.71500 -5.31400 45.95200
C  27.68200 -5.91400 46.73300
C  28.92300 -5.26400 46.45400
C  28.66400 -4.32600 45.44400
C  27.28100 -4.40200 45.13800
C  30.22000 -5.62500 47.08800
C  29.19000 -3.27900 44.54600
O  30.31000 -2.81200 44.54200
C  28.02000 -2.84900 43.66300
C  27.99000 -1.37800 43.80700
O  27.55900 -0.82300 44.79800
O  28.62500 -0.84600 42.70400
C  28.81800 0.62400 42.83100
H  21.37900 -4.78000 42.71700
H  22.37700 -9.49400 46.87300
H  28.24700 -7.53200 47.99200
H  25.23500 -1.76000 42.71900
H  22.82800 -3.25900 41.53600
H  23.08200 -0.90600 43.16300
H  22.07000 -2.04500 44.03100
H  21.69100 -1.54900 42.31500
H  24.85500 -3.51200 40.55400
H  26.34400 -3.97200 41.38700
H  27.51700 -2.20400 40.34800
H  26.24000 -1.06400 40.78500
H  18.78500 -5.74800 43.84500
H  18.87000 -7.56300 43.29900
H  19.78200 -6.29700 42.51900
H  18.84500 -10.15500 47.44300
H  20.54000 -9.49800 47.72700
H  20.27200 -10.71400 46.48900
H  24.70600 -10.60100 46.90100
H  26.38100 -9.24300 49.14400
H  23.16000 -9.91900 49.24700
H  24.75100 -10.35600 49.92000
H  23.78400 -11.49300 48.84100
H  28.13000 -9.62100 46.76200
H  27.02600 -11.06000 46.81800
H  28.36600 -12.12700 48.06300
H  28.19900 -10.84300 49.28900
H  29.51900 -10.87600 47.97300
H  30.11700 -6.02400 48.09700
H  30.96000 -4.83000 47.18000
H  30.72200 -6.39500 46.50300
H  28.25900 -3.12400 42.63600
H  28.12500 1.00300 43.58200
H  28.59200 1.06400 41.86000
H  29.88200 0.72100 43.05100
Mg 40.54000 9.06700 29.89900
C  42.35900 10.44900 32.63200
C  38.63000 7.34600 31.93100
C  39.05900 7.85700 27.14400
C  43.03700 10.55800 27.84000
N  40.63300 8.80500 32.05400
C  41.29100 9.55000 33.04900
C  40.84300 9.16700 34.50800
C  39.74000 8.12900 34.25900
C  39.61300 8.08400 32.63100
C  40.07200 6.70500 34.78500
C  40.46400 10.40100 35.39900
C  39.86800 10.23600 36.76400
H  40.35300 11.10300 37.93000
N  39.03800 7.73500 29.53500
C  38.19600 7.25400 30.58200
C  37.10400 6.49300 29.99500
C  37.18400 6.73300 28.58600
C  38.45700 7.44300 28.36600
C  36.01000 5.79000 30.76300
C  36.28600 6.20800 27.49300
O  36.49800 6.39200 26.26000
C  35.10700 5.31600 27.84100
N  41.07500 9.05700 27.77700
C  40.18400 8.67500 26.88400
C  40.70500 8.88200 25.47500
C  41.84100 9.84200 25.67200
C  41.96700 9.92200 27.18300
C  40.81600 7.64300 24.60500
C  41.75200 11.26200 24.99900
C  42.71700 11.52400 23.88600
N  42.37700 10.11700 30.08700
C  43.25000 10.63100 29.23600
C  44.23700 11.46600 29.88700
C  43.94200 11.47100 31.24300
C  42.80400 10.58800 31.32800
C  45.38400 12.16300 29.28200
C  44.34300 11.93700 32.51900
O  45.15500 12.75000 32.84700
C  43.42200 11.21300 33.53600
C  44.10200 10.26400 34.47000
O  44.81700 9.41100 34.00600
O  43.75600 10.46500 35.79300
C  44.00800 9.39400 36.79400
H  37.94600 6.87000 32.63600
H  38.61300 7.57800 26.18700
H  43.74800 11.08400 27.20000
H  41.66100 8.62900 34.99000
H  38.76900 8.43400 34.64800
H  40.19300 6.04900 33.92200
H  39.31600 6.27700 35.44200
H  41.02000 6.68300 35.32400
H  39.74400 10.99600 34.83700
H  41.39600 10.91700 35.62900
H  39.79900 9.18600 37.04900
H  38.82300 10.54600 36.72700
H  36.20600 6.07100 31.79800
H  36.08700 4.71200 30.62100
H  35.00600 6.15400 30.54500
H  34.37500 5.77400 28.50700
H  35.50700 4.45200 28.37200
H  34.60900 4.95600 26.94100
H  39.93600 9.38100 24.88500
H  42.77000 9.36000 25.36700
H  40.44400 6.72300 25.05600
H  41.88500 7.44900 24.51600
H  40.41400 7.94900 23.63900
H  41.75900 12.05400 25.74700
H  40.73500 11.39400 24.62900
H  43.22800 12.43500 24.19600
H  42.32500 11.70800 22.88500
H  43.58600 10.86600 23.88300
H  45.72000 11.73000 28.34000
H  46.17500 12.47500 29.96400
H  44.89800 13.07500 28.93700
H  42.97300 12.00000 34.14400
H  43.54900 9.52300 37.77400
H  45.07500 9.35300 37.00900
H  43.76400 8.45100 36.30400

