158

Mg -2.28400 17.35500 25.83200
C  -3.03800 14.98200 28.36000
C  -2.68300 19.79600 28.11500
C  -2.17100 19.58600 23.32700
C  -2.48700 14.72400 23.42600
N  -2.76500 17.31200 28.02500
C  -2.89400 16.31100 28.91400
C  -2.84800 16.69400 30.29800
C  -2.81700 18.25200 30.30600
C  -2.76000 18.48200 28.73500
C  -3.99900 18.98200 31.03100
C  -1.84400 15.94600 31.16500
C  -1.37900 16.65000 32.36700
H  -0.88800 15.74900 33.47500
N  -2.30500 19.33900 25.75500
C  -2.49100 20.18700 26.78100
C  -2.72800 21.59300 26.33800
C  -2.39600 21.52300 24.97300
C  -2.30700 20.09500 24.59500
C  -2.93000 22.82200 27.22700
C  -2.46200 22.71900 23.99200
O  -2.37400 22.62000 22.78600
C  -2.47300 24.10500 24.47900
N  -2.32900 17.19000 23.61900
C  -2.21000 18.25500 22.83400
C  -1.97600 17.81200 21.34700
C  -1.96300 16.24600 21.38300
C  -2.25200 16.04000 22.86400
C  -3.11400 18.27800 20.45300
C  -0.69300 15.56000 20.93000
C  -0.83300 14.40400 19.86900
N  -2.69100 15.31200 25.80400
C  -2.74100 14.41000 24.79200
C  -3.00700 13.11600 25.30800
C  -3.09000 13.31100 26.65100
C  -2.92700 14.68300 26.94500
C  -3.08300 11.83200 24.56500
C  -3.26200 12.60900 27.94800
O  -3.43400 11.42900 28.15100
C  -3.16500 13.64200 29.07800
C  -1.96900 13.12500 29.79400
O  -0.75000 13.23100 29.51800
O  -2.45600 12.56800 31.01900
C  -1.48500 11.92500 31.82800
H  -2.69300 20.62000 28.83200
H  -2.15000 20.28500 22.48800
H  -2.46800 13.79000 22.86100
H  -3.84800 16.38800 30.60600
H  -1.86100 18.65400 30.64500
H  -3.58200 19.79900 31.62000
H  -4.44400 18.35000 31.79900
H  -4.87200 19.23400 30.42900
H  -0.94800 15.67400 30.60600
H  -2.21000 15.01300 31.59200
H  -2.18100 17.28600 32.74000
H  -0.52200 17.31900 32.27400
H  -1.99500 23.37900 27.15900
H  -3.07500 22.52100 28.26500
H  -3.79800 23.40500 26.92100
H  -2.12300 24.76400 23.68400
H  -1.67200 24.10600 25.21800
H  -3.44200 24.55400 24.69900
H  -0.97200 18.08100 21.01900
H  -2.84200 15.89600 20.84300
H  -2.61000 19.13900 20.01500
H  -3.83700 18.63100 21.18900
H  -3.58400 17.65300 19.69400
H  -0.16000 15.06700 21.74300
H  0.04500 16.27700 20.56800
H  -0.37400 13.47100 20.19600
H  -0.17800 14.63200 19.02800
H  -1.83400 14.28800 19.45100
H  -2.16500 11.71700 23.98800
H  -3.81600 11.97300 23.77100
H  -3.41300 10.96800 25.14200
H  -4.01000 13.75000 29.75800
H  -1.05600 11.12500 31.22400
H  -1.92700 11.58300 32.76300
H  -0.64800 12.59300 32.03100
Mg -11.97600 15.17700 41.87600
C  -8.77900 14.05700 41.35800
C  -11.21900 18.23800 40.34700
C  -15.25700 15.94900 42.09400
C  -12.87000 11.71300 42.36100
N  -10.19900 16.03800 40.86600
C  -8.97300 15.35700 40.91200
C  -7.90100 16.24500 40.15800
C  -8.73400 17.66800 40.01400
C  -10.14800 17.32400 40.38600
C  -8.16300 18.99700 40.67400
C  -7.61100 15.62700 38.70800
C  -6.08600 15.55400 38.38800
H  -5.51900 16.40500 37.26100
N  -13.09200 16.80200 41.33900
C  -12.58200 18.00500 40.80900
C  -13.65900 18.97600 40.71000
C  -14.81000 18.37800 41.35900
C  -14.40500 17.01600 41.70400
C  -13.47400 20.38600 40.05100
C  -16.25800 19.02400 41.48800
O  -16.44200 20.14400 40.97900
C  -17.38600 18.36900 42.13100
N  -13.77300 14.05300 42.06000
C  -14.94000 14.60800 42.25500
C  -16.03900 13.56100 42.57700
C  -15.34200 12.23800 42.05600
C  -13.91300 12.68600 42.29600
C  -16.35300 13.53100 44.11000
C  -15.56900 11.93800 40.57500
C  -16.25400 10.57600 40.21100
N  -11.04800 13.20000 42.15700
C  -11.51200 11.99100 42.26800
C  -10.44200 11.01900 42.33700
C  -9.30300 11.73200 41.97700
C  -9.72200 13.08400 41.86200
C  -10.66300 9.53700 42.73300
C  -7.90500 11.67500 41.65000
O  -7.18700 10.65700 41.58900
C  -7.52600 13.13600 41.28000
C  -6.57600 13.64800 42.27100
O  -6.73200 13.60400 43.46200
O  -5.62000 14.34000 41.56500
C  -4.42300 14.74500 42.36900
H  -10.98800 19.24100 39.98100
H  -16.32200 16.17200 42.18400
H  -13.19400 10.67500 42.46200
H  -7.02800 16.46400 40.77300
H  -8.74700 17.85800 38.94000
H  -8.34600 19.76900 39.92700
H  -7.08300 18.84900 40.66200
H  -8.63200 19.28100 41.61600
H  -8.11700 16.17500 37.91200
H  -8.00000 14.61600 38.58800
H  -5.75700 14.51900 38.30100
H  -5.54600 15.80600 39.30100
H  -14.23200 21.07800 40.41700
H  -13.64800 20.28900 38.97900
H  -12.51000 20.78300 40.37100
H  -18.27400 18.98100 41.97600
H  -17.20400 18.16300 43.18600
H  -17.66600 17.54000 41.48100
H  -16.88100 13.66200 41.89200
H  -15.50300 11.38700 42.71800
H  -15.85100 14.27200 44.73200
H  -16.21400 12.53200 44.52100
H  -17.42600 13.61800 44.27800
H  -14.65100 12.04400 39.99700
H  -16.23900 12.66500 40.11700
H  -15.77600 9.74600 40.73100
H  -16.21400 10.44100 39.13000
H  -17.31300 10.56100 40.46600
H  -11.30300 9.02000 42.01800
H  -11.25200 9.40100 43.64000
H  -9.67100 9.08800 42.78400
H  -7.04500 13.15900 40.30200
H  -4.60100 15.67900 42.90400
H  -3.54900 14.94300 41.75000
H  -4.16700 13.94900 43.06800

