158

Mg 16.78600 51.47500 26.97400
C  18.82400 49.93300 29.40300
C  14.51200 52.04100 29.43400
C  14.91200 53.04000 24.61100
C  18.97800 50.30400 24.49600
N  16.69700 51.03300 29.16400
C  17.66800 50.45400 29.93000
C  17.36400 50.54100 31.44400
C  15.83300 50.99200 31.41300
C  15.63100 51.35800 29.92100
C  14.87100 49.87500 31.86200
C  18.27500 51.41500 32.31800
C  17.69200 52.06800 33.55400
H  16.78600 51.22200 34.41300
N  14.93500 52.48200 27.03100
C  14.16400 52.64600 28.16900
C  13.05800 53.49700 27.83500
C  13.11400 53.75800 26.42500
C  14.38800 53.11300 25.92300
C  12.07700 53.99200 28.88300
C  12.13400 54.46700 25.51200
O  12.26400 54.54700 24.30200
C  10.90600 54.99800 26.04900
N  16.82000 51.48800 24.79000
C  15.98400 52.35200 24.11500
C  16.39600 52.35300 22.65600
C  17.76500 51.60800 22.54700
C  17.91500 51.10100 24.01700
C  15.39000 51.68700 21.65900
C  19.04400 52.36700 22.03600
C  19.33400 53.81200 22.49200
N  18.55400 50.36800 26.91700
C  19.34800 50.03900 25.83200
C  20.59200 49.46000 26.32800
C  20.38200 49.35200 27.70500
C  19.14900 49.94100 28.01600
C  21.69600 49.02800 25.46500
C  20.98900 48.90800 28.94900
O  22.01900 48.26900 29.20600
C  20.10900 49.38100 30.03800
C  19.76700 48.22600 30.92100
O  19.18900 47.22500 30.59200
O  20.23000 48.48500 32.24300
C  19.89700 47.41500 33.29000
H  13.81100 52.28700 30.23400
H  14.26900 53.43600 23.82200
H  19.61700 50.10200 23.63400
H  17.44400 49.48400 31.69800
H  15.74200 51.88400 32.03300
H  15.41900 48.96100 32.09200
H  14.13600 49.69700 31.07700
H  14.39800 50.26100 32.76400
H  18.58000 52.24400 31.68000
H  19.25000 50.98500 32.54700
H  17.19500 52.98900 33.24800
H  18.52400 52.40300 34.17400
H  11.10900 53.49500 28.95100
H  11.81900 55.00900 28.58900
H  12.45200 53.88300 29.90000
H  10.33900 54.39300 26.75600
H  10.38300 55.15600 25.10600
H  11.14100 55.93700 26.54900
H  16.55800 53.38300 22.33900
H  17.68600 50.73100 21.90400
H  15.81600 51.35200 20.71400
H  14.75500 52.51500 21.34600
H  14.91300 50.78400 22.04100
H  18.97700 52.33600 20.94900
H  19.82700 51.64200 22.25900
H  20.36800 53.86300 22.83200
H  18.62500 54.22300 23.21000
H  19.25300 54.44600 21.60900
H  22.47200 49.79300 25.44200
H  21.47900 48.71700 24.44300
H  22.24800 48.26600 26.01500
H  20.58900 50.15400 30.63800
H  18.85300 47.39900 33.60100
H  20.45600 47.51500 34.22000
H  20.10200 46.42400 32.88300
Mg -5.41700 24.57900 25.75400
C  -3.68900 26.20200 28.39200
C  -7.12100 22.70800 28.01200
C  -6.67600 22.98000 23.04600
C  -3.34500 26.41700 23.49700
N  -5.43900 24.44000 27.89000
C  -4.74200 25.34600 28.78300
C  -5.27700 25.18000 30.17800
C  -6.02900 23.76200 30.13400
C  -6.25100 23.62200 28.59400
C  -5.18200 22.55400 30.76200
C  -6.08400 26.44200 30.66500
C  -6.02300 26.82800 32.18400
H  -5.22000 25.84000 33.06100
N  -6.73600 23.04300 25.53900
C  -7.41600 22.42600 26.58100
C  -8.37100 21.51800 25.96900
C  -8.35700 21.66700 24.53200
C  -7.26700 22.64900 24.31000
C  -9.29300 20.86800 26.87900
C  -9.12000 20.80300 23.42200
O  -9.04700 21.04300 22.23400
C  -9.94500 19.75600 23.84500
N  -4.88100 24.51000 23.58000
C  -5.61800 23.81500 22.69400
C  -5.23500 24.09100 21.25300
C  -4.19300 25.29800 21.37900
C  -4.07100 25.40000 22.92500
C  -4.68300 22.74000 20.64700
C  -4.67000 26.58000 20.53300
C  -3.76600 27.27900 19.44800
N  -3.93100 26.03400 25.85400
C  -3.20400 26.72600 24.86400
C  -2.31100 27.67700 25.45500
C  -2.46100 27.49600 26.85100
C  -3.39700 26.44700 27.03800
C  -1.32000 28.67200 24.82800
C  -1.92700 27.91500 28.14500
O  -1.08300 28.78300 28.42400
C  -2.75900 27.03900 29.21700
C  -1.89400 26.27900 30.04200
O  -1.26700 25.28100 29.75500
O  -1.67500 26.89100 31.25900
C  -0.65500 26.34500 32.24600
H  -7.53200 22.06700 28.79400
H  -7.18400 22.47600 22.22100
H  -2.79000 26.94900 22.72200
H  -4.45800 24.96100 30.86300
H  -7.01600 23.73300 30.59500
H  -4.75700 21.87900 30.02000
H  -5.75500 21.83100 31.34300
H  -4.42900 22.91300 31.46400
H  -7.12700 26.36700 30.35700
H  -5.76000 27.33200 30.12600
H  -7.00800 26.99800 32.61900
H  -5.38400 27.70800 32.26100
H  -9.05400 19.80900 26.78600
H  -10.28300 21.00700 26.44400
H  -9.27300 21.10900 27.94200
H  -10.35700 19.04200 23.13200
H  -10.84100 20.12900 24.34300
H  -9.36300 19.30400 24.64800
H  -6.11700 24.45900 20.73000
H  -3.21100 25.06500 20.96800
H  -3.59400 22.75500 20.69200
H  -4.91200 22.73100 19.58100
H  -5.09600 21.93700 21.25700
H  -4.75400 27.43100 21.21000
H  -5.62300 26.37700 20.04500
H  -3.43700 28.23400 19.85800
H  -4.33900 27.40900 18.53000
H  -2.90200 26.63900 19.27300
H  -1.75400 29.27400 24.03000
H  -0.40100 28.26300 24.40900
H  -0.96600 29.36600 25.59000
H  -3.27800 27.72300 29.88900
H  -0.99000 25.43200 32.73800
H  -0.60900 27.13500 32.99500
H  0.26300 26.05300 31.73500

