158

Mg 26.13800 0.29100 28.37900
C  27.75300 0.08300 31.43300
C  23.17500 0.71700 30.11900
C  24.48900 0.24000 25.41300
C  29.05700 -0.70200 26.77700
N  25.57700 0.30200 30.60000
C  26.39400 0.22300 31.64800
C  25.65600 0.50600 33.03200
C  24.18000 0.63400 32.48500
C  24.30300 0.49600 30.95500
C  23.15700 -0.41200 33.10500
C  26.15100 1.68500 33.90200
C  26.56600 1.25200 35.32900
H  26.04200 2.23000 36.43200
N  24.14500 0.51200 27.80500
C  23.06700 0.68600 28.65200
C  21.87600 0.87600 27.90800
C  22.22200 0.88100 26.54400
C  23.68600 0.45600 26.51800
C  20.53400 0.91500 28.56100
C  21.32200 1.20500 25.31100
O  21.84400 1.18100 24.17200
C  19.94700 1.70100 25.52700
N  26.67300 -0.21800 26.38000
C  25.83600 -0.09900 25.29500
C  26.56800 -0.18300 23.91300
C  28.04700 -0.40900 24.39100
C  27.97400 -0.37300 25.98900
C  26.16900 -1.33800 22.92500
C  29.16100 0.55900 23.77700
C  29.33500 1.94000 24.38600
N  28.03300 -0.18300 28.96200
C  29.10600 -0.49000 28.16300
C  30.25900 -0.65600 28.99500
C  29.73100 -0.38400 30.30300
C  28.40300 -0.15000 30.20600
C  31.64700 -1.00100 28.55800
C  30.14600 -0.30000 31.71000
O  31.17600 -0.49600 32.31100
C  28.82800 0.07100 32.47400
C  28.50000 -0.93200 33.58800
O  27.73100 -1.87100 33.50600
O  29.22000 -0.67500 34.74400
C  28.85300 -1.37400 35.98300
H  22.37200 0.85300 30.84600
H  24.07600 0.49300 24.43400
H  29.98400 -0.92300 26.24500
H  25.67300 -0.38400 33.66100
H  23.88400 1.65000 32.74800
H  22.30000 0.17000 33.44400
H  23.50900 -0.83500 34.04500
H  22.92000 -1.14800 32.33700
H  25.49700 2.54000 34.08000
H  27.08900 1.99200 33.44000
H  27.63400 1.06000 35.42800
H  26.15600 0.25000 35.45600
H  20.30000 1.96900 28.71200
H  20.58500 0.29900 29.45900
H  19.70100 0.43200 28.05000
H  19.36100 0.81900 25.78400
H  19.64500 2.20200 24.60700
H  19.95700 2.36500 26.39100
H  26.34800 0.76800 23.42800
H  28.39800 -1.43100 24.25300
H  25.09900 -1.53200 22.99800
H  26.66900 -2.29400 23.08200
H  26.32200 -1.04600 21.88600
H  29.06300 0.76900 22.71200
H  30.12000 0.04500 23.83700
H  28.69300 2.58100 23.78300
H  30.36500 2.23000 24.17600
H  29.25100 1.85700 25.47000
H  32.06800 -1.67600 29.30200
H  32.27500 -0.11500 28.66200
H  31.54000 -1.58200 27.64100
H  28.97100 1.06200 32.90400
H  29.11600 -2.43100 35.93600
H  27.77800 -1.27800 36.13500
H  29.25800 -0.91700 36.88600
Mg 44.31400 4.52000 47.07600
C  42.25100 7.26600 46.41400
C  41.60500 2.45500 46.48800
C  46.37700 1.88800 46.81200
C  46.96100 6.74600 47.23600
N  42.26200 4.87100 46.41800
C  41.60800 6.06100 46.25500
C  40.13500 5.88700 45.87300
C  39.90600 4.42300 46.37900
C  41.39700 3.86000 46.51400
C  39.26500 4.39300 47.77800
C  40.06300 5.93000 44.31100
C  39.23600 7.02900 43.66800
H  39.48100 7.28100 42.20600
N  44.00900 2.40700 46.83200
C  42.83500 1.78600 46.62000
C  43.10800 0.31500 46.59900
C  44.48900 0.13600 46.38700
C  45.06300 1.50800 46.63800
C  42.06600 -0.75300 46.44900
C  45.22500 -1.09000 46.14000
O  44.54100 -2.08000 45.91100
C  46.76000 -1.24100 46.10200
N  46.37300 4.34300 46.93200
C  46.94800 3.13100 47.06600
C  48.49100 3.23200 47.19300
C  48.73500 4.81800 47.25700
C  47.26900 5.36300 47.13600
C  49.02200 2.37600 48.35800
C  49.74000 5.43900 46.28100
C  51.10700 5.97300 46.82500
N  44.59900 6.58500 47.02400
C  45.70800 7.33200 47.11000
C  45.42200 8.72800 47.10100
C  44.01500 8.79900 46.82200
C  43.61200 7.41300 46.72700
C  46.36300 9.82000 47.36000
C  42.87200 9.71400 46.56500
O  42.69700 10.92200 46.42300
C  41.68500 8.70900 46.25400
C  40.71900 9.05300 47.31500
O  40.95700 9.00100 48.49000
O  39.46800 9.42600 46.81300
C  38.43300 9.66800 47.75800
H  40.72300 1.81300 46.54500
H  47.17000 1.15100 46.66900
H  47.76100 7.47500 47.38200
H  39.48800 6.69000 46.22500
H  39.39700 3.83000 45.61900
H  39.20400 5.41900 48.14000
H  39.80400 3.84900 48.55500
H  38.24600 4.01400 47.70000
H  39.59400 5.07000 43.83200
H  41.08800 5.91900 43.94000
H  39.30000 7.98000 44.19600
H  38.20200 6.68800 43.61400
H  42.19900 -1.31900 45.52800
H  41.03500 -0.44200 46.27800
H  42.21000 -1.46300 47.26300
H  47.32400 -0.94700 46.98700
H  47.20400 -0.88100 45.17400
H  46.93600 -2.31400 46.02600
H  49.07400 2.95000 46.31700
H  49.04600 5.07400 48.27000
H  48.28100 2.21500 49.14100
H  49.91300 2.82500 48.79700
H  49.34700 1.36300 48.12300
H  49.22300 6.36400 46.02300
H  49.89700 4.82700 45.39300
H  51.87800 5.39800 46.31200
H  51.17100 5.80500 47.90000
H  51.13400 7.05600 46.70900
H  46.23200 10.06700 48.41400
H  46.07000 10.66100 46.73300
H  47.38000 9.49100 47.14100
H  41.18800 8.91700 45.30600
H  38.59900 10.64300 48.21700
H  38.45300 8.89700 48.52800
H  37.47700 9.77400 47.24500

