158

Mg 53.93600 24.41300 43.90100
C  51.16800 26.55400 43.31900
C  52.23800 21.85700 42.57800
C  56.88300 22.70200 43.53000
C  55.79100 27.40600 44.72300
N  52.04200 24.35600 42.82300
C  50.98000 25.22600 42.89600
C  49.68500 24.58500 42.36600
C  50.02000 23.10700 42.39400
C  51.53100 23.08700 42.70300
C  49.27000 22.21700 43.39700
C  49.04300 25.04800 41.03300
C  49.99800 25.58300 39.90000
H  50.04500 24.73000 38.65400
N  54.50000 22.42500 43.21400
C  53.63200 21.55700 42.68700
C  54.29200 20.27000 42.45300
C  55.66600 20.42900 42.87700
C  55.74800 21.90400 43.28900
C  53.53500 19.10100 41.88900
C  56.75900 19.38600 42.80000
O  56.53800 18.29500 42.30900
C  58.07900 19.59200 43.42600
N  55.96100 24.96700 43.94900
C  56.98800 24.08300 43.83400
C  58.41900 24.72700 44.04600
C  58.02300 26.25900 44.23500
C  56.45000 26.20600 44.34100
C  59.13500 24.03800 45.32300
C  58.73500 27.26800 43.16400
C  59.22100 28.63300 43.73900
N  53.57400 26.53000 44.25900
C  54.36400 27.57600 44.65500
C  53.52000 28.66800 44.96100
C  52.30700 28.29400 44.39300
C  52.37200 27.05400 43.95500
C  53.88100 29.92400 45.41900
C  50.96900 28.85800 44.16600
O  50.49800 29.93800 44.45900
C  50.30200 27.77600 43.32200
C  49.98200 28.38800 42.07200
O  50.82400 28.71700 41.26100
O  48.63500 28.44800 41.79200
C  48.21700 28.90200 40.43100
H  51.59000 20.99000 42.43300
H  57.85100 22.20700 43.42700
H  56.33400 28.33100 44.92800
H  49.03200 24.81100 43.20900
H  49.95500 22.72800 41.37500
H  48.21300 22.48000 43.41800
H  49.67500 22.28300 44.40700
H  49.20000 21.15900 43.14600
H  48.44100 25.90900 41.32200
H  48.39500 24.30000 40.57700
H  51.00800 25.65600 40.30400
H  49.56900 26.52600 39.56300
H  53.38600 18.99900 40.81400
H  52.58500 19.00300 42.41400
H  54.14400 18.24900 42.19000
H  58.60300 18.63900 43.49600
H  57.95900 20.02600 44.41800
H  58.57000 20.20000 42.66600
H  59.01800 24.64200 43.13900
H  58.39400 26.59200 45.20400
H  60.10600 24.49900 45.50900
H  59.28000 22.96800 45.17800
H  58.47000 23.94500 46.18100
H  57.92000 27.47500 42.47000
H  59.51500 26.72700 42.62800
H  58.73400 28.87800 44.68400
H  58.88500 29.45100 43.10100
H  60.30600 28.55600 43.80400
H  53.11700 30.70000 45.36700
H  54.76800 30.30200 44.91100
H  54.17700 29.76700 46.45600
H  49.33800 27.55100 43.78100
H  48.49700 29.95300 40.34900
H  47.14700 28.70100 40.38500
H  48.71800 28.37800 39.61700
Mg 47.37600 25.42700 28.02600
C  48.56600 27.38300 30.76600
C  45.87500 23.32000 30.28600
C  46.69100 23.38400 25.57800
C  49.29200 27.58800 25.96400
N  47.34700 25.33400 30.20500
C  47.91300 26.24200 31.14900
C  47.35700 25.82700 32.58500
C  46.73200 24.42800 32.35100
C  46.62200 24.37000 30.85500
C  47.46200 23.24900 32.83300
C  46.42200 26.94100 33.19000
C  46.91100 27.51500 34.52000
H  45.89700 27.76700 35.67700
N  46.36200 23.57400 27.93900
C  45.79000 22.88100 29.04300
C  45.20800 21.67400 28.51900
C  45.50200 21.62900 27.13300
C  46.18000 22.85400 26.81800
C  44.55500 20.59300 29.31400
C  45.06500 20.63600 26.04800
O  45.37600 20.69000 24.89400
C  44.27900 19.46300 26.52400
N  48.01700 25.41800 26.07000
C  47.41500 24.52600 25.17200
C  47.76600 24.93100 23.70300
C  48.61900 26.23400 23.94800
C  48.64300 26.45900 25.44900
C  48.46700 23.87200 22.90000
C  48.02500 27.45600 23.22100
C  48.91300 28.20700 22.35200
N  48.71000 27.20200 28.24500
C  49.45800 27.92100 27.32100
C  50.14400 29.00100 27.96100
C  49.74800 28.87200 29.32300
C  48.93400 27.74300 29.41000
C  50.99500 30.11300 27.34400
C  49.87600 29.41300 30.63400
O  50.46600 30.39700 31.11400
C  49.07700 28.45000 31.57700
C  50.17700 28.10300 32.58400
O  51.14600 27.40300 32.33300
O  49.95200 28.72300 33.81800
C  51.01400 28.55800 34.90700
H  45.43900 22.59500 30.97600
H  46.43300 22.90500 24.63100
H  49.75500 28.26200 25.24100
H  48.09800 25.60500 33.35200
H  45.73100 24.36400 32.77500
H  48.33800 23.39000 33.46600
H  48.02200 22.74900 32.04300
H  46.66200 22.66800 33.29200
H  45.43100 26.51600 33.34900
H  46.24900 27.81100 32.55600
H  47.36100 28.48900 34.32500
H  47.76400 26.99800 34.95900
H  43.64300 20.19200 28.87200
H  44.28600 20.82400 30.34500
H  45.36100 19.88100 29.49200
H  44.88000 18.81900 27.16500
H  44.33100 18.76700 25.68700
H  43.21700 19.64800 26.69100
H  46.81400 25.08400 23.19400
H  49.63600 26.03900 23.60700
H  48.03100 23.77900 21.90500
H  48.71400 22.97600 23.46900
H  49.44900 24.20300 22.56200
H  47.60700 28.19500 23.90500
H  47.12900 27.14000 22.68600
H  49.32800 29.00100 22.97400
H  48.24200 28.66100 21.62300
H  49.69200 27.56700 21.93700
H  50.52300 31.09400 27.40000
H  51.32800 29.86700 26.33600
H  51.83200 30.32500 28.00900
H  48.25100 28.97000 32.06200
H  50.63600 27.83200 35.62700
H  51.26000 29.48300 35.42900
H  51.89900 28.01700 34.57300

