158

Mg -2.38400 16.85800 26.56800
C  -2.86000 14.44200 29.09400
C  -3.12800 19.33700 28.99000
C  -2.28200 19.25200 24.06500
C  -2.42600 14.40300 24.22500
N  -3.00700 16.89200 28.81300
C  -2.92800 15.76000 29.62900
C  -3.05100 16.17600 31.12000
C  -3.35900 17.75200 30.98100
C  -3.15400 18.00400 29.51500
C  -4.72500 18.25000 31.45300
C  -1.80800 15.67600 31.97800
C  -1.11700 16.66600 32.97900
H  -0.74400 15.97500 34.38300
N  -2.66100 18.99100 26.51800
C  -2.88300 19.80300 27.62100
C  -2.97800 21.12900 27.16800
C  -2.68600 21.18000 25.74200
C  -2.44700 19.77100 25.38200
C  -3.27600 22.23400 28.11600
C  -2.55900 22.30900 24.76800
O  -2.36900 22.10100 23.55700
C  -2.71400 23.65800 25.30200
N  -2.38900 16.89200 24.51800
C  -2.27100 17.93700 23.62900
C  -2.49100 17.53600 22.14200
C  -2.29700 15.97000 22.24600
C  -2.38200 15.69600 23.79000
C  -3.86700 17.85900 21.42700
C  -0.88800 15.48700 21.75500
C  -0.88400 14.70400 20.47000
N  -2.57500 14.74900 26.65000
C  -2.57000 13.89700 25.56400
C  -2.52800 12.53100 26.08600
C  -2.63700 12.68500 27.51000
C  -2.72000 14.07000 27.75400
C  -2.47900 11.27800 25.22700
C  -2.76300 12.02200 28.70900
O  -2.68200 10.82800 28.98400
C  -2.93900 13.10600 29.83000
C  -1.83200 12.89800 30.72800
O  -0.72000 13.27400 30.63100
O  -2.38600 12.16100 31.79600
C  -1.38700 11.88300 32.85000
H  -3.25700 20.12100 29.73900
H  -2.23400 19.96200 23.23700
H  -2.33200 13.63100 23.45800
H  -3.88200 15.70000 31.64000
H  -2.56300 18.29400 31.49100
H  -5.62800 17.91800 30.94100
H  -4.76200 19.33900 31.47400
H  -4.81000 17.95600 32.49900
H  -1.05400 15.50000 31.21000
H  -2.11400 14.71000 32.38000
H  -1.92400 17.36600 33.19700
H  -0.21600 17.20500 32.68700
H  -2.34500 22.78300 28.25400
H  -3.70200 22.02400 29.09800
H  -4.09800 22.80000 27.67800
H  -3.79000 23.74700 25.44700
H  -2.30900 24.28300 24.50600
H  -2.13700 23.66600 26.22600
H  -1.68500 18.08600 21.65600
H  -3.09100 15.40900 21.75300
H  -4.45800 16.94500 21.36600
H  -3.75000 18.09100 20.36800
H  -4.42400 18.65000 21.92900
H  -0.44100 14.90000 22.55700
H  -0.29400 16.37900 21.55200
H  -0.13100 15.11700 19.79800
H  -1.85600 14.64000 19.98200
H  -0.42800 13.75100 20.73800
H  -2.28900 11.60100 24.20300
H  -3.47600 10.84800 25.12400
H  -1.89600 10.46500 25.65900
H  -3.89400 13.11100 30.35400
H  -0.85300 10.98200 32.54800
H  -1.93500 11.70600 33.77600
H  -0.76700 12.71100 33.19200
Mg 8.88600 2.85300 27.02600
C  10.12700 1.48300 30.05000
C  6.96100 4.90000 28.75600
C  7.34100 3.61100 24.15800
C  10.67100 0.22500 25.31600
N  8.39000 2.88200 29.24200
C  9.14500 2.47900 30.29500
C  8.70700 3.09100 31.64900
C  7.64000 4.13300 31.17600
C  7.62900 3.98200 29.57400
C  6.22700 4.13800 31.87300
C  9.95800 3.58200 32.40000
C  9.92500 4.56000 33.59500
H  10.49000 3.98500 34.89800
N  7.39600 4.12200 26.53100
C  6.71000 4.89700 27.38400
C  5.80100 5.75400 26.64900
C  5.95200 5.40200 25.27700
C  6.89900 4.33100 25.25800
C  4.95700 6.80600 27.31200
C  5.22500 5.88500 24.08200
O  5.41300 5.50400 22.93800
C  4.18500 6.86000 24.28200
N  9.00700 1.99600 25.06600
C  8.30900 2.59300 24.00400
C  8.73700 2.01300 22.67100
C  9.65700 0.81200 23.11600
C  9.83800 1.07200 24.59100
C  7.63700 1.70600 21.54900
C  10.94200 0.67900 22.23800
C  10.93600 -0.27100 21.07600
N  10.19700 1.23900 27.53200
C  10.85700 0.34300 26.70200
C  11.69900 -0.54600 27.56400
C  11.46300 -0.14900 28.90500
C  10.46700 0.90500 28.82200
C  12.69700 -1.47900 27.08000
C  11.78600 -0.39100 30.25800
O  12.54900 -1.25700 30.74300
C  10.86900 0.57500 31.07700
C  9.99000 -0.21600 31.99100
O  8.96400 -0.79900 31.63400
O  10.48700 -0.18100 33.29900
C  9.51000 -0.73300 34.17100
H  6.43300 5.58400 29.42200
H  6.82600 3.83100 23.22100
H  11.18400 -0.61800 24.85000
H  8.19400 2.39500 32.31400
H  8.08400 5.10700 31.37900
H  6.39400 4.65300 32.81900
H  5.92000 3.11600 32.09300
H  5.43600 4.68500 31.35900
H  10.66700 4.08300 31.74200
H  10.41800 2.65500 32.74500
H  8.85600 4.71600 33.74300
H  10.47800 5.42300 33.22500
H  3.92100 6.48300 27.21600
H  5.07800 7.71500 26.72300
H  5.26800 7.05900 28.32600
H  3.72300 7.26700 23.38200
H  4.47500 7.79800 24.75600
H  3.45100 6.43400 24.96500
H  9.23600 2.91500 22.31500
H  8.96800 -0.02000 22.97000
H  6.71900 1.33100 22.00200
H  7.94700 1.00000 20.77800
H  7.35600 2.64200 21.06700
H  11.80400 0.45300 22.86600
H  11.13200 1.69500 21.89200
H  11.79000 -0.94700 21.11200
H  11.06200 0.23800 20.12100
H  10.00300 -0.83500 21.05200
H  12.95700 -1.18400 26.06300
H  12.41200 -2.52100 26.93500
H  13.56500 -1.43900 27.73800
H  11.45800 1.12100 31.81300
H  8.58400 -0.22600 33.90100
H  9.65400 -0.32600 35.17200
H  9.45200 -1.82000 34.13600

