158

Mg -2.30700 17.37200 27.31700
C  -2.85900 14.96900 29.95500
C  -2.62800 19.85800 29.49800
C  -1.97800 19.37000 24.62700
C  -2.63700 14.52300 25.07200
N  -2.96600 17.39800 29.51100
C  -3.02200 16.31600 30.39900
C  -3.18600 16.86900 31.80800
C  -3.15800 18.41800 31.60800
C  -2.84100 18.56700 30.11300
C  -4.38200 19.22400 32.19900
C  -2.16600 16.37800 32.94300
C  -1.59400 17.40900 33.95700
H  -1.26300 16.91300 35.36500
N  -2.11200 19.38800 27.12300
C  -2.42400 20.24400 28.14300
C  -2.22200 21.61700 27.60400
C  -1.80900 21.49400 26.22700
C  -1.99100 20.03500 25.91500
C  -2.23000 22.85200 28.43300
C  -1.28200 22.48900 25.27900
O  -1.02600 22.28800 24.08700
C  -1.26900 23.88500 25.78400
N  -2.58700 16.99600 25.18800
C  -2.34600 18.04200 24.32800
C  -2.54400 17.55300 22.90700
C  -2.47000 15.99000 23.07000
C  -2.55000 15.78800 24.54900
C  -3.76000 18.17000 22.11600
C  -1.22400 15.42100 22.42100
C  0.09900 15.75500 23.05500
N  -2.55500 15.28200 27.41200
C  -2.62900 14.27500 26.41400
C  -2.71700 12.97500 26.98900
C  -2.72500 13.23100 28.38200
C  -2.75400 14.63000 28.57100
C  -2.74700 11.64900 26.30800
C  -2.78300 12.59500 29.71600
O  -2.56700 11.45800 30.08300
C  -2.94100 13.71400 30.77100
C  -1.82800 13.38900 31.74400
O  -0.65700 13.60600 31.59600
O  -2.37600 12.78400 32.84100
C  -1.55600 12.61300 34.01400
H  -2.61400 20.62900 30.27200
H  -1.74200 20.03100 23.79100
H  -2.63700 13.72200 24.32900
H  -4.17400 16.53300 32.12400
H  -2.24500 18.85700 32.01000
H  -4.96200 18.50100 32.77100
H  -5.08600 19.61000 31.46200
H  -4.03500 20.07900 32.78000
H  -1.27400 15.88300 32.55800
H  -2.69700 15.63800 33.54100
H  -2.25600 18.26100 34.10900
H  -0.63200 17.70700 33.54000
H  -2.42900 22.63900 29.48300
H  -3.13200 23.37900 28.12200
H  -1.35200 23.49400 28.36300
H  -2.22600 24.11500 26.25300
H  -1.05500 24.51400 24.91900
H  -0.53100 24.10300 26.55500
H  -1.61800 17.85100 22.41400
H  -3.35600 15.47600 22.69500
H  -3.76800 19.23500 22.34900
H  -4.71700 17.69300 22.32800
H  -3.60700 17.99300 21.05100
H  -1.10400 15.73400 21.38400
H  -1.25400 14.33600 22.51700
H  0.61100 16.34700 22.29600
H  0.71700 14.86500 23.17400
H  0.05700 16.30600 23.99400
H  -3.29900 11.61000 25.36900
H  -3.15100 10.87800 26.96500
H  -1.70300 11.35300 26.20400
H  -3.92400 13.53600 31.20700
H  -2.26600 12.31800 34.78700
H  -1.04400 13.50700 34.37100
H  -0.91700 11.73500 33.91900
Mg -2.10000 33.87400 27.48800
C  -3.98000 32.11300 30.05700
C  -0.82300 35.86700 29.72100
C  -0.63300 35.46700 24.92100
C  -3.66700 31.73800 25.08800
N  -2.21800 33.72400 29.65400
C  -2.98000 32.98900 30.53000
C  -2.84800 33.51400 31.96000
C  -2.20300 34.90300 31.71300
C  -1.64900 34.84300 30.23600
C  -3.09900 36.15900 32.02000
C  -2.05400 32.48000 32.86500
C  -2.64800 32.19900 34.24300
H  -1.81900 32.45900 35.59400
N  -0.81600 35.39400 27.34800
C  -0.39500 36.05200 28.40400
C  0.56300 37.01800 28.00700
C  0.73100 36.95500 26.60900
C  -0.29800 35.91800 26.23000
C  1.24600 37.94600 28.93500
C  1.54700 37.69600 25.69000
O  1.49000 37.60300 24.44900
C  2.70900 38.63500 26.22200
N  -2.24100 33.66400 25.27100
C  -1.50900 34.44900 24.50400
C  -1.52300 33.94100 22.98700
C  -2.25400 32.57900 23.09800
C  -2.76100 32.68500 24.52600
C  -2.17900 34.93000 21.95300
C  -1.33800 31.32700 22.87600
C  -2.09000 30.14700 22.18700
N  -3.58300 32.35200 27.48800
C  -4.15400 31.59900 26.44100
C  -5.01900 30.62300 26.95900
C  -5.07000 30.85700 28.37200
C  -4.16700 31.85400 28.66900
C  -5.78200 29.51500 26.25800
C  -5.65400 30.36700 29.61600
O  -6.41200 29.44300 29.83300
C  -4.91200 31.14300 30.73400
C  -5.84900 31.79600 31.66500
O  -6.51100 32.75900 31.41700
O  -5.84800 31.14800 32.86000
C  -6.73100 31.73500 33.89700
H  -0.38900 36.44400 30.54100
H  -0.09100 35.99400 24.13200
H  -4.01100 30.90400 24.47300
H  -3.83200 33.73800 32.37100
H  -1.28600 35.13700 32.25500
H  -3.04100 36.83600 31.16700
H  -2.61200 36.67000 32.85000
H  -4.12200 35.87500 32.26600
H  -1.02100 32.83000 32.84700
H  -2.10100 31.51900 32.35200
H  -2.90200 31.13900 34.24100
H  -3.52500 32.84100 34.32500
H  1.23800 37.61400 29.97300
H  0.62500 38.82500 28.76200
H  2.24500 38.21100 28.58900
H  3.42500 39.00800 25.48800
H  3.20500 38.14100 27.05700
H  2.29300 39.57900 26.57500
H  -0.49800 33.87900 22.62100
H  -3.06700 32.51000 22.37500
H  -3.05300 34.54000 21.43100
H  -1.41800 35.31100 21.27200
H  -2.47800 35.74700 22.61000
H  -1.06400 30.99300 23.87700
H  -0.40900 31.44100 22.31700
H  -1.70100 29.86000 21.20900
H  -3.17500 30.24300 22.20800
H  -2.02500 29.27500 22.83800
H  -5.81400 29.65300 25.17700
H  -6.82700 29.54700 26.56700
H  -5.35600 28.56600 26.58300
H  -4.35700 30.42900 31.34200
H  -7.37200 32.56700 33.60600
H  -6.02800 32.21900 34.57500
H  -7.27400 30.90100 34.34100

