158

Mg 55.00800 23.38200 44.09800
C  52.90100 26.28200 43.68700
C  52.38200 21.46300 43.06400
C  57.13500 21.04800 44.14400
C  57.61400 25.81300 44.75300
N  52.87700 23.93000 43.35600
C  52.24400 25.06400 43.30800
C  50.84900 24.86100 42.83600
C  50.58300 23.35100 43.12800
C  52.06300 22.83700 43.16600
C  49.73300 23.11300 44.44000
C  50.78800 25.18500 41.31100
C  49.39700 25.64200 40.76800
H  48.79600 24.65300 39.75700
N  54.75900 21.45500 43.73500
C  53.65700 20.79900 43.27900
C  53.92300 19.39100 43.27900
C  55.36700 19.23200 43.51100
C  55.83500 20.58900 43.83600
C  52.91600 18.23100 43.05300
C  56.08500 17.90400 43.42500
O  55.57300 16.87100 43.16600
C  57.49200 17.83100 43.64900
N  57.10000 23.49300 44.36400
C  57.67000 22.28500 44.48400
C  59.06500 22.50300 45.06100
C  59.17900 24.02600 45.28800
C  57.93100 24.47300 44.64800
C  59.50300 21.79900 46.30100
C  60.48200 24.64000 44.69600
C  61.25100 25.39200 45.67000
N  55.26800 25.55600 44.27100
C  56.36400 26.37300 44.59800
C  55.88900 27.81800 44.72500
C  54.57500 27.77900 44.34000
C  54.24900 26.38800 44.11600
C  56.70600 29.13000 44.86300
C  53.43700 28.62700 44.05600
O  53.37000 29.85600 44.04300
C  52.31200 27.69300 43.56900
C  52.06100 28.08300 42.07600
O  52.88600 28.34900 41.21200
O  50.71700 28.35800 42.03400
C  50.42000 29.31400 41.01100
H  51.57300 20.80700 42.73700
H  57.84900 20.22200 44.18700
H  58.41000 26.55700 44.83300
H  50.11600 25.44300 43.39500
H  50.08600 22.95900 42.24100
H  49.24200 24.02000 44.79400
H  50.28400 22.72700 45.29700
H  49.03500 22.29200 44.28000
H  50.95300 24.30700 40.68600
H  51.56700 25.88200 41.00400
H  49.71600 26.52800 40.21800
H  48.76400 25.95600 41.59800
H  53.31300 17.65900 42.21400
H  51.92100 18.61300 42.82200
H  52.88100 17.63200 43.96300
H  58.01100 18.41400 42.88800
H  57.94500 16.84000 43.69000
H  57.55800 18.32300 44.61900
H  59.65900 22.12300 44.23000
H  59.03600 24.25100 46.34500
H  60.46100 21.29800 46.16400
H  58.86800 20.92700 46.45500
H  59.59600 22.32000 47.25400
H  60.35500 25.21300 43.77700
H  61.12900 23.78100 44.51800
H  62.26100 25.50700 45.27600
H  61.32700 24.95400 46.66600
H  60.84700 26.38800 45.85100
H  56.07800 29.76600 45.48700
H  56.90000 29.56000 43.88000
H  57.66000 28.77800 45.25500
H  51.37100 27.71400 44.11900
H  51.00200 30.21200 41.21800
H  49.35900 29.54200 41.11700
H  50.67900 29.00600 39.99800
Mg 48.93200 45.68700 42.29000
C  45.61600 46.51500 41.62300
C  48.67900 42.84500 40.43500
C  52.28200 45.19000 42.51500
C  49.33600 49.06600 43.47800
N  47.35700 44.82700 41.17300
C  46.04600 45.27300 41.06200
C  45.22600 44.36900 40.13300
C  46.14400 43.07400 40.08000
C  47.50100 43.62200 40.56100
C  45.55700 41.84600 40.87200
C  44.99500 44.89100 38.71500
C  43.64800 44.55800 37.98300
H  43.75100 43.51900 36.87200
N  50.33200 44.12500 41.64400
C  49.93500 42.99400 40.97700
C  51.07300 42.13100 40.90600
C  52.21600 42.82700 41.38800
C  51.62500 44.11300 41.90500
C  51.04900 40.76000 40.24500
C  53.53400 42.32800 41.36100
O  53.79300 41.23700 40.87400
C  54.64900 43.12900 41.86600
N  50.59200 46.93700 42.86300
C  51.86000 46.50600 42.88500
C  52.78100 47.64800 43.32900
C  51.77500 48.67900 43.89400
C  50.45200 48.25900 43.35200
C  53.95500 47.28300 44.38400
C  52.14100 50.17600 43.70000
C  51.73000 51.10200 44.87300
N  47.69400 47.44200 42.64200
C  48.02800 48.70200 43.07700
C  46.80200 49.54800 43.15300
C  45.82200 48.62400 42.63500
C  46.41000 47.42400 42.32000
C  46.59500 50.93400 43.69200
C  44.42500 48.50900 42.39100
O  43.53600 49.26600 42.64700
C  44.29900 47.19400 41.55600
C  43.03600 46.41000 42.06900
O  41.83800 46.53500 41.73400
O  43.51200 45.43500 42.95900
C  42.55500 44.61600 43.76000
H  48.58800 41.92500 39.85500
H  53.33500 44.99400 42.72700
H  49.39700 50.07300 43.89500
H  44.27900 44.16900 40.63500
H  46.20600 42.70200 39.05700
H  45.38000 41.15300 40.04900
H  44.66800 42.20900 41.38800
H  46.21600 41.42800 41.63300
H  45.79600 44.61600 38.02900
H  45.01300 45.97000 38.86800
H  43.28900 45.50900 37.58800
H  42.88000 44.09800 38.60500
H  51.86400 40.60400 39.53800
H  50.09600 40.50800 39.78000
H  51.24500 40.02400 41.02500
H  54.72800 43.09600 42.95300
H  54.57800 44.15000 41.49200
H  55.58100 42.82800 41.38800
H  53.25400 47.96000 42.39800
H  51.82200 48.46000 44.96100
H  54.89100 46.93300 43.94900
H  53.65300 46.51300 45.09500
H  54.20500 48.17300 44.96200
H  51.80100 50.57600 42.74500
H  53.21600 50.34500 43.64100
H  51.34300 50.57600 45.74500
H  50.90900 51.74900 44.56300
H  52.52400 51.72300 45.28800
H  45.53600 50.95400 43.94900
H  46.77000 51.69900 42.93600
H  47.17600 51.32500 44.52700
H  44.16200 47.44400 40.50400
H  41.67700 45.24000 43.92800
H  43.05000 44.24500 44.65700
H  42.28000 43.77800 43.12000

