158

Mg 2.10500 -1.28000 44.05100
C  5.37200 -0.08600 43.63400
C  0.96300 1.49900 42.25300
C  -0.91800 -2.72200 43.52900
C  3.27200 -4.23700 45.14100
N  3.07200 0.40400 42.90200
C  4.40300 0.81900 43.03700
C  4.66100 2.14400 42.29600
C  3.24800 2.64500 42.01600
C  2.33400 1.43400 42.33100
C  2.90900 3.95900 42.84800
C  5.55100 2.00700 41.09000
C  5.31100 0.81000 40.10100
H  5.77900 0.88500 38.68200
N  0.20100 -0.63600 43.23800
C  -0.04400 0.54200 42.56500
C  -1.47300 0.69100 42.36700
C  -2.05300 -0.56000 42.66300
C  -0.90700 -1.37700 43.14900
C  -2.06000 2.00100 41.82700
C  -3.47000 -0.91200 42.40200
O  -4.21500 -0.00400 42.02500
C  -4.03500 -2.26600 42.56700
N  1.31000 -3.24000 44.25200
C  0.01900 -3.57100 44.09500
C  -0.38800 -4.92900 44.66100
C  0.92900 -5.34100 45.32100
C  1.94600 -4.22800 44.88800
C  -1.64800 -4.84900 45.61200
C  1.33500 -6.73000 44.93100
C  1.67000 -7.67100 46.11400
N  3.87400 -2.01500 44.51800
C  4.29100 -3.23100 45.02500
C  5.66800 -3.28700 45.29100
C  6.13400 -2.12000 44.69600
C  5.05500 -1.32000 44.30300
C  6.47500 -4.38300 45.98200
C  7.36100 -1.35500 44.35300
O  8.49600 -1.65000 44.49800
C  6.82900 0.03100 43.72200
C  7.23400 0.99300 44.67800
O  7.23800 0.88300 45.90600
O  7.36300 2.15900 43.95800
C  7.39800 3.46800 44.70700
H  0.62900 2.47800 41.90200
H  -1.86900 -3.21600 43.31800
H  3.61500 -5.17000 45.59300
H  5.10100 2.77100 43.07100
H  3.11800 2.95200 40.97800
H  3.79200 4.51600 43.16300
H  2.39000 3.74500 43.78200
H  2.21700 4.56200 42.26000
H  6.58500 2.01000 41.43500
H  5.27600 2.91500 40.55400
H  4.24500 0.61600 40.22000
H  5.92100 -0.03500 40.41700
H  -2.19400 1.98500 40.74500
H  -1.37000 2.84400 41.81000
H  -3.06200 2.23100 42.19100
H  -5.12000 -2.18800 42.50400
H  -3.77600 -2.51300 43.59600
H  -3.58400 -2.92800 41.82800
H  -0.48300 -5.62500 43.82800
H  0.97000 -5.35400 46.41000
H  -2.36600 -4.12200 45.23300
H  -1.33300 -4.49600 46.59400
H  -2.19800 -5.78600 45.71000
H  2.26200 -6.61500 44.36800
H  0.57500 -7.19300 44.30200
H  2.74900 -7.79100 46.22100
H  1.14000 -8.59300 45.87800
H  1.29100 -7.31100 47.07000
H  7.28800 -3.90400 46.52700
H  6.93000 -5.08000 45.27800
H  5.82000 -4.94600 46.64800
H  7.38700 0.16400 42.79500
H  7.97600 3.39200 45.62700
H  6.41600 3.91400 44.86900
H  7.90500 4.08200 43.96200
Mg -10.29100 39.28400 41.63900
C  -8.89500 36.12400 40.93600
C  -7.80500 40.70400 39.86700
C  -12.23500 42.03100 41.32200
C  -13.23300 37.50900 42.57400
N  -8.54900 38.48700 40.56800
C  -8.13800 37.15500 40.40700
C  -6.83500 37.08100 39.63000
C  -6.51500 38.53600 39.29000
C  -7.70300 39.32100 39.93700
C  -5.14200 39.00300 39.82800
C  -6.92000 36.03100 38.38400
C  -5.64500 35.34200 38.07900
H  -4.65800 36.19500 37.18900
N  -9.92100 41.16100 40.96500
C  -8.80600 41.58700 40.32400
C  -8.83300 42.97300 40.08300
C  -10.16200 43.42400 40.53000
C  -10.88900 42.18600 40.92000
C  -7.74100 43.74100 39.36800
C  -10.64600 44.86000 40.63800
O  -10.07000 45.76000 40.16300
C  -11.98400 45.23800 41.40900
N  -12.48300 39.72000 41.82500
C  -12.93300 40.98800 41.76900
C  -14.47800 41.00800 42.20200
C  -14.70900 39.50500 42.51600
C  -13.38600 38.88700 42.34300
C  -14.91600 42.08400 43.25600
C  -15.82900 38.89500 41.64300
C  -15.42800 38.27400 40.34200
N  -10.99800 37.21600 41.82100
C  -12.10300 36.72500 42.37000
C  -11.96500 35.29800 42.56400
C  -10.72700 34.96300 41.97600
C  -10.14800 36.20900 41.58600
C  -12.90700 34.39000 43.33000
C  -9.71900 33.93700 41.86400
O  -9.64400 32.75300 42.15200
C  -8.55900 34.62600 41.05300
C  -7.16700 34.42700 41.76200
O  -6.29900 33.61100 41.46400
O  -7.01200 35.37400 42.77100
C  -5.95200 35.10100 43.76500
H  -7.13000 41.13300 39.12300
H  -12.94400 42.85700 41.24300
H  -14.07500 37.04100 43.08700
H  -6.17000 36.72500 40.41700
H  -6.52900 38.65400 38.20700
H  -5.26300 39.85100 40.50200
H  -4.69300 39.53800 38.99200
H  -4.52200 38.22800 40.28000
H  -7.12900 36.61000 37.48400
H  -7.74600 35.32300 38.31800
H  -5.89500 34.39900 37.59100
H  -5.08100 35.03600 38.96000
H  -7.27200 43.12800 38.59800
H  -7.02700 44.09600 40.11100
H  -8.17700 44.59200 38.84500
H  -12.10200 44.62900 42.30400
H  -12.86000 45.06700 40.78400
H  -12.07000 46.31600 41.54900
H  -14.95700 41.30900 41.27000
H  -14.90200 39.27900 43.56400
H  -15.47200 42.89600 42.78600
H  -14.04400 42.37000 43.84500
H  -15.63000 41.71100 43.99100
H  -16.56400 39.67100 41.42900
H  -16.33200 38.13600 42.24300
H  -16.08400 38.77000 39.62700
H  -15.64400 37.20700 40.40200
H  -14.37800 38.41600 40.08600
H  -12.66000 34.31100 44.38900
H  -12.74400 33.40200 42.89900
H  -13.94300 34.72000 43.25900
H  -8.38500 34.09000 40.12000
H  -4.96000 34.93800 43.34400
H  -6.38600 34.30200 44.36700
H  -5.84700 36.03200 44.32300

