158

Mg 47.50400 25.31400 28.51700
C  48.46500 27.61700 31.06700
C  46.50000 23.18300 30.74100
C  47.21700 23.04200 25.86300
C  48.54700 27.74300 26.15500
N  47.61800 25.34600 30.62700
C  47.98900 26.37000 31.49200
C  47.64000 26.10400 32.95300
C  47.00100 24.63200 32.78200
C  47.05700 24.36700 31.30300
C  47.68600 23.45000 33.54200
C  46.63200 27.13800 33.54500
C  46.92100 27.81000 34.89200
H  45.73500 28.00900 35.82400
N  46.91400 23.47300 28.37000
C  46.52300 22.74700 29.42100
C  46.11700 21.42800 29.10100
C  46.24700 21.32900 27.66000
C  46.80400 22.65400 27.15700
C  45.58900 20.33200 29.97500
C  45.71300 20.25300 26.75600
O  45.87500 20.39400 25.59200
C  44.87500 19.08600 27.30400
N  47.86600 25.36900 26.36600
C  47.56800 24.32600 25.51200
C  47.96300 24.71500 24.06800
C  48.09900 26.22900 24.20300
C  48.14700 26.48000 25.67200
C  49.24700 23.91500 23.61400
C  46.99200 27.10000 23.52800
C  47.56300 28.25100 22.70500
N  48.19900 27.32200 28.51800
C  48.68300 28.15400 27.51300
C  49.24800 29.35800 28.05800
C  49.13400 29.18300 29.43400
C  48.56200 27.93900 29.68800
C  49.87100 30.44200 27.16700
C  49.48500 29.79600 30.69200
O  50.06900 30.83500 30.86000
C  49.10200 28.78000 31.81300
C  50.27800 28.47000 32.72300
O  51.28400 27.90200 32.28800
O  50.11300 29.14800 33.93300
C  51.30100 29.14000 34.80200
H  46.20200 22.38200 31.42000
H  46.97000 22.36300 25.04500
H  48.79800 28.48700 25.39600
H  48.49000 25.95300 33.61800
H  45.96400 24.48200 33.08100
H  48.56400 23.01900 33.06000
H  46.93300 22.67000 33.65700
H  48.01100 23.77600 34.53000
H  45.69300 26.58700 33.59400
H  46.38000 27.99600 32.92200
H  47.38400 28.78200 34.72600
H  47.55400 27.07800 35.39600
H  44.53400 20.08300 29.86500
H  45.82100 20.57300 31.01300
H  46.29900 19.57800 29.63500
H  44.63000 18.53500 26.39600
H  43.91600 19.47000 27.65100
H  45.44800 18.41900 27.94900
H  47.12200 24.43400 23.43400
H  49.07000 26.53100 23.81200
H  50.01400 24.52400 23.13800
H  48.90500 23.09600 22.98100
H  49.73800 23.40600 24.44400
H  46.41900 27.50700 24.36100
H  46.25100 26.58300 22.91800
H  48.29100 27.83700 22.00800
H  47.80200 29.14300 23.28400
H  46.77600 28.47200 21.98300
H  49.43300 30.56300 26.17700
H  50.95200 30.34000 27.07200
H  49.83300 31.40900 27.67000
H  48.19900 29.15000 32.29800
H  52.19500 29.33600 34.21200
H  51.48700 28.16500 35.25400
H  51.01200 29.96700 35.45100
Mg 49.04100 46.08300 42.82700
C  45.77400 46.30100 41.34100
C  49.44900 43.18500 40.99700
C  52.31000 46.33800 43.26400
C  48.67100 49.52100 43.79300
N  47.71400 45.01600 41.21500
C  46.41100 45.24400 40.85100
C  45.86800 44.23000 39.87900
C  46.97600 43.13400 40.00700
C  48.08800 43.74500 40.80900
C  46.43600 41.73800 40.50300
C  45.65300 44.74400 38.39300
C  44.26500 44.87900 37.80500
H  44.04200 44.45600 36.31100
N  50.56600 44.81100 42.49800
C  50.54700 43.69600 41.67500
C  51.85800 43.05300 41.69700
C  52.69000 43.84400 42.57300
C  51.86200 45.03200 42.83000
C  52.19500 41.82900 40.92400
C  54.06900 43.49300 43.06600
O  54.60800 42.44900 42.69900
C  54.77600 44.36500 44.13500
N  50.34500 47.63700 43.55500
C  51.71900 47.51500 43.61100
C  52.40800 48.74000 44.13600
C  51.17400 49.67300 44.41300
C  49.97700 48.99200 43.78400
C  53.44500 48.65400 45.32600
C  51.36400 51.16400 43.99100
C  51.01400 52.25100 44.98700
N  47.52600 47.51400 42.81600
C  47.55200 48.82400 43.28200
C  46.23700 49.43000 43.06400
C  45.49500 48.37800 42.48400
C  46.29000 47.29800 42.21400
C  45.94100 50.85500 43.33800
C  44.08100 48.05500 41.91600
O  43.04900 48.69100 41.97600
C  44.24200 46.69900 41.17600
C  43.33100 45.75100 41.81700
O  43.56000 45.16000 42.86300
O  42.19200 45.69200 41.03300
C  40.96000 45.27200 41.65200
H  49.50400 42.15800 40.63100
H  53.39700 46.42400 43.32500
H  48.51400 50.58000 44.00800
H  44.90900 43.89200 40.27000
H  47.34700 42.96700 38.99600
H  45.35000 41.68200 40.43200
H  46.70300 41.55600 41.54400
H  46.94800 40.98900 39.89900
H  46.22900 44.09500 37.73400
H  46.15600 45.70900 38.33500
H  43.91400 45.90700 37.89500
H  43.52800 44.34800 38.40800
H  52.66700 41.14400 41.62900
H  53.01400 41.93200 40.21200
H  51.31400 41.45200 40.40500
H  55.49300 45.07000 43.71300
H  55.26000 43.60000 44.74200
H  53.98800 44.81100 44.74100
H  52.95700 49.11700 43.27300
H  51.07000 49.61900 45.49600
H  54.40800 48.80700 44.83900
H  53.45400 47.61900 45.66900
H  53.26900 49.31000 46.17800
H  50.75800 51.49500 43.14700
H  52.40700 51.27700 43.69400
H  51.95400 52.59500 45.41800
H  50.42800 51.92900 45.84800
H  50.43000 53.12200 44.69000
H  46.60500 51.61300 42.92400
H  46.21300 51.06800 44.37200
H  44.91200 51.12500 43.10000
H  43.91000 46.79800 40.14200
H  40.30500 46.12600 41.82200
H  41.08000 44.91200 42.67400
H  40.31500 44.50900 41.21600

