158

Mg 8.84800 3.09500 28.48700
C  10.24300 1.94600 31.47900
C  6.83200 5.33100 30.43100
C  7.19800 4.02300 25.70700
C  10.37400 0.46900 26.77200
N  8.58000 3.48700 30.72700
C  9.32000 2.92100 31.72100
C  8.99800 3.51100 33.11600
C  7.69100 4.43500 32.77300
C  7.69300 4.47100 31.25400
C  6.25700 3.94900 33.31700
C  10.14500 4.10400 33.83400
C  10.37000 3.69300 35.36400
H  9.20800 3.28600 36.31800
N  7.28100 4.51600 28.12300
C  6.59600 5.35000 29.02900
C  5.69600 6.27200 28.32900
C  5.84900 5.92700 26.94300
C  6.87600 4.77300 26.85600
C  4.66500 7.17200 28.99100
C  5.10400 6.42900 25.74100
O  5.32400 6.09900 24.57500
C  4.08000 7.39300 25.91900
N  8.90600 2.48400 26.50700
C  8.06100 2.92500 25.56600
C  8.12700 1.99700 24.26200
C  9.46200 1.21300 24.51900
C  9.66300 1.37700 26.02600
C  6.87600 1.09100 24.09800
C  10.68200 1.70400 23.76900
C  10.62500 1.35900 22.28200
N  10.04400 1.54600 28.98200
C  10.59700 0.51000 28.21900
C  11.33900 -0.38200 28.99600
C  11.31300 0.18300 30.31000
C  10.48300 1.36300 30.22000
C  12.15400 -1.51900 28.40500
C  11.68500 -0.06800 31.69900
O  12.44000 -0.93900 32.16200
C  11.06800 1.12400 32.44600
C  10.37600 0.47400 33.54300
O  9.27800 -0.00300 33.39200
O  11.17300 0.20900 34.58100
C  10.52300 -0.37600 35.72200
H  6.30200 6.09000 31.01000
H  6.69700 4.23500 24.76000
H  10.78000 -0.32000 26.13600
H  8.61200 2.67100 33.69400
H  7.85800 5.44800 33.14000
H  5.49600 4.25800 32.60100
H  6.08200 4.40500 34.29100
H  6.37100 2.87100 33.43900
H  10.07200 5.18100 33.67800
H  11.05800 3.71700 33.38100
H  10.79500 4.51900 35.93400
H  11.22100 3.01700 35.28000
H  3.60900 6.90400 28.96000
H  4.89400 8.16200 28.59700
H  4.86400 7.26000 30.05900
H  3.68800 7.56100 24.91600
H  4.54400 8.28400 26.34100
H  3.26500 6.99300 26.52200
H  8.13900 2.71300 23.44000
H  9.31400 0.14100 24.39600
H  6.38900 0.96800 25.06500
H  7.19600 0.14100 23.66900
H  6.11100 1.42300 23.39600
H  11.52200 1.20800 24.25500
H  10.86600 2.75000 24.01400
H  10.82800 2.22600 21.65300
H  9.71300 0.81200 22.04700
H  11.38300 0.58400 22.16300
H  12.21400 -1.26400 27.34700
H  11.56100 -2.43100 28.34300
H  13.04200 -1.63500 29.02600
H  11.98800 1.64400 32.71200
H  9.67000 0.23200 36.02400
H  11.21100 -0.36500 36.56800
H  10.35600 -1.42700 35.48800
Mg -1.85000 34.41600 26.76700
C  -3.46200 32.72200 29.40400
C  -0.33600 36.38100 28.96400
C  -0.63400 35.97600 24.16200
C  -3.68800 32.26900 24.49500
N  -1.94700 34.50300 28.97100
C  -2.62900 33.77400 29.85800
C  -2.27700 34.22900 31.29000
C  -1.41600 35.51400 31.07800
C  -1.20400 35.46200 29.54300
C  -2.09800 36.84400 31.61200
C  -1.44500 33.14000 32.05900
C  -1.36600 33.36500 33.55100
H  -1.91800 32.34900 34.54700
N  -0.81100 36.09700 26.59700
C  -0.15700 36.69400 27.58300
C  0.72000 37.70200 27.04500
C  0.66400 37.60700 25.68700
C  -0.33500 36.53600 25.38700
C  1.56200 38.56400 27.88800
C  1.34100 38.49500 24.59600
O  0.98900 38.58400 23.43100
C  2.39400 39.51400 24.90400
N  -2.22500 34.28400 24.66400
C  -1.52300 34.98600 23.76300
C  -1.74600 34.55700 22.25700
C  -2.68200 33.29400 22.45000
C  -2.82400 33.22300 24.01900
C  -2.51300 35.73500 21.36500
C  -2.04300 31.89300 21.95100
C  -0.57400 31.63900 22.54200
N  -3.31800 32.70300 26.87500
C  -3.93000 31.97500 25.87800
C  -4.76400 30.99200 26.53600
C  -4.68300 31.28900 27.93000
C  -3.69400 32.24800 28.10100
C  -5.57700 29.90200 25.84000
C  -5.03900 30.87500 29.19100
O  -5.72100 29.94700 29.65600
C  -4.29400 31.77100 30.23200
C  -5.29200 32.27800 31.24000
O  -6.18200 33.09000 30.93200
O  -5.15400 31.67600 32.43400
C  -6.13000 31.97800 33.52600
H  0.21600 36.89000 29.75600
H  -0.03100 36.44200 23.38000
H  -4.09700 31.51100 23.82300
H  -3.17400 34.45700 31.86600
H  -0.44400 35.41100 31.56200
H  -2.17900 37.55700 30.79200
H  -1.58700 37.36900 32.42000
H  -3.14200 36.75700 31.91300
H  -0.45500 33.19500 31.60700
H  -1.94400 32.19400 31.84500
H  -1.65900 34.38300 33.80900
H  -0.29200 33.36900 33.73600
H  1.49800 38.24900 28.93000
H  1.28000 39.60400 27.72600
H  2.52400 38.36500 27.41600
H  3.31400 39.03200 25.23700
H  1.91400 40.08400 25.70000
H  2.63800 40.12700 24.03700
H  -0.73900 34.42600 21.86200
H  -3.68600 33.41700 22.04300
H  -3.27700 36.12300 22.03800
H  -2.77800 35.16800 20.47200
H  -1.84700 36.55700 21.10400
H  -2.11900 31.98100 20.86700
H  -2.68200 31.02800 22.13100
H  -0.56200 31.96200 23.58300
H  0.11500 32.23600 21.94300
H  -0.22000 30.61800 22.69100
H  -5.95200 29.15200 26.53800
H  -5.03400 29.52000 24.97600
H  -6.47600 30.39000 25.46400
H  -3.74300 30.93900 30.67100
H  -6.94200 31.25200 33.58600
H  -6.61500 32.93600 33.34400
H  -5.57800 32.02600 34.46400

