158

Mg 41.59000 8.93100 29.66000
C  43.49100 10.09800 32.18200
C  39.46200 7.30500 31.94800
C  39.85700 7.82900 27.04800
C  44.11600 10.15500 27.36000
N  41.38800 8.75300 31.73900
C  42.32200 9.33900 32.58800
C  41.95000 9.12900 34.07900
C  40.82400 8.05800 33.99800
C  40.50900 8.04300 32.48300
C  41.32100 6.64500 34.37700
C  41.45800 10.51800 34.62400
C  40.82400 10.52100 36.12600
H  41.56000 11.31000 37.22900
N  39.90300 7.80200 29.54600
C  39.21600 7.15100 30.57300
C  38.03600 6.44100 30.01000
C  38.01700 6.78300 28.59300
C  39.34100 7.44400 28.33000
C  36.99200 5.66900 30.80500
C  37.04200 6.48700 27.60900
O  37.23100 6.76200 26.41200
C  35.70300 5.90200 27.90900
N  42.13100 8.75100 27.54700
C  41.11000 8.43700 26.73100
C  41.42300 8.62400 25.18200
C  42.81400 9.28000 25.29800
C  43.08400 9.41700 26.85300
C  41.42900 7.33000 24.33000
C  43.12500 10.53900 24.45900
C  42.66200 11.91900 24.84100
N  43.42100 9.96500 29.70500
C  44.27500 10.47100 28.74200
C  45.32400 11.26200 29.35700
C  45.02200 11.22900 30.73700
C  43.95200 10.33500 30.86900
C  46.45400 11.96600 28.62700
C  45.40700 11.69300 32.04600
O  46.26000 12.53100 32.30700
C  44.48100 10.97000 33.04200
C  45.14100 10.10100 34.07600
O  45.88000 9.15200 33.83900
O  44.83300 10.48100 35.39800
C  45.23100 9.58100 36.50000
H  38.84200 6.71200 32.62300
H  39.30300 7.67200 26.12000
H  44.89700 10.53200 26.69700
H  42.82500 8.74400 34.60200
H  39.99400 8.25700 34.67600
H  41.00600 5.89000 33.65700
H  40.71400 6.41600 35.25200
H  42.40000 6.56700 34.50800
H  40.75100 11.01500 33.95900
H  42.34400 11.14000 34.74600
H  40.82300 9.50700 36.52600
H  39.78600 10.85100 36.09100
H  37.18000 5.57400 31.87400
H  36.82900 4.65900 30.42900
H  35.99800 6.11600 30.82300
H  35.11300 6.60300 28.50000
H  35.73900 4.99700 28.51400
H  35.34100 5.65500 26.91100
H  40.75900 9.33900 24.69700
H  43.57800 8.53300 25.08000
H  40.64400 7.31600 23.57400
H  41.14400 6.52600 25.00800
H  42.42800 7.14900 23.93300
H  42.63300 10.36100 23.50200
H  44.21200 10.45500 24.45800
H  43.54000 12.56600 24.83900
H  42.21100 11.91600 25.83300
H  42.00800 12.50000 24.19000
H  47.33300 11.40400 28.31100
H  46.83900 12.78700 29.23200
H  46.17100 12.36800 27.65400
H  43.94000 11.76500 33.55400
H  46.31900 9.64600 36.52100
H  44.96600 8.54800 36.27600
H  44.70600 9.83100 37.42200
Mg 9.43400 48.79800 24.65300
C  7.31300 49.46300 27.36500
C  12.04700 50.05900 26.49500
C  11.38500 48.38800 21.96900
C  6.60100 48.09300 22.65300
N  9.58700 49.59000 26.67600
C  8.65300 49.61500 27.70200
C  9.32800 50.07000 29.00500
C  10.57800 50.78800 28.48200
C  10.76100 50.11100 27.15000
C  10.45300 52.31400 28.27400
C  9.56200 48.87600 29.97000
C  8.75500 48.91400 31.26100
H  8.22200 47.54200 31.81300
N  11.52300 48.96300 24.25600
C  12.42500 49.47900 25.20700
C  13.79300 49.41200 24.53400
C  13.60200 48.81200 23.24800
C  12.12300 48.64800 23.14400
C  15.06400 49.66200 25.38700
C  14.57200 48.33800 22.14300
O  14.16000 47.73100 21.21400
C  16.05100 48.54600 22.23400
N  9.11600 48.46900 22.64200
C  10.08600 48.25600 21.68000
C  9.53900 47.92200 20.30600
C  8.03100 47.60200 20.65100
C  7.87400 48.14000 22.03200
C  9.81500 48.87100 19.17900
C  7.55500 46.05900 20.46700
C  8.25300 45.04300 21.34300
N  7.40800 48.95200 24.82400
C  6.38100 48.59700 23.95100
C  5.09900 48.71500 24.65600
C  5.39500 49.05400 25.92200
C  6.83900 49.15800 26.02000
C  3.74100 48.44500 24.12200
C  4.81700 49.25800 27.23600
O  3.66300 49.24300 27.64600
C  6.05700 49.59000 28.19300
C  5.91400 48.55600 29.25100
O  5.89800 47.33100 29.08400
O  5.58700 49.21400 30.43300
C  5.00700 48.39900 31.52200
H  12.86700 50.58100 26.99200
H  12.08500 48.27400 21.13900
H  5.78800 47.66300 22.06600
H  8.70400 50.78500 29.54100
H  11.33500 50.44200 29.18500
H  9.43700 52.54700 27.95600
H  11.12500 52.75200 27.53600
H  10.57100 52.92800 29.16700
H  10.58700 48.77000 30.32600
H  9.28400 47.97800 29.41800
H  7.86000 49.52500 31.14800
H  9.25300 49.49700 32.03600
H  14.85800 49.85500 26.44000
H  15.55000 50.59500 25.10000
H  15.79300 48.85400 25.33900
H  16.30500 48.69700 23.28400
H  16.41500 49.43800 21.72500
H  16.48800 47.60900 21.89000
H  9.96000 46.98400 19.94300
H  7.37900 48.15700 19.97500
H  10.43000 49.68400 19.56300
H  8.88700 49.35500 18.87600
H  10.28800 48.47100 18.28200
H  7.73300 45.81600 19.41900
H  6.48400 45.91700 20.61200
H  8.57900 45.45500 22.29800
H  9.15200 44.61400 20.90100
H  7.61700 44.17300 21.50300
H  3.67700 48.13400 23.07900
H  3.10400 49.32300 24.22800
H  3.17200 47.65200 24.60700
H  5.90800 50.58300 28.61700
H  5.58400 47.47500 31.56900
H  3.95900 48.23500 31.27200
H  5.12400 48.94500 32.45900

