158

Mg -1.85900 17.11000 25.96100
C  -1.86500 14.97200 28.63200
C  -3.17900 19.52400 28.00000
C  -1.76800 19.30700 23.35900
C  -1.34000 14.48900 23.77400
N  -2.36800 17.24900 28.16900
C  -2.17700 16.24000 29.05300
C  -2.63700 16.65500 30.44500
C  -3.36000 18.04200 30.16000
C  -2.97900 18.34100 28.66400
C  -4.84600 18.15900 30.53700
C  -1.46000 16.82700 31.54900
C  -1.44600 15.85200 32.73600
H  -1.97300 16.20000 34.16200
N  -2.23400 19.10400 25.71700
C  -2.86600 19.94000 26.67300
C  -2.98200 21.29100 26.14400
C  -2.36600 21.32000 24.85500
C  -2.08700 19.85400 24.61500
C  -3.69900 22.40300 26.94600
C  -2.09100 22.44500 23.90200
O  -1.62500 22.27400 22.77900
C  -2.32900 23.83300 24.30300
N  -1.72000 16.92900 23.77700
C  -1.59100 17.95500 22.94600
C  -1.25600 17.46800 21.57300
C  -1.01700 15.97600 21.73200
C  -1.39400 15.76000 23.17600
C  -2.20700 17.93900 20.47500
C  0.35400 15.37300 21.36600
C  0.48800 14.21700 20.52900
N  -1.71600 15.14400 26.08600
C  -1.47500 14.22900 25.14600
C  -1.36000 12.93600 25.78900
C  -1.52700 13.19600 27.14900
C  -1.70100 14.57600 27.32000
C  -1.08900 11.55900 25.11100
C  -1.51800 12.54800 28.41400
O  -1.52800 11.34900 28.73400
C  -1.54700 13.76800 29.45900
C  -0.20900 13.82800 30.03900
O  0.72700 14.34500 29.44200
O  -0.14700 13.31900 31.34100
C  1.10600 13.34500 32.03500
H  -3.62100 20.39500 28.48800
H  -1.47800 19.86800 22.46800
H  -0.84400 13.74600 23.14600
H  -3.44000 15.98600 30.75300
H  -2.90400 18.86400 30.71200
H  -5.35600 18.13800 29.57400
H  -4.90600 19.15400 30.97700
H  -5.20200 17.48100 31.31200
H  -1.51200 17.79600 32.04400
H  -0.54000 16.73400 30.97200
H  -0.38200 15.72200 32.93400
H  -1.91000 14.90000 32.47800
H  -2.98600 22.70600 27.71400
H  -4.57400 22.08500 27.51300
H  -3.75200 23.30600 26.33800
H  -3.38300 24.07500 24.17100
H  -1.78500 24.62900 23.79200
H  -1.97300 23.79200 25.33200
H  -0.35700 17.95300 21.19300
H  -1.64900 15.47300 21.00000
H  -1.85800 18.86000 20.00700
H  -3.17400 18.13000 20.94000
H  -2.31500 17.21900 19.66400
H  0.79600 15.09800 22.32300
H  1.05000 16.17400 21.11800
H  0.84900 14.62200 19.58400
H  -0.43700 13.67900 20.31600
H  1.19200 13.56400 21.04500
H  -0.25300 11.16400 25.68900
H  -0.76600 11.51400 24.07000
H  -1.92100 10.88200 25.30100
H  -2.29700 13.59600 30.23100
H  1.32600 14.30500 32.50100
H  1.87600 13.22200 31.27400
H  1.18100 12.65200 32.87400
Mg 26.06100 50.59900 25.79800
C  23.90300 51.45600 28.46100
C  28.21200 49.41200 28.23300
C  28.04400 49.59700 23.32100
C  23.74100 51.71500 23.52500
N  26.01400 50.41600 28.23200
C  25.02200 50.80900 29.03300
C  25.40300 50.62700 30.48000
C  26.89500 50.03300 30.37700
C  27.09000 49.94100 28.85300
C  28.05500 50.76900 31.13100
C  24.36700 49.71600 31.27000
C  24.88800 49.17400 32.56500
H  24.11300 49.42100 33.79600
N  27.87500 49.78200 25.77300
C  28.57500 49.23500 26.88300
C  29.89700 48.78900 26.38000
C  29.89300 48.92600 24.98400
C  28.52900 49.48000 24.62600
C  30.96000 48.13000 27.31600
C  30.92800 48.61900 23.94100
O  30.92900 48.95100 22.76000
C  32.16200 47.99500 24.45800
N  25.90200 50.63100 23.71400
C  26.84200 50.13300 22.85800
C  26.36600 50.09000 21.36500
C  24.91400 50.68800 21.46500
C  24.83400 51.02300 22.98000
C  27.35800 50.68800 20.31200
C  23.87700 49.75300 20.79900
C  23.57400 48.46400 21.42100
N  24.19800 51.50500 25.88800
C  23.33400 51.87500 24.86500
C  22.09200 52.32700 25.45900
C  22.24100 52.24700 26.89100
C  23.55000 51.66700 27.10400
C  21.01100 52.80300 24.47700
C  21.68400 52.52600 28.18800
O  20.60900 52.93000 28.60900
C  22.73500 52.13100 29.18500
C  23.16400 53.32900 30.01000
O  24.16200 53.96200 29.73600
O  22.39200 53.40400 31.13400
C  22.72600 54.47100 32.01400
H  29.00900 49.14500 28.93000
H  28.67300 49.20200 22.52000
H  22.98200 52.08200 22.83100
H  25.30500 51.61200 30.93500
H  26.96200 49.03200 30.80500
H  28.67600 50.17200 31.79800
H  27.58100 51.56300 31.70800
H  28.79000 51.24800 30.48400
H  24.20100 48.81000 30.68700
H  23.35500 50.11300 31.33700
H  25.84300 49.64600 32.79700
H  24.95900 48.08800 32.50600
H  31.10700 47.06900 27.11600
H  30.72800 48.23800 28.37600
H  31.92600 48.63500 27.29700
H  32.78200 47.64100 23.63400
H  31.90800 47.10600 25.03500
H  32.68300 48.78400 25.00000
H  26.31700 49.04600 21.05700
H  25.05100 51.63000 20.93300
H  28.17100 51.18600 20.84000
H  26.91900 51.45400 19.67300
H  27.83000 49.93400 19.68200
H  24.33200 49.42600 19.86400
H  22.97900 50.30700 20.53100
H  22.48700 48.42100 21.48900
H  24.11300 48.26600 22.34700
H  23.89500 47.67000 20.74600
H  20.12100 52.97200 25.08300
H  20.76900 51.98800 23.79500
H  21.27600 53.73600 23.97900
H  22.31400 51.32500 29.78500
H  23.69700 54.24000 32.45400
H  21.95300 54.51900 32.78100
H  23.03600 55.43600 31.61400

