158

Mg 36.05700 49.11600 25.17400
C  36.25500 47.27200 28.13600
C  34.85500 51.80100 26.92100
C  35.41600 50.62100 22.13900
C  37.25100 46.30500 23.43300
N  35.61400 49.45200 27.23600
C  35.84500 48.60600 28.30700
C  35.76400 49.31300 29.67900
C  35.27100 50.72300 29.22700
C  35.25000 50.65500 27.66900
C  33.92900 51.18800 29.80400
C  37.14600 49.23300 30.42500
C  37.21000 48.86100 31.92500
H  36.00000 49.09800 32.76800
N  35.21600 50.98700 24.52100
C  34.89200 51.99500 25.42700
C  34.58800 53.13600 24.69800
C  34.79800 52.87600 23.35200
C  35.14800 51.44300 23.24900
C  34.23300 54.47000 25.33800
C  34.69600 53.77300 22.14600
O  34.63900 53.29000 21.01900
C  34.72000 55.32100 22.36300
N  36.22600 48.51700 23.08300
C  35.83100 49.29200 22.08900
C  36.21300 48.62400 20.71300
C  37.06400 47.36500 21.11600
C  36.85300 47.40600 22.66300
C  34.99900 48.18800 19.78300
C  38.54300 47.45400 20.82500
C  39.09200 46.04200 20.41200
N  36.75300 47.21500 25.58000
C  37.17000 46.10600 24.77800
C  37.40900 44.93300 25.59300
C  37.12900 45.42200 26.88300
C  36.70200 46.73100 26.86400
C  37.72700 43.55900 25.13200
C  36.98700 44.90100 28.24100
O  37.24300 43.79800 28.67000
C  36.51900 46.12600 29.07800
C  35.36000 45.77000 30.05100
O  34.21400 45.91100 29.75700
O  35.89400 45.27100 31.22500
C  34.77700 45.10100 32.10700
H  34.67200 52.73800 27.45100
H  35.34400 51.06100 21.14200
H  37.86700 45.57700 22.90100
H  34.96000 48.74700 30.14800
H  36.03000 51.48900 29.38900
H  33.38600 50.34100 30.22400
H  33.32200 51.70600 29.06200
H  34.20000 51.89900 30.58500
H  37.57600 50.23400 30.42000
H  37.87100 48.63600 29.87200
H  38.10100 49.36600 32.29700
H  37.26700 47.77400 31.86200
H  34.86100 55.31400 25.05400
H  34.13100 54.34900 26.41600
H  33.30800 54.68300 24.80100
H  33.80300 55.78300 22.72900
H  34.88200 55.74300 21.37100
H  35.57300 55.42400 23.03300
H  36.86800 49.40700 20.33100
H  36.64900 46.40700 20.80200
H  35.11200 48.65000 18.80200
H  34.14900 48.58600 20.33600
H  34.84700 47.11800 19.64600
H  39.08600 47.79200 21.70800
H  38.76000 48.20200 20.06300
H  39.75300 46.13200 19.55000
H  38.29300 45.37100 20.09700
H  39.71700 45.60300 21.19000
H  37.43000 43.42000 24.09300
H  37.14600 42.86600 25.74100
H  38.79500 43.35700 25.21500
H  37.29100 46.43100 29.78400
H  35.42200 44.92200 32.96700
H  34.11300 44.25600 31.92300
H  34.29100 46.07600 32.06600
Mg -2.17500 35.35400 26.69500
C  -3.53000 33.73200 29.64000
C  -1.08600 37.80500 28.84500
C  -1.24000 36.89000 24.08100
C  -3.90400 32.94600 24.88800
N  -2.42200 35.72300 28.99200
C  -2.81600 34.89600 30.00600
C  -2.44900 35.35600 31.35500
C  -1.63100 36.68400 31.07600
C  -1.70200 36.81500 29.54200
C  -2.18200 37.92800 31.76600
C  -1.60800 34.23700 32.05200
C  -2.09000 33.72900 33.36900
H  -1.14300 33.57400 34.59200
N  -1.10700 37.03400 26.45700
C  -0.71000 37.90100 27.49700
C  0.10300 38.96900 26.86500
C  0.19800 38.61000 25.46700
C  -0.76200 37.51500 25.26800
C  0.83300 40.02600 27.67100
C  0.99200 39.16800 24.34100
O  1.20000 38.57300 23.31000
C  1.77200 40.34200 24.56000
N  -2.71700 35.04700 24.77000
C  -2.10800 35.87400 23.80900
C  -2.56400 35.44300 22.37800
C  -3.33600 34.08400 22.63700
C  -3.30700 33.95600 24.14400
C  -3.48500 36.43000 21.62900
C  -2.63500 32.74300 21.96900
C  -1.16000 32.43000 22.31700
N  -3.39000 33.66100 27.10200
C  -3.99600 32.84100 26.29300
C  -4.69200 31.71500 26.94000
C  -4.47600 32.01500 28.22000
C  -3.71000 33.20000 28.26500
C  -5.47900 30.52900 26.39600
C  -4.77800 31.56500 29.56100
O  -5.41500 30.59700 29.94500
C  -4.15700 32.63000 30.52200
C  -5.37000 33.17900 31.22600
O  -6.20200 33.95100 30.72600
O  -5.52700 32.61600 32.44700
C  -6.69100 32.99100 33.23200
H  -0.54100 38.46900 29.51900
H  -1.06700 37.50000 23.19200
H  -4.43700 32.22900 24.26000
H  -3.44300 35.52600 31.76800
H  -0.57900 36.59700 31.35000
H  -2.77900 38.48600 31.04500
H  -1.30800 38.54500 31.97500
H  -2.74800 37.54900 32.61700
H  -0.58200 34.59200 32.15500
H  -1.47700 33.48800 31.27000
H  -2.49000 32.72600 33.21900
H  -2.84100 34.42300 33.74800
H  0.72700 39.91100 28.75000
H  0.43400 40.98400 27.33800
H  1.90200 39.95300 27.47100
H  2.04000 40.80600 23.61100
H  2.69700 39.98500 25.01300
H  1.20700 41.02800 25.19200
H  -1.76500 35.21600 21.67200
H  -4.41000 34.24100 22.53800
H  -3.80700 37.27500 22.23700
H  -4.39400 35.90900 21.32600
H  -3.02100 36.78300 20.70900
H  -2.68800 32.91100 20.89400
H  -3.15100 31.78600 22.05100
H  -1.15100 31.37200 22.57900
H  -0.88700 33.07700 23.15100
H  -0.45400 32.47200 21.48700
H  -6.48000 30.96100 26.43200
H  -5.37500 29.66800 27.05600
H  -5.28000 30.21900 25.37000
H  -3.51000 32.12800 31.24100
H  -7.61500 32.78800 32.69000
H  -6.54200 34.04200 33.48000
H  -6.71600 32.48600 34.19700

