158

Mg 26.53600 49.66900 27.06000
C  24.49100 51.12500 29.60300
C  28.38100 48.11300 29.39600
C  28.51800 48.70800 24.52300
C  24.57300 51.43000 24.71700
N  26.28000 49.57800 29.21100
C  25.41800 50.24700 30.09400
C  25.67100 49.77400 31.54700
C  27.11900 49.06100 31.42200
C  27.22400 48.80400 29.88000
C  28.37500 49.75300 32.06400
C  24.49700 48.93100 32.17500
C  23.95800 49.38400 33.51500
H  24.17200 48.54000 34.74500
N  28.20500 48.56300 26.93200
C  28.89900 48.00700 28.05400
C  30.08800 47.34300 27.58500
C  30.19900 47.55900 26.18500
C  28.94300 48.29500 25.78200
C  30.99900 46.64700 28.43200
C  31.26600 47.21200 25.20100
O  31.21700 47.50700 24.02500
C  32.41600 46.35200 25.52800
N  26.50100 49.97500 24.94800
C  27.34900 49.35900 24.09500
C  27.06800 49.63100 22.57800
C  25.61300 50.18700 22.70000
C  25.51400 50.53600 24.22400
C  27.97800 50.75900 21.97600
C  24.45200 49.24700 22.21400
C  23.41600 49.78300 21.25100
N  24.87000 51.02100 27.11000
C  24.23600 51.67100 26.09000
C  23.19100 52.62400 26.70700
C  23.25400 52.36500 27.99600
C  24.28700 51.45000 28.24700
C  22.26800 53.54800 25.94300
C  22.61300 52.67200 29.24700
O  21.65100 53.36600 29.50100
C  23.41000 51.90100 30.38900
C  23.83100 52.96400 31.26400
O  24.84200 53.70200 31.15100
O  22.98100 52.93000 32.35100
C  23.26100 53.91100 33.40500
H  28.97200 47.67400 30.20300
H  29.16000 48.42100 23.68700
H  23.88000 51.84800 23.98400
H  25.90700 50.71500 32.04400
H  26.91000 48.08300 31.85500
H  28.90000 50.51400 31.48600
H  29.09500 48.99800 32.37800
H  28.12000 50.40500 32.89900
H  24.71100 47.86900 32.29600
H  23.66600 48.96000 31.47000
H  22.92800 49.73000 33.43000
H  24.42200 50.31600 33.84000
H  31.91700 47.23200 28.48800
H  31.11800 45.70400 27.89800
H  30.51700 46.47500 29.39400
H  32.02200 45.34000 25.62600
H  32.89200 46.67100 26.45500
H  33.08500 46.41900 24.67100
H  26.95600 48.66900 22.07900
H  25.54600 51.13800 22.17300
H  28.96300 50.64500 22.42800
H  27.58000 51.72200 22.29600
H  28.04500 50.56800 20.90600
H  24.13900 48.79400 23.15500
H  25.01100 48.49200 21.66200
H  23.56900 50.84900 21.08600
H  22.38100 49.65600 21.56900
H  23.44900 49.28400 20.28200
H  21.52800 52.98300 25.37600
H  22.90700 54.09500 25.25000
H  21.83700 54.24900 26.65800
H  22.74900 51.20900 30.91200
H  22.39600 53.88900 34.06700
H  23.24500 54.92000 32.99300
H  24.21300 53.78100 33.92000
Mg 0.45000 42.95200 26.24600
C  2.42400 42.71700 29.19700
C  -2.32500 42.57600 28.26400
C  -1.21500 42.26200 23.47600
C  3.44900 43.41200 24.43500
N  0.19500 42.36200 28.40200
C  1.05600 42.59500 29.43000
C  0.33600 42.63500 30.80500
C  -1.14100 42.25400 30.45300
C  -1.08200 42.48100 28.92200
C  -1.69700 40.86300 30.78400
C  0.54000 43.99000 31.61700
C  1.25100 43.81200 33.02500
H  0.85600 42.58000 33.83600
N  -1.55200 42.53400 25.92200
C  -2.58700 42.50400 26.85100
C  -3.80300 42.26000 26.16800
C  -3.50100 42.13500 24.76700
C  -2.02200 42.31100 24.66100
C  -5.03200 42.24500 27.00500
C  -4.41400 41.86800 23.64200
O  -4.01900 41.79400 22.47200
C  -5.89600 41.71700 23.86500
N  1.12000 42.75300 24.28800
C  0.17500 42.49500 23.34500
C  0.68300 42.58100 21.93000
C  1.99400 43.35700 22.20200
C  2.28700 43.13900 23.72200
C  0.77400 41.17200 21.21200
C  2.09800 44.87800 21.81800
C  2.76500 45.44100 20.60700
N  2.51800 43.18400 26.70200
C  3.58700 43.33500 25.82200
C  4.80800 43.34900 26.60000
C  4.43700 43.03100 27.91100
C  3.01800 42.97600 27.88200
C  6.18000 43.51600 26.12400
C  4.90400 42.84500 29.22700
O  6.05200 42.86200 29.66800
C  3.65000 42.76200 30.13200
C  3.67800 41.61300 31.05600
O  3.17600 40.59700 30.80000
O  4.49500 41.80100 32.10400
C  4.65300 40.71800 33.01700
H  -3.26200 42.56200 28.82400
H  -1.81700 42.33200 22.56700
H  4.31300 43.69900 23.83300
H  0.70600 41.82000 31.42800
H  -1.84800 42.97500 30.86400
H  -2.14700 40.33600 29.94200
H  -2.60400 41.00200 31.37200
H  -1.06700 40.23900 31.41700
H  -0.37500 44.54200 31.82900
H  1.17100 44.68100 31.05700
H  0.97100 44.73800 33.52800
H  2.34000 43.85900 33.01400
H  -5.09300 43.20100 27.52600
H  -4.97800 41.48500 27.78400
H  -5.99600 42.14200 26.50600
H  -6.09800 40.84600 24.48800
H  -6.34800 41.57400 22.88400
H  -6.26700 42.64900 24.29200
H  -0.05900 43.18500 21.40800
H  2.80000 42.81300 21.70900
H  1.37900 40.41200 21.70800
H  1.36300 41.51600 20.36200
H  -0.27400 40.96600 20.99600
H  2.56900 45.25900 22.72400
H  1.07000 45.23900 21.81400
H  2.20500 46.18500 20.04000
H  3.06800 44.65300 19.91700
H  3.67200 46.01600 20.79500
H  6.29800 43.88800 25.10700
H  6.67700 42.54600 26.08300
H  6.87300 44.12600 26.70400
H  3.69300 43.72700 30.63600
H  5.66200 40.40800 32.74600
H  3.99800 39.85900 32.87400
H  4.54300 40.93700 34.08000

