158

Mg -2.10600 34.80100 26.41300
C  -3.80900 33.11200 29.09100
C  -1.20900 37.14200 28.86900
C  -0.95600 36.74900 23.92800
C  -3.73500 32.78200 24.24900
N  -2.52900 35.10600 28.67800
C  -3.08400 34.20000 29.52200
C  -2.73500 34.42200 30.99700
C  -2.08400 35.86000 30.90800
C  -1.85600 36.03800 29.40200
C  -2.84300 36.96100 31.59700
C  -1.73400 33.35000 31.67700
C  -2.04700 33.05500 33.16100
H  -0.90400 33.18700 34.15200
N  -1.04900 36.63300 26.40200
C  -0.74300 37.37800 27.47300
C  0.02900 38.50200 27.02700
C  0.09900 38.38700 25.56600
C  -0.63400 37.25500 25.21500
C  0.61900 39.58200 27.97900
C  0.94100 39.26900 24.57100
O  1.05200 38.97900 23.37700
C  1.66500 40.50600 24.97200
N  -2.38400 34.79600 24.41400
C  -1.72700 35.65700 23.56000
C  -2.00900 35.40500 22.08800
C  -2.69000 33.96900 22.24400
C  -2.97500 33.82200 23.74000
C  -2.85000 36.48000 21.35200
C  -1.76300 32.79000 21.64400
C  -0.24400 32.62000 22.00400
N  -3.52600 33.24400 26.58800
C  -4.00000 32.46300 25.58500
C  -4.71100 31.34800 26.22000
C  -4.63100 31.58900 27.58500
C  -3.92900 32.72600 27.73100
C  -5.54100 30.30900 25.51100
C  -5.07900 31.07000 28.87700
O  -5.78500 30.09000 29.09800
C  -4.44600 31.97900 29.95700
C  -5.53000 32.45100 30.86900
O  -6.58300 32.86600 30.41900
O  -5.22000 32.37400 32.25400
C  -6.34600 32.63000 33.18800
H  -0.82300 37.81500 29.63800
H  -0.54400 37.27200 23.06200
H  -4.07400 32.10000 23.46700
H  -3.73500 34.44700 31.42900
H  -1.12600 35.87000 31.42700
H  -3.81600 36.70800 32.01700
H  -2.99300 37.70700 30.81600
H  -2.19500 37.38200 32.36600
H  -0.72200 33.74500 31.58600
H  -1.76900 32.43300 31.08800
H  -2.55700 32.09200 33.16900
H  -2.83500 33.73800 33.48000
H  1.65600 39.78500 27.71100
H  0.59700 39.39800 29.05300
H  -0.00200 40.39600 27.60600
H  1.00600 41.07500 25.62700
H  1.90400 41.13900 24.11700
H  2.65000 40.32100 25.40100
H  -1.05400 35.19500 21.60500
H  -3.65300 33.80800 21.76000
H  -3.11300 37.35400 21.94900
H  -3.77100 36.13700 20.88000
H  -2.16600 36.80500 20.56800
H  -1.83600 32.89300 20.56100
H  -2.25500 31.87900 21.98500
H  -0.21200 31.92300 22.84100
H  0.24900 33.52200 22.36400
H  0.28800 32.29400 21.11000
H  -5.35900 30.22700 24.43900
H  -6.56600 30.55700 25.78700
H  -5.27600 29.29500 25.80900
H  -3.64100 31.44700 30.46300
H  -7.08200 33.31200 32.76100
H  -5.89500 32.99000 34.11200
H  -6.92100 31.74200 33.45200
Mg -11.43400 16.00500 42.82000
C  -7.86400 16.03700 42.37000
C  -11.48900 19.21000 41.93300
C  -14.98300 15.90100 42.54800
C  -11.28200 12.51000 42.97000
N  -9.84000 17.37000 41.95000
C  -8.42900 17.23600 41.97300
C  -7.73700 18.62600 41.84700
C  -8.97700 19.57800 41.90800
C  -10.19500 18.63300 41.96500
C  -8.90700 20.58000 43.05800
C  -6.78300 18.82800 40.57500
C  -5.28200 19.16500 40.83500
H  -4.87600 20.26500 39.91600
N  -12.96200 17.34600 42.12600
C  -12.74200 18.68100 41.84800
C  -14.01700 19.33100 41.53300
C  -15.04600 18.35700 41.71400
C  -14.34100 17.08000 42.17500
C  -14.03000 20.80100 40.95900
C  -16.46700 18.66800 41.64500
O  -16.82800 19.83800 41.43100
C  -17.60500 17.62200 41.73200
N  -12.93400 14.44800 42.61500
C  -14.29100 14.71200 42.72100
C  -14.96300 13.42600 43.19000
C  -13.83400 12.33700 42.89600
C  -12.55800 13.17000 42.87400
C  -15.38700 13.60200 44.67000
C  -13.94900 11.57800 41.57800
C  -14.65300 10.20200 41.56700
N  -9.89200 14.52100 43.02000
C  -9.97400 13.15500 43.04100
C  -8.67600 12.57000 42.98100
C  -7.82500 13.67400 42.84700
C  -8.58800 14.86300 42.77400
C  -8.41100 11.17800 42.90300
C  -6.40900 14.06800 42.70300
O  -5.43100 13.33600 42.82500
C  -6.39700 15.68300 42.42600
C  -5.67800 16.33800 43.56500
O  -6.13700 16.90300 44.55800
O  -4.33100 16.11600 43.35300
C  -3.40500 16.74900 44.32800
H  -11.38800 20.28900 41.79900
H  -16.05700 15.95300 42.74000
H  -11.31800 11.42100 43.03500
H  -7.15000 18.81000 42.74700
H  -8.96400 20.18100 40.99900
H  -9.62300 20.18700 43.78000
H  -9.28100 21.52700 42.66800
H  -7.92500 20.67300 43.52200
H  -7.28700 19.44000 39.82800
H  -6.77400 17.85300 40.08800
H  -4.64100 18.30800 40.63100
H  -5.13200 19.36100 41.89700
H  -14.25800 20.65200 39.90300
H  -13.02000 21.20200 41.03300
H  -14.70700 21.49800 41.45300
H  -18.54300 18.01400 41.33700
H  -17.74500 17.33300 42.77300
H  -17.33100 16.80900 41.06000
H  -15.89700 13.24000 42.66000
H  -13.63100 11.65300 43.72000
H  -16.47600 13.62300 44.62200
H  -15.05400 14.51800 45.15600
H  -15.01900 12.75900 45.25400
H  -12.92800 11.53000 41.20000
H  -14.59600 12.17000 40.93100
H  -13.92700 9.43300 41.30100
H  -15.47600 10.07200 40.86400
H  -14.94300 10.22600 42.61700
H  -9.10500 10.86300 43.68300
H  -7.47300 10.77400 43.28400
H  -8.72500 10.76300 41.94600
H  -5.86500 15.74100 41.47700
H  -2.89500 15.91500 44.81100
H  -3.90400 17.36600 45.07500
H  -2.66000 17.31400 43.76800

