158

Mg 25.06400 -8.05600 47.35300
C  27.43000 -5.80600 46.06100
C  22.90600 -7.11200 44.90000
C  23.36900 -10.83600 48.01100
C  27.92400 -9.56700 49.18500
N  25.29700 -6.80300 45.34200
C  26.23600 -5.75900 45.26100
C  25.84200 -4.75400 44.16200
C  24.34300 -5.13600 43.97600
C  24.15900 -6.43700 44.75900
C  23.32400 -4.01100 44.36300
C  26.63900 -4.87900 42.82700
C  27.73200 -3.78300 42.64900
H  27.83400 -3.21200 41.23400
N  23.25100 -8.77200 46.79600
C  22.52100 -8.19500 45.79400
C  21.27900 -8.85500 45.77600
C  21.37000 -9.90700 46.76000
C  22.73600 -9.86700 47.27200
C  20.09500 -8.37400 44.88400
C  20.37400 -10.89100 47.16300
O  19.33100 -10.93300 46.53300
C  20.37500 -11.75200 48.46300
N  25.59000 -9.93000 48.47500
C  24.64200 -10.88500 48.58400
C  25.20500 -12.22000 49.24500
C  26.48900 -11.63700 49.86400
C  26.69000 -10.26100 49.19000
C  24.30600 -12.92900 50.25600
C  27.70100 -12.54900 49.82600
C  28.53900 -12.68700 51.19000
N  27.16600 -7.80600 47.69600
C  28.18100 -8.37400 48.50600
C  29.44300 -7.58900 48.38500
C  29.12400 -6.61100 47.44800
C  27.77700 -6.77000 47.07500
C  30.71400 -7.80600 49.29100
C  29.77600 -5.48000 46.85400
O  30.85600 -4.99400 47.10300
C  28.65000 -4.81000 46.02200
C  28.30800 -3.43200 46.61800
O  27.54300 -3.27900 47.58500
O  28.95800 -2.43000 45.90800
C  28.44700 -1.04100 46.04700
H  22.25800 -6.71900 44.11300
H  22.80400 -11.75400 48.18400
H  28.78000 -10.02700 49.68300
H  25.98900 -3.77800 44.62500
H  24.19200 -5.36900 42.92200
H  22.41600 -4.03200 43.76000
H  23.93200 -3.10800 44.29500
H  23.01900 -4.10000 45.40500
H  25.99100 -4.92600 41.95200
H  27.07200 -5.87100 42.95100
H  28.69600 -4.23600 42.87900
H  27.58800 -2.91900 43.29800
H  20.13200 -7.30400 44.67800
H  19.17100 -8.57800 45.42500
H  20.04200 -8.96600 43.97100
H  20.88900 -12.68800 48.24400
H  19.32200 -11.81400 48.74000
H  20.99100 -11.20600 49.17800
H  25.52100 -12.86600 48.42600
H  26.20500 -11.37600 50.88400
H  24.46800 -12.58500 51.27800
H  24.33700 -14.01700 50.18800
H  23.27100 -12.66600 50.03700
H  28.35300 -12.31100 48.98500
H  27.32900 -13.54200 49.57300
H  29.46600 -12.12000 51.10000
H  28.70300 -13.74600 51.39000
H  27.90000 -12.27000 51.96800
H  30.48400 -8.34600 50.20900
H  31.13500 -6.84800 49.59500
H  31.49700 -8.26700 48.68800
H  28.91500 -4.50000 45.01100
H  28.79200 -0.50900 46.93300
H  27.35800 -1.01900 46.09300
H  28.79500 -0.52100 45.15400
Mg 46.70300 45.01700 43.66000
C  43.17400 44.08700 43.33900
C  47.42800 41.86900 42.48000
C  49.86500 45.93500 43.42600
C  45.67200 48.36500 44.01300
N  45.37900 43.18400 42.83200
C  44.01800 43.04000 43.06400
C  43.63400 41.60300 42.72200
C  45.04500 40.89000 42.43600
C  46.00600 42.08200 42.54900
C  45.23200 39.68500 43.30000
C  42.63600 41.35600 41.54500
C  42.87900 42.16500 40.21000
H  42.83400 41.45200 38.85500
N  48.48600 43.95200 43.22700
C  48.53800 42.66700 42.80300
C  49.90800 42.21700 42.65600
C  50.70300 43.42100 42.91700
C  49.73600 44.53500 43.18700
C  50.34300 40.81200 42.16000
C  52.18700 43.53500 42.95100
O  52.89200 42.50500 42.75700
C  53.03300 44.88800 43.22400
N  47.54800 46.93200 43.48600
C  48.88500 46.99200 43.65000
C  49.40200 48.45600 43.83500
C  48.08500 49.23200 44.11100
C  47.04100 48.09000 43.92200
C  50.49000 48.59000 44.98400
C  47.93000 50.58100 43.42300
C  47.84000 51.87800 44.24000
N  44.86300 46.03500 43.71100
C  44.62400 47.42900 43.86300
C  43.19600 47.62700 44.10900
C  42.56400 46.31800 43.90500
C  43.60100 45.39600 43.58700
C  42.65400 48.98900 44.51500
C  41.32400 45.67200 43.75800
O  40.21700 46.05000 43.83300
C  41.66200 44.13200 43.53500
C  41.20900 43.50600 44.77200
O  40.26600 42.69200 44.86100
O  41.91900 43.99800 45.83900
C  41.55700 43.57000 47.16300
H  47.67800 40.87400 42.10800
H  50.89000 46.29000 43.29900
H  45.25600 49.35900 44.19100
H  43.13300 41.20100 43.60200
H  45.04400 40.48700 41.42400
H  46.27700 39.43700 43.48700
H  44.88100 38.76500 42.83300
H  44.70100 39.73500 44.25100
H  41.68600 41.64400 41.99500
H  42.71700 40.28900 41.33500
H  43.91700 42.39800 40.44500
H  42.35200 43.11000 40.34300
H  50.68800 41.14400 41.18100
H  49.60100 40.03500 41.97700
H  51.17500 40.39100 42.72600
H  52.80900 45.65200 42.48000
H  54.10500 44.69300 43.17800
H  52.86300 45.21500 44.25000
H  49.88500 48.66000 42.88000
H  48.03200 49.51300 45.16300
H  50.72000 47.64300 45.47100
H  50.25600 49.36200 45.71700
H  51.39000 48.90100 44.45400
H  47.03600 50.57000 42.80000
H  48.81200 50.67900 42.78900
H  47.33600 51.84400 45.20500
H  47.49300 52.68800 43.59800
H  48.85400 52.18400 44.50200
H  41.56700 49.05800 44.51400
H  43.03000 49.85900 43.97600
H  42.87700 49.20500 45.56000
H  41.04700 43.71300 42.73800
H  40.63100 42.99500 47.14900
H  41.38100 44.42400 47.81700
H  42.38100 42.93400 47.48700

