158

Mg 47.27700 33.70000 26.47700
C  45.90300 32.56000 29.42000
C  48.25800 36.54700 28.28900
C  48.57900 35.08100 23.68800
C  46.48600 30.83400 24.78100
N  47.08800 34.43200 28.62400
C  46.50300 33.79000 29.66200
C  46.71800 34.45200 31.00500
C  47.10100 35.86100 30.51500
C  47.62000 35.58600 29.09000
C  45.94500 36.93500 30.58800
C  47.83200 33.85000 31.86600
C  47.81900 33.88300 33.41400
H  46.80900 34.79400 34.13300
N  48.46600 35.49800 26.08000
C  48.69900 36.54500 26.87700
C  49.48100 37.54300 26.13300
C  49.55700 37.14800 24.75200
C  48.87800 35.83400 24.79400
C  50.12200 38.82400 26.73200
C  50.10300 37.90500 23.50800
O  50.20500 37.45800 22.38200
C  50.38700 39.35500 23.73500
N  47.40200 33.07000 24.43900
C  47.92000 33.85300 23.45400
C  47.92000 33.08700 22.10700
C  47.52900 31.62700 22.55100
C  47.12600 31.83000 24.01000
C  46.99900 33.70600 20.95600
C  48.70100 30.48900 22.38400
C  50.10700 30.79600 22.99100
N  46.32500 32.05100 26.89500
C  46.04700 30.86700 26.12500
C  45.33900 29.86000 26.99300
C  45.19100 30.53400 28.21700
C  45.88900 31.80900 28.17900
C  44.93800 28.42200 26.63100
C  44.61300 30.39000 29.47600
O  43.92600 29.52800 30.00900
C  44.98100 31.76400 30.28600
C  45.23600 31.55500 31.73700
O  46.15400 30.93000 32.25000
O  44.10300 31.95900 32.42300
C  43.97000 31.41300 33.76500
H  48.49200 37.42800 28.89100
H  48.81900 35.57400 22.74300
H  46.42300 29.87800 24.25700
H  45.75100 34.40000 31.50500
H  47.95400 36.22900 31.08500
H  45.12100 36.44600 31.10800
H  45.65400 37.27200 29.59300
H  46.27100 37.84100 31.09900
H  48.73700 34.43900 31.71900
H  48.10500 32.82500 31.61700
H  48.84200 33.90000 33.78800
H  47.55900 32.85500 33.66400
H  49.99900 38.69300 27.80700
H  49.54100 39.68700 26.40600
H  51.09500 39.09000 26.32000
H  49.46100 39.76200 24.14100
H  50.53500 39.79100 22.74700
H  51.30000 39.49400 24.31300
H  48.93600 33.07600 21.71100
H  46.60900 31.36200 22.03000
H  47.48500 33.41200 20.02500
H  46.76900 34.77200 20.94200
H  46.09700 33.09600 20.92900
H  48.79200 30.17000 21.34500
H  48.37700 29.66300 23.01800
H  50.27000 30.13600 23.84300
H  50.31600 31.81700 23.31000
H  50.78400 30.53300 22.17900
H  45.81200 27.77200 26.60300
H  44.38000 28.32400 25.70000
H  44.24300 28.15300 27.42700
H  44.03200 32.29600 30.22100
H  43.89900 30.32600 33.79000
H  43.01000 31.55200 34.26300
H  44.67900 31.87600 34.45100
Mg -12.71000 37.54100 41.50200
C  -10.61600 35.17600 40.09800
C  -10.65200 39.87800 40.08300
C  -15.14800 39.80700 41.67700
C  -14.84900 35.05700 42.56500
N  -10.89000 37.49200 40.06300
C  -10.17500 36.44500 39.67300
C  -8.95100 36.83900 38.94600
C  -8.84000 38.39800 39.17100
C  -10.17300 38.64300 39.83400
C  -7.68700 38.92600 40.04300
C  -9.11100 36.37100 37.41900
C  -7.75600 35.65700 36.97700
H  -6.79300 36.57400 36.06100
N  -12.85400 39.62100 41.00700
C  -11.87200 40.36300 40.54900
C  -12.32400 41.73700 40.50600
C  -13.67400 41.78900 40.89900
C  -13.95900 40.34800 41.20100
C  -11.39600 42.80900 40.04200
C  -14.53700 43.08800 40.92500
O  -14.15100 44.17300 40.46400
C  -15.98100 42.99000 41.29600
N  -14.67900 37.42800 42.01200
C  -15.51100 38.52100 41.95400
C  -16.94100 38.06100 42.21500
C  -16.81900 36.62400 42.78300
C  -15.41700 36.34300 42.48600
C  -17.82700 38.88200 43.08100
C  -17.82900 35.56600 42.21800
C  -17.61500 35.11100 40.77100
N  -12.68500 35.62400 41.51400
C  -13.56000 34.72100 42.03500
C  -13.03500 33.40600 41.99000
C  -11.88400 33.50300 41.20700
C  -11.74800 34.84200 40.96700
C  -13.71100 32.21100 42.61900
C  -10.69700 32.80000 40.65500
O  -10.34200 31.68300 40.67900
C  -9.93400 33.82000 39.78500
C  -8.57300 33.80800 40.37200
O  -8.26900 34.32900 41.43700
O  -7.75300 33.25800 39.44100
C  -6.29400 33.13600 39.86400
H  -9.95600 40.59500 39.64200
H  -15.96100 40.51500 41.85100
H  -15.56600 34.30700 42.90500
H  -8.15300 36.30500 39.46200
H  -8.88800 38.97100 38.24500
H  -7.92700 39.32200 41.03000
H  -6.97800 39.57500 39.53100
H  -7.05100 38.05700 40.21300
H  -9.37500 37.25200 36.83400
H  -10.00400 35.77500 37.23100
H  -7.98400 34.80500 36.33600
H  -7.22000 35.36300 37.87900
H  -11.58800 43.78300 40.49200
H  -11.28300 42.87800 38.96000
H  -10.36500 42.60500 40.33400
H  -16.46200 42.21400 40.70000
H  -16.48700 43.94800 41.17800
H  -16.05200 42.68300 42.33900
H  -17.37300 38.02700 41.21500
H  -17.06600 36.62200 43.84500
H  -17.31800 39.35900 43.91900
H  -18.69200 38.33300 43.45200
H  -18.19700 39.77100 42.57000
H  -18.82000 36.01000 42.31000
H  -17.95200 34.70800 42.87900
H  -17.05600 34.17700 40.83700
H  -17.03000 35.82200 40.18700
H  -18.63000 34.99900 40.39100
H  -13.79600 31.40900 41.88600
H  -14.71700 32.44200 42.96900
H  -13.18900 31.89300 43.52200
H  -10.05700 33.57400 38.73000
H  -6.16300 32.85500 40.90900
H  -5.68200 34.00200 39.61000
H  -5.73500 32.35400 39.35000

