158

Mg -1.30800 17.71500 25.98100
C  -1.92500 15.73400 28.60800
C  -2.03500 20.44700 28.05500
C  -0.76200 19.82300 23.41900
C  -1.40300 15.02700 23.87100
N  -1.79900 18.00400 28.12800
C  -1.89000 17.03900 29.03900
C  -2.18000 17.58000 30.43300
C  -2.57900 19.11600 30.14900
C  -2.14200 19.19800 28.68000
C  -4.09200 19.40200 30.22900
C  -1.09000 17.41600 31.41700
C  -1.50300 16.81400 32.76400
H  -0.23000 16.31300 33.51300
N  -1.17700 19.76400 25.81600
C  -1.55800 20.70900 26.76000
C  -1.36000 22.03100 26.20300
C  -0.82100 21.91600 24.90400
C  -0.82700 20.44300 24.66700
C  -1.61900 23.33400 26.94700
C  -0.44200 22.98300 23.92600
O  0.03600 22.75900 22.82600
C  -0.56900 24.39900 24.27300
N  -1.26100 17.44300 23.88900
C  -0.98100 18.45800 23.06500
C  -0.85200 17.89700 21.55900
C  -0.71600 16.34900 21.78900
C  -1.14500 16.23800 23.28700
C  -1.95300 18.36300 20.57400
C  0.62900 15.68200 21.35900
C  1.72000 15.70200 22.42200
N  -1.61000 15.76300 26.15400
C  -1.65700 14.77900 25.19600
C  -1.85800 13.52400 25.87200
C  -1.92200 13.84700 27.21800
C  -1.86400 15.20400 27.29700
C  -1.96300 12.22200 25.19500
C  -2.07000 13.31200 28.47000
O  -2.17500 12.07500 28.72600
C  -2.31300 14.50400 29.40600
C  -1.64700 14.12200 30.63500
O  -0.47400 14.19600 30.90000
O  -2.63200 13.50800 31.43300
C  -2.19100 12.95200 32.69300
H  -2.29900 21.29000 28.69600
H  -0.72400 20.52100 22.58000
H  -1.22100 14.16300 23.22900
H  -2.98300 16.95300 30.82000
H  -2.11000 19.81400 30.84200
H  -4.38400 20.25500 29.61600
H  -4.40100 19.61700 31.25200
H  -4.62700 18.56000 29.79000
H  -0.66300 18.38400 31.67600
H  -0.26800 16.84100 30.99100
H  -2.28000 16.07200 32.58400
H  -1.89900 17.66500 33.31900
H  -0.70700 23.89300 27.16100
H  -2.14900 23.17500 27.88600
H  -2.29800 23.95600 26.36400
H  0.03400 24.46200 25.17800
H  -1.59600 24.74500 24.38300
H  -0.15200 25.04400 23.50000
H  0.14400 18.16000 21.20200
H  -1.51400 15.78500 21.30500
H  -2.57000 18.95400 21.25100
H  -2.60600 17.58800 20.17100
H  -1.54500 19.04600 19.82900
H  1.16400 16.05600 20.48600
H  0.44900 14.65400 21.04500
H  1.56900 16.42600 23.22200
H  2.67100 15.94100 21.94600
H  1.80800 14.69500 22.83200
H  -1.66800 11.41600 25.86700
H  -1.32400 12.32700 24.31800
H  -2.98800 12.06900 24.85500
H  -3.38400 14.62200 29.57500
H  -3.05300 12.45000 33.13400
H  -1.86100 13.82200 33.26100
H  -1.29600 12.33100 32.66000
Mg 1.86600 -1.42200 42.16900
C  5.38100 -0.83300 41.78800
C  1.24800 1.47200 40.58000
C  -1.30300 -2.37900 41.82100
C  2.71300 -4.57000 43.37300
N  3.20400 0.10000 41.35100
C  4.53400 0.22000 41.42900
C  4.97500 1.57300 40.78500
C  3.63700 2.32800 40.69000
C  2.57200 1.27300 40.91000
C  3.48500 3.65100 41.58000
C  5.81400 1.53500 39.42900
C  5.74000 0.22100 38.57900
H  5.36500 0.27200 37.12600
N  0.19200 -0.56200 41.30100
C  0.13300 0.61200 40.71700
C  -1.22400 0.93400 40.34600
C  -2.01100 -0.13600 40.73200
C  -1.07500 -1.09000 41.34700
C  -1.56800 2.13200 39.54000
C  -3.50800 -0.28400 40.63400
O  -4.18000 0.54700 40.04200
C  -4.34100 -1.43500 41.18300
N  0.86800 -3.32500 42.55000
C  -0.50500 -3.37400 42.43100
C  -1.00600 -4.86900 42.64400
C  0.35100 -5.52800 43.30000
C  1.41300 -4.39500 43.17500
C  -2.39200 -5.08500 43.34800
C  0.70400 -6.83600 42.58400
C  0.93900 -7.98200 43.58500
N  3.67100 -2.48200 42.71500
C  3.84600 -3.75700 43.14300
C  5.23000 -4.08600 43.23300
C  5.87300 -2.95400 42.70000
C  4.87700 -1.99900 42.38100
C  5.78300 -5.38600 43.64200
C  7.15500 -2.38200 42.44900
O  8.34200 -2.76600 42.66500
C  6.90800 -0.99600 41.76000
C  7.58400 0.00900 42.52200
O  8.48700 0.70900 42.07900
O  7.17000 0.04700 43.81600
C  7.69900 1.20400 44.55600
H  0.93200 2.46100 40.24000
H  -2.30800 -2.75800 41.62300
H  3.07200 -5.54500 43.71100
H  5.66100 1.98000 41.52700
H  3.56600 2.64100 39.64800
H  4.21000 4.38300 41.22500
H  3.53000 3.37700 42.63400
H  2.48100 4.05100 41.43500
H  6.84300 1.58700 39.78500
H  5.61400 2.39200 38.78500
H  5.03800 -0.35600 39.18000
H  6.71700 -0.26200 38.57100
H  -0.76200 2.82600 39.29900
H  -2.31000 2.68700 40.11500
H  -2.06000 1.72700 38.65600
H  -5.39400 -1.23500 40.98900
H  -4.11000 -1.42500 42.24900
H  -4.07200 -2.40200 40.76000
H  -1.07500 -5.13500 41.58900
H  0.15200 -5.74900 44.34800
H  -2.13200 -5.74500 44.17500
H  -3.22200 -5.55800 42.82300
H  -2.69600 -4.07900 43.63800
H  1.60900 -6.67000 41.99900
H  -0.08900 -7.25400 41.96500
H  1.99800 -8.23100 43.51200
H  0.29100 -8.78900 43.24600
H  0.75300 -7.63400 44.60200
H  6.84100 -5.26200 43.87300
H  5.58000 -6.11700 42.85900
H  5.24700 -5.80200 44.49500
H  7.32500 -0.99600 40.75200
H  7.34100 1.15700 45.58400
H  7.38700 2.16400 44.14200
H  8.77800 1.29700 44.67900

