158

Mg 47.88300 16.23900 29.26400
C  45.65400 15.63600 31.96300
C  49.76100 18.12700 31.33700
C  49.58800 17.18500 26.53400
C  45.55600 14.75900 27.14300
N  47.68500 16.79700 31.38000
C  46.82700 16.30200 32.39800
C  47.26700 16.66600 33.75700
C  48.39100 17.71200 33.48600
C  48.65700 17.58000 31.94300
C  48.00800 19.21300 33.79900
C  47.73500 15.34900 34.45800
C  47.90700 15.41200 35.96400
H  47.81500 16.77700 36.73500
N  49.57900 17.29600 29.00000
C  50.24100 18.03200 29.99500
C  51.36500 18.59500 29.40300
C  51.39000 18.31000 28.03000
C  50.14300 17.56300 27.79500
C  52.41100 19.30700 30.24100
C  52.49000 18.54700 26.95100
O  52.16300 18.24100 25.83300
C  53.75900 19.12800 27.27800
N  47.51800 15.96200 27.08000
C  48.46600 16.45600 26.23300
C  48.15100 16.09300 24.78000
C  46.86100 15.17900 24.86500
C  46.58100 15.33400 26.37200
C  48.01800 17.36200 23.90500
C  46.95800 13.74200 24.33800
C  46.37800 13.37800 22.94800
N  45.95800 15.44400 29.47700
C  45.22500 14.82300 28.49500
C  44.01100 14.31200 29.12400
C  44.12700 14.55900 30.47000
C  45.32000 15.32400 30.63300
C  42.97000 13.40100 28.50900
C  43.58900 14.39000 31.79500
O  42.54300 13.88500 32.21500
C  44.54000 15.12500 32.82300
C  43.98800 16.16400 33.63300
O  43.34900 17.13200 33.27400
O  44.22500 15.75700 34.87300
C  43.86700 16.71700 35.94700
H  50.30100 18.77600 32.02900
H  50.02600 17.37900 25.55300
H  44.86600 14.25000 26.46700
H  46.43100 17.10900 34.29800
H  49.30500 17.47500 34.03000
H  48.46700 19.44000 34.76100
H  46.93700 19.21100 34.00500
H  48.23600 19.93600 33.01500
H  48.57200 14.84300 33.97800
H  46.96300 14.59900 34.28800
H  48.80900 14.89200 36.28700
H  46.96000 14.98400 36.29500
H  52.07000 20.24300 30.68300
H  53.39400 19.51300 29.81700
H  52.43400 18.58500 31.05700
H  53.59300 20.14900 27.62100
H  54.31800 19.25400 26.35100
H  54.18800 18.44100 28.00700
H  48.97100 15.43900 24.48200
H  46.06900 15.63000 24.26800
H  48.02600 18.25000 24.53600
H  47.09000 17.47400 23.34500
H  48.94400 17.24200 23.34400
H  46.50900 13.14000 25.12700
H  48.02400 13.52400 24.27000
H  45.92900 14.27900 22.52800
H  45.60200 12.65000 23.18400
H  47.13600 12.98800 22.26800
H  42.15200 13.99800 28.10600
H  42.53300 12.66900 29.18800
H  43.54100 12.87800 27.74200
H  44.86800 14.27400 33.42100
H  44.28000 17.70600 35.74900
H  44.23200 16.21900 36.84600
H  42.81200 16.70900 36.21800
Mg 42.08800 40.91300 26.78800
C  40.87000 43.15900 29.26300
C  43.17200 38.84700 29.27100
C  43.14000 38.90200 24.42000
C  41.32200 43.38800 24.35900
N  42.05200 41.05200 29.02100
C  41.46100 42.02200 29.80400
C  41.68800 41.83400 31.34200
C  42.51700 40.43600 31.30500
C  42.57600 40.04900 29.80400
C  43.95700 40.52300 31.84900
C  40.26900 41.67500 32.01700
C  40.08500 42.50100 33.24200
H  39.69500 41.72700 34.52600
N  42.94800 39.00100 26.84600
C  43.29000 38.31100 28.01200
C  43.87300 36.97100 27.64000
C  43.81700 37.00100 26.23500
C  43.31500 38.35800 25.78000
C  44.35900 35.94700 28.63600
C  44.17100 35.96500 25.27500
O  44.31700 36.21600 24.10200
C  44.40000 34.55200 25.70400
N  42.25200 41.10900 24.74200
C  42.72100 40.15000 23.93100
C  42.66900 40.50800 22.42100
C  42.03800 41.90000 22.42200
C  41.83800 42.13600 23.91700
C  44.01100 40.30000 21.68000
C  40.64200 41.96800 21.70300
C  40.36700 43.18700 20.83100
N  41.33200 42.84600 26.77100
C  41.05100 43.73800 25.71300
C  40.43100 44.87100 26.24300
C  40.29900 44.67100 27.60800
C  40.90100 43.47800 27.90900
C  39.91500 45.94600 25.34400
C  39.75100 45.30400 28.82800
O  39.08800 46.33300 28.98000
C  40.19100 44.34000 30.01200
C  41.01200 45.22100 30.80800
O  42.19000 45.41200 30.63200
O  40.35500 45.75600 31.88400
C  41.23100 46.45500 32.93600
H  43.32300 38.09300 30.04600
H  43.56400 38.24300 23.65900
H  41.17900 44.11900 23.56000
H  42.32600 42.61000 31.76500
H  41.98500 39.72700 31.93900
H  44.35900 41.44200 32.27600
H  44.68900 40.24700 31.08900
H  43.96600 39.82000 32.68200
H  40.13600 40.60300 32.16200
H  39.47400 41.87300 31.29900
H  39.22200 43.16000 33.14900
H  40.99800 43.05900 33.45000
H  43.96000 34.97200 28.35700
H  44.18700 36.16700 29.69000
H  45.44500 35.95600 28.55100
H  45.36700 34.42300 26.19000
H  44.45700 33.86800 24.85700
H  43.62900 34.13400 26.35200
H  41.95300 39.76100 22.07800
H  42.76500 42.69900 22.27000
H  44.43700 41.23800 21.32400
H  43.60700 39.67400 20.88500
H  44.67200 39.85800 22.42500
H  39.79400 41.71400 22.34000
H  40.70600 41.13700 21.00100
H  41.16700 43.90800 20.99600
H  39.45900 43.64600 21.22200
H  40.27200 42.88600 19.78800
H  39.60200 45.62200 24.35100
H  40.68700 46.70400 25.20500
H  38.99700 46.31400 25.80100
H  39.34700 44.11600 30.66500
H  40.52100 47.18100 33.33300
H  42.08700 47.02800 32.58000
H  41.62800 45.68400 33.59600

