158

Mg 1.36100 8.74200 26.76300
C  1.67400 11.08900 29.47800
C  1.85900 6.20200 28.97000
C  1.56100 6.63300 24.12200
C  1.86500 11.51100 24.56300
N  1.82500 8.66500 28.93300
C  1.61400 9.73300 29.85200
C  1.42000 9.24200 31.33900
C  1.85500 7.73300 31.08300
C  1.88100 7.48200 29.59300
C  3.12100 7.21200 31.82200
C  -0.00700 9.49700 31.98800
C  -0.08700 9.32000 33.42000
H  1.10900 8.75600 34.17300
N  1.52700 6.68900 26.57300
C  1.84900 5.82900 27.58300
C  1.83800 4.47100 27.07000
C  1.57100 4.53400 25.69000
C  1.58700 6.02000 25.39900
C  1.87600 3.23900 28.01500
C  1.38500 3.49800 24.70400
O  1.11200 3.74200 23.54600
C  1.49700 2.06800 25.02200
N  1.70200 8.98000 24.63600
C  1.58400 7.98300 23.69500
C  1.68200 8.54900 22.26000
C  1.75300 10.06900 22.52800
C  1.77400 10.19400 24.01700
C  2.87700 7.91700 21.52000
C  0.59400 10.93200 21.87100
C  -0.84900 10.79100 22.49300
N  1.54700 10.93800 26.89600
C  1.80900 11.91800 25.95200
C  1.88200 13.16700 26.64100
C  1.88300 12.92100 27.92700
C  1.64100 11.49700 28.10600
C  1.98500 14.52000 25.89100
C  1.92400 13.54500 29.20400
O  2.09900 14.72100 29.49800
C  1.73200 12.36400 30.23700
C  2.90200 12.34400 31.17800
O  4.07800 12.33500 30.88300
O  2.45300 12.40600 32.47100
C  3.48000 12.31600 33.59100
H  1.97500 5.39600 29.69800
H  1.58100 6.02500 23.21500
H  2.15000 12.26800 23.83000
H  2.18000 9.90400 31.75300
H  1.03800 7.10900 31.44400
H  3.53500 7.81600 32.63000
H  3.92900 7.07200 31.10500
H  2.84200 6.29100 32.33400
H  -0.78800 8.96300 31.44800
H  -0.20900 10.52900 31.70200
H  -0.93200 8.68000 33.67700
H  -0.29400 10.27200 33.90700
H  2.39600 3.51300 28.93400
H  2.45200 2.46800 27.50400
H  0.84600 2.91700 28.16600
H  0.72400 1.86800 25.76400
H  2.49600 1.82100 25.38400
H  1.38800 1.43100 24.14400
H  0.76700 8.31100 21.71800
H  2.69800 10.43300 22.12500
H  3.52400 7.24800 22.08800
H  3.56800 8.64400 21.09400
H  2.55200 7.23500 20.73400
H  0.66500 10.52200 20.86400
H  0.91400 11.96800 21.98800
H  -1.15900 11.64200 23.10000
H  -0.96000 9.85000 23.03000
H  -1.53700 10.68900 21.65400
H  1.18300 14.41000 25.16100
H  2.96800 14.63400 25.43400
H  1.87700 15.44000 26.46500
H  0.73900 12.44500 30.67900
H  3.88500 13.32600 33.66300
H  4.25100 11.59000 33.33400
H  3.03500 12.01200 34.53800
Mg 17.92600 -0.22300 28.13900
C  16.51800 2.00800 30.50700
C  19.49100 -1.82500 30.88900
C  19.58200 -1.95400 25.88500
C  16.49000 1.70400 25.64500
N  17.96300 0.10300 30.48700
C  17.23600 1.04700 31.18100
C  17.42900 0.79300 32.68200
C  18.66600 -0.18500 32.74100
C  18.74800 -0.69400 31.27900
C  20.02700 0.52000 33.24500
C  16.04100 0.24200 33.33300
C  15.85700 0.65200 34.81500
H  17.11300 0.98800 35.55400
N  19.33100 -1.77800 28.36100
C  19.72300 -2.33600 29.55900
C  20.59800 -3.50200 29.17200
C  20.72300 -3.56400 27.72800
C  19.86300 -2.38300 27.24100
C  21.32400 -4.32900 30.22100
C  21.51700 -4.49800 26.77900
O  21.41800 -4.49400 25.57600
C  22.31200 -5.59200 27.42600
N  17.85900 -0.26100 26.02900
C  18.74900 -0.99400 25.30000
C  18.83100 -0.45100 23.85000
C  17.80100 0.67600 23.80600
C  17.27300 0.68200 25.23400
C  20.23800 -0.03500 23.25800
C  16.72700 0.34900 22.67700
C  17.06400 0.37500 21.25100
N  16.68200 1.44200 28.07800
C  16.18800 2.07600 26.97600
C  15.27700 3.16700 27.42900
C  15.43000 3.18600 28.81500
C  16.31300 2.14900 29.14900
C  14.50700 4.16600 26.57900
C  15.05800 3.92900 29.99500
O  14.41000 4.99400 30.06100
C  15.73500 3.13900 31.23300
C  16.69900 4.15700 31.74500
O  17.79500 4.31400 31.24700
O  16.30600 4.54300 33.04000
C  17.41900 5.28700 33.70400
H  19.77700 -2.49300 31.70400
H  20.16500 -2.55000 25.18000
H  16.01200 2.29300 24.85900
H  17.79000 1.74700 33.06700
H  18.42500 -1.01700 33.40300
H  19.83700 1.42200 33.82700
H  20.65800 0.67600 32.37000
H  20.65100 -0.21700 33.75100
H  16.20500 -0.82900 33.44800
H  15.18700 0.36100 32.66500
H  15.37900 -0.19500 35.30600
H  15.18900 1.50800 34.90800
H  22.29200 -4.61700 29.81100
H  20.75900 -5.24900 30.37300
H  21.61600 -3.76000 31.10400
H  22.92500 -6.18200 26.74500
H  21.72200 -6.24600 28.06800
H  23.09300 -5.22600 28.09300
H  18.51500 -1.32600 23.28300
H  18.30900 1.61900 23.60500
H  20.20900 0.92800 22.74800
H  20.39700 -0.82500 22.52400
H  21.00300 -0.00600 24.03400
H  15.86600 1.00800 22.79500
H  16.43500 -0.66900 22.93500
H  16.65700 1.27200 20.78600
H  16.61500 -0.47000 20.72800
H  18.14500 0.48100 21.16300
H  14.93700 3.97900 25.59500
H  14.85400 5.15500 26.87700
H  13.41700 4.14700 26.55800
H  15.08300 2.93600 32.08300
H  17.48600 5.03600 34.76300
H  17.24000 6.34100 33.48900
H  18.43300 5.07300 33.36600

