158

Mg 46.82600 16.65200 28.38300
C  44.51400 16.33500 31.18600
C  48.71000 18.51700 30.30900
C  48.56100 17.18900 25.58800
C  44.23100 15.21200 26.47100
N  46.69300 17.17500 30.57700
C  45.70200 16.98000 31.54700
C  46.31000 17.23400 32.96500
C  47.55300 18.12500 32.60500
C  47.62200 17.98500 31.06800
C  47.57200 19.71000 33.06300
C  46.53300 15.89200 33.76900
C  46.08700 15.97700 35.21000
H  45.61300 17.27900 35.94200
N  48.39900 17.67500 27.99100
C  49.05500 18.51000 28.91400
C  50.17300 19.09200 28.22900
C  50.14000 18.62800 26.87400
C  49.02500 17.76800 26.75200
C  51.16200 20.00500 28.98300
C  51.13600 18.94900 25.77000
O  50.91000 18.69600 24.55400
C  52.37100 19.78100 26.05700
N  46.40900 16.25900 26.30200
C  47.36000 16.51800 25.41000
C  46.97100 15.96300 24.00900
C  45.60000 15.15600 24.31900
C  45.42800 15.45800 25.77600
C  46.81800 17.09900 22.99500
C  45.59200 13.64500 23.84300
C  45.76300 13.31100 22.35700
N  44.80300 15.99000 28.72300
C  43.93300 15.42300 27.82900
C  42.68200 14.97700 28.47500
C  42.93800 15.37400 29.80000
C  44.15400 15.97200 29.87300
C  41.54500 14.24200 27.88300
C  42.38300 15.32700 31.12500
O  41.30600 14.93800 31.56300
C  43.36100 16.07300 32.08500
C  42.67300 17.28600 32.49500
O  42.46800 18.29500 31.85200
O  42.19900 16.97700 33.74600
C  41.54100 18.04600 34.38800
H  49.41600 19.09900 30.90400
H  49.13300 17.12700 24.65900
H  43.50700 14.64000 25.88700
H  45.61700 17.92000 33.45200
H  48.39900 17.71000 33.15400
H  47.51000 20.43100 32.24800
H  48.52800 19.92500 33.54200
H  46.86900 19.94300 33.86300
H  47.60000 15.67300 33.81200
H  46.05400 15.03700 33.29000
H  46.81100 15.57100 35.91600
H  45.21800 15.32100 35.16200
H  52.13400 19.55200 29.18000
H  50.71100 20.32800 29.92200
H  51.26400 20.99300 28.53400
H  52.07800 20.76500 26.42200
H  52.95200 19.91100 25.14400
H  52.94000 19.16200 26.75100
H  47.69400 15.21400 23.68700
H  44.70200 15.69300 24.01600
H  45.84000 17.02700 22.51800
H  47.57300 17.04600 22.21000
H  46.90200 18.02300 23.56700
H  44.62100 13.25800 24.15100
H  46.39300 13.05500 24.28800
H  44.92900 12.76400 21.91700
H  46.67000 12.74200 22.15300
H  45.81100 14.27400 21.84800
H  41.27200 14.70400 26.93500
H  40.74000 14.47300 28.58100
H  41.69700 13.18300 27.67600
H  43.71000 15.48800 32.93600
H  40.50300 18.20100 34.09400
H  42.17900 18.91700 34.23500
H  41.60300 17.94600 35.47200
Mg 9.93900 47.90800 26.37800
C  7.93700 48.09200 29.29200
C  12.46000 49.27100 28.19700
C  11.51600 47.95500 23.57900
C  6.80600 47.32000 24.62300
N  10.14400 48.60700 28.59400
C  9.22200 48.51200 29.60200
C  9.82300 48.96000 30.90300
C  11.11400 49.58700 30.43400
C  11.27700 49.19000 28.99200
C  11.17200 51.11000 30.72200
C  10.09600 47.75300 31.88900
C  9.59200 48.08200 33.33800
H  9.48300 46.78100 34.28700
N  11.71100 48.40800 25.92600
C  12.66700 48.79100 26.88200
C  14.01800 48.66700 26.23300
C  13.78400 48.49300 24.88800
C  12.29400 48.23200 24.72000
C  15.38700 48.92100 27.07100
C  14.76300 48.44100 23.76200
O  14.40600 48.27400 22.60900
C  16.24200 48.64000 23.99900
N  9.27300 47.62300 24.36100
C  10.12400 47.68600 23.39300
C  9.52500 47.35200 22.02000
C  8.07300 47.04300 22.38600
C  8.00700 47.26300 23.89000
C  9.77900 48.38700 20.91000
C  7.63000 45.55300 21.99700
C  7.66200 45.22600 20.47900
N  7.83700 47.61700 26.80700
C  6.76900 47.41500 26.01200
C  5.54900 47.27800 26.72500
C  5.92600 47.49800 28.06400
C  7.36300 47.70400 28.04400
C  4.13800 46.99200 26.15800
C  5.46400 47.73800 29.37200
O  4.27900 47.79700 29.78300
C  6.75200 48.02700 30.26300
C  6.84100 46.90400 31.25100
O  7.52700 45.90500 31.24200
O  5.70200 47.05700 32.07400
C  5.45900 46.00000 33.04800
H  13.37800 49.62500 28.67200
H  12.16300 47.53800 22.80400
H  5.86000 47.21700 24.08700
H  9.18100 49.71200 31.36400
H  11.96400 49.05400 30.86200
H  12.07900 51.22900 31.31600
H  10.38100 51.50000 31.36300
H  11.35300 51.68600 29.81400
H  11.17500 47.62900 31.98000
H  9.78800 46.74900 31.59600
H  8.55900 48.42800 33.29500
H  10.14900 48.89900 33.79700
H  15.16400 48.88600 28.13700
H  15.86500 49.88000 26.86800
H  16.10200 48.11400 26.90800
H  16.71600 48.80800 23.03200
H  16.80500 47.85900 24.51100
H  16.32800 49.53900 24.60900
H  9.90400 46.39500 21.66200
H  7.40900 47.64000 21.76100
H  9.83700 49.39800 21.31300
H  9.01200 48.48100 20.14100
H  10.74000 48.29000 20.40400
H  6.68600 45.31000 22.48500
H  8.36800 44.86800 22.41400
H  8.43500 44.49500 20.24400
H  7.87400 46.11400 19.88300
H  6.67600 44.90400 20.14500
H  3.72400 47.88100 25.68200
H  3.45900 46.52800 26.87200
H  4.26300 46.27900 25.34300
H  6.83400 48.93900 30.85300
H  5.70500 46.47500 33.99800
H  6.04200 45.11600 32.79000
H  4.39900 45.75100 32.99600

