158

Mg 26.16800 50.32900 26.22100
C  24.04900 51.48600 28.76400
C  28.58500 49.62200 28.52700
C  28.11100 49.29700 23.62700
C  23.78200 51.48600 23.88000
N  26.35100 50.74900 28.42500
C  25.32000 51.01800 29.24300
C  25.75200 50.85900 30.71100
C  27.25000 50.25700 30.69100
C  27.46000 50.18300 29.17000
C  28.29900 51.09500 31.48800
C  24.58300 50.13700 31.51900
C  25.03300 49.42400 32.76200
H  24.13600 49.40500 34.00100
N  28.09200 49.71600 26.08900
C  28.90700 49.39000 27.18000
C  30.12300 48.74400 26.68900
C  30.07700 48.84200 25.24500
C  28.71200 49.31800 24.94100
C  31.24200 48.28000 27.63500
C  31.19500 48.53200 24.27300
O  31.11400 48.71600 23.03600
C  32.58900 48.10200 24.75700
N  26.06100 50.57500 24.06400
C  26.91700 49.95300 23.25300
C  26.38300 50.03200 21.81800
C  24.93400 50.55700 21.91900
C  24.92500 50.88700 23.41500
C  27.29300 50.84900 20.84200
C  23.87500 49.44100 21.51800
C  23.89500 48.12900 22.31200
N  24.25800 51.26800 26.27200
C  23.46100 51.62400 25.26900
C  22.14200 52.11500 25.80900
C  22.32200 51.98900 27.22100
C  23.67300 51.53300 27.41500
C  21.05100 52.64800 24.98500
C  21.65500 52.20500 28.51900
O  20.53800 52.43100 28.85000
C  22.83400 51.98700 29.55200
C  23.14500 53.22400 30.30500
O  23.66100 54.21400 29.77600
O  23.03800 53.09900 31.64400
C  23.48900 54.30100 32.47200
H  29.26000 49.24700 29.29800
H  28.74100 48.85300 22.85400
H  23.06300 51.67700 23.08100
H  25.69800 51.89100 31.05600
H  27.27900 49.23400 31.06700
H  29.01200 50.40800 31.94500
H  27.78800 51.65200 32.27400
H  28.95600 51.66400 30.83100
H  24.04000 49.39400 30.93500
H  23.83700 50.90700 31.71600
H  26.03800 49.76300 33.01300
H  25.19800 48.35500 32.62700
H  32.10200 48.94700 27.57500
H  31.64800 47.31000 27.34900
H  30.91400 48.17100 28.66900
H  33.20800 47.91900 23.87800
H  32.45000 47.20000 25.35400
H  32.98200 48.80200 25.49500
H  26.24900 49.05000 21.36700
H  24.82600 51.47000 21.33400
H  28.15900 51.11100 21.45000
H  26.84700 51.75700 20.43700
H  27.54500 50.20200 20.00100
H  24.11900 49.21700 20.47900
H  22.90000 49.91600 21.41200
H  23.86200 47.33700 21.56500
H  23.03900 47.86600 22.93300
H  24.83000 48.00600 22.86000
H  20.90300 51.98800 24.13000
H  21.37000 53.61600 24.59700
H  20.13800 52.68500 25.57900
H  22.40400 51.23300 30.21100
H  24.44900 53.97800 32.87400
H  22.87300 54.59800 33.32100
H  23.61200 55.21300 31.88900
Mg 7.12200 54.08800 40.73900
C  6.60000 50.74400 40.80400
C  10.37500 53.62400 40.10700
C  7.30300 57.47000 39.98600
C  3.56000 54.58300 41.28000
N  8.37800 52.34500 40.64100
C  7.95200 51.05500 40.50600
C  9.12000 50.13500 40.34700
C  10.34100 51.11600 40.45700
C  9.69100 52.46000 40.40100
C  11.21100 50.91600 41.73900
C  9.20200 49.31900 39.02900
C  9.32200 50.00400 37.63900
H  7.94300 50.07900 36.93800
N  8.67000 55.38800 40.08400
C  9.94800 54.98300 39.92400
C  10.72800 56.15600 39.45100
C  9.92800 57.33800 39.56300
C  8.58000 56.76000 39.84200
C  12.19500 56.18800 39.19600
C  10.37300 58.82900 39.37500
O  11.46700 59.13600 38.95200
C  9.40100 59.86800 39.75800
N  5.61600 55.73700 40.59200
C  6.00700 57.01800 40.31600
C  4.88400 58.05900 40.60700
C  3.62700 57.10400 40.82900
C  4.29200 55.72700 40.92500
C  5.19500 59.06100 41.73400
C  2.53400 57.17300 39.79200
C  1.31800 58.15100 40.05400
N  5.44000 52.98300 41.07300
C  4.07800 53.33900 41.27000
C  3.30700 52.15200 41.57800
C  4.25800 51.09800 41.35600
C  5.47800 51.64100 41.00100
C  1.85400 52.06200 41.87000
C  4.40500 49.65500 41.31700
O  3.61100 48.71500 41.55700
C  5.92500 49.36100 40.96000
C  5.93400 48.41900 39.80300
O  5.48300 48.59000 38.68100
O  6.32900 47.13500 40.30900
C  6.26400 46.02500 39.34200
H  11.43900 53.43300 39.95300
H  7.34700 58.49900 39.62500
H  2.50900 54.79800 41.48100
H  9.12000 49.50500 41.23700
H  10.98600 50.89800 39.60500
H  11.14100 49.96700 42.27100
H  10.91400 51.73900 42.38800
H  12.26100 50.99800 41.45700
H  8.32000 48.67900 39.00900
H  10.04900 48.63700 39.10200
H  9.94900 49.45100 36.93900
H  9.66400 51.02000 37.83200
H  12.56900 55.16400 39.18100
H  12.75500 56.82200 39.88300
H  12.41300 56.63400 38.22600
H  8.69000 59.76900 38.93800
H  9.81200 60.87700 39.71700
H  8.92300 59.68400 40.72000
H  4.77800 58.57400 39.65200
H  3.15900 57.20900 41.80800
H  6.25600 58.91000 41.93400
H  4.49700 58.93100 42.56200
H  5.24200 60.10700 41.43400
H  2.14100 56.16900 39.63300
H  2.99200 57.54300 38.87400
H  0.49600 57.49500 40.33900
H  1.24600 58.79200 39.17500
H  1.61700 58.74400 40.91800
H  1.62400 51.46900 42.75500
H  1.35300 51.60200 41.01900
H  1.30700 52.99700 41.99200
H  6.22200 48.89900 41.90100
H  5.92800 45.16200 39.91800
H  7.16900 45.79300 38.78000
H  5.49100 46.20900 38.59700

