158

Mg -2.30800 16.71200 27.13200
C  -2.60600 14.64900 29.93700
C  -2.58900 19.46500 28.95100
C  -2.32100 18.55600 24.28600
C  -2.81900 13.81400 25.16800
N  -2.62900 16.99700 29.23900
C  -2.56400 16.04100 30.21700
C  -2.38000 16.78700 31.56200
C  -2.38300 18.26500 31.21900
C  -2.67100 18.26100 29.69800
C  -3.35400 19.16500 32.09700
C  -1.11100 16.24700 32.36000
C  -0.54100 17.18000 33.42100
H  -0.19500 16.60500 34.82400
N  -2.43300 18.71500 26.74500
C  -2.57900 19.73900 27.61000
C  -2.64600 21.00300 26.92300
C  -2.31300 20.71200 25.57300
C  -2.43900 19.26700 25.49800
C  -2.90000 22.22900 27.62700
C  -2.03200 21.66900 24.43000
O  -1.82100 21.37500 23.25500
C  -1.74500 23.12800 24.83300
N  -2.32900 16.17800 25.03200
C  -2.32600 17.15600 24.06600
C  -2.45200 16.57300 22.65100
C  -2.55500 14.97900 22.92800
C  -2.55700 14.97200 24.44900
C  -3.54300 17.04800 21.69400
C  -1.34800 14.13700 22.31100
C  -1.50300 13.55000 20.93400
N  -2.58900 14.60800 27.40800
C  -2.76600 13.57700 26.54600
C  -2.88100 12.34300 27.23600
C  -2.75800 12.67300 28.60100
C  -2.62500 14.06200 28.65300
C  -3.04000 11.05100 26.50000
C  -2.72100 12.14900 29.91400
O  -2.70800 10.97800 30.34200
C  -2.52500 13.40300 30.89000
C  -1.27700 13.08000 31.59300
O  -0.12800 13.18100 31.13600
O  -1.50700 12.68200 32.87000
C  -0.39300 12.60400 33.78600
H  -2.61400 20.37800 29.54900
H  -2.29400 19.08300 23.32900
H  -3.09000 12.96300 24.54000
H  -3.31100 16.64500 32.10900
H  -1.35100 18.61000 31.27800
H  -2.75200 19.72200 32.81400
H  -4.12700 18.58600 32.60300
H  -3.77000 19.83200 31.34200
H  -0.38700 16.02000 31.57700
H  -1.34800 15.32900 32.89600
H  -1.10500 18.11100 33.48100
H  0.42300 17.45100 32.98900
H  -3.64600 22.85300 27.13500
H  -1.91800 22.69800 27.69300
H  -3.30900 22.05100 28.62200
H  -1.33600 23.57200 23.92600
H  -0.94900 23.13400 25.57900
H  -2.69000 23.63700 25.02400
H  -1.57800 16.85600 22.06400
H  -3.46900 14.49600 22.58300
H  -3.41700 18.11400 21.50600
H  -4.46500 16.95100 22.26800
H  -3.71100 16.53400 20.74800
H  -1.22400 13.25900 22.94500
H  -0.42800 14.72000 22.26000
H  -2.52700 13.73500 20.60900
H  -1.30900 12.47900 20.98200
H  -0.71900 13.96100 20.29900
H  -2.76500 10.22700 27.15900
H  -2.50200 10.96200 25.55700
H  -4.11600 11.08700 26.33200
H  -3.34400 13.45100 31.60900
H  -0.04000 11.58400 33.63000
H  -0.77200 12.89600 34.76500
H  0.41700 13.24700 33.44100
Mg 5.46900 53.74700 40.83800
C  4.96700 50.21800 40.42300
C  8.73500 53.38300 40.14600
C  5.55800 57.05400 40.45900
C  2.06100 53.96000 41.77400
N  6.64900 51.96100 40.30700
C  6.32900 50.64600 40.32900
C  7.57000 49.78700 40.13100
C  8.75400 50.85600 40.39100
C  7.96600 52.14000 40.30500
C  9.57900 50.75700 41.70600
C  7.72300 49.07600 38.72100
C  7.58200 49.99800 37.55600
H  6.56100 49.57300 36.45700
N  6.95600 55.07400 40.36000
C  8.26800 54.73100 40.13000
C  9.07700 55.87800 39.79400
C  8.13700 56.98900 39.87800
C  6.80200 56.44600 40.13500
C  10.57700 55.84500 39.47300
C  8.52700 58.51400 39.70100
O  9.68700 58.85200 39.59600
C  7.53200 59.65500 39.66300
N  3.98400 55.28300 40.93900
C  4.31300 56.57300 40.79500
C  3.11800 57.45500 41.15600
C  1.96600 56.43300 41.29400
C  2.72300 55.14700 41.42600
C  3.30700 58.38000 42.28000
C  0.81400 56.57600 40.25200
C  -0.48400 57.12600 40.85500
N  3.76000 52.42800 41.05800
C  2.52000 52.64300 41.50300
C  1.79300 51.35200 41.65900
C  2.65300 50.35100 41.18400
C  3.87100 51.07900 40.89600
C  0.47500 51.09500 42.45100
C  2.88000 48.94300 41.01000
O  2.08800 48.00800 41.16000
C  4.42100 48.79300 40.52700
C  4.45000 48.13500 39.21600
O  3.99600 48.66000 38.21900
O  5.02300 46.88900 39.30100
C  5.16200 46.13100 38.04000
H  9.82100 53.27500 40.15100
H  5.34700 58.09400 40.20500
H  1.00400 54.09000 42.01700
H  7.65100 48.99600 40.87700
H  9.52000 50.87200 39.61500
H  9.52900 49.69200 41.93500
H  9.20700 51.35400 42.53900
H  10.63300 50.98400 41.54800
H  6.94200 48.32000 38.64300
H  8.73400 48.67100 38.76200
H  8.49200 49.78000 36.99600
H  7.55100 51.06200 37.79000
H  10.92300 54.82200 39.32600
H  11.10800 56.28100 40.32000
H  10.87500 56.22600 38.49600
H  7.23900 59.76700 40.70700
H  6.67600 59.32600 39.07500
H  7.85600 60.60300 39.23200
H  2.96000 57.99600 40.22300
H  1.49400 56.46600 42.27600
H  4.28700 58.37900 42.75700
H  2.63100 58.19200 43.11400
H  3.08300 59.39800 41.96100
H  0.68800 55.68500 39.63800
H  1.14400 57.28600 39.49400
H  -0.53800 57.46200 41.89000
H  -1.14600 56.30000 40.59500
H  -0.79900 58.03100 40.33500
H  0.54900 50.78300 43.49300
H  -0.13700 50.27400 42.07700
H  -0.07300 52.03500 42.51900
H  4.81700 48.22000 41.36600
H  4.27800 45.50600 37.92200
H  6.00700 45.44400 38.07300
H  5.23900 46.78700 37.17200

