158

Mg 25.35400 1.56500 29.24800
C  27.39300 1.03800 31.97200
C  22.59500 1.72200 31.47400
C  23.26900 1.67200 26.58200
C  28.00800 0.92200 27.09700
N  25.08900 1.38700 31.44800
C  26.10800 1.33600 32.38600
C  25.60900 1.48100 33.85900
C  24.01700 1.43100 33.58200
C  23.86400 1.57900 32.06700
C  23.45000 0.08300 34.13100
C  26.25900 2.57900 34.71200
C  26.46300 2.21900 36.21500
H  26.19800 3.36700 37.26000
N  23.24400 1.68100 29.05000
C  22.26500 1.69800 30.06700
C  20.96900 1.79400 29.51900
C  21.12600 1.61100 28.09400
C  22.59800 1.65200 27.87500
C  19.79700 1.94900 30.33500
C  20.07100 1.39400 27.01100
O  20.34700 1.34900 25.76900
C  18.55800 1.16200 27.45200
N  25.58100 1.43900 27.14100
C  24.60500 1.61500 26.27300
C  25.06000 1.53500 24.81400
C  26.66900 1.51100 24.98600
C  26.77000 1.31600 26.52300
C  24.65900 0.29700 24.02100
C  27.22000 2.83500 24.44000
C  26.88700 4.01700 25.33900
N  27.28900 1.00300 29.44500
C  28.29700 0.77000 28.47400
C  29.61300 0.42400 29.17000
C  29.32500 0.62600 30.56300
C  27.89800 0.94300 30.66700
C  30.99700 0.14300 28.58900
C  29.84100 0.53900 31.97000
O  30.97500 0.33700 32.34300
C  28.64700 0.88100 32.90900
C  28.53900 -0.23800 33.95200
O  27.94500 -1.29700 33.81200
O  29.08900 0.19500 35.16400
C  28.94000 -0.72700 36.28600
H  21.88700 1.91900 32.28100
H  22.58400 1.80100 25.74200
H  28.86300 0.79700 26.43000
H  25.87600 0.51600 34.29000
H  23.49500 2.30000 33.98200
H  22.58300 0.40500 34.70900
H  24.02500 -0.63300 34.71800
H  23.09000 -0.41300 33.23000
H  25.62700 3.46200 34.80300
H  27.14900 2.98500 34.23300
H  27.51900 1.94800 36.17900
H  25.99200 1.26900 36.46700
H  20.04800 2.44400 31.27300
H  19.43300 1.03400 30.80200
H  18.90000 2.38200 29.89400
H  18.58100 0.61700 28.39500
H  18.02100 0.72000 26.61200
H  18.15600 2.16700 27.58000
H  24.72300 2.39100 24.23000
H  27.14400 0.63100 24.55200
H  25.52700 -0.21600 23.60700
H  24.07900 0.65900 23.17100
H  24.07700 -0.38100 24.64400
H  26.63800 3.14200 23.57100
H  28.25500 2.86400 24.10100
H  26.80300 3.86100 26.41500
H  26.00600 4.58300 25.03600
H  27.77600 4.64500 25.27600
H  31.22800 0.66700 27.66100
H  30.97400 -0.93900 28.45900
H  31.73400 0.40000 29.34900
H  29.14000 1.76400 33.31400
H  28.03900 -0.40500 36.80800
H  29.76700 -0.53900 36.97100
H  28.94800 -1.77600 35.99100
Mg 48.47500 35.30800 27.53600
C  46.71400 33.48800 29.93400
C  48.22200 38.07400 29.54100
C  50.02800 36.97200 25.16000
C  48.06000 32.55100 25.33600
N  47.68600 35.60600 29.62400
C  47.17200 34.68700 30.50100
C  47.14800 35.25100 31.91000
C  47.28400 36.82300 31.61800
C  47.76800 36.89600 30.19000
C  46.07700 37.60500 31.95400
C  48.38900 34.75300 32.70900
C  48.32800 34.75400 34.24200
H  47.17300 35.50400 34.97000
N  48.92200 37.25800 27.31600
C  48.73900 38.25000 28.24500
C  49.32700 39.49500 27.76200
C  49.98800 39.23600 26.51000
C  49.68500 37.80700 26.25800
C  49.28200 40.68200 28.62600
C  50.76500 40.24100 25.51000
O  51.12600 39.91500 24.38100
C  51.06000 41.63600 26.00600
N  48.80400 34.86000 25.40900
C  49.61800 35.68500 24.74800
C  50.22500 34.99800 23.46700
C  49.82100 33.54400 23.69100
C  48.76800 33.62700 24.86400
C  49.90300 35.72400 22.16400
C  51.01000 32.46700 24.08200
C  50.92000 31.21700 23.31800
N  47.52800 33.48200 27.51700
C  47.44900 32.45100 26.58500
C  46.73700 31.29900 27.08800
C  46.33000 31.71300 28.34800
C  46.83300 33.06900 28.56800
C  46.55600 30.08000 26.39700
C  45.60400 31.35100 29.50300
O  45.04000 30.33700 29.79800
C  45.68900 32.57700 30.55700
C  46.12500 32.15200 31.87600
O  47.22700 31.86900 32.26400
O  45.03100 32.16200 32.71000
C  45.22000 32.01100 34.19300
H  48.09800 38.96000 30.16700
H  50.63800 37.40600 24.36500
H  48.21100 31.69400 24.67600
H  46.22400 35.02600 32.44200
H  48.04800 37.23900 32.27400
H  46.09200 37.97900 32.97800
H  45.15400 37.04700 31.79600
H  46.15200 38.48800 31.31900
H  49.27300 35.35200 32.49000
H  48.75400 33.75700 32.45800
H  49.25600 35.24800 34.52900
H  48.32700 33.70000 34.52000
H  50.17600 40.64400 29.24800
H  48.31900 40.77400 29.12900
H  49.23900 41.54300 27.96000
H  51.96100 42.09600 25.60100
H  51.24900 41.41500 27.05700
H  50.28000 42.37900 25.84000
H  51.30000 35.07300 23.63100
H  49.26900 33.20200 22.81500
H  49.69500 34.95800 21.41800
H  50.76700 36.30100 21.83400
H  49.01000 36.34400 22.24000
H  51.06000 32.34300 25.16400
H  51.94700 32.95900 23.81900
H  51.86200 31.04000 22.79700
H  50.04500 31.12200 22.67600
H  50.77300 30.45700 24.08500
H  46.04100 30.15700 25.43900
H  45.84300 29.65300 27.10200
H  47.49100 29.52000 26.38600
H  44.72200 33.03200 30.77500
H  45.14600 30.94600 34.41300
H  44.35100 32.52100 34.60900
H  46.17200 32.38000 34.57400

