158

Mg 5.57800 54.15600 40.87900
C  5.74900 50.65600 40.97900
C  8.71100 54.18600 39.52300
C  5.19100 57.40600 40.55900
C  2.30400 53.86500 42.17500
N  7.05800 52.57000 40.28000
C  6.96000 51.20400 40.47700
C  8.17100 50.49500 39.90400
C  9.25100 51.67600 39.80000
C  8.26700 52.87600 39.80400
C  10.20100 51.71600 41.09600
C  7.95000 49.71300 38.57100
C  7.04800 50.25600 37.39400
H  6.35100 49.22800 36.46900
N  6.68000 55.56200 40.10200
C  7.96300 55.39200 39.61000
C  8.62200 56.61500 39.36500
C  7.66300 57.68900 39.59300
C  6.44300 56.96900 40.14300
C  10.06400 56.86200 38.88600
C  7.82200 59.20700 39.27500
O  8.82500 59.64000 38.77700
C  6.76100 60.27800 39.44800
N  3.84700 55.48700 41.20500
C  3.98200 56.76500 41.00200
C  2.75300 57.53000 41.58600
C  1.71700 56.35200 41.87500
C  2.68400 55.16700 41.84600
C  2.89700 58.47500 42.80800
C  0.45700 56.36400 40.99600
C  -0.84700 56.48200 41.80200
N  4.31200 52.63300 41.40800
C  3.00200 52.61800 41.95200
C  2.57200 51.30000 42.27800
C  3.67600 50.57200 41.90100
C  4.66600 51.35400 41.38600
C  1.34600 50.84600 43.04800
C  4.17400 49.20300 41.97600
O  3.58500 48.20300 42.40200
C  5.49100 49.15800 41.35700
C  5.42200 48.24900 40.30100
O  4.82200 48.44000 39.24000
O  6.14500 47.19400 40.59300
C  6.15900 46.12400 39.61600
H  9.72400 54.24300 39.12100
H  5.12000 58.49300 40.48500
H  1.28900 53.69000 42.53800
H  8.57300 49.75400 40.59400
H  9.90800 51.64600 38.93100
H  10.25700 50.77600 41.64500
H  9.83800 52.51600 41.74200
H  11.23000 51.92300 40.80400
H  7.74900 48.65400 38.73300
H  8.89600 49.66500 38.03100
H  7.66700 50.95400 36.83000
H  6.26600 50.83400 37.88600
H  10.15700 56.98000 37.80600
H  10.82800 56.20200 39.29600
H  10.22000 57.85900 39.29800
H  5.86500 59.83300 39.01500
H  7.21800 61.14400 38.97000
H  6.61400 60.46200 40.51200
H  2.39800 58.19200 40.79600
H  1.29500 56.48300 42.87100
H  2.07400 59.18100 42.69900
H  3.87400 58.93200 42.96600
H  2.50400 58.01700 43.71600
H  0.44900 55.42400 40.44500
H  0.61500 57.16900 40.27900
H  -0.76900 56.86400 42.82000
H  -1.25500 55.47200 41.76800
H  -1.48400 57.04400 41.11900
H  0.54100 51.57400 43.14500
H  1.64400 50.74100 44.09100
H  0.90200 49.95200 42.61000
H  6.26700 48.87700 42.07000
H  5.17200 45.65900 39.62200
H  6.93800 45.39600 39.84300
H  6.42800 46.40300 38.59800
Mg 0.56000 43.70400 26.40200
C  2.46500 43.08800 29.46800
C  -2.23900 43.36100 28.29400
C  -1.03400 43.24700 23.54500
C  3.64800 43.50100 24.75700
N  0.24600 43.14000 28.62100
C  1.09000 43.10700 29.66700
C  0.30300 42.91300 30.99100
C  -1.17500 42.74800 30.42100
C  -1.03200 43.20300 29.03700
C  -1.65100 41.27300 30.45500
C  0.47300 44.02700 31.98500
C  0.54700 43.79500 33.50000
H  0.24600 42.39200 34.04600
N  -1.40700 43.46000 25.98300
C  -2.42200 43.39200 26.89400
C  -3.72300 43.40900 26.13300
C  -3.40600 43.41500 24.80300
C  -1.87000 43.26600 24.68400
C  -5.05000 43.46900 26.91300
C  -4.34000 43.43700 23.58800
O  -3.85500 43.31700 22.45500
C  -5.78200 43.50700 23.74700
N  1.19800 43.44700 24.45300
C  0.34700 43.26600 23.38500
C  1.13500 43.20900 21.99400
C  2.56000 43.45000 22.42500
C  2.50200 43.48700 23.99200
C  0.83800 41.95500 21.04100
C  3.32800 44.82000 22.04500
C  4.19900 44.77600 20.78800
N  2.62600 43.49400 26.94000
C  3.77000 43.42700 26.12800
C  4.93100 43.33500 26.95100
C  4.43900 43.15000 28.26100
C  3.06400 43.19500 28.18700
C  6.39000 43.27800 26.59200
C  4.86600 42.93800 29.64600
O  5.98500 42.86300 30.06200
C  3.58300 42.98500 30.51400
C  3.58300 41.68700 31.20300
O  3.53600 40.49400 30.81400
O  3.78300 42.01400 32.55700
C  4.21000 40.96100 33.49700
H  -3.14800 43.26700 28.89100
H  -1.59400 43.10700 22.61800
H  4.50400 43.38300 24.08900
H  0.45700 41.95200 31.48100
H  -1.90300 43.31200 31.00400
H  -0.86500 40.64100 30.86800
H  -2.03300 40.89400 29.50700
H  -2.45800 41.04900 31.15300
H  -0.29800 44.78200 31.82900
H  1.42400 44.52300 31.79400
H  -0.02800 44.57300 34.00200
H  1.55300 44.01200 33.85700
H  -5.81500 44.12500 26.49800
H  -4.91200 43.69100 27.97100
H  -5.31800 42.41700 26.81400
H  -6.28400 43.84700 22.84200
H  -5.99400 44.25500 24.51200
H  -6.10000 42.50900 24.04800
H  0.89300 44.06300 21.36200
H  3.22900 42.61400 22.22000
H  0.49600 42.30500 20.06700
H  0.03800 41.32000 21.42100
H  1.73000 41.34700 20.89000
H  3.78000 45.29400 22.91600
H  2.53500 45.55700 21.91200
H  5.14600 45.30200 20.91200
H  3.54200 45.36800 20.15100
H  4.40000 43.79100 20.36700
H  6.54500 43.89100 25.70500
H  6.62400 42.24000 26.35700
H  6.94800 43.75200 27.40000
H  3.53500 43.86500 31.15500
H  3.53000 40.12600 33.33300
H  4.02100 41.32300 34.50800
H  5.26700 40.70000 33.54200

