158

Mg 53.24900 23.72300 44.39100
C  50.49200 25.70300 43.44800
C  51.33600 20.98000 43.07200
C  56.03900 21.83200 44.30700
C  54.92600 26.52600 45.14600
N  51.24200 23.42300 43.09000
C  50.30500 24.41100 42.90700
C  49.01100 23.84100 42.18900
C  49.14200 22.36900 42.45100
C  50.64800 22.20900 42.83800
C  48.20200 21.86700 43.51700
C  49.08800 24.31500 40.67200
C  47.74800 24.66000 39.98500
H  47.12900 23.72400 38.92200
N  53.62800 21.62700 43.91800
C  52.69200 20.69000 43.45100
C  53.31400 19.42500 43.44800
C  54.69100 19.58300 43.80200
C  54.84500 21.03300 44.07800
C  52.66700 18.18200 43.14700
C  55.70600 18.46200 43.93400
O  55.37000 17.36500 43.50700
C  57.13000 18.73600 44.39300
N  55.26600 24.16600 44.45700
C  56.25300 23.20400 44.52400
C  57.58400 23.82400 44.96800
C  57.22200 25.34500 45.30500
C  55.72100 25.38200 44.96200
C  58.42100 23.12900 46.04600
C  57.98000 26.35500 44.47500
C  58.40100 27.64000 45.19300
N  52.84500 25.66500 44.38400
C  53.60900 26.74000 44.81600
C  52.80200 27.92200 44.95400
C  51.57000 27.58600 44.44800
C  51.65700 26.17100 44.06900
C  53.16700 29.28700 45.41700
C  50.21300 28.09500 44.19000
O  49.72500 29.20400 44.31800
C  49.42200 26.79800 43.64700
C  48.84600 27.28200 42.37900
O  49.45900 27.60500 41.35800
O  47.50500 27.51500 42.49200
C  46.80000 28.29600 41.43400
H  50.68800 20.11400 42.92100
H  57.00100 21.31600 44.32700
H  55.41800 27.40500 45.56800
H  48.13400 24.27300 42.67100
H  48.96800 21.92500 41.47100
H  47.35900 21.35500 43.05400
H  47.85500 22.67500 44.16200
H  48.70900 21.06900 44.05800
H  49.51700 23.57300 39.99800
H  49.72500 25.18700 40.52100
H  47.96700 25.55400 39.40200
H  47.02600 24.94700 40.74900
H  52.44000 17.56400 44.01600
H  53.27700 17.64300 42.42300
H  51.72900 18.37200 42.62500
H  57.68000 19.25800 43.60900
H  57.54000 17.73100 44.49100
H  57.13500 19.19900 45.38000
H  58.18100 23.89500 44.06000
H  57.43300 25.57800 46.34900
H  58.04500 22.12000 46.21800
H  58.38300 23.66200 46.99700
H  59.42600 22.96300 45.66000
H  57.31900 26.70000 43.68000
H  58.82900 25.86800 43.99600
H  59.47300 27.79900 45.07800
H  58.26000 27.69400 46.27300
H  57.88400 28.51200 44.79100
H  54.23400 29.45400 45.27500
H  52.92200 29.40400 46.47200
H  52.57900 30.05000 44.90500
H  48.62700 26.46700 44.31500
H  46.07500 28.86900 42.01200
H  46.28000 27.72300 40.66700
H  47.45200 29.06100 41.01200
Mg -9.94600 17.25300 42.49200
C  -6.51400 17.39600 42.59800
C  -9.89300 20.66700 41.60200
C  -13.18100 17.12000 41.71100
C  -9.69500 13.87800 42.56100
N  -8.43000 18.84800 42.05600
C  -7.09000 18.63700 42.32400
C  -6.29400 19.92900 42.29600
C  -7.43100 20.95000 41.95600
C  -8.68600 20.13900 41.92100
C  -7.55000 22.21800 42.80200
C  -5.03400 19.92300 41.26600
C  -4.55700 21.32100 40.87700
H  -4.40000 21.65500 39.41300
N  -11.32800 18.66200 41.77200
C  -11.12200 19.99800 41.58700
C  -12.31900 20.61500 41.14200
C  -13.36900 19.71900 41.29800
C  -12.68600 18.45800 41.60600
C  -12.38100 22.14100 40.81100
C  -14.90000 20.05400 41.16900
O  -15.27300 21.21100 40.93500
C  -15.87200 18.98100 41.47400
N  -11.22100 15.67400 41.92300
C  -12.56900 15.88900 41.91700
C  -13.38200 14.53900 42.07200
C  -12.24800 13.55200 42.32600
C  -10.96900 14.41300 42.24400
C  -14.50300 14.61400 43.16000
C  -12.26300 12.17700 41.54100
C  -12.14500 10.95500 42.46800
N  -8.55500 15.89500 42.62000
C  -8.51500 14.51800 42.71400
C  -7.19600 13.98400 42.89300
C  -6.45100 15.15300 42.96700
C  -7.27700 16.23000 42.70200
C  -6.79200 12.55900 43.04900
C  -5.10500 15.51300 43.11600
O  -4.12300 14.86700 43.43000
C  -5.05900 17.04200 42.90400
C  -4.67200 17.54000 44.22500
O  -5.46100 17.81400 45.14400
O  -3.30100 17.52800 44.40400
C  -2.99400 17.83800 45.79600
H  -9.82100 21.72700 41.35000
H  -14.26800 17.02700 41.74200
H  -9.71300 12.83400 42.88200
H  -5.89500 19.99900 43.30800
H  -7.33200 21.22800 40.90700
H  -6.90400 22.33300 43.67200
H  -8.54100 22.32800 43.24100
H  -7.26200 23.02400 42.12700
H  -5.24000 19.19700 40.47900
H  -4.17200 19.61800 41.85900
H  -3.52700 21.42300 41.21700
H  -5.00200 22.07800 41.52200
H  -11.97400 22.58300 41.72100
H  -13.39800 22.46100 40.58400
H  -11.83600 22.38200 39.89900
H  -15.79100 18.08600 40.85700
H  -16.82800 19.44600 41.23500
H  -15.75500 18.56700 42.47500
H  -13.80600 14.40200 41.07800
H  -12.29400 13.26900 43.37800
H  -14.49500 13.61400 43.59400
H  -15.40200 14.70700 42.55000
H  -14.48400 15.37400 43.94100
H  -11.33200 12.17200 40.97500
H  -13.16300 12.10300 40.93100
H  -13.10600 10.46700 42.62500
H  -11.68800 11.29000 43.40000
H  -11.43500 10.25700 42.02500
H  -6.03400 12.16900 42.37000
H  -7.57300 11.82300 42.85900
H  -6.42300 12.39500 44.06200
H  -4.36100 17.23200 42.08800
H  -3.42300 17.03100 46.39000
H  -3.54700 18.73900 46.06200
H  -1.91600 17.84200 45.95600

