158

Mg 48.66200 35.04500 26.29200
C  46.85400 33.42400 28.83900
C  48.81600 37.80000 28.34700
C  50.51700 36.47400 24.04800
C  48.23500 32.29200 24.29900
N  47.88000 35.59900 28.31400
C  47.37400 34.71300 29.24300
C  47.33800 35.30100 30.68900
C  47.63400 36.83300 30.42400
C  48.16600 36.71100 28.94700
C  46.50100 37.87400 30.71900
C  48.49400 34.77000 31.58400
C  47.95200 34.37400 32.96500
H  46.77800 35.20100 33.59800
N  49.46000 36.95600 26.13800
C  49.41400 37.96200 27.03300
C  50.09800 39.12400 26.47300
C  50.63600 38.68300 25.22400
C  50.20500 37.33200 25.05200
C  50.22100 40.41500 27.24300
C  51.56200 39.45900 24.24700
O  52.04900 39.06800 23.17200
C  52.15100 40.66600 24.74300
N  49.13900 34.55400 24.35300
C  50.04300 35.25600 23.64100
C  50.29600 34.55900 22.32500
C  49.63900 33.15100 22.48700
C  49.00400 33.32500 23.81300
C  49.72100 35.44800 21.11700
C  50.55600 31.90900 22.28800
C  50.10300 30.77000 21.36400
N  47.61800 33.18900 26.44900
C  47.53900 32.19200 25.51600
C  46.79600 31.08300 26.12100
C  46.49600 31.52000 27.41500
C  47.04700 32.78700 27.54900
C  46.34900 29.78900 25.34500
C  45.81200 31.13200 28.64600
O  45.23000 30.06300 28.98100
C  45.97200 32.41900 29.61300
C  46.55700 31.82900 30.90000
O  47.73300 31.52700 31.03700
O  45.60100 31.57400 31.89100
C  46.09600 30.88800 33.09700
H  48.90600 38.67500 28.99400
H  51.31900 36.71500 23.34700
H  48.31100 31.40400 23.66800
H  46.33700 35.12700 31.08300
H  48.50800 37.26700 30.91200
H  46.35300 38.27900 29.71800
H  46.93400 38.58200 31.42600
H  45.62700 37.40000 31.16500
H  49.32100 35.47300 31.68900
H  48.97800 33.98300 31.00500
H  48.74100 34.31400 33.71400
H  47.52500 33.37700 33.07700
H  51.26200 40.71400 27.36100
H  49.75400 40.36000 28.22700
H  49.71500 41.25400 26.76400
H  51.34800 41.33600 25.04800
H  52.68100 41.25500 23.99400
H  52.75800 40.37200 25.59900
H  51.38300 34.58100 22.40300
H  48.83900 33.08400 21.74900
H  49.16400 36.30600 21.49300
H  48.94900 35.03400 20.46800
H  50.55600 35.96700 20.64600
H  50.62000 31.38100 23.23900
H  51.57300 32.10600 21.94800
H  50.85500 30.15000 20.87600
H  49.53000 31.26800 20.58200
H  49.33900 30.18600 21.87800
H  46.37400 29.82300 24.25600
H  45.33400 29.51100 25.62600
H  46.99300 28.96700 25.65700
H  44.95700 32.74300 29.84200
H  45.73200 29.86200 33.06100
H  45.51200 31.29400 33.92300
H  47.17600 30.89000 33.24900
Mg 9.28400 48.52600 26.06200
C  6.97100 48.87200 28.70500
C  11.64000 49.97300 28.16800
C  11.56600 48.61500 23.35800
C  6.75600 47.75000 23.83000
N  9.25500 49.35000 28.18600
C  8.31600 49.11500 29.13100
C  8.77600 49.54800 30.54300
C  10.17200 50.23600 30.31300
C  10.38600 49.82300 28.77000
C  10.11300 51.80100 30.40600
C  8.89800 48.27600 31.40400
C  8.62500 48.53300 32.86600
H  8.82200 47.40200 33.90700
N  11.29500 49.05800 25.90600
C  12.09200 49.69500 26.86300
C  13.38200 49.82400 26.29700
C  13.43500 49.38500 24.94600
C  12.05600 49.00200 24.65700
C  14.58900 50.13700 27.16700
C  14.67000 49.10900 23.94400
O  14.51500 48.60400 22.81500
C  16.00800 49.61900 24.24400
N  9.14900 48.29000 23.94200
C  10.22200 48.33600 23.04200
C  9.83400 47.83100 21.61000
C  8.36300 47.45400 21.82800
C  8.02300 47.81600 23.34500
C  9.99200 48.86300 20.45800
C  8.06800 45.99000 21.48200
C  8.67900 44.91600 22.35600
N  7.29200 48.29000 26.16300
C  6.36100 47.96500 25.15300
C  5.05900 47.81500 25.83000
C  5.30300 48.17200 27.16700
C  6.61900 48.53600 27.35700
C  3.82900 47.46800 25.12500
C  4.65000 48.26100 28.40300
O  3.49100 48.05400 28.74900
C  5.73700 48.88900 29.49700
C  5.69800 48.00000 30.61100
O  5.80200 46.79700 30.65800
O  5.18900 48.75100 31.69900
C  4.72500 47.96500 32.87200
H  12.38600 50.31800 28.88700
H  12.18100 48.66700 22.45600
H  6.03400 47.30500 23.14300
H  8.14200 50.31500 30.98800
H  11.01900 49.80100 30.84200
H  10.80100 52.25200 31.12100
H  9.09400 52.13800 30.59200
H  10.38300 52.26500 29.45700
H  9.90900 47.89000 31.26900
H  8.34500 47.38500 31.10800
H  7.55500 48.72600 32.93400
H  9.24700 49.39300 33.11100
H  15.15200 50.97400 26.75400
H  15.36100 49.36800 27.19100
H  14.33600 50.41000 28.19100
H  16.73500 49.34200 23.48200
H  16.39100 49.22500 25.18500
H  15.76400 50.66700 24.42300
H  10.39200 46.91300 21.42800
H  7.63000 47.86000 21.13200
H  9.02700 49.05200 19.98700
H  10.75300 48.52800 19.75300
H  10.25700 49.82400 20.90000
H  8.34400 45.78900 20.44700
H  6.98600 45.89400 21.57000
H  9.22800 45.23100 23.24300
H  9.37700 44.41400 21.68600
H  7.87200 44.22500 22.59800
H  3.38100 46.69000 25.74200
H  4.06400 47.02900 24.15600
H  3.13400 48.26800 24.86700
H  5.41800 49.90300 29.73600
H  5.57400 47.60100 33.45200
H  4.13400 47.12600 32.50500
H  4.07100 48.63600 33.42900

