158

Mg 49.84300 46.94500 43.63200
C  46.37000 47.07700 43.00300
C  49.84800 43.81300 42.08400
C  53.21600 47.17500 43.43000
C  49.72400 50.35300 44.32700
N  48.25800 45.58800 42.73200
C  46.95300 45.87800 42.51500
C  46.22900 44.63900 41.93700
C  47.25000 43.45700 42.21600
C  48.55400 44.28500 42.30300
C  46.98000 42.69700 43.55900
C  45.71900 44.88500 40.50700
C  44.16800 44.72900 40.37400
H  43.58600 45.24000 39.03900
N  51.37600 45.61700 42.99700
C  51.11700 44.43400 42.34000
C  52.36900 43.82600 41.84200
C  53.37200 44.77700 42.27900
C  52.66200 45.93700 42.92200
C  52.47200 42.45800 41.17700
C  54.93800 44.63900 42.03200
O  55.33400 43.60600 41.43400
C  55.91400 45.65900 42.53800
N  51.25300 48.45100 43.94800
C  52.57100 48.26300 43.99400
C  53.28300 49.41900 44.61800
C  52.32500 50.56000 44.75700
C  50.99500 49.75200 44.40000
C  54.01800 49.03900 45.90300
C  52.73700 51.81600 43.93000
C  52.30500 53.19700 44.64900
N  48.38300 48.47700 43.61300
C  48.47100 49.79600 43.96800
C  47.12900 50.36700 44.04000
C  46.30400 49.35700 43.63200
C  47.10500 48.23300 43.41800
C  46.72800 51.77400 44.31900
C  44.96900 48.98900 43.31600
O  43.89200 49.58800 43.33400
C  44.93200 47.48800 42.93100
C  44.17800 46.73900 43.96400
O  44.63500 46.03300 44.86500
O  42.88800 46.79100 43.55600
C  41.88700 45.94000 44.21000
H  49.82200 42.75100 41.83100
H  54.29800 47.31800 43.38300
H  49.71500 51.36600 44.73500
H  45.36700 44.38700 42.55500
H  47.30200 42.76000 41.38000
H  47.78200 42.68200 44.29800
H  46.93300 41.61800 43.41600
H  45.97200 42.96300 43.87700
H  46.23000 44.15500 39.87900
H  46.01800 45.85800 40.11500
H  43.70600 45.27200 41.19800
H  43.96100 43.66700 40.50400
H  53.34200 41.99500 41.64300
H  52.84000 42.47300 40.15100
H  51.63100 41.77500 41.29700
H  55.67100 46.57600 42.00000
H  56.93100 45.29700 42.39000
H  55.67600 45.87400 43.58000
H  54.06500 49.72300 43.92200
H  52.02000 50.80600 45.77400
H  53.80600 48.03000 46.25700
H  53.83400 49.68500 46.76200
H  55.07400 49.10000 45.64000
H  52.26800 51.78400 42.94600
H  53.81500 51.83700 43.77200
H  51.67400 53.68800 43.90900
H  53.12900 53.90300 44.75800
H  51.64100 53.15800 45.51300
H  47.30200 52.21600 45.13300
H  45.65400 51.75000 44.50200
H  46.89500 52.51000 43.53200
H  44.60900 47.28500 41.91000
H  41.34100 45.45900 43.39900
H  41.25800 46.59200 44.81700
H  42.23800 45.09500 44.80100
Mg 31.18500 58.79100 40.67100
C  28.32500 57.21900 39.37300
C  33.03700 56.29600 39.15000
C  33.94300 60.71400 41.01400
C  29.13500 61.52000 41.66700
N  30.70300 57.01300 39.28800
C  29.49400 56.47800 39.09100
C  29.62200 55.05300 38.60200
C  31.16500 54.73400 38.85300
C  31.68000 56.09100 39.12700
C  31.45100 53.75500 39.98000
C  29.28600 54.86400 37.06300
C  27.97400 54.22200 36.61600
H  27.18800 54.81700 35.38700
N  33.20900 58.46300 40.13000
C  33.78800 57.42700 39.57000
C  35.24500 57.59200 39.36000
C  35.54700 58.79100 40.03500
C  34.22200 59.35500 40.49600
C  36.09300 56.56300 38.74800
C  36.87700 59.37500 40.24200
O  37.89200 58.79400 39.86700
C  37.03900 60.74100 40.88000
N  31.49300 60.80300 41.25500
C  32.78200 61.32400 41.30200
C  32.70600 62.76000 41.86900
C  31.18300 63.11900 42.01000
C  30.53500 61.75200 41.68000
C  33.73700 63.03600 43.00800
C  30.71000 64.33800 41.17000
C  29.49800 65.15200 41.67100
N  29.18400 59.27500 40.60100
C  28.53600 60.38400 41.04400
C  27.10700 60.25900 40.85500
C  26.96800 59.02100 40.22400
C  28.24700 58.48700 40.04200
C  26.00700 61.18900 41.35700
C  25.97900 58.00700 39.73600
O  24.72100 58.00200 39.64000
C  26.84500 56.80300 39.18900
C  26.56400 55.63500 40.01800
O  27.14400 55.38600 41.08700
O  25.59500 54.84400 39.41300
C  25.26000 53.65100 40.15700
H  33.55500 55.39800 38.80700
H  34.79900 61.37600 41.16000
H  28.49200 62.32700 42.02600
H  28.95200 54.43400 39.19800
H  31.73600 54.38700 37.99100
H  30.59300 53.73000 40.65200
H  32.32600 53.99200 40.58600
H  31.54800 52.68900 39.77400
H  30.06500 54.32700 36.52300
H  29.20400 55.86900 36.64900
H  27.24900 54.15700 37.42700
H  28.29400 53.19500 36.44100
H  36.64600 57.08100 37.96400
H  35.47800 55.83500 38.21900
H  36.78700 56.12300 39.46400
H  36.55400 61.52300 40.29500
H  38.09100 61.01200 40.96000
H  36.73700 60.77400 41.92700
H  33.10400 63.43400 41.11000
H  31.05800 63.31100 43.07500
H  34.15800 62.15500 43.49300
H  33.34500 63.63000 43.83300
H  34.63500 63.59000 42.73400
H  30.32200 63.86000 40.27100
H  31.65400 64.82500 40.92500
H  29.79100 66.20100 41.72000
H  29.09100 64.66300 42.55600
H  28.71000 65.09600 40.91900
H  26.31800 62.17300 41.00700
H  26.04800 61.14900 42.44600
H  25.03200 60.97800 40.91900
H  26.57900 56.41200 38.20700
H  26.16200 53.08700 40.39500
H  24.61900 52.99200 39.57100
H  24.72300 53.77600 41.09700

