158

Mg 0.69700 7.07700 25.14100
C  1.30200 8.92100 28.12400
C  1.02800 4.22900 27.26000
C  0.01900 5.26900 22.60100
C  0.88000 9.99500 23.38200
N  1.01800 6.60400 27.40800
C  1.19600 7.56400 28.41000
C  1.56800 6.89300 29.73400
C  1.72000 5.37500 29.38700
C  1.22800 5.38700 27.95000
C  3.15700 4.80400 29.56100
C  0.59800 7.26700 30.84800
C  1.18200 7.79600 32.17600
H  2.11000 6.91200 32.98900
N  0.60800 4.97700 24.87500
C  0.63900 3.99900 25.89100
C  0.45000 2.71700 25.24500
C  0.24100 2.97100 23.87000
C  0.31900 4.40600 23.67100
C  0.34500 1.46700 25.97100
C  -0.03800 1.96400 22.63800
O  -0.23000 2.50700 21.53400
C  -0.16600 0.47700 22.77900
N  0.71400 7.50000 23.22000
C  0.22000 6.60200 22.35100
C  -0.11700 7.28300 21.00300
C  -0.26700 8.78200 21.44400
C  0.55200 8.77800 22.73000
C  1.16500 7.00800 19.98900
C  -1.66400 9.39400 21.60200
C  -1.75100 10.88200 21.15800
N  1.13400 9.13800 25.61600
C  1.16200 10.22100 24.80300
C  1.36600 11.40000 25.63200
C  1.39600 10.88800 26.88500
C  1.27700 9.52400 26.82100
C  1.40900 12.87100 25.16700
C  1.62100 11.39500 28.24400
O  1.75100 12.47400 28.71400
C  1.52700 10.08000 29.09800
C  2.74000 10.01700 29.94700
O  3.85100 9.59200 29.61600
O  2.56000 10.75500 31.10400
C  3.60700 10.90400 32.04900
H  1.15600 3.28600 27.79500
H  -0.33500 4.69800 21.74000
H  0.70800 10.88900 22.77900
H  2.48800 7.37900 30.05900
H  1.02300 4.77900 29.97700
H  3.66700 5.48600 30.24100
H  3.70300 4.77500 28.61800
H  3.14900 3.79300 29.96800
H  -0.04400 6.40100 31.00500
H  -0.05300 8.03700 30.43400
H  0.48200 8.01800 32.98200
H  1.75200 8.68200 31.89600
H  0.09600 1.57400 27.02600
H  1.31500 0.97300 25.92500
H  -0.44900 0.83600 25.57300
H  -1.15100 0.20900 23.16200
H  0.61200 -0.07300 23.30800
H  -0.15200 0.05300 21.77500
H  -1.08200 7.02000 20.57100
H  0.25100 9.47800 20.78500
H  1.96400 6.80600 20.70300
H  1.34100 7.90200 19.39100
H  0.91200 6.15800 19.35600
H  -1.97900 9.38200 22.64500
H  -2.40800 8.96200 20.93200
H  -2.59700 11.05800 20.49300
H  -0.94800 11.24600 20.51700
H  -1.77700 11.52900 22.03500
H  1.05100 12.84200 24.13800
H  2.37900 13.34600 25.31500
H  0.68100 13.47500 25.70900
H  0.69500 10.29700 29.76700
H  3.39600 11.70900 32.75300
H  4.62300 11.14600 31.73800
H  3.63100 9.91800 32.51300
Mg -12.04800 16.86200 41.81600
C  -8.82900 15.42000 41.45400
C  -10.83200 19.81500 40.52200
C  -15.22400 17.96300 41.78900
C  -13.25300 13.59500 42.14800
N  -10.01100 17.46100 40.96100
C  -8.83000 16.66700 40.98000
C  -7.66500 17.52200 40.41300
C  -8.26300 18.98100 40.35300
C  -9.81800 18.77800 40.56900
C  -7.60600 20.08400 41.20700
C  -7.16700 16.95700 39.00800
C  -5.69900 17.33000 38.58800
H  -5.47300 17.80800 37.09700
N  -12.91000 18.64900 41.26600
C  -12.25000 19.76400 40.77100
C  -13.15900 20.82100 40.57400
C  -14.36800 20.34900 41.05100
C  -14.22900 18.94000 41.40000
C  -12.84600 22.22300 39.96800
C  -15.60700 21.22700 41.12800
O  -15.72300 22.36900 40.74500
C  -16.93800 20.69900 41.66600
N  -13.93700 15.89100 41.84000
C  -15.07400 16.57500 42.05000
C  -16.35800 15.71700 42.03900
C  -15.69700 14.36100 42.28800
C  -14.23200 14.56400 42.01100
C  -17.52600 16.06400 42.99800
C  -16.26100 13.26300 41.33800
C  -16.45000 11.69900 41.86500
N  -11.21500 14.95900 42.11000
C  -11.85500 13.74000 42.22300
C  -10.81300 12.65500 42.22600
C  -9.61300 13.32400 42.06400
C  -9.94100 14.70200 41.86300
C  -11.03300 11.19500 42.24300
C  -8.17900 13.07200 42.02800
O  -7.52100 12.05400 42.05700
C  -7.63100 14.50200 41.68600
C  -6.75100 14.94300 42.81400
O  -7.10700 14.89200 44.01400
O  -5.57300 15.32700 42.32200
C  -4.50600 15.56400 43.32300
H  -10.35700 20.79200 40.41200
H  -16.27400 18.26100 41.81800
H  -13.76800 12.64900 42.32600
H  -6.82900 17.55300 41.11200
H  -8.07100 19.32600 39.33700
H  -7.24900 20.77500 40.44300
H  -6.79600 19.64500 41.79000
H  -8.30600 20.62100 41.84700
H  -7.89400 17.32500 38.28300
H  -7.19000 15.87600 38.87300
H  -5.14600 16.40300 38.74000
H  -5.28000 17.97000 39.36400
H  -13.39800 22.41600 39.04900
H  -11.77700 22.17600 39.76100
H  -13.11900 22.91200 40.76700
H  -17.60000 21.52700 41.92100
H  -16.75800 20.21200 42.62500
H  -17.50300 20.07500 40.97500
H  -16.83800 15.69500 41.06100
H  -15.73100 14.03200 43.32700
H  -17.35500 16.95600 43.60100
H  -17.71900 15.26500 43.71300
H  -18.46900 16.33000 42.52000
H  -15.70900 13.12100 40.40800
H  -17.27500 13.51800 41.03200
H  -17.46900 11.34400 41.70700
H  -16.23200 11.64800 42.93200
H  -15.81600 11.14800 41.17100
H  -11.65300 10.99600 43.11800
H  -10.12300 10.59700 42.28400
H  -11.60800 10.94300 41.35200
H  -7.04400 14.32400 40.78600
H  -4.91400 16.35300 43.95500
H  -3.59100 15.90100 42.83600
H  -4.36400 14.61600 43.84300

