158

Mg 46.63100 16.41700 28.73300
C  44.99500 16.51100 31.91000
C  49.16500 18.36000 30.17800
C  47.77700 17.18500 25.66900
C  43.71200 15.07000 27.37700
N  47.01100 17.33000 30.78500
C  46.23600 17.21000 31.92700
C  46.91100 17.79800 33.23400
C  48.19400 18.53300 32.61400
C  48.15500 18.06300 31.11100
C  48.11500 20.13800 32.68400
C  47.28200 16.65500 34.26000
C  46.65900 16.95600 35.67500
H  46.67500 18.35000 36.33800
N  48.35800 17.41800 28.05500
C  49.27300 18.12400 28.78400
C  50.33400 18.64400 27.96100
C  49.84300 18.37800 26.61200
C  48.61500 17.60800 26.69700
C  51.67500 19.25000 28.52100
C  50.45900 18.68200 25.29200
O  50.03200 18.31400 24.22100
C  51.77300 19.34600 25.28600
N  45.92100 16.11600 26.71400
C  46.56500 16.54900 25.65800
C  45.81300 16.20900 24.36300
C  44.54100 15.43700 24.94700
C  44.68800 15.53400 26.46400
C  45.55600 17.38600 23.39900
C  44.36200 13.94000 24.44500
C  45.33300 12.90700 25.07400
N  44.72000 15.82500 29.43600
C  43.68700 15.21400 28.79100
C  42.71700 14.83000 29.85500
C  43.24000 15.31100 31.04700
C  44.39200 15.89700 30.72700
C  41.45700 14.05900 29.70300
C  42.91500 15.50300 32.51300
O  41.91300 15.14900 33.11400
C  44.12100 16.21200 33.11200
C  43.55700 17.38900 33.70100
O  43.47100 18.51500 33.17400
O  43.20400 17.10500 35.00000
C  42.49700 18.14800 35.78700
H  49.87600 19.15000 30.42700
H  47.96600 17.56000 24.66100
H  42.76600 14.61600 27.07500
H  46.10800 18.39200 33.67100
H  49.13100 18.22000 33.07400
H  47.64400 20.48700 33.60300
H  47.64300 20.48500 31.76500
H  49.10000 20.60300 32.72900
H  48.33800 16.53900 34.50400
H  46.90300 15.70800 33.87600
H  47.19400 16.23700 36.29600
H  45.62800 16.61100 35.59800
H  52.52200 18.66300 28.16700
H  51.84400 19.31900 29.59500
H  51.82400 20.23600 28.07900
H  51.58500 20.27300 25.82700
H  52.06500 19.69000 24.29400
H  52.53700 18.82000 25.85800
H  46.38600 15.37900 23.94900
H  43.64400 15.98500 24.66000
H  45.83500 18.38400 23.73500
H  44.53100 17.43600 23.03200
H  46.05100 17.06400 22.48300
H  44.57100 13.97700 23.37600
H  43.32500 13.67000 24.64500
H  46.31000 13.31300 25.33700
H  45.45200 12.02100 24.45100
H  44.93600 12.51800 26.01100
H  41.61500 12.99900 29.90100
H  41.04700 14.20500 28.70300
H  40.70600 14.49700 30.36100
H  44.64600 15.56400 33.81500
H  42.64200 17.85400 36.82700
H  41.44500 18.37600 35.62000
H  42.90500 19.14900 35.64200
Mg 36.28700 49.77500 24.72500
C  36.48500 47.85200 27.74500
C  34.82100 52.17500 26.48200
C  35.31600 51.01800 21.70700
C  37.44700 46.90500 23.06100
N  35.57000 49.90500 26.94900
C  35.90800 49.12400 27.93300
C  35.71900 49.84100 29.34000
C  35.04000 51.25000 28.82500
C  35.23500 51.15200 27.35700
C  33.55300 51.50500 29.23400
C  37.06900 50.15900 30.09800
C  37.06400 49.88000 31.61500
H  35.67600 49.85000 32.37000
N  35.29300 51.44200 24.11700
C  34.81500 52.31000 25.01100
C  34.20800 53.39800 24.30600
C  34.38800 53.19800 22.87600
C  34.98200 51.84200 22.85800
C  33.52900 54.60300 25.02500
C  33.93400 54.09000 21.72600
O  33.92900 53.58800 20.64500
C  33.35400 55.51900 21.95400
N  36.12700 48.95300 22.67900
C  35.72800 49.66700 21.66100
C  35.98900 48.98400 20.31400
C  36.92000 47.78400 20.74400
C  36.84800 47.85800 22.22800
C  34.66800 48.61300 19.52300
C  38.43200 47.92500 20.19400
C  39.54000 48.70700 20.98200
N  37.04100 47.83300 25.22800
C  37.50700 46.79400 24.48300
C  37.98000 45.72700 25.34800
C  37.53500 46.08200 26.58500
C  36.94100 47.30500 26.48600
C  38.56200 44.42300 24.87900
C  37.30700 45.65300 27.96000
O  37.58700 44.52600 28.38000
C  36.74900 46.80200 28.79300
C  35.52400 46.36300 29.49000
O  34.46900 46.00300 29.01000
O  35.87400 46.36900 30.80200
C  34.91500 45.92900 31.79500
H  34.33200 52.97600 27.04100
H  35.00000 51.56800 20.81800
H  37.70700 46.03400 22.45600
H  35.00000 49.19400 29.84200
H  35.61500 52.12700 29.12400
H  33.30900 50.95900 30.14500
H  32.83600 51.20400 28.47100
H  33.40700 52.56400 29.44600
H  37.36200 51.18200 29.86600
H  37.79400 49.48400 29.64200
H  37.66500 50.67400 32.05700
H  37.65000 48.97800 31.79000
H  34.13100 55.48500 24.80700
H  33.41600 54.52900 26.10600
H  32.54600 54.83200 24.61600
H  33.32300 56.00900 20.98100
H  33.86100 56.18400 22.65300
H  32.31400 55.46000 22.27400
H  36.62000 49.66000 19.73900
H  36.50600 46.80000 20.52300
H  34.76200 47.58700 19.16600
H  34.46200 49.25800 18.66900
H  33.78100 48.68700 20.15200
H  38.43400 48.14400 19.12600
H  38.70100 46.87400 20.09600
H  39.02200 49.27400 21.75500
H  39.97300 49.31900 20.19100
H  40.27700 47.96900 21.29900
H  39.38400 44.09600 25.51600
H  38.89100 44.37600 23.84100
H  37.79500 43.64800 24.84900
H  37.52200 47.08400 29.50700
H  34.98800 44.87000 32.04100
H  33.96400 46.34200 31.45600
H  35.23200 46.34400 32.75100

