158

Mg 7.26600 2.33700 27.86000
C  8.70700 1.19300 30.79500
C  5.02700 4.24900 29.78200
C  5.83400 3.35600 25.01000
C  9.24500 0.10900 25.92600
N  6.96000 2.73500 30.03100
C  7.75900 2.16800 31.07800
C  7.27600 2.65600 32.48200
C  6.14200 3.76500 32.04500
C  5.94800 3.53100 30.54800
C  4.84200 3.91800 32.86400
C  8.41800 3.29000 33.37700
C  7.99500 4.10000 34.58200
H  8.59300 3.70600 35.90400
N  5.70800 3.71600 27.39600
C  4.85800 4.34500 28.39100
C  3.95000 5.13500 27.64900
C  4.23400 5.01900 26.23000
C  5.28100 3.94700 26.13800
C  3.08200 6.18700 28.35000
C  3.61700 5.87200 25.10900
O  4.08100 5.81900 23.98900
C  2.54500 6.81200 25.32200
N  7.28200 1.60100 25.78700
C  6.73100 2.29500 24.83000
C  7.14300 1.74500 23.44400
C  8.46000 1.02600 23.77800
C  8.38500 0.91500 25.25400
C  6.07100 0.80200 22.81700
C  9.82700 1.58200 23.21600
C  10.61000 2.64400 23.98900
N  8.59500 0.88300 28.21800
C  9.35400 0.02000 27.33700
C  10.27800 -0.64200 28.14300
C  10.09300 -0.22500 29.49000
C  8.99200 0.64500 29.52300
C  11.24200 -1.72900 27.64900
C  10.51700 -0.47900 30.87400
O  11.36700 -1.28900 31.20700
C  9.62000 0.48000 31.81400
C  8.78600 -0.33100 32.81200
O  7.74600 -0.89900 32.46400
O  9.22000 -0.29600 34.10400
C  8.26100 -0.67300 35.19000
H  4.43900 4.83800 30.48800
H  5.50000 3.71500 24.03400
H  9.99300 -0.35300 25.27900
H  6.83400 1.79000 32.97400
H  6.62400 4.73600 32.15300
H  4.86900 4.84000 33.44500
H  4.79900 3.04800 33.52100
H  3.92500 3.76800 32.29400
H  8.90200 4.07700 32.79900
H  9.12700 2.56700 33.78000
H  6.93100 4.01500 34.80500
H  8.08200 5.16500 34.36700
H  3.51200 7.18700 28.30400
H  3.06100 6.03800 29.43000
H  2.06300 6.16500 27.96500
H  1.73200 6.44100 25.94600
H  2.08900 6.91900 24.33700
H  2.97900 7.72300 25.73200
H  7.44200 2.56600 22.79300
H  8.47800 0.03000 23.33600
H  5.27800 0.65200 23.55000
H  6.59300 -0.11900 22.55900
H  5.77200 1.29100 21.89000
H  9.70400 1.94500 22.19500
H  10.48800 0.71500 23.21200
H  10.07400 2.99900 24.87000
H  10.82600 3.42300 23.25800
H  11.51700 2.24800 24.44700
H  11.57200 -1.64500 26.61300
H  10.89900 -2.75400 27.78700
H  12.14000 -1.58700 28.25100
H  10.27400 1.17000 32.34900
H  7.91700 -1.70600 35.13600
H  7.39800 -0.07200 34.90200
H  8.58800 -0.24800 36.13900
Mg 47.18200 17.14100 27.47800
C  45.46500 17.30500 30.49100
C  49.64800 19.20200 28.91700
C  48.60600 17.72200 24.39400
C  44.31100 16.21700 25.91400
N  47.51400 18.06300 29.52100
C  46.71000 17.88500 30.56700
C  47.34100 18.47000 31.82200
C  48.52300 19.32700 31.25900
C  48.61500 18.86100 29.79600
C  48.39000 20.82600 31.51900
C  47.67200 17.38100 32.86400
C  47.26900 17.79100 34.36800
H  47.24700 19.34100 34.67300
N  49.05400 17.97500 26.84100
C  49.88000 18.80300 27.54300
C  50.96900 19.23800 26.67200
C  50.69700 18.66600 25.37300
C  49.41100 18.01800 25.50700
C  52.04900 20.18800 27.05400
C  51.65000 18.72300 24.07400
O  51.13200 18.48700 22.93500
C  53.11900 19.04900 24.17100
N  46.67400 16.80300 25.48300
C  47.29500 17.23300 24.44500
C  46.49100 17.22000 23.15300
C  45.27800 16.35600 23.57900
C  45.36700 16.49800 25.08500
C  46.09100 18.71000 22.74700
C  45.21900 14.84200 23.17000
C  44.13900 14.40500 22.22900
N  45.30300 16.55600 28.08700
C  44.23500 16.17600 27.30800
C  43.08100 15.89400 28.14800
C  43.52800 16.23100 29.44500
C  44.82200 16.76400 29.33500
C  41.76600 15.44800 27.84200
C  43.10500 16.34000 30.83200
O  42.02300 16.12800 31.32600
C  44.35300 16.98300 31.59200
C  43.87600 18.14000 32.39300
O  43.61400 19.25200 31.99000
O  43.80400 17.81300 33.71600
C  43.08800 18.79400 34.48700
H  50.38400 19.83400 29.42000
H  48.89000 18.02200 23.38300
H  43.40400 15.82200 25.45200
H  46.63500 19.23800 32.14100
H  49.44100 18.99700 31.74500
H  47.51800 21.15400 32.08500
H  48.47700 21.25100 30.51900
H  49.24800 21.19100 32.08400
H  48.71800 17.08300 32.79400
H  47.14300 16.45700 32.63400
H  48.05500 17.35000 34.98100
H  46.30600 17.35000 34.62300
H  51.68900 20.69700 27.94900
H  52.23500 20.85600 26.21300
H  52.98200 19.64400 27.19900
H  53.33300 18.58500 25.13400
H  53.10300 20.13800 24.16000
H  53.70200 18.61300 23.35900
H  47.07500 16.77300 22.34800
H  44.37400 16.89500 23.29600
H  45.13800 18.74100 22.21800
H  46.95400 19.13600 22.23600
H  45.89900 19.25400 23.67200
H  45.18500 14.26000 24.09100
H  46.06900 14.58000 22.53900
H  44.40100 14.72900 21.22100
H  43.22500 14.91200 22.53700
H  44.01600 13.33500 22.39500
H  41.81000 14.35900 27.82300
H  41.47500 15.84700 26.87000
H  41.05800 15.71000 28.62900
H  44.67900 16.15500 32.22200
H  42.09800 18.95200 34.06000
H  43.64600 19.71400 34.30900
H  43.14900 18.56300 35.55100

