158

Mg 44.18800 5.58700 47.75600
C  42.11200 8.33300 47.36200
C  41.25500 3.46600 47.51400
C  46.02900 2.90400 47.60400
C  46.96600 7.64400 47.35600
N  41.99300 5.82300 47.31000
C  41.38400 7.11700 47.26800
C  39.86100 7.02500 47.31300
C  39.61500 5.46100 47.40500
C  41.03800 4.84500 47.40200
C  38.65900 5.03500 48.60400
C  39.11500 7.72200 46.18200
C  39.69900 7.86900 44.78000
H  38.80100 7.35400 43.66500
N  43.69100 3.46800 47.62800
C  42.50900 2.84500 47.55300
C  42.69900 1.43100 47.48500
C  44.03800 1.16600 47.61000
C  44.63800 2.59100 47.65900
C  41.52100 0.40500 47.23400
C  44.73600 -0.25100 47.59200
O  44.11600 -1.29500 47.48600
C  46.26100 -0.34600 47.72500
N  46.15900 5.31500 47.27900
C  46.73600 4.06400 47.48000
C  48.24000 4.06000 47.41200
C  48.49700 5.56600 47.18300
C  47.11500 6.26900 47.35900
C  48.90900 3.44800 48.60700
C  49.19000 5.87100 45.83600
C  50.59900 5.35600 45.81900
N  44.55600 7.60100 47.45800
C  45.76900 8.32000 47.36300
C  45.40800 9.75000 47.16500
C  44.00700 9.76900 47.15700
C  43.51800 8.45900 47.36800
C  46.45500 10.76600 46.81600
C  42.84500 10.66300 47.01600
O  42.70500 11.89800 46.96000
C  41.60200 9.72500 47.17800
C  40.52100 10.14300 48.08300
O  40.36800 9.69400 49.22800
O  39.74600 11.04000 47.48100
C  38.61600 11.54500 48.24900
H  40.39100 2.84900 47.26100
H  46.69900 2.04200 47.60000
H  47.78600 8.36400 47.30700
H  39.47200 7.57300 48.17100
H  39.14300 5.01400 46.53000
H  38.11500 5.85900 49.06500
H  39.13800 4.52800 49.44100
H  37.91000 4.35000 48.20600
H  38.77100 8.66900 46.59700
H  38.24700 7.07600 46.04800
H  40.63400 7.30800 44.78000
H  39.86600 8.93700 44.64200
H  41.86000 -0.45100 46.64900
H  40.60000 0.84600 46.85300
H  41.16900 0.03900 48.19800
H  46.78300 0.09600 46.87600
H  46.52900 -1.40200 47.73700
H  46.51700 -0.01900 48.73300
H  48.52000 3.54600 46.49200
H  49.12100 5.96100 47.98500
H  48.20100 3.07700 49.34800
H  49.55900 4.17600 49.09300
H  49.49000 2.60000 48.24500
H  49.09800 6.94600 45.67800
H  48.47300 5.46900 45.12000
H  50.59100 4.42400 45.25500
H  50.87800 5.14200 46.85100
H  51.31500 6.10400 45.47700
H  47.00400 11.16700 47.66800
H  45.81200 11.57200 46.46000
H  47.16400 10.50900 46.02900
H  41.16900 9.78800 46.18000
H  37.75700 10.89200 48.09000
H  38.43800 12.59300 48.01000
H  38.76100 11.52800 49.32900
Mg 48.78800 35.08500 26.47200
C  46.84500 33.51100 28.96900
C  48.91100 37.85200 28.60200
C  50.12100 36.72800 23.95500
C  48.24200 32.30800 24.33700
N  48.06800 35.52200 28.62200
C  47.33000 34.72100 29.38300
C  47.34600 35.24200 30.79800
C  47.68900 36.68700 30.63800
C  48.31000 36.75000 29.22200
C  46.45900 37.69700 30.88800
C  48.44700 34.41800 31.62300
C  48.13600 33.94900 33.07100
H  47.72900 34.97000 34.11700
N  49.36400 37.02800 26.30500
C  49.31700 38.05700 27.24900
C  49.91200 39.29300 26.66100
C  50.27700 38.95700 25.31200
C  49.93300 37.54500 25.12700
C  50.07400 40.58400 27.45400
C  50.91900 39.79300 24.26600
O  51.29600 39.38400 23.16700
C  51.35900 41.16900 24.68000
N  48.99500 34.63100 24.32800
C  49.78800 35.42000 23.63700
C  50.16300 34.82700 22.26600
C  49.68700 33.29400 22.45200
C  48.94400 33.41600 23.78700
C  49.48400 35.47600 21.11300
C  50.71500 32.15700 22.61000
C  50.40200 30.75700 22.05500
N  47.78800 33.27700 26.55700
C  47.65100 32.22800 25.65700
C  46.82700 31.14300 26.20400
C  46.45100 31.63300 27.48900
C  47.08000 32.93300 27.69900
C  46.34700 29.87000 25.56600
C  45.70000 31.33800 28.65300
O  44.94600 30.42500 28.94600
C  45.72700 32.61700 29.47600
C  45.79600 32.34100 30.95200
O  46.52500 31.54500 31.45500
O  44.82700 32.98500 31.54500
C  44.64500 32.81900 32.99200
H  48.97800 38.79000 29.15600
H  50.61800 37.12700 23.06800
H  48.09400 31.41900 23.72000
H  46.41400 35.10200 31.34500
H  48.58300 36.92900 31.21200
H  46.34300 38.42300 30.08300
H  46.66700 38.39000 31.70300
H  45.50800 37.19700 31.07200
H  49.44000 34.86700 31.62000
H  48.63300 33.46700 31.12500
H  49.01500 33.64800 33.64100
H  47.44000 33.11500 33.16800
H  49.28900 40.46900 28.20100
H  49.84900 41.39400 26.75900
H  51.13400 40.72800 27.66600
H  50.62300 41.97200 24.73200
H  52.06300 41.58800 23.96000
H  51.84600 41.07800 25.65100
H  51.22000 34.87800 22.00700
H  48.90900 32.97600 21.75800
H  48.64600 36.07800 21.46600
H  49.15100 34.74500 20.37600
H  50.24300 36.10900 20.65200
H  50.91100 31.98000 23.66700
H  51.71000 32.47500 22.29800
H  50.42100 30.09500 22.92000
H  51.12500 30.42200 21.31100
H  49.37900 30.66900 21.68900
H  45.27000 29.92000 25.40400
H  46.60100 29.00800 26.18400
H  46.84800 29.89500 24.59900
H  44.82600 33.18000 29.23200
H  43.75500 32.25000 33.26200
H  44.58200 33.82100 33.41500
H  45.48500 32.24200 33.37900

