158

Mg 24.87700 1.18000 30.09300
C  27.25200 0.72700 32.61100
C  22.47700 1.61900 32.53200
C  22.55500 1.29400 27.57100
C  27.34300 0.21300 27.62600
N  24.89800 1.15900 32.32100
C  26.01700 1.11100 33.12300
C  25.68200 1.31500 34.56600
C  24.13900 1.43200 34.61100
C  23.76800 1.40300 33.06100
C  23.29800 0.32700 35.44400
C  26.39800 2.58300 35.15100
C  27.24100 2.59300 36.40900
H  26.51900 1.89300 37.59300
N  22.81700 1.40500 30.02700
C  22.02300 1.56000 31.15500
C  20.64000 1.68900 30.71000
C  20.66000 1.67700 29.31300
C  21.99900 1.47300 28.91900
C  19.53900 1.86300 31.75000
C  19.42000 1.70600 28.35800
O  19.44700 1.45000 27.13600
C  18.13000 2.09600 28.90700
N  24.94800 0.82400 27.86700
C  23.84300 1.03500 27.12500
C  24.22200 1.19400 25.68200
C  25.72100 0.76700 25.66700
C  26.06800 0.59700 27.11400
C  23.33700 0.30500 24.68100
C  26.58000 1.74300 24.86100
C  26.75500 3.13100 25.57400
N  26.78200 0.42200 30.09900
C  27.69100 0.23600 29.02300
C  29.01200 -0.06300 29.55600
C  28.87700 0.05700 30.95800
C  27.50200 0.43200 31.22000
C  30.21800 -0.40300 28.63400
C  29.61400 -0.02800 32.13600
O  30.74100 -0.47300 32.39000
C  28.54700 0.41700 33.28500
C  28.45000 -0.60500 34.42700
O  27.79300 -1.62000 34.47300
O  29.42600 -0.24600 35.38000
C  29.32400 -1.00400 36.60900
H  21.74100 1.82100 33.31400
H  21.82200 1.53800 26.79900
H  28.15500 -0.01300 26.93200
H  25.93600 0.39300 35.08700
H  23.90400 2.39300 35.06700
H  22.99300 0.85200 36.34900
H  23.88700 -0.53400 35.75900
H  22.46200 -0.06800 34.86700
H  25.63900 3.34800 35.31800
H  26.99700 2.96800 34.32600
H  27.52100 3.59600 36.73200
H  28.14400 2.05200 36.12600
H  19.82300 1.68800 32.78800
H  18.66000 1.24400 31.57000
H  19.26100 2.91700 31.77100
H  17.91400 1.29700 29.61700
H  17.39900 1.89500 28.12400
H  18.05600 3.12300 29.26300
H  24.18200 2.26400 25.47600
H  25.80200 -0.27400 25.35300
H  22.82500 0.87900 23.90900
H  22.61800 -0.25500 25.27900
H  23.91700 -0.38300 24.06500
H  26.17100 1.81800 23.85400
H  27.58100 1.33300 24.72800
H  26.42200 2.94000 26.59400
H  26.27700 3.95600 25.04600
H  27.75900 3.54600 25.66700
H  31.07900 -0.57800 29.27900
H  30.37500 0.26100 27.78400
H  29.95900 -1.39000 28.25100
H  28.92100 1.32000 33.76800
H  29.88000 -1.94200 36.63500
H  28.29700 -1.27200 36.85800
H  29.76500 -0.29400 37.30900
Mg 48.42500 46.21200 43.41800
C  45.21800 46.71800 41.91100
C  48.69500 43.37100 41.68400
C  51.68200 46.12600 44.26900
C  48.31800 49.63800 44.39700
N  47.06200 45.12700 41.97500
C  45.74200 45.44000 41.65300
C  45.16200 44.38300 40.64100
C  46.29300 43.27300 40.66400
C  47.48800 43.99600 41.45200
C  45.80200 41.89500 41.11900
C  44.86900 44.90300 39.20200
C  43.60600 44.37300 38.57800
H  43.61400 43.96000 37.13600
N  49.94500 44.87700 43.02900
C  49.76400 43.68700 42.42200
C  51.05200 42.97500 42.40800
C  51.98100 43.80100 43.13000
C  51.23600 45.02400 43.52800
C  51.22900 41.62200 41.71800
C  53.42700 43.37600 43.30600
O  53.91100 42.40600 42.76300
C  54.45100 44.12600 44.10800
N  49.83600 47.71400 44.25800
C  51.11200 47.36200 44.57100
C  51.85100 48.54900 45.31000
C  50.80800 49.71700 45.19200
C  49.57000 49.02100 44.56500
C  52.28800 48.24100 46.80000
C  51.20600 50.90800 44.30400
C  51.16400 52.29300 45.05500
N  47.13100 47.84600 43.27500
C  47.16700 49.13100 43.79800
C  45.92200 49.80300 43.52900
C  45.14200 48.93100 42.75600
C  45.93000 47.71500 42.65800
C  45.50300 51.32800 43.81500
C  43.85900 48.72400 42.01600
O  42.88800 49.47200 41.80500
C  43.87600 47.26900 41.48600
C  42.74100 46.48800 42.02000
O  42.50800 46.22100 43.16200
O  41.96900 45.96300 41.02200
C  41.00100 44.92900 41.34500
H  48.75600 42.37900 41.23100
H  52.68500 45.98500 44.67700
H  48.39600 50.68500 44.69800
H  44.19900 44.04900 41.02700
H  46.68100 43.16500 39.65100
H  45.99100 41.93000 42.19200
H  46.26300 41.00200 40.69600
H  44.73200 41.88600 40.91100
H  45.73300 44.56900 38.62700
H  44.88300 45.98900 39.10500
H  42.91400 45.21400 38.60200
H  43.14800 43.65800 39.26100
H  50.37900 40.98900 41.46200
H  51.66600 40.99800 42.49800
H  51.91500 41.79100 40.88800
H  54.11200 44.18900 45.14200
H  54.45100 45.08400 43.58800
H  55.42400 43.63700 44.06200
H  52.76100 48.77300 44.75200
H  50.49500 50.00800 46.19400
H  52.16200 47.18200 47.02900
H  51.80200 48.90000 47.51900
H  53.36300 48.40100 46.87900
H  50.52500 50.98400 43.45600
H  52.21100 50.82200 43.89300
H  52.14600 52.74800 45.18200
H  50.88100 52.17700 46.10200
H  50.46300 52.91900 44.50300
H  44.44200 51.37800 44.05800
H  45.78600 51.85800 42.90500
H  46.00100 51.78400 44.67100
H  43.88100 47.24600 40.39600
H  41.42700 43.98800 40.99500
H  40.05000 45.16200 40.86600
H  40.83500 44.79100 42.41300

