158

Mg 48.11800 34.96600 27.86000
C  46.08400 33.25500 30.28700
C  48.43800 37.42100 30.07200
C  49.37200 36.70300 25.42900
C  47.42400 32.18800 25.67700
N  47.44000 35.23800 29.90800
C  46.73600 34.35600 30.76000
C  46.73100 34.87000 32.19400
C  47.10300 36.34500 31.96100
C  47.73800 36.33500 30.58600
C  45.87900 37.40000 32.04600
C  47.71300 34.10300 33.21300
C  47.69600 34.45100 34.66400
H  47.01500 35.64600 35.16200
N  48.88400 36.86400 27.81300
C  49.04600 37.74100 28.83600
C  49.58700 38.89400 28.31400
C  49.78200 38.78000 26.95100
C  49.30400 37.40900 26.62600
C  49.76100 40.17100 29.23000
C  50.32900 39.80200 25.94300
O  50.45800 39.55300 24.73500
C  50.99900 41.07800 26.38900
N  48.28900 34.53000 25.85800
C  48.97200 35.44500 25.07200
C  49.11400 34.93700 23.60400
C  48.52000 33.42800 23.66100
C  48.09300 33.33600 25.16900
C  48.46600 35.83700 22.50600
C  49.54600 32.24000 23.39300
C  49.06300 31.02000 22.60400
N  47.01500 33.04800 27.86200
C  46.81700 32.03900 26.91900
C  46.03500 30.95100 27.51000
C  45.69800 31.43600 28.79600
C  46.37400 32.71600 29.00000
C  45.68700 29.57500 26.92300
C  44.89400 31.08200 29.95000
O  44.31600 30.04100 30.24100
C  44.99400 32.37600 30.86000
C  45.22200 31.84000 32.16600
O  46.20300 31.20900 32.50700
O  44.18500 32.12400 32.99800
C  44.42900 31.83600 34.40100
H  48.56900 38.24300 30.77800
H  49.77200 37.21600 24.55200
H  47.29500 31.29200 25.06600
H  45.72200 34.79300 32.59900
H  47.85100 36.63700 32.69800
H  45.91300 38.12700 31.23500
H  45.92500 38.01300 32.94700
H  44.90900 36.90600 32.09900
H  48.73900 34.25300 32.87700
H  47.40100 33.07500 33.03100
H  48.73200 34.61900 34.95700
H  47.30700 33.66300 35.30800
H  50.78400 40.53300 29.33300
H  49.37800 39.99700 30.23600
H  49.09800 40.88800 28.74400
H  51.19600 41.25000 27.44800
H  50.46500 41.86400 25.85500
H  52.00900 41.00100 25.98600
H  50.16500 34.93200 23.31400
H  47.63000 33.35200 23.03600
H  48.02000 36.73000 22.94500
H  47.77500 35.32200 21.83800
H  49.25600 36.24100 21.87300
H  49.84700 31.97100 24.40600
H  50.34600 32.78600 22.89300
H  49.70900 30.91700 21.73200
H  48.03300 31.24800 22.32700
H  49.05000 30.05800 23.11600
H  45.56600 28.95100 27.80900
H  46.56700 29.27200 26.35500
H  44.83600 29.60200 26.24300
H  44.01800 32.85800 30.91900
H  44.42400 30.76600 34.60600
H  43.62800 32.24700 35.01600
H  45.33400 32.33900 34.74100
Mg 36.24200 49.06400 25.44600
C  36.42500 47.13500 28.34300
C  34.85800 51.55300 27.11200
C  36.13600 50.63800 22.46100
C  37.65000 46.20000 23.71700
N  35.74500 49.33100 27.51300
C  36.04000 48.45400 28.55300
C  35.85700 49.19800 29.90400
C  35.12400 50.55500 29.53200
C  35.27300 50.51800 27.94700
C  33.63400 50.61900 30.01400
C  37.14900 49.20500 30.74300
C  37.12300 48.82900 32.26500
H  35.70900 48.76600 32.95600
N  35.46400 50.85300 24.79200
C  34.90100 51.76900 25.69100
C  34.39900 52.88300 24.88000
C  34.83600 52.68000 23.57000
C  35.54500 51.38200 23.58600
C  33.80900 54.12000 25.46100
C  34.68200 53.59400 22.41900
O  35.29200 53.38600 21.37300
C  33.85900 54.88600 22.51900
N  36.77100 48.50000 23.39400
C  36.69600 49.38600 22.39700
C  37.16900 48.81500 21.08500
C  37.80800 47.42900 21.45100
C  37.34900 47.31900 22.89600
C  36.14200 48.65000 19.92600
C  39.40400 47.47700 21.26200
C  40.11200 46.17400 21.58900
N  36.85800 47.02300 25.86400
C  37.43500 46.02900 25.06400
C  37.79400 44.88700 25.92400
C  37.39400 45.27200 27.25100
C  36.80100 46.52300 27.09800
C  38.60000 43.69700 25.53300
C  37.25200 44.84300 28.67900
O  37.50200 43.78700 29.18500
C  36.67400 46.12400 29.42100
C  35.43100 45.63300 30.08800
O  34.31600 45.77900 29.64300
O  35.69000 45.14000 31.34200
C  34.60100 44.51900 32.08200
H  34.49700 52.48000 27.56400
H  36.12700 51.02800 21.44100
H  38.09500 45.30700 23.27200
H  35.14400 48.66700 30.53500
H  35.53800 51.47600 29.94200
H  33.42900 49.95800 30.85600
H  32.96700 50.22000 29.25000
H  33.29000 51.64000 30.18500
H  37.67400 50.16000 30.72500
H  37.86500 48.46300 30.38900
H  37.73700 49.46700 32.90100
H  37.49100 47.83900 32.53200
H  34.44400 54.91500 25.06800
H  33.89800 54.18000 26.54500
H  32.77500 54.25800 25.14600
H  32.96100 54.77900 23.12700
H  33.68000 55.20000 21.49100
H  34.52500 55.65400 22.91000
H  37.98900 49.44200 20.73500
H  37.43600 46.57700 20.88200
H  35.57500 49.57500 19.82600
H  35.47500 47.85300 20.25500
H  36.44100 48.36400 18.91800
H  39.81400 48.15800 22.00700
H  39.68600 47.94200 20.31700
H  40.86900 46.02700 20.81900
H  39.39200 45.35500 21.58800
H  40.58700 46.28400 22.56400
H  39.37600 44.04900 24.85400
H  38.05100 42.91600 25.00700
H  39.09700 43.29600 26.41700
H  37.43600 46.41300 30.14400
H  34.44100 43.63700 31.46200
H  33.71600 45.15200 32.15100
H  34.93900 44.34500 33.10300

