158

Mg 48.07800 16.65000 28.49800
C  45.96600 16.32800 31.40500
C  50.09200 18.68300 30.21800
C  49.46000 17.23700 25.57700
C  45.18100 15.19000 26.67200
N  47.99400 17.39400 30.54300
C  47.16800 17.11300 31.59400
C  47.62500 17.75300 32.90100
C  48.73400 18.71100 32.42200
C  48.93900 18.27600 30.98600
C  48.47400 20.26200 32.62400
C  47.96300 16.66900 33.98700
C  47.36200 16.96400 35.37900
H  47.10800 18.39200 35.81300
N  49.67300 17.73800 27.97900
C  50.48800 18.52000 28.84600
C  51.65000 18.92600 28.11300
C  51.41800 18.57200 26.77200
C  50.16900 17.75400 26.67500
C  52.79200 19.76400 28.66300
C  52.45300 18.69700 25.58200
O  52.13200 18.20700 24.46300
C  53.75300 19.35300 25.77400
N  47.32400 16.41600 26.36900
C  48.25500 16.64200 25.40100
C  47.70000 16.14800 24.02800
C  46.29600 15.54900 24.38000
C  46.17600 15.75500 25.92100
C  47.53900 17.34100 22.89200
C  46.09300 14.09300 23.80300
C  44.89600 13.97300 22.78900
N  46.02200 15.86300 28.85700
C  44.96700 15.36300 28.07200
C  43.89000 14.78800 28.88000
C  44.20000 15.20500 30.19900
C  45.47700 15.89200 30.09900
C  42.69800 14.02200 28.41700
C  43.72800 15.21700 31.53900
O  42.68400 14.89900 32.00800
C  44.87200 16.03100 32.48800
C  44.12000 17.20400 33.03700
O  44.16100 18.32200 32.56900
O  43.30400 16.87500 34.14700
C  42.79900 17.95100 34.92700
H  50.91900 19.25600 30.64200
H  50.02600 17.28900 24.64400
H  44.46200 14.57300 26.13000
H  46.79900 18.38300 33.23300
H  49.73500 18.54200 32.81800
H  47.41600 20.46000 32.79600
H  48.73600 20.69900 31.66100
H  49.06600 20.74900 33.39900
H  49.02700 16.60400 34.21500
H  47.72700 15.68700 33.57700
H  47.84900 16.51700 36.24600
H  46.43800 16.38900 35.44900
H  52.55300 20.11600 29.66700
H  53.12500 20.64700 28.11700
H  53.59000 19.05300 28.87700
H  53.65400 20.40900 26.02300
H  54.33600 19.35300 24.85300
H  54.21400 18.66000 26.47800
H  48.38500 15.39200 23.64400
H  45.47300 16.13300 23.96700
H  46.46000 17.48000 22.82300
H  47.98600 17.17200 21.91300
H  47.95500 18.22000 23.38400
H  46.00600 13.36700 24.61100
H  47.03400 13.94500 23.27300
H  44.88800 12.92200 22.50000
H  45.12000 14.57400 21.90700
H  44.01100 14.32600 23.31700
H  43.07800 13.18700 27.82800
H  41.98400 14.62400 27.85500
H  42.22600 13.71700 29.35100
H  45.16800 15.40900 33.33200
H  42.13300 18.50700 34.26900
H  43.51500 18.69400 35.27900
H  42.29900 17.62200 35.83800
Mg -5.72900 24.63700 26.75700
C  -4.38500 26.07300 29.58900
C  -7.54500 22.48400 28.92100
C  -7.05500 23.10300 24.05700
C  -3.57100 26.43900 24.77500
N  -5.84600 24.16300 29.01000
C  -5.31300 25.02200 29.92300
C  -5.97100 24.85800 31.26100
C  -6.56800 23.43000 31.18800
C  -6.57000 23.21200 29.62800
C  -5.85600 22.39600 32.05500
C  -7.04600 25.98000 31.52500
C  -6.93700 26.58200 32.97500
H  -6.48600 25.73200 34.17100
N  -7.21100 23.09200 26.51300
C  -7.84900 22.40300 27.54900
C  -8.78500 21.50400 26.94800
C  -8.63500 21.66700 25.50100
C  -7.61000 22.65400 25.32800
C  -9.74600 20.63100 27.76000
C  -9.41100 21.04100 24.48700
O  -9.25100 21.20100 23.28300
C  -10.39300 19.98500 24.88100
N  -5.29800 24.76200 24.71000
C  -5.99600 24.00500 23.77500
C  -5.46200 24.20300 22.34100
C  -4.50300 25.42700 22.63000
C  -4.35100 25.44800 24.08100
C  -4.86500 22.96500 21.67700
C  -4.97200 26.80000 22.11600
C  -4.42900 27.30800 20.77700
N  -4.22300 25.89700 27.04700
C  -3.41300 26.55700 26.16400
C  -2.62800 27.54800 26.87300
C  -2.95400 27.34100 28.26700
C  -3.94300 26.32400 28.23100
C  -1.69900 28.57400 26.27300
C  -2.76100 27.77900 29.60100
O  -1.97800 28.61800 30.10000
C  -3.61400 26.95700 30.49600
C  -2.76700 26.38300 31.55000
O  -1.89100 25.57400 31.39700
O  -3.05300 26.99000 32.80200
C  -2.19700 26.88800 33.90500
H  -8.11100 21.89100 29.64300
H  -7.65100 22.69500 23.23800
H  -2.92800 26.95800 24.06100
H  -5.21300 24.88000 32.04400
H  -7.61300 23.47600 31.49500
H  -6.69400 21.77000 32.36200
H  -5.34800 22.87500 32.89200
H  -5.20000 21.81600 31.40700
H  -8.09300 25.68600 31.44400
H  -6.94900 26.72900 30.73900
H  -7.96500 26.86200 33.20300
H  -6.27600 27.44800 32.95900
H  -9.73400 20.84600 28.82800
H  -9.61200 19.55400 27.65500
H  -10.77700 20.76800 27.43300
H  -10.19000 19.26200 25.67100
H  -10.54800 19.45200 23.94300
H  -11.34500 20.46600 25.10600
H  -6.32200 24.61100 21.81000
H  -3.55600 25.11100 22.19300
H  -5.29200 22.91800 20.67500
H  -5.12400 22.11000 22.30000
H  -3.77800 22.99100 21.59400
H  -4.78900 27.50400 22.92800
H  -6.05600 26.73600 22.01900
H  -3.78900 28.17000 20.96700
H  -5.34500 27.47700 20.21200
H  -3.92300 26.48100 20.27900
H  -0.85800 28.78900 26.93200
H  -2.16300 29.54700 26.10700
H  -1.27200 28.16100 25.35900
H  -4.40500 27.52700 30.98300
H  -2.16300 27.87200 34.37200
H  -1.17500 26.58600 33.67500
H  -2.62000 26.15300 34.59000

