158

Mg 9.13900 3.20700 27.58000
C  10.15800 1.59700 30.57900
C  7.56200 5.47300 29.51300
C  7.96500 4.55500 24.76400
C  10.20300 0.39100 25.90900
N  9.01500 3.54500 29.73000
C  9.55400 2.86800 30.79700
C  9.26900 3.42400 32.18900
C  8.36400 4.64100 31.80000
C  8.29300 4.62700 30.26800
C  6.96400 4.77900 32.45500
C  10.58300 3.59400 33.05200
C  10.58600 4.74800 34.09600
H  11.19900 4.36800 35.52300
N  7.87100 4.74000 27.22900
C  7.32500 5.58400 28.10200
C  6.62600 6.64900 27.35700
C  6.91700 6.45900 25.95000
C  7.66500 5.24800 25.94000
C  5.83100 7.78900 28.09200
C  6.49900 7.26500 24.66100
O  6.81100 6.89300 23.58800
C  5.64000 8.47100 24.81700
N  9.21900 2.65800 25.62600
C  8.68900 3.35400 24.63300
C  8.95900 2.80900 23.17300
C  9.64900 1.42200 23.59400
C  9.74900 1.49900 25.11900
C  7.78000 2.74800 22.23500
C  11.06900 1.22500 22.88300
C  11.16000 0.16800 21.80200
N  10.09800 1.38700 28.05900
C  10.44700 0.33500 27.24000
C  11.07700 -0.69500 28.01900
C  11.00400 -0.27200 29.35700
C  10.42600 0.99100 29.33400
C  11.87200 -1.80400 27.42800
C  11.29100 -0.59500 30.76400
O  11.74700 -1.59000 31.30300
C  10.78800 0.62000 31.60600
C  9.75500 0.14600 32.58600
O  8.62100 -0.09800 32.27800
O  10.19700 0.10500 33.84000
C  9.13700 0.06000 34.88100
H  6.96600 6.16800 30.10700
H  7.78100 4.95200 23.76300
H  10.66000 -0.41500 25.33200
H  8.54400 2.70200 32.56500
H  8.83200 5.56900 32.12900
H  6.20500 4.49400 31.72600
H  6.68800 5.80600 32.69500
H  6.88600 4.19100 33.37000
H  11.42700 3.76000 32.38400
H  10.76800 2.61800 33.50000
H  9.55700 4.99000 34.36200
H  11.12800 5.64900 33.80800
H  6.48300 8.66300 28.06400
H  5.45300 7.48500 29.06800
H  4.90400 8.03700 27.57600
H  4.77000 8.02600 25.30000
H  5.45300 8.85200 23.81300
H  6.18600 9.26500 25.32700
H  9.64100 3.45600 22.62100
H  9.09000 0.57000 23.20900
H  8.02400 3.38100 21.38200
H  6.87500 3.22400 22.61000
H  7.48500 1.72700 21.99200
H  11.80400 1.05500 23.67000
H  11.24100 2.18400 22.39200
H  10.80800 -0.80200 22.15200
H  12.16400 -0.08900 21.46400
H  10.52700 0.41200 20.94900
H  12.45900 -1.45000 26.58100
H  11.15100 -2.49400 26.99000
H  12.56600 -2.16700 28.18700
H  11.65300 1.15800 31.99500
H  8.53400 0.96800 34.91100
H  9.44100 0.06600 35.92700
H  8.49700 -0.78400 34.62600
Mg 47.78900 34.58700 27.00200
C  45.99900 32.98200 29.59500
C  47.95500 37.35400 29.06400
C  49.22100 35.97400 24.50600
C  46.99600 31.76600 24.99100
N  46.94700 35.08700 29.12200
C  46.48800 34.23400 30.01600
C  46.39600 34.88400 31.38600
C  46.68800 36.39300 31.09400
C  47.16600 36.35000 29.63400
C  45.49900 37.33500 31.27400
C  47.49400 34.25700 32.27500
C  47.04700 33.87100 33.71300
H  47.68700 34.76700 34.77000
N  48.40300 36.50700 26.70700
C  48.54500 37.45800 27.73300
C  49.28700 38.60100 27.15500
C  49.63600 38.23100 25.82200
C  49.07700 36.84000 25.61900
C  49.50600 39.84800 27.88700
C  50.45200 38.98700 24.80600
O  50.65900 38.57900 23.66800
C  51.00100 40.42600 25.10100
N  47.92900 33.91000 24.92500
C  48.69300 34.73000 24.09800
C  49.01300 33.96300 22.73000
C  48.32200 32.60300 22.99200
C  47.74800 32.73000 24.37500
C  48.47300 34.68300 21.45700
C  49.22400 31.29300 22.93100
C  48.61400 30.04900 22.21400
N  46.71700 32.78600 27.18700
C  46.44100 31.81800 26.26400
C  45.55800 30.81200 26.87800
C  45.47600 31.19800 28.20500
C  46.15100 32.41700 28.34200
C  45.04800 29.49500 26.23200
C  44.90200 30.80200 29.49000
O  44.19700 29.82200 29.79800
C  45.05700 32.08000 30.37000
C  45.58500 31.46900 31.59200
O  46.75300 31.12800 31.76300
O  44.54100 31.36000 32.52000
C  44.82400 30.97500 33.89000
H  48.02900 38.22100 29.72200
H  49.84800 36.30700 23.67600
H  46.87800 30.84400 24.41900
H  45.37800 34.78500 31.76300
H  47.39600 36.78700 31.82200
H  45.75300 38.31300 31.68200
H  44.69700 36.93000 31.89100
H  45.01900 37.50800 30.31100
H  48.36500 34.90900 32.34000
H  47.89700 33.31800 31.89500
H  47.54700 32.91700 33.88100
H  45.99000 33.67700 33.89200
H  49.26500 39.77100 28.94700
H  48.98600 40.69600 27.44100
H  50.55000 40.15000 27.80600
H  51.53500 40.77400 24.21700
H  51.73600 40.31500 25.89800
H  50.20100 41.07800 25.45300
H  50.07200 33.75400 22.57600
H  47.34600 32.56600 22.50800
H  48.11200 35.62700 21.86600
H  47.69500 34.10600 20.95600
H  49.32200 35.01400 20.85900
H  49.31700 30.85000 23.92300
H  50.17400 31.60100 22.49500
H  49.35500 29.48700 21.64400
H  47.76800 30.19500 21.54300
H  48.23900 29.33800 22.95000
H  44.05400 29.73400 25.85400
H  44.89300 28.75200 27.01400
H  45.84800 29.14000 25.58300
H  44.05800 32.48200 30.53700
H  45.91300 30.94500 33.94300
H  44.47100 30.04200 34.33000
H  44.43600 31.71900 34.58600

