158

Mg 17.23100 52.32700 26.27800
C  18.99200 50.95700 29.11000
C  14.97800 53.60700 28.53300
C  15.60800 53.59700 23.70200
C  19.43400 50.62200 24.22300
N  17.03800 52.20000 28.57800
C  17.98500 51.77000 29.48300
C  17.51800 52.26700 30.87500
C  16.04500 52.81100 30.70900
C  15.98100 52.84900 29.18700
C  15.06800 51.82400 31.29900
C  18.38400 53.42000 31.47500
C  18.40700 53.39600 33.03100
H  17.34800 52.59100 33.78900
N  15.47500 53.46300 26.17800
C  14.70800 53.89300 27.15100
C  13.65200 54.74900 26.67400
C  13.80300 54.77700 25.21400
C  15.00800 53.99600 24.96100
C  12.61500 55.53500 27.50100
C  12.96000 55.43700 24.15500
O  13.33700 55.48700 22.95800
C  11.61400 56.08800 24.53800
N  17.48600 52.08100 24.25200
C  16.69100 52.79400 23.39000
C  17.11900 52.53100 21.96300
C  18.38800 51.70000 22.17000
C  18.49800 51.51200 23.63400
C  16.04300 51.80900 21.11800
C  19.58600 52.35500 21.56700
C  20.14200 53.60000 22.32400
N  18.84100 51.02700 26.49200
C  19.64000 50.46500 25.59600
C  20.60300 49.61300 26.18600
C  20.46300 49.86600 27.60200
C  19.35700 50.65700 27.72900
C  21.59400 48.80200 25.48100
C  21.00300 49.58400 28.91700
O  22.00800 48.91600 29.18600
C  20.13300 50.34300 29.94400
C  19.68500 49.38900 30.93900
O  18.93500 48.43100 30.61600
O  20.11100 49.68100 32.23300
C  19.81700 48.67400 33.28800
H  14.23500 53.97700 29.24300
H  15.04700 53.88800 22.81100
H  20.04600 50.08100 23.49800
H  17.60600 51.34900 31.45700
H  15.70700 53.72200 31.20300
H  14.76300 51.08200 30.56100
H  14.23500 52.40500 31.69700
H  15.44600 51.21600 32.12100
H  18.00700 54.33200 31.01100
H  19.41600 53.20600 31.19700
H  18.36200 54.44200 33.33600
H  19.36900 52.95100 33.28300
H  12.60300 56.58800 27.22200
H  13.11600 55.48100 28.46800
H  11.62300 55.09200 27.60100
H  11.17700 55.43700 25.29500
H  10.82800 56.14400 23.78400
H  11.74200 57.12300 24.85700
H  17.45600 53.48800 21.56400
H  18.17000 50.78500 21.61800
H  16.56100 51.33300 20.28600
H  15.33200 52.54000 20.73300
H  15.59800 50.98600 21.67600
H  19.41400 52.50500 20.50100
H  20.42300 51.66500 21.67400
H  20.19500 54.34600 21.53200
H  21.10300 53.52200 22.83400
H  19.31600 53.85000 22.98900
H  22.41900 49.41800 25.12300
H  21.11800 48.10700 24.79000
H  22.20300 48.30900 26.23900
H  20.84400 51.05900 30.35700
H  20.46800 47.80000 33.31400
H  18.78000 48.34200 33.23100
H  19.80800 49.03400 34.31600
Mg -5.26600 24.65100 26.89900
C  -3.89400 26.54000 29.54500
C  -6.81400 22.65900 29.19800
C  -6.45600 22.76900 24.43500
C  -2.94800 26.28800 24.82000
N  -5.17600 24.56500 29.09200
C  -4.73000 25.50600 29.97200
C  -5.16300 25.19500 31.38700
C  -5.69600 23.68700 31.24600
C  -5.93100 23.59900 29.77200
C  -4.72000 22.59300 31.77500
C  -6.20500 26.23100 31.85400
C  -6.63300 26.34300 33.38500
H  -5.88600 25.38300 34.32500
N  -6.61700 23.09600 26.79900
C  -7.16900 22.39700 27.86300
C  -8.15700 21.44100 27.41900
C  -8.09700 21.49300 26.05200
C  -7.04700 22.48300 25.67600
C  -9.12200 20.72300 28.42300
C  -8.99600 20.78900 25.17700
O  -8.99700 21.07400 23.99200
C  -9.87500 19.63500 25.51500
N  -4.81100 24.61000 24.92500
C  -5.40600 23.61100 24.09700
C  -4.73600 23.61500 22.72000
C  -3.64700 24.79800 22.89000
C  -3.75200 25.28300 24.29000
C  -4.21100 22.20700 22.44800
C  -3.69700 25.87100 21.76600
C  -2.37000 26.07800 20.99400
N  -3.61200 26.07100 27.05800
C  -2.86600 26.75500 26.11300
C  -2.24200 27.86900 26.74100
C  -2.51800 27.76900 28.06800
C  -3.45100 26.72500 28.22500
C  -1.36000 28.87400 26.00000
C  -2.27200 28.34900 29.40300
O  -1.48900 29.17400 29.78900
C  -3.23500 27.63900 30.31400
C  -2.40800 27.20000 31.44700
O  -1.53300 26.29200 31.35700
O  -2.77300 27.91100 32.60100
C  -2.03800 27.65600 33.80700
H  -7.25600 22.02800 29.97300
H  -6.80400 22.13400 23.61700
H  -2.38800 26.92700 24.13500
H  -4.27400 25.10000 32.00900
H  -6.67800 23.63500 31.71500
H  -3.87600 22.91600 32.38500
H  -4.49700 21.92400 30.94400
H  -5.21200 21.91500 32.47300
H  -7.16700 26.11100 31.35500
H  -5.88400 27.25700 31.67100
H  -7.69300 26.15900 33.55900
H  -6.41400 27.38200 33.63300
H  -10.16100 20.95900 28.19100
H  -8.90100 20.88800 29.47700
H  -9.05400 19.63600 28.37200
H  -10.40100 19.17600 24.67800
H  -10.70800 19.89600 26.16900
H  -9.21400 18.86800 25.91800
H  -5.57900 23.90700 22.09400
H  -2.66800 24.31800 22.89500
H  -4.12600 21.51000 23.28100
H  -3.33500 22.23400 21.80000
H  -4.96300 21.71600 21.83000
H  -4.01600 26.84400 22.13900
H  -4.46200 25.52100 21.07300
H  -1.57800 25.55600 21.53100
H  -2.13700 27.14200 20.97100
H  -2.44000 25.76300 19.95300
H  -1.76400 29.34700 25.10500
H  -0.55200 28.25100 25.61800
H  -0.92000 29.56900 26.71600
H  -3.99200 28.32800 30.68800
H  -1.47300 26.72500 33.85200
H  -2.81500 27.55600 34.56600
H  -1.43600 28.47000 34.20900

