158

Mg 47.05600 24.40000 28.26000
C  47.66700 26.80000 30.95200
C  46.26400 22.14200 30.73200
C  46.76900 22.17100 25.83000
C  48.49500 26.71700 26.17400
N  46.85800 24.51400 30.59200
C  47.05800 25.62000 31.41500
C  46.79400 25.14900 32.82300
C  46.56700 23.61400 32.73600
C  46.61900 23.39500 31.25800
C  47.63000 22.82100 33.54500
C  45.69600 25.95700 33.65700
C  46.16600 26.54500 35.05100
H  46.45900 25.61200 36.18300
N  46.54800 22.43600 28.26500
C  46.14300 21.72100 29.37800
C  45.64100 20.40000 28.96500
C  45.79300 20.35800 27.53000
C  46.34800 21.68000 27.12400
C  45.21200 19.38100 29.89000
C  45.30300 19.31200 26.51600
O  45.35500 19.46800 25.29300
C  44.56500 18.14700 27.02500
N  47.52300 24.47600 26.31000
C  47.30900 23.41600 25.45300
C  47.57800 23.76700 23.98700
C  48.06100 25.21200 24.10800
C  47.99100 25.52800 25.60100
C  48.63600 22.83100 23.39500
C  47.11400 26.14500 23.26700
C  45.63200 26.15000 23.71400
N  47.82900 26.38400 28.43300
C  48.43900 27.16500 27.46900
C  48.81300 28.36400 28.04200
C  48.57500 28.29300 29.43800
C  47.92000 27.05500 29.61700
C  49.40100 29.53100 27.27300
C  48.61000 29.09900 30.68900
O  48.91500 30.24200 30.78700
C  48.07800 28.05100 31.71700
C  49.18000 27.73900 32.72400
O  50.05000 26.95400 32.50100
O  49.06000 28.48500 33.87900
C  50.02800 28.19700 34.98900
H  46.01600 21.39000 31.48300
H  46.48500 21.55500 24.97400
H  48.88300 27.40400 25.42000
H  47.77500 25.27900 33.27900
H  45.61700 23.37500 33.21300
H  47.87500 21.92200 32.97900
H  47.23700 22.62600 34.54300
H  48.57900 23.32900 33.71600
H  44.78400 25.37500 33.79400
H  45.30000 26.73700 33.00700
H  45.35900 27.23100 35.30800
H  47.06400 27.14600 34.90700
H  46.09500 18.74500 29.95600
H  44.26700 18.95000 29.56000
H  45.09600 19.71600 30.92100
H  44.23800 17.48700 26.22200
H  43.69500 18.55000 27.54200
H  45.36600 17.69500 27.61100
H  46.60200 23.63800 23.51800
H  49.12600 25.37300 23.94000
H  49.00800 22.02500 24.02700
H  49.51700 23.43900 23.18800
H  48.32200 22.37800 22.45500
H  47.24600 25.86400 22.22200
H  47.46000 27.17700 23.32400
H  45.18100 27.13800 23.81000
H  45.53600 25.63400 24.66900
H  44.94900 25.62800 23.04400
H  48.59600 30.12700 26.84500
H  49.92000 29.09500 26.41900
H  50.07500 30.14700 27.86800
H  47.20000 28.44700 32.22600
H  49.60300 27.52200 35.73200
H  50.26500 29.13700 35.48700
H  50.98300 27.81200 34.63200
Mg -5.28400 25.41700 25.83300
C  -3.80800 26.93300 28.62000
C  -6.88600 23.22700 28.12500
C  -6.60600 23.74800 23.25900
C  -3.49700 27.44100 23.78100
N  -5.50100 25.22400 28.08400
C  -4.70900 25.92700 28.97900
C  -5.01000 25.45100 30.42000
C  -5.84000 24.16300 30.23800
C  -6.16100 24.25400 28.73000
C  -5.10600 22.88400 30.60100
C  -5.71100 26.59800 31.22300
C  -6.50100 26.36000 32.53100
H  -6.19200 25.09600 33.34100
N  -6.59700 23.70700 25.70600
C  -7.14300 22.93400 26.76600
C  -7.99900 21.95000 26.19500
C  -8.01400 22.12500 24.76900
C  -7.11100 23.23900 24.49500
C  -8.61300 20.88600 27.06600
C  -8.82700 21.34000 23.75600
O  -8.84800 21.68600 22.59000
C  -9.52100 20.02700 24.17200
N  -5.04100 25.61900 23.75900
C  -5.68600 24.80100 22.88900
C  -5.41900 25.21800 21.47300
C  -4.42300 26.36600 21.63600
C  -4.31100 26.52500 23.14100
C  -4.77900 24.03500 20.66000
C  -4.92200 27.63500 20.96500
C  -4.32900 27.83900 19.58900
N  -3.86700 26.85400 26.06200
C  -3.24500 27.60700 25.14100
C  -2.36400 28.64500 25.76800
C  -2.50200 28.37300 27.09500
C  -3.43300 27.33100 27.25600
C  -1.59400 29.70000 24.98900
C  -2.09500 28.74700 28.42100
O  -1.33000 29.64000 28.74700
C  -2.77000 27.79500 29.43700
C  -1.82000 27.01800 30.33000
O  -1.12200 26.08400 29.91100
O  -1.94400 27.48000 31.59100
C  -1.23800 26.72000 32.60200
H  -7.37600 22.61600 28.88600
H  -7.12700 23.23700 22.44600
H  -2.84100 28.05900 23.16400
H  -4.05200 25.19600 30.87200
H  -6.77800 24.34900 30.76100
H  -5.86600 22.21200 30.99900
H  -4.28000 22.95200 31.30900
H  -4.62700 22.46100 29.71700
H  -6.37300 27.15400 30.55900
H  -4.91600 27.29500 31.48900
H  -7.56900 26.38400 32.31700
H  -6.46100 27.18500 33.24200
H  -8.53300 19.88900 26.63200
H  -9.67800 21.09500 27.17100
H  -8.18200 20.75400 28.05800
H  -8.89900 19.35700 24.76500
H  -9.76000 19.50900 23.24400
H  -10.47000 20.24500 24.66200
H  -6.35700 25.54500 21.02400
H  -3.44700 26.12900 21.21200
H  -5.53900 23.46000 20.13100
H  -4.11900 23.45700 21.30700
H  -4.11000 24.42200 19.89100
H  -4.77600 28.38000 21.74700
H  -5.98500 27.46700 20.78900
H  -3.63900 27.04600 19.30400
H  -3.64300 28.68500 19.56000
H  -5.03400 28.03200 18.77900
H  -2.05300 29.92100 24.02500
H  -0.53000 29.46300 25.00600
H  -1.66700 30.58800 25.61700
H  -3.30800 28.45900 30.11300
H  -0.18700 26.74500 32.31400
H  -1.53200 25.67100 32.63100
H  -1.15800 27.30000 33.52100

