158

Mg 54.05900 25.06600 45.78200
C  51.44100 27.02300 44.56800
C  52.37000 22.23200 44.42000
C  56.87300 23.20500 45.76900
C  55.84300 27.96400 46.26000
N  52.15800 24.72200 44.66500
C  51.22800 25.65100 44.28100
C  50.10200 24.95900 43.50400
C  50.24200 23.47600 43.92500
C  51.70600 23.44300 44.31700
C  49.32000 23.03400 45.04900
C  50.25600 25.11200 41.93300
C  49.07000 25.23700 40.96900
H  49.20700 25.89900 39.62000
N  54.51900 22.91500 45.38100
C  53.69800 21.94800 44.73900
C  54.29500 20.66000 44.84800
C  55.65000 20.90300 45.21500
C  55.76700 22.36500 45.43700
C  53.53100 19.33400 44.52200
C  56.69000 19.84500 45.31600
O  56.43200 18.67900 45.02600
C  58.15800 20.11300 45.74000
N  56.12900 25.49700 45.85600
C  57.07600 24.57000 45.94100
C  58.41800 25.16200 46.38700
C  58.11500 26.71000 46.56700
C  56.61100 26.76600 46.26000
C  58.98500 24.38000 47.63700
C  59.07400 27.53300 45.70100
C  58.89200 27.47200 44.13900
N  53.66300 27.08900 45.72900
C  54.49800 28.17500 46.01000
C  53.69200 29.42600 46.00000
C  52.47400 29.03300 45.41200
C  52.55600 27.63000 45.21400
C  54.06900 30.81200 46.43600
C  51.14300 29.42900 44.88500
O  50.62300 30.52700 44.86800
C  50.47300 28.13300 44.28200
C  50.34500 28.42700 42.88500
O  51.31300 28.63300 42.16800
O  49.09800 28.82000 42.61600
C  48.79500 29.15300 41.14000
H  51.89900 21.36000 43.96100
H  57.83100 22.77300 46.06500
H  56.39100 28.89400 46.42600
H  49.12400 25.33100 43.81000
H  50.06800 22.77800 43.10600
H  48.53300 23.77500 45.18200
H  49.84900 23.08400 46.00100
H  49.04200 21.99800 44.85400
H  50.96600 24.33200 41.66000
H  50.90700 25.97500 41.79300
H  48.33400 25.89300 41.43400
H  48.63500 24.25200 40.80200
H  53.55300 19.04600 43.47100
H  52.50300 19.52100 44.83000
H  53.89400 18.56900 45.20900
H  58.70400 19.17500 45.84800
H  58.16000 20.70800 46.65300
H  58.48900 20.67000 44.86400
H  59.08400 24.98000 45.54300
H  58.32200 27.03900 47.58600
H  58.35300 23.59700 48.05700
H  59.24400 25.16400 48.34900
H  59.91300 23.90100 47.32600
H  60.09100 27.21700 45.93000
H  58.91700 28.59100 45.91100
H  57.89700 27.86100 43.91900
H  59.10900 26.46700 43.77800
H  59.49600 28.25300 43.67900
H  55.01700 30.75500 46.97100
H  53.38900 31.16400 47.21200
H  53.90500 31.58300 45.68400
H  49.49700 27.88400 44.69900
H  48.41900 30.17600 41.16200
H  48.07600 28.40100 40.81500
H  49.59700 28.97800 40.42300
Mg 49.31200 35.85400 26.80500
C  47.23700 34.85300 29.49200
C  49.59300 38.96400 28.24800
C  51.15200 36.65100 24.19600
C  48.21400 32.89700 25.05300
N  48.68900 36.64600 28.77300
C  47.78100 36.15600 29.69200
C  47.38500 37.14200 30.76800
C  47.89300 38.43000 30.19300
C  48.79400 38.00900 28.97000
C  46.89900 39.63400 30.16600
C  47.74000 36.87300 32.28400
C  46.52700 36.84800 33.18800
H  46.45200 38.00200 34.26700
N  50.36700 37.47200 26.31900
C  50.39500 38.69600 27.06000
C  51.24500 39.62200 26.36500
C  51.70900 38.97300 25.13000
C  51.11900 37.61300 25.20700
C  51.35900 41.05600 26.90400
C  52.58100 39.60200 24.05400
O  52.98600 39.00700 23.09700
C  53.05500 41.00500 24.25900
N  49.64100 34.87500 24.92000
C  50.49300 35.45000 24.00600
C  50.64100 34.70500 22.70500
C  49.71500 33.46600 22.90000
C  49.16100 33.75700 24.36800
C  50.18800 35.48700 21.40300
C  50.43000 31.99400 22.81800
C  50.06800 31.07400 21.68400
N  48.10300 34.08800 27.21100
C  47.70500 33.03100 26.38600
C  46.79000 32.18200 27.12600
C  46.58300 32.85500 28.32700
C  47.44500 34.02000 28.37300
C  46.24700 30.82000 26.75100
C  45.88000 32.83600 29.60200
O  45.16000 31.97300 30.06600
C  46.32100 34.08500 30.41800
C  47.08100 33.61700 31.60400
O  48.31700 33.56800 31.74100
O  46.26300 33.29300 32.64900
C  46.74600 33.00100 33.92900
H  49.60200 39.96900 28.67600
H  51.86500 36.97700 23.43500
H  47.89100 31.99600 24.52700
H  46.31100 37.13500 30.58300
H  48.67300 38.80900 30.85400
H  46.03000 39.25700 30.70500
H  46.91000 39.97900 29.13200
H  47.34000 40.38700 30.81900
H  48.33700 37.72400 32.61200
H  48.34800 35.98500 32.45700
H  46.39800 35.94000 33.77800
H  45.58400 37.02100 32.66900
H  51.02400 41.16200 27.93500
H  50.76800 41.58900 26.15900
H  52.37200 41.45300 26.83700
H  52.16000 41.61900 24.36400
H  53.82300 41.27300 23.53300
H  53.56000 40.97700 25.22400
H  51.68500 34.39400 22.67900
H  48.75100 33.46300 22.39100
H  49.24500 35.11400 21.00300
H  51.05000 35.27900 20.76900
H  50.25500 36.54400 21.65800
H  50.05900 31.52200 23.72800
H  51.49700 32.11600 23.00100
H  49.91400 31.59900 20.74100
H  49.10300 30.58700 21.82200
H  50.88300 30.36800 21.52100
H  46.08400 30.33200 27.71100
H  47.08000 30.26000 26.32700
H  45.38800 30.79100 26.08000
H  45.38700 34.58200 30.67700
H  47.70600 33.48700 34.09700
H  46.94000 31.93300 34.02800
H  46.01000 33.24100 34.69700

