158

Mg 46.09400 44.87000 42.56900
C  42.63200 44.03300 42.36000
C  46.92600 41.67100 41.78100
C  49.30200 45.74400 42.35000
C  45.10900 48.15800 42.65600
N  44.86300 43.09400 42.04000
C  43.49100 42.93700 42.02200
C  43.08600 41.47100 41.97000
C  44.49700 40.78100 41.76700
C  45.51900 41.93100 41.84300
C  44.75800 39.63500 42.80700
C  42.00000 41.12000 40.85900
C  42.04400 41.93000 39.52700
H  41.81800 41.19600 38.11200
N  47.86600 43.89500 42.23000
C  48.00800 42.52600 41.97300
C  49.40400 42.11800 41.90400
C  50.18300 43.34400 42.02800
C  49.13700 44.43300 42.17200
C  49.95500 40.69000 41.83000
C  51.71400 43.40300 41.96700
O  52.40500 42.39700 41.87700
C  52.39200 44.73700 42.07300
N  47.05000 46.73400 42.22700
C  48.40500 46.82600 42.41600
C  48.85000 48.30400 42.55900
C  47.39400 49.00600 42.56500
C  46.47900 47.87200 42.57800
C  49.83600 48.72900 43.73300
C  47.11900 49.97600 41.40000
C  46.97200 51.47300 41.82500
N  44.25700 45.95600 42.67800
C  44.00000 47.29100 42.70500
C  42.63700 47.60100 42.77400
C  42.00300 46.37700 42.64700
C  43.06800 45.39200 42.55500
C  41.96800 48.97600 43.17100
C  40.75500 45.65500 42.56700
O  39.59400 46.02000 42.51900
C  41.12800 44.10200 42.42100
C  40.68600 43.40800 43.64900
O  40.40300 42.24300 43.68200
O  40.71200 44.11900 44.84200
C  40.90000 43.38200 46.15700
H  47.19100 40.63300 41.57100
H  50.31900 46.13200 42.43900
H  44.81800 49.19000 42.85800
H  42.76400 41.33800 43.00300
H  44.61800 40.34400 40.77600
H  45.51300 39.92300 43.53900
H  45.06300 38.77800 42.20600
H  43.87300 39.36700 43.38400
H  41.00600 41.13600 41.30700
H  42.31200 40.08600 40.71100
H  43.01400 42.42300 39.46500
H  41.31500 42.73400 39.42500
H  50.70900 40.67600 41.04300
H  49.19200 39.94600 41.60200
H  50.47400 40.50200 42.77000
H  51.98300 45.34300 41.26400
H  53.47300 44.68500 41.94100
H  52.13000 45.13100 43.05500
H  49.34600 48.74200 41.69300
H  47.28900 49.48100 43.54000
H  49.29000 49.37900 44.41600
H  50.72600 49.17800 43.29200
H  50.20900 47.77600 44.10800
H  46.23000 49.62700 40.87500
H  47.95100 50.01000 40.69700
H  47.63500 52.06100 41.19100
H  47.38700 51.56800 42.82800
H  45.96900 51.88300 41.70200
H  41.30300 48.82400 44.02200
H  41.33700 49.31700 42.35100
H  42.68200 49.77200 43.38500
H  40.64900 43.67400 41.54000
H  40.67200 44.04100 46.99500
H  41.98200 43.25300 46.13300
H  40.27800 42.48700 46.17900
Mg 35.76800 49.50600 25.25300
C  35.83700 47.52100 28.12100
C  35.04100 52.30800 27.22800
C  35.38200 51.20700 22.39100
C  36.36400 46.61600 23.36500
N  35.24100 49.81600 27.30100
C  35.54800 48.86700 28.33600
C  35.41200 49.56900 29.72800
C  34.83000 51.01800 29.42100
C  35.14000 51.07800 27.85300
C  33.32500 51.07500 29.90900
C  36.85000 49.57600 30.36900
C  36.84100 49.42700 31.89800
H  35.68000 49.93600 32.74300
N  35.43500 51.47000 24.88300
C  35.15700 52.52600 25.80600
C  35.01000 53.76500 25.07800
C  35.12000 53.45100 23.67800
C  35.34300 51.97900 23.58300
C  34.88900 55.05700 25.73900
C  35.05200 54.38200 22.53100
O  35.07600 53.98000 21.34200
C  35.05700 55.88000 22.83000
N  36.03500 49.03700 23.20000
C  35.63200 49.86100 22.19200
C  35.64800 49.21300 20.83300
C  36.21600 47.83800 21.14900
C  36.26500 47.84200 22.68900
C  34.29200 49.19400 19.92000
C  37.61800 47.50000 20.63800
C  38.03200 46.00400 20.40800
N  36.01800 47.42900 25.61000
C  36.28600 46.38600 24.75900
C  36.40800 45.21600 25.51000
C  36.22600 45.61300 26.86300
C  35.95900 46.96100 26.85400
C  36.72300 43.88300 24.90000
C  36.29900 45.16100 28.20300
O  36.63100 44.06500 28.62300
C  35.98300 46.35600 29.07400
C  34.71100 46.12400 29.79600
O  33.60400 46.36300 29.36200
O  35.05100 45.72000 31.03900
C  33.91000 45.76000 31.96800
H  34.76800 53.17200 27.83600
H  35.16600 51.76900 21.48000
H  36.60700 45.78600 22.69900
H  34.77900 48.98900 30.40000
H  35.43600 51.71800 29.99700
H  33.09300 52.11100 30.15600
H  33.26800 50.57600 30.87700
H  32.50300 50.80300 29.24800
H  37.36700 50.45100 29.97400
H  37.41800 48.75400 29.93400
H  37.69000 50.05400 32.17200
H  37.21200 48.44300 32.18400
H  35.73500 55.71500 25.53800
H  34.77300 55.05700 26.82300
H  33.99600 55.59500 25.42000
H  34.11800 56.11100 23.33400
H  35.03900 56.43200 21.89100
H  35.99100 56.10100 23.34500
H  36.36000 49.64400 20.12900
H  35.57400 47.10800 20.65700
H  33.43000 49.67300 20.38400
H  34.00800 48.17600 19.65400
H  34.48600 49.61900 18.93500
H  38.40000 47.94100 21.25500
H  37.77700 47.89500 19.63500
H  38.87500 45.97500 19.71800
H  37.29200 45.49800 19.78900
H  38.22800 45.47500 21.34100
H  37.24800 43.24200 25.60800
H  37.46400 43.92700 24.10200
H  35.89700 43.37500 24.40400
H  36.83400 46.36400 29.75400
H  34.23000 45.27800 32.89200
H  33.01300 45.20700 31.68800
H  33.61200 46.76300 32.27500

