158

Mg 54.00800 23.91300 45.16200
C  51.70000 26.17800 44.19300
C  52.31200 21.40500 43.65100
C  56.77800 21.99800 45.27400
C  55.96900 26.64800 46.35400
N  52.31700 23.81800 44.03100
C  51.53600 24.89300 43.63600
C  50.58400 24.43800 42.58900
C  50.42500 22.95100 42.96800
C  51.74200 22.68900 43.60900
C  49.24600 22.61100 43.96400
C  51.07300 24.75300 41.10900
C  49.91000 24.93600 40.20300
H  50.25500 25.26200 38.73800
N  54.46300 21.89700 44.68700
C  53.59200 21.01900 44.08500
C  54.14600 19.69900 43.99300
C  55.50900 19.91800 44.46100
C  55.62300 21.33600 44.86500
C  53.42600 18.45200 43.49700
C  56.55200 18.80300 44.63700
O  56.26000 17.62000 44.26000
C  57.88300 18.92100 45.23200
N  56.15900 24.31800 45.52600
C  57.02700 23.30000 45.58500
C  58.37400 23.87500 45.95400
C  58.13100 25.28400 46.50100
C  56.64100 25.45800 46.16200
C  59.26700 23.05400 46.90000
C  59.13500 26.42100 46.10700
C  59.78800 27.20000 47.19600
N  53.77300 25.95500 45.53600
C  54.61600 26.91000 46.03200
C  53.92900 28.16900 46.13800
C  52.74000 27.91600 45.40900
C  52.71600 26.55600 45.06400
C  54.41100 29.42100 46.73600
C  51.55600 28.52600 44.90100
O  51.11600 29.68700 44.96300
C  50.78600 27.36700 44.11000
C  50.57000 27.76100 42.71400
O  51.41300 28.29800 41.97300
O  49.22400 27.70500 42.42400
C  48.81300 28.47500 41.25800
H  51.72000 20.71200 43.05000
H  57.62100 21.30900 45.36000
H  56.36900 27.49400 46.91700
H  49.66200 24.99800 42.74300
H  50.30800 22.30500 42.09700
H  49.69800 22.53200 44.95200
H  48.84400 21.63000 43.70900
H  48.49900 23.40200 44.02500
H  51.57000 23.89500 40.65800
H  51.72100 25.63000 41.13500
H  49.36700 25.79700 40.59200
H  49.32400 24.02300 40.30700
H  54.00700 17.62300 43.09200
H  52.70500 18.66500 42.70900
H  52.84500 17.98300 44.29100
H  57.79800 19.19400 46.28400
H  58.52700 19.59600 44.66800
H  58.43200 17.98400 45.14100
H  58.98300 23.92100 45.05100
H  58.20000 25.30700 47.58900
H  59.43900 23.60900 47.82200
H  60.21900 22.80000 46.43300
H  58.91500 22.11800 47.33400
H  58.64500 27.17600 45.49200
H  59.91300 26.03700 45.44700
H  59.76000 28.26100 46.94600
H  60.79800 26.82800 47.36700
H  59.26400 27.22700 48.15100
H  54.34200 30.17600 45.95200
H  55.45500 29.38800 47.04800
H  53.70400 29.63000 47.53900
H  49.80900 27.22400 44.57200
H  47.91300 28.98800 41.59800
H  48.55600 27.97600 40.32400
H  49.55800 29.24700 41.06500
Mg 47.59300 16.15300 29.02000
C  45.35500 15.93300 31.63400
C  49.90200 17.53500 30.93700
C  49.35900 17.05100 26.16200
C  45.17000 14.80600 26.91500
N  47.58800 16.63400 30.99400
C  46.61500 16.46900 31.95800
C  47.08500 16.70300 33.34700
C  48.39700 17.44700 33.07500
C  48.68400 17.17600 31.59100
C  48.36900 18.99600 33.42000
C  47.24500 15.30300 34.04700
C  47.32200 15.37600 35.57200
H  46.95500 16.66500 36.24900
N  49.48900 17.09000 28.61600
C  50.28500 17.56000 29.57100
C  51.54000 18.03300 28.95400
C  51.36600 17.87400 27.58200
C  49.98900 17.32300 27.42400
C  52.72200 18.45300 29.76200
C  52.31100 18.26900 26.42600
O  52.08800 18.04500 25.32000
C  53.67700 18.80900 26.64300
N  47.34500 15.82800 26.90300
C  48.21300 16.27500 25.95200
C  47.64800 16.11200 24.54400
C  46.37000 15.16000 24.80100
C  46.28900 15.21800 26.32100
C  47.38900 17.42300 23.76200
C  46.61300 13.68500 24.31200
C  46.34800 13.54000 22.79700
N  45.63400 15.35700 29.19900
C  44.77300 14.87500 28.28200
C  43.61400 14.44700 28.89100
C  43.73600 14.84900 30.27600
C  44.96400 15.38700 30.36400
C  42.35400 14.05300 28.10900
C  43.11000 14.91800 31.53200
O  41.96300 14.60700 31.83200
C  44.13200 15.58500 32.59900
C  43.43200 16.76800 33.14700
O  43.19800 17.83400 32.55100
O  42.84800 16.42500 34.31900
C  41.95000 17.47500 34.97200
H  50.64700 17.95300 31.61600
H  49.85500 17.38700 25.24900
H  44.48500 14.30100 26.23000
H  46.44800 17.39900 33.89300
H  49.14500 16.99800 33.72900
H  48.55500 19.53000 32.48900
H  49.11500 19.39400 34.10800
H  47.41800 19.33100 33.83500
H  48.26500 15.02200 33.78700
H  46.58700 14.48800 33.74600
H  48.35600 15.15100 35.83200
H  46.82800 14.50200 35.99500
H  53.55200 18.05100 29.18200
H  52.72000 18.21100 30.82500
H  52.78500 19.54100 29.74400
H  54.17900 19.16900 25.74500
H  54.35900 18.13400 27.15900
H  53.59200 19.56900 27.42000
H  48.48500 15.51000 24.19000
H  45.46700 15.50800 24.29700
H  46.33500 17.70200 23.75600
H  47.83700 17.36500 22.76900
H  47.94000 18.17700 24.32400
H  45.98400 13.03400 24.92000
H  47.60400 13.28300 24.51800
H  45.88600 12.55600 22.71800
H  47.34600 13.50300 22.36000
H  45.77700 14.37700 22.39400
H  41.94300 14.81100 27.44200
H  41.62000 13.79200 28.87100
H  42.58600 13.19000 27.48500
H  44.22700 14.76300 33.30900
H  41.05500 17.66000 34.37900
H  42.47000 18.40100 35.21900
H  41.67500 17.10400 35.95900

