158

Mg 16.80000 -1.21700 28.48100
C  15.53800 0.90800 31.06300
C  18.66100 -2.86700 30.81200
C  18.25900 -2.93800 26.00100
C  15.19300 0.87600 26.21100
N  17.08800 -0.89000 30.73500
C  16.37700 -0.05300 31.58200
C  16.81800 -0.37600 33.03900
C  17.88100 -1.61000 32.90400
C  17.99800 -1.74800 31.39700
C  19.16200 -1.35300 33.71400
C  15.62300 -0.75300 33.96600
C  15.41800 0.06900 35.19900
H  16.60700 0.44000 36.03600
N  18.34500 -2.64400 28.46700
C  18.76500 -3.31300 29.51400
C  19.58000 -4.43800 29.08700
C  19.42500 -4.49700 27.69400
C  18.65200 -3.28800 27.32900
C  20.48000 -5.26900 29.92100
C  20.03900 -5.58200 26.67900
O  20.00200 -5.49800 25.41700
C  20.77500 -6.74600 27.23700
N  16.88000 -0.99500 26.44300
C  17.51600 -1.82600 25.58100
C  17.30500 -1.44300 24.09900
C  16.39100 -0.19100 24.16900
C  16.16800 -0.03700 25.73400
C  18.60300 -1.25900 23.34300
C  15.16200 -0.43300 23.22400
C  13.96800 -1.00500 23.78400
N  15.55700 0.51700 28.59900
C  14.95300 1.25500 27.57500
C  14.08600 2.31700 28.17300
C  14.28800 2.23900 29.57300
C  15.25100 1.15600 29.72200
C  13.22400 3.28900 27.35500
C  13.95200 2.80300 30.80600
O  13.30100 3.80800 31.11700
C  14.76200 1.98100 31.93300
C  15.70900 2.98800 32.55300
O  16.82400 3.25600 32.11200
O  15.19300 3.25700 33.80400
C  16.00800 4.24600 34.47700
H  19.06900 -3.43300 31.65200
H  18.60000 -3.59900 25.20200
H  14.70900 1.53100 25.48300
H  17.21800 0.56100 33.42900
H  17.44000 -2.53300 33.28100
H  19.43500 -0.33200 33.98300
H  20.07200 -1.69400 33.22000
H  19.22000 -1.80500 34.70400
H  15.64000 -1.82600 34.15800
H  14.63300 -0.60100 33.53700
H  14.77200 -0.60600 35.76100
H  14.92000 0.99100 34.90000
H  20.74500 -4.77600 30.85600
H  21.46100 -5.29900 29.44600
H  20.25500 -6.31200 30.14300
H  20.22900 -7.23000 28.04700
H  21.73800 -6.35600 27.56400
H  21.01000 -7.48900 26.47500
H  16.75300 -2.27400 23.65900
H  16.92900 0.69800 23.83900
H  18.64300 -0.31800 22.79400
H  18.60000 -1.89000 22.45400
H  19.47800 -1.45500 23.96200
H  15.41700 -1.04600 22.35900
H  14.90500 0.57100 22.88700
H  14.19700 -1.12100 24.84300
H  13.68100 -1.99000 23.41400
H  13.04900 -0.44000 23.62500
H  13.71100 3.60500 26.43200
H  13.10200 4.19600 27.94700
H  12.28100 2.75300 27.24000
H  14.00600 1.54500 32.58600
H  16.26300 5.11600 33.87300
H  16.99600 3.82400 34.66100
H  15.55100 4.54200 35.42200
Mg 47.17800 24.67600 28.21000
C  48.39500 26.86700 30.60000
C  46.66100 22.38000 30.83100
C  46.04900 22.40400 25.91600
C  48.11800 26.76200 25.77600
N  47.48900 24.60000 30.48500
C  47.89200 25.69500 31.18900
C  47.64900 25.44700 32.66100
C  47.39400 23.92900 32.80900
C  47.23400 23.56600 31.28700
C  48.54200 23.14700 33.46800
C  46.57100 26.43900 33.13600
C  46.90500 27.19800 34.51300
H  45.87900 27.14900 35.59200
N  46.31100 22.75900 28.37800
C  46.30600 21.97100 29.54300
C  45.88300 20.69000 29.19300
C  45.58900 20.67000 27.75800
C  45.95200 22.00100 27.28100
C  45.65400 19.56300 30.19400
C  45.08800 19.56400 26.95300
O  44.79300 19.68100 25.80900
C  44.78100 18.18800 27.59700
N  47.31500 24.44900 26.10700
C  46.75800 23.48000 25.35000
C  46.98400 23.83900 23.84000
C  47.41100 25.32700 23.89300
C  47.63400 25.52400 25.37000
C  47.91500 22.93300 22.90000
C  46.45000 26.33700 23.17900
C  46.81100 26.90300 21.69800
N  48.01700 26.44000 28.20000
C  48.33800 27.22600 27.08900
C  48.95700 28.45200 27.51300
C  48.99600 28.31900 28.89900
C  48.42200 27.11700 29.22500
C  49.45500 29.56300 26.65200
C  49.39400 29.02100 30.12300
O  49.97600 30.03400 30.30300
C  48.77800 28.16000 31.26900
C  49.73900 28.07500 32.37900
O  50.77200 27.44000 32.36400
O  49.22400 28.80700 33.45800
C  49.97800 28.82500 34.70600
H  46.42800 21.66300 31.62200
H  45.53400 21.81800 25.15200
H  48.35800 27.45700 24.96800
H  48.65200 25.67200 33.02200
H  46.50000 23.68500 33.38400
H  49.47200 23.71100 33.54100
H  48.86800 22.36500 32.78300
H  48.20500 22.58700 34.34100
H  45.59600 26.00500 33.35900
H  46.27200 27.14200 32.35900
H  46.96800 28.24800 34.22900
H  47.87700 26.77600 34.77000
H  44.59700 19.29700 30.19100
H  46.02400 19.70700 31.20900
H  46.08900 18.69200 29.70400
H  45.76400 17.86900 27.94400
H  44.54400 17.51200 26.77600
H  43.92300 18.18700 28.26900
H  45.98200 23.80500 23.41100
H  48.35000 25.67900 23.46600
H  48.79400 23.45100 22.51700
H  47.32900 22.63700 22.02900
H  48.27800 22.14700 23.56100
H  46.31500 27.21900 23.80500
H  45.44200 25.92500 23.13100
H  47.67900 26.38900 21.28500
H  47.02400 27.96400 21.82700
H  45.99100 27.00600 20.98700
H  49.63900 29.18400 25.64600
H  50.30600 30.05400 27.12300
H  48.62700 30.26800 26.58500
H  47.84600 28.61700 31.60100
H  51.04900 28.66100 34.59000
H  49.62200 28.06000 35.39600
H  49.93900 29.86700 35.02400

