158

Mg 45.47800 2.92500 47.42500
C  43.73700 5.87800 46.89800
C  42.65200 1.05900 47.05900
C  47.37000 -0.02500 46.87700
C  48.41800 4.77200 46.94100
N  43.46800 3.43700 46.93000
C  42.93600 4.71500 46.84400
C  41.39300 4.68100 46.65000
C  41.11700 3.17100 46.92100
C  42.44400 2.50400 47.04000
C  40.21800 3.02800 48.29100
C  40.97900 5.23600 45.27000
C  41.45100 4.42300 44.09600
H  42.07500 5.22100 42.92400
N  45.08100 0.82100 47.18600
C  43.82600 0.29100 47.02300
C  43.86700 -1.16800 46.80800
C  45.24100 -1.49700 46.97500
C  45.99800 -0.20800 47.01600
C  42.71100 -2.07900 46.52400
C  45.87000 -2.91700 46.93800
O  45.15500 -3.94100 46.84100
C  47.28200 -3.15800 47.21200
N  47.49400 2.46600 46.83700
C  48.03700 1.18500 46.81600
C  49.55200 1.17100 46.78200
C  49.88500 2.70300 46.69700
C  48.56200 3.34400 46.89800
C  50.16500 0.35700 48.02500
C  50.61500 3.19500 45.41400
C  51.88000 3.91100 45.65500
N  46.01200 4.91900 47.19100
C  47.22600 5.52200 46.94600
C  47.06000 6.91600 46.85000
C  45.71700 7.07600 47.00000
C  45.08900 5.83500 47.01600
C  48.21300 7.96500 46.73800
C  44.69100 8.14100 47.13300
O  44.71600 9.37200 47.18400
C  43.35600 7.38100 46.95100
C  42.39400 7.71400 48.09600
O  42.33000 7.23900 49.27500
O  41.45000 8.64700 47.66800
C  40.41400 8.91800 48.64000
H  41.70700 0.51200 47.04700
H  48.04400 -0.86700 46.70700
H  49.38700 5.27400 46.89200
H  41.09900 5.28400 47.50900
H  40.55600 2.80500 46.06100
H  39.66300 3.95600 48.43000
H  40.77600 2.77600 49.19300
H  39.43200 2.28100 48.18400
H  41.19000 6.30400 45.22200
H  39.89500 5.20700 45.16100
H  40.61500 3.80800 43.76500
H  42.21700 3.70200 44.38400
H  41.98000 -1.55700 45.90700
H  42.29600 -2.13700 47.53000
H  43.02200 -3.06600 46.18200
H  47.50400 -2.45300 48.01300
H  47.83200 -2.89600 46.30800
H  47.48200 -4.20700 47.43200
H  49.83600 0.70400 45.83900
H  50.55500 2.96300 47.51700
H  50.32400 -0.68700 47.75900
H  49.34300 0.35600 48.74200
H  51.12900 0.73300 48.36900
H  50.00100 3.97600 44.96500
H  50.71800 2.41800 44.65600
H  52.74600 3.25200 45.58500
H  51.92000 4.41300 46.62200
H  51.99400 4.71700 44.93100
H  47.86800 8.99800 46.68700
H  48.80100 7.70400 45.85800
H  48.91200 7.91000 47.57300
H  42.94600 7.69300 45.99000
H  40.73800 9.41700 49.55300
H  39.76600 8.08000 48.89800
H  39.65400 9.64300 48.34900
Mg 8.72700 48.95500 26.36900
C  6.36700 49.26000 28.93900
C  11.17000 49.87200 28.47200
C  10.89200 48.75800 23.79500
C  6.01600 48.63400 24.04700
N  8.73600 49.42700 28.48200
C  7.69700 49.49300 29.39000
C  8.15900 49.92700 30.76800
C  9.65100 50.39000 30.51400
C  9.92600 49.85000 29.08500
C  9.89600 51.88900 30.51700
C  8.02500 48.70400 31.74400
C  8.78400 48.73100 33.07800
H  8.35700 47.82100 34.19500
N  10.82900 49.13400 26.18100
C  11.62000 49.55200 27.17700
C  12.98000 49.51000 26.70700
C  12.94300 49.07100 25.30900
C  11.52900 48.96000 25.05300
C  14.23200 49.86800 27.56000
C  14.16300 48.77000 24.38100
O  14.07300 48.38200 23.21500
C  15.53500 48.93500 24.90400
N  8.43400 48.75700 24.28300
C  9.54200 48.53100 23.45300
C  9.18700 48.46000 21.97800
C  7.65300 48.19500 22.05000
C  7.30300 48.49300 23.54000
C  9.61900 49.79500 21.19100
C  7.19200 46.85300 21.48400
C  6.36300 46.82700 20.16000
N  6.62100 48.97300 26.36600
C  5.63900 48.86200 25.40800
C  4.36400 48.72900 26.05000
C  4.50500 49.00300 27.39200
C  5.97300 49.04500 27.58200
C  3.12200 48.37000 25.39900
C  3.79900 49.05500 28.65100
O  2.63800 49.01400 28.89500
C  5.00200 49.18600 29.68900
C  4.93200 47.94300 30.57100
O  5.17400 46.87800 30.12300
O  4.47400 48.27200 31.84900
C  4.22500 47.04200 32.66400
H  11.98100 50.20300 29.12400
H  11.61700 48.59300 22.99500
H  5.28100 48.35000 23.29100
H  7.53300 50.75600 31.09900
H  10.29500 49.93100 31.26500
H  9.05700 52.37800 31.01400
H  10.07900 52.31500 29.53100
H  10.74000 52.21800 31.12300
H  8.21500 47.72200 31.31100
H  6.99100 48.82700 32.06600
H  8.68800 49.75100 33.44800
H  9.85000 48.52700 32.98000
H  13.99600 49.98100 28.61800
H  14.61700 50.78500 27.11400
H  15.08000 49.18500 27.50400
H  16.15400 48.87700 24.01000
H  15.82300 48.09500 25.53600
H  15.79600 49.89200 25.35700
H  9.84400 47.65000 21.66200
H  7.17800 48.92800 21.39700
H  10.03200 49.79900 20.18200
H  10.29600 50.45300 21.73500
H  8.78900 50.43700 20.89500
H  6.54800 46.37300 22.22000
H  8.04000 46.21900 21.22500
H  5.81500 47.76500 20.07500
H  5.56900 46.08600 20.26200
H  6.87200 46.53800 19.24100
H  3.32700 47.45700 24.83900
H  2.84000 49.12200 24.66300
H  2.49400 48.07200 26.23900
H  4.90900 50.06400 30.32700
H  3.16300 47.12200 32.89700
H  4.68400 47.16000 33.64500
H  4.51000 46.05900 32.28900

