158

Mg 54.20100 23.45400 44.32600
C  51.40700 25.25600 43.35000
C  52.92300 20.63700 42.95600
C  57.30700 21.97400 44.58700
C  55.55000 26.49800 45.38200
N  52.44800 23.07900 43.26500
C  51.37900 23.93800 43.01600
C  50.36400 23.30200 42.09700
C  50.64300 21.75600 42.34700
C  52.14600 21.80800 42.91100
C  49.70700 21.12100 43.37000
C  50.71200 23.52400 40.62800
C  49.58300 23.99000 39.68200
H  49.51500 23.27700 38.33300
N  55.06500 21.52700 43.83000
C  54.29400 20.45500 43.43100
C  55.21600 19.31000 43.27700
C  56.56800 19.66900 43.64000
C  56.33500 21.11500 44.02900
C  54.71900 17.95800 42.80700
C  57.83800 18.82300 43.55900
O  57.78700 17.65500 43.16700
C  59.20500 19.38800 43.91300
N  56.19100 24.20600 44.82800
C  57.33000 23.37900 44.87000
C  58.53000 24.17200 45.35900
C  57.95400 25.62000 45.59500
C  56.49600 25.43000 45.21200
C  59.50300 23.62900 46.49400
C  58.70500 26.72800 44.69800
C  58.90400 28.13900 45.21600
N  53.62400 25.50900 44.51400
C  54.22000 26.64900 45.08100
C  53.26500 27.74300 45.15900
C  52.16400 27.23300 44.43000
C  52.41700 25.90800 44.01500
C  53.51900 29.05200 45.87900
C  50.88300 27.66800 43.89000
O  50.26600 28.75300 44.02800
C  50.40000 26.37700 43.09700
C  50.48700 26.81800 41.67600
O  51.45300 26.93400 41.02500
O  49.13600 27.16300 41.32200
C  49.05400 27.72300 39.92800
H  52.43800 19.75000 42.54400
H  58.26100 21.56700 44.93000
H  56.02300 27.43600 45.68000
H  49.32500 23.58700 42.26700
H  50.64100 21.14600 41.44400
H  50.09000 21.25100 44.38300
H  49.53400 20.05500 43.21800
H  48.72500 21.57200 43.22800
H  50.93900 22.59000 40.11400
H  51.52400 24.25100 40.62200
H  49.60200 25.00100 39.27400
H  48.58700 23.86600 40.10500
H  54.00000 18.09400 41.99900
H  54.29500 17.44800 43.67200
H  55.53900 17.39500 42.36200
H  59.32800 20.20400 43.20000
H  60.03000 18.68000 43.83600
H  59.22400 19.80900 44.91800
H  59.15800 24.11700 44.46900
H  58.05200 25.89600 46.64600
H  59.51200 22.54100 46.42300
H  59.15800 23.94900 47.47800
H  60.51200 23.98100 46.28100
H  58.15700 26.75800 43.75600
H  59.68300 26.28200 44.51900
H  58.92600 28.71300 44.29000
H  59.82600 28.33000 45.76600
H  58.00600 28.40700 45.77300
H  54.59200 29.19600 45.99700
H  53.01600 29.20800 46.83300
H  53.21100 29.82400 45.17400
H  49.36400 26.10900 43.30200
H  49.98100 27.78900 39.35800
H  48.80300 28.75800 40.15900
H  48.31100 27.23400 39.29900
Mg -4.94900 25.89700 26.48300
C  -3.79100 27.49000 29.44900
C  -6.66400 23.62600 28.52900
C  -5.78400 24.12100 23.75600
C  -2.87600 27.92900 24.66500
N  -5.28500 25.72000 28.70900
C  -4.71800 26.49100 29.72500
C  -5.24600 26.12300 31.12900
C  -5.78600 24.64100 30.78200
C  -5.92700 24.61600 29.23800
C  -4.86000 23.53000 31.30800
C  -6.43800 27.06600 31.59400
C  -6.76500 26.94800 33.10500
H  -6.21400 25.72100 33.88400
N  -6.11300 24.14000 26.16700
C  -6.73800 23.41600 27.14300
C  -7.64500 22.48300 26.45500
C  -7.39600 22.63100 25.09000
C  -6.43600 23.67500 24.91800
C  -8.74500 21.63000 27.22100
C  -8.14900 22.04800 23.92700
O  -7.81900 22.23400 22.77000
C  -9.34200 21.12200 24.14500
N  -4.49600 26.10100 24.49800
C  -4.86900 25.19600 23.51300
C  -4.16900 25.54800 22.20000
C  -3.53800 26.87600 22.49200
C  -3.60500 26.97000 23.98500
C  -3.26400 24.36500 21.68500
C  -4.37800 28.02400 21.87700
C  -3.73400 28.68600 20.63900
N  -3.61700 27.36100 26.88800
C  -2.88500 28.14100 26.06200
C  -2.18100 29.21900 26.70400
C  -2.49800 28.93800 28.04700
C  -3.37500 27.85200 28.14500
C  -1.29800 30.30000 26.14100
C  -2.23700 29.40000 29.38100
O  -1.48900 30.29100 29.74400
C  -3.12400 28.57200 30.38900
C  -2.31300 28.04900 31.45300
O  -1.28700 27.40300 31.30900
O  -2.94600 28.38800 32.71700
C  -2.47400 27.81600 33.99600
H  -7.16600 22.85200 29.11400
H  -5.91100 23.53700 22.84200
H  -2.28300 28.69500 24.16200
H  -4.48100 26.22700 31.89900
H  -6.74900 24.55800 31.28700
H  -4.02200 23.86600 31.92000
H  -4.55000 23.05500 30.37800
H  -5.34700 22.72500 31.85800
H  -7.35200 26.84600 31.04200
H  -6.12000 28.08300 31.36400
H  -7.85200 26.95900 33.18700
H  -6.41000 27.91900 33.44900
H  -9.53000 22.33900 27.48300
H  -8.37500 21.18200 28.14400
H  -9.27700 20.89300 26.61900
H  -10.12100 21.56300 24.76600
H  -8.98900 20.25800 24.70700
H  -9.63800 20.80000 23.14600
H  -4.95900 25.60000 21.45100
H  -2.47700 27.00200 22.27500
H  -3.19600 23.54200 22.39600
H  -2.22300 24.66600 21.57000
H  -3.71300 24.15400 20.71500
H  -4.55200 28.77800 22.64500
H  -5.40800 27.68300 21.77000
H  -3.17700 29.56300 20.96900
H  -4.52100 28.97900 19.94300
H  -3.06000 28.02300 20.09700
H  -0.72400 29.74400 25.39900
H  -0.61800 30.75200 26.86200
H  -1.95900 31.01400 25.65100
H  -3.99900 29.11900 30.74000
H  -2.91400 26.84300 34.21400
H  -2.70300 28.56500 34.75400
H  -1.39900 27.66300 33.90000

