158

Mg 35.41400 2.72400 30.04300
C  32.90600 3.89300 32.19700
C  37.55700 2.76700 32.71800
C  37.95500 1.95300 27.99500
C  33.26500 2.99000 27.29000
N  35.27500 3.50600 32.12200
C  34.10100 3.71500 32.83300
C  34.37100 3.64300 34.33900
C  35.90100 3.72000 34.39300
C  36.27900 3.25600 33.00400
C  36.46600 5.16500 34.75800
C  33.71900 2.46700 34.97000
C  33.07600 2.69700 36.37200
H  33.66700 3.79900 37.29800
N  37.47100 2.50600 30.27400
C  38.09000 2.49400 31.46500
C  39.48300 2.13800 31.27100
C  39.68400 1.97800 29.88700
C  38.35700 2.14000 29.28500
C  40.49400 1.92300 32.41800
C  40.99200 1.56700 29.19300
O  41.11200 1.44700 27.97700
C  42.20500 1.23300 29.98800
N  35.62900 2.43600 27.99000
C  36.74500 1.95500 27.38100
C  36.46900 1.72000 25.89500
C  34.99600 2.10600 25.68600
C  34.59900 2.61200 27.10300
C  37.48000 2.41100 24.92500
C  34.14200 1.01900 24.93000
C  33.84600 -0.28600 25.72900
N  33.49100 3.31900 29.73400
C  32.74900 3.36200 28.54100
C  31.37400 3.82700 28.94200
C  31.35600 3.94600 30.35900
C  32.66700 3.77000 30.78800
C  30.13300 4.03100 28.02000
C  30.57400 4.24000 31.49800
O  29.41700 4.59900 31.51900
C  31.51700 4.21100 32.75000
C  31.56400 5.54400 33.47500
O  31.90700 6.61300 32.96300
O  31.16700 5.33200 34.75700
C  31.08400 6.49600 35.64300
H  38.24200 2.73100 33.56800
H  38.77900 1.72400 27.31600
H  32.62000 3.10700 26.41700
H  33.90800 4.57900 34.65100
H  36.36100 2.96900 35.03600
H  35.63300 5.85600 34.88200
H  36.94500 5.46200 33.82600
H  37.03800 5.15000 35.68600
H  34.48300 1.69700 35.07300
H  32.95200 2.16100 34.25900
H  33.01900 1.80500 36.99600
H  32.03300 3.00800 36.30600
H  41.53400 2.06600 32.12300
H  40.41500 0.87300 32.70000
H  40.34000 2.58800 33.26700
H  42.56300 2.22600 30.26000
H  42.95000 0.71900 29.38100
H  41.90500 0.55600 30.78800
H  36.58000 0.66400 25.64700
H  34.94900 2.96700 25.02000
H  37.03400 3.05200 24.16400
H  38.04800 1.59900 24.47200
H  38.21400 3.03200 25.43900
H  34.76900 0.71300 24.09200
H  33.20700 1.40900 24.52800
H  34.49500 -0.46500 26.58600
H  34.21200 -1.09300 25.09500
H  32.78100 -0.33600 25.95700
H  30.26200 4.89900 27.37400
H  29.29800 4.16300 28.70800
H  29.86900 3.13900 27.45200
H  31.27100 3.38700 33.42000
H  31.83500 7.21700 35.32100
H  31.29200 6.07500 36.62700
H  30.08800 6.92400 35.53800
Mg 47.10800 24.24200 27.78400
C  47.97700 26.44500 30.34800
C  46.15300 22.06500 30.11600
C  46.56300 22.16200 25.34700
C  48.10000 26.65000 25.46800
N  47.09000 24.28800 29.96600
C  47.42000 25.27800 30.84600
C  47.26900 24.85100 32.35400
C  46.55300 23.45200 32.20900
C  46.58800 23.30600 30.67200
C  47.41100 22.44000 32.99700
C  46.46500 25.87400 33.26300
C  45.89300 25.31000 34.57500
H  46.50600 26.07900 35.78500
N  46.46300 22.35600 27.74700
C  46.09000 21.59500 28.77800
C  45.61400 20.31800 28.36500
C  45.63400 20.35700 26.94800
C  46.30900 21.68300 26.63100
C  45.10500 19.27000 29.26800
C  45.33400 19.20800 25.96800
O  45.50400 19.17300 24.72300
C  44.84400 17.92900 26.61200
N  47.49500 24.32700 25.62300
C  46.99500 23.33100 24.89100
C  46.98800 23.78400 23.38000
C  47.36200 25.27200 23.39200
C  47.70200 25.46900 24.90400
C  47.89000 22.93900 22.44400
C  46.25400 26.24000 22.81500
C  46.73700 27.27400 21.80200
N  47.98100 26.04600 27.85600
C  48.29800 26.98400 26.83000
C  48.94500 28.14900 27.38600
C  48.89700 27.93500 28.77900
C  48.25000 26.70100 29.04200
C  49.56100 29.26600 26.68500
C  49.23900 28.60000 30.03000
O  49.73000 29.67600 30.34200
C  48.55800 27.68900 31.15800
C  49.54800 27.23100 32.12300
O  50.29800 26.27500 31.98600
O  49.49600 27.99800 33.30900
C  50.22000 27.53600 34.50100
H  45.71800 21.36200 30.83100
H  46.38900 21.33900 24.65100
H  48.30100 27.42900 24.72900
H  48.23800 24.69100 32.82700
H  45.55300 23.56900 32.62500
H  47.89000 22.82700 33.89700
H  48.15100 21.87500 32.43100
H  46.78400 21.67800 33.46000
H  45.70400 26.37900 32.66700
H  47.06200 26.74400 33.53700
H  46.04800 24.25000 34.77400
H  44.81200 25.44800 34.53900
H  44.06500 19.01200 29.06700
H  45.18300 19.59800 30.30400
H  45.69500 18.36000 29.15300
H  45.65400 17.53200 27.22300
H  44.54300 17.34300 25.74300
H  43.94600 18.06800 27.21400
H  45.99700 23.61800 22.95800
H  48.27500 25.51400 22.84800
H  48.59900 22.42600 23.09400
H  48.36600 23.62600 21.74400
H  47.32100 22.25600 21.81300
H  45.74600 26.79700 23.60200
H  45.43600 25.72000 22.31700
H  47.49200 26.72400 21.24000
H  47.21700 28.16100 22.21500
H  45.86900 27.62100 21.24100
H  49.90300 28.96800 25.69300
H  50.37300 29.59800 27.33200
H  48.84800 30.08500 26.58800
H  47.91300 28.36200 31.72100
H  51.25800 27.45100 34.18000
H  49.86500 26.57800 34.88100
H  50.10000 28.29400 35.27600

