158

Mg 44.65800 3.27700 47.11600
C  42.28500 5.85400 47.02500
C  42.12200 0.93300 47.06200
C  47.00200 0.83600 46.83200
C  47.22200 5.63000 46.74400
N  42.40900 3.46400 47.00700
C  41.63700 4.59700 47.13300
C  40.14400 4.21600 47.14700
C  40.18200 2.57400 47.24800
C  41.64100 2.30400 47.08500
C  39.64800 1.97100 48.55400
C  39.29400 4.69900 45.94100
C  39.88400 4.54600 44.48400
H  38.94700 4.55600 43.25400
N  44.55400 1.17700 46.93700
C  43.40700 0.44000 46.94600
C  43.75400 -0.94800 46.85000
C  45.19200 -1.00700 46.64500
C  45.68500 0.38500 46.84600
C  42.73400 -2.05500 46.88600
C  45.98800 -2.31000 46.41000
O  45.37900 -3.38200 46.42400
C  47.40000 -2.24700 46.10600
N  46.86300 3.25700 46.70500
C  47.61000 2.08800 46.84300
C  49.02900 2.41700 47.18900
C  49.12000 3.93600 46.95000
C  47.68000 4.32300 46.69700
C  49.48400 1.95700 48.60400
C  50.01200 4.51400 45.84000
C  51.19400 3.65700 45.23100
N  44.79100 5.34200 46.94300
C  45.89100 6.22900 46.76100
C  45.34800 7.62700 46.69900
C  43.99500 7.46400 46.93600
C  43.67000 6.09600 46.93700
C  46.14800 8.95700 46.53900
C  42.79200 8.28100 47.04000
O  42.47500 9.45500 46.86000
C  41.58200 7.24400 47.11500
C  40.83100 7.52500 48.36800
O  41.39000 7.77500 49.44600
O  39.50700 7.31700 48.17700
C  38.60900 7.66100 49.23400
H  41.32000 0.19900 47.16100
H  47.79400 0.09200 46.94700
H  47.96000 6.42600 46.86700
H  39.67000 4.58100 48.05800
H  39.55500 2.23000 46.42600
H  38.81100 1.32400 48.29300
H  39.44700 2.90500 49.07900
H  40.41700 1.40700 49.08100
H  39.08800 5.75800 46.09700
H  38.34800 4.18100 46.09300
H  40.38600 3.57900 44.46000
H  40.57300 5.34600 44.21300
H  43.19000 -2.69500 47.64200
H  42.65200 -2.62500 45.96100
H  41.79500 -1.76700 47.35800
H  47.66000 -1.69700 45.20200
H  47.65300 -3.30600 46.04100
H  47.96000 -2.04900 47.01900
H  49.62900 1.92700 46.42200
H  49.33400 4.46400 47.87900
H  49.13000 0.94200 48.78300
H  49.22900 2.63800 49.41600
H  50.56600 2.05700 48.69000
H  50.38900 5.47400 46.19200
H  49.42000 4.76100 44.95900
H  51.40400 2.66300 45.62500
H  52.17300 4.13500 45.25400
H  50.95300 3.51800 44.17700
H  45.87900 9.60600 47.37200
H  46.06000 9.39700 45.54500
H  47.16500 8.59200 46.68300
H  40.86900 7.48000 46.32500
H  37.79600 8.27600 48.84800
H  39.11200 8.10800 50.09100
H  38.17600 6.74200 49.62800
Mg 34.83700 49.31300 25.04600
C  34.90600 47.52200 28.07000
C  32.93200 51.81000 26.69900
C  34.72100 51.10300 22.31300
C  36.19500 46.55100 23.42400
N  34.06900 49.67700 27.10100
C  34.37500 48.87700 28.20100
C  34.09600 49.57600 29.52800
C  33.24200 50.77800 29.07600
C  33.46800 50.78600 27.53500
C  31.76800 50.70800 29.37300
C  35.35700 49.75100 30.43800
C  35.20700 49.50000 31.90900
H  33.75700 49.44000 32.46800
N  33.90600 51.21100 24.52200
C  33.16000 52.03800 25.34500
C  32.79900 53.19100 24.60600
C  33.37100 52.97800 23.30100
C  33.96800 51.70500 23.34100
C  32.11500 54.30400 25.20200
C  33.24800 53.84000 22.01900
O  33.77600 53.64500 20.90300
C  32.32200 54.99800 22.13800
N  35.42900 48.87400 23.14400
C  35.28500 49.81800 22.20300
C  35.58900 49.13700 20.85500
C  36.28300 47.77300 21.22600
C  35.93800 47.71700 22.63500
C  34.32500 49.07200 19.91600
C  37.82200 47.60100 20.88300
C  38.83500 48.12800 21.89300
N  35.40500 47.45600 25.60200
C  36.03600 46.41400 24.83100
C  36.24800 45.22900 25.67700
C  35.79300 45.65900 26.94900
C  35.39300 47.01100 26.85700
C  36.72600 43.90600 25.28500
C  35.55200 45.17800 28.21700
O  35.71600 44.09000 28.66800
C  35.09100 46.38900 29.11000
C  33.85100 45.91100 29.79700
O  32.79400 45.70800 29.24000
O  34.06600 45.74700 31.08700
C  32.92600 45.37000 31.87600
H  32.37900 52.60500 27.20300
H  34.79600 51.63500 21.36300
H  36.63700 45.77000 22.80200
H  33.41200 48.85000 29.96700
H  33.57100 51.75300 29.43600
H  31.58400 49.85600 30.02800
H  31.02700 50.58300 28.58400
H  31.53700 51.59600 29.96100
H  35.80400 50.70100 30.14300
H  36.05700 49.00900 30.05400
H  35.80700 50.29700 32.34800
H  35.53700 48.46500 32.00600
H  32.51200 55.28100 24.92600
H  31.93900 54.28500 26.27800
H  31.03800 54.30600 25.03100
H  31.41000 54.77600 22.69100
H  32.00900 55.34600 21.15400
H  32.83300 55.83500 22.61400
H  36.30400 49.79300 20.35800
H  35.73100 47.05100 20.62500
H  34.39000 49.75900 19.07300
H  33.43800 49.29100 20.51200
H  34.26800 48.06600 19.50000
H  37.82200 48.13800 19.93400
H  37.99800 46.53000 20.78800
H  39.38500 48.97200 21.47500
H  39.53200 47.34500 22.19000
H  38.31800 48.56600 22.74700
H  36.08300 43.39500 24.56800
H  36.80500 43.22900 26.13500
H  37.73300 44.01200 24.88100
H  35.83600 46.65900 29.85900
H  32.65600 44.36300 31.55600
H  32.12500 46.10600 31.80500
H  33.34300 45.49300 32.87500

