158

Mg 41.63100 8.93700 30.14500
C  43.50100 10.09100 32.81400
C  39.17700 7.93700 32.33200
C  39.96000 7.92900 27.44800
C  44.43400 9.48800 28.06500
N  41.34200 9.02900 32.33400
C  42.26600 9.50900 33.23900
C  41.71100 9.49600 34.70200
C  40.31300 8.51600 34.51900
C  40.25100 8.48000 32.96400
C  40.48400 7.08100 35.05400
C  41.49300 10.91600 35.26000
C  42.19400 11.29800 36.60300
H  41.41200 12.04000 37.70700
N  39.84300 8.00000 29.94600
C  38.91400 7.73700 30.93300
C  37.71600 7.25100 30.30800
C  37.95100 7.28100 28.88800
C  39.30300 7.78000 28.72300
C  36.58700 6.67500 31.07500
C  36.91600 7.07200 27.76200
O  37.22900 7.17800 26.54600
C  35.55900 6.73500 28.08800
N  42.12400 8.76800 28.07900
C  41.24400 8.36400 27.13300
C  41.81900 8.49600 25.66600
C  43.29300 8.92000 25.92600
C  43.37000 8.94100 27.45400
C  41.66000 7.21500 24.83400
C  43.76300 10.15800 25.14000
C  43.19700 11.50200 25.53900
N  43.53800 9.71600 30.34900
C  44.48600 9.98900 29.38000
C  45.59100 10.61500 30.05300
C  45.18700 10.74000 31.39000
C  44.03700 10.13500 31.50200
C  46.89500 10.88400 29.43500
C  45.69300 11.13100 32.67900
O  46.78900 11.55500 32.96800
C  44.57700 10.75800 33.72500
C  45.11500 9.76700 34.75400
O  45.28500 8.55300 34.59100
O  45.36200 10.47900 35.83600
C  46.13200 9.73700 36.90900
H  38.32700 7.63700 32.94800
H  39.33700 7.67400 26.58800
H  45.31700 9.68800 27.45400
H  42.41100 8.95000 35.33400
H  39.52000 9.01700 35.07400
H  41.51400 6.99100 35.40000
H  40.37300 6.29300 34.30900
H  39.80800 6.82800 35.87100
H  40.43800 10.88800 35.53200
H  41.57800 11.68100 34.48800
H  42.99400 12.00200 36.37600
H  42.70500 10.40600 36.96400
H  35.74400 7.36400 31.03300
H  36.81700 6.41900 32.10900
H  36.27700 5.71700 30.65700
H  34.96400 6.92000 27.19400
H  35.20600 7.44500 28.83700
H  35.56400 5.69300 28.40700
H  41.30000 9.30900 25.15800
H  43.99100 8.11600 25.69100
H  41.44100 6.32100 25.41600
H  42.51100 7.02700 24.17900
H  40.76300 7.29200 24.21800
H  43.50700 9.97900 24.09600
H  44.84500 10.10500 25.26000
H  42.38200 11.46100 26.26100
H  42.85200 11.93900 24.60200
H  43.96700 12.05800 26.07500
H  47.04600 11.90700 29.09000
H  46.89700 10.41900 28.44900
H  47.68800 10.49900 30.07700
H  44.25700 11.67500 34.21900
H  46.80900 8.94800 36.58100
H  45.43000 9.32500 37.63400
H  46.81300 10.38200 37.46400
Mg 27.08700 49.05300 26.35900
C  24.79100 50.34100 28.90600
C  29.20800 48.02800 28.93500
C  29.13200 47.86900 24.12900
C  25.00900 50.45900 23.96300
N  26.97100 49.19200 28.66800
C  25.87700 49.66800 29.48700
C  26.19200 49.42600 30.99800
C  27.64700 48.83900 30.95100
C  27.98000 48.69600 29.45100
C  28.70800 49.69700 31.73200
C  25.16600 48.43900 31.67300
C  24.36200 49.04100 32.83400
H  24.19400 48.24700 34.11700
N  28.98500 48.20200 26.50400
C  29.68900 47.79500 27.62300
C  30.89000 47.09200 27.29600
C  30.84100 46.97000 25.84400
C  29.61300 47.67900 25.45600
C  31.87600 46.53300 28.29800
C  31.75000 46.34700 24.87000
O  31.60000 46.41300 23.62500
C  32.89700 45.65100 25.38200
N  27.13800 49.22200 24.27000
C  28.06700 48.55900 23.54600
C  27.65800 48.65700 21.98900
C  26.31500 49.39000 22.03900
C  26.08300 49.66300 23.51300
C  28.73000 49.37200 21.10600
C  25.19900 48.53600 21.38900
C  24.36400 47.51300 22.27000
N  25.27400 50.26600 26.36800
C  24.57100 50.72900 25.30200
C  23.38300 51.46700 25.79500
C  23.45500 51.41400 27.22100
C  24.56200 50.61100 27.52000
C  22.30000 52.04000 24.94900
C  22.74500 51.69700 28.46200
O  21.70300 52.27500 28.61500
C  23.66600 51.11100 29.63200
C  24.08200 52.21800 30.49200
O  24.78600 53.19800 30.16500
O  23.59500 52.01500 31.71400
C  24.06300 52.90900 32.78200
H  29.80600 47.63500 29.76000
H  29.64700 47.36500 23.30900
H  24.40800 50.88200 23.15500
H  26.12100 50.40600 31.46900
H  27.63500 47.85800 31.42600
H  28.22200 50.26400 32.52600
H  29.16000 50.42700 31.06200
H  29.51900 49.07800 32.11600
H  25.61300 47.49800 31.99300
H  24.50800 48.05300 30.89500
H  23.35600 49.12600 32.42200
H  24.63700 50.04700 33.15100
H  32.89000 46.79700 27.99700
H  31.92100 45.44500 28.33700
H  31.74600 46.85700 29.33100
H  33.59300 46.38200 25.79400
H  33.13300 44.95100 24.58000
H  32.58800 45.01900 26.21400
H  27.45100 47.62400 21.70800
H  26.34400 50.40000 21.62900
H  29.01100 48.71100 20.28500
H  29.66500 49.60600 21.61500
H  28.34100 50.29500 20.67700
H  25.57700 48.00400 20.51600
H  24.44300 49.09300 20.83500
H  23.33000 47.84700 22.34800
H  24.68200 47.29900 23.29000
H  24.42900 46.62300 21.64400
H  21.74900 51.39800 24.26200
H  22.77800 52.79800 24.32900
H  21.61100 52.34400 25.73700
H  23.04900 50.36000 30.12500
H  24.02900 53.93800 32.42300
H  25.11000 52.69200 32.99300
H  23.29500 52.84500 33.55200

