158

Mg 24.46600 -4.75700 45.92100
C  26.89700 -2.68900 44.45200
C  22.26500 -3.73700 43.36100
C  22.54800 -7.56000 46.33700
C  27.06600 -6.31600 47.55700
N  24.61500 -3.37600 44.03600
C  25.66400 -2.57400 43.78500
C  25.25500 -1.52800 42.71100
C  23.77100 -1.82200 42.43600
C  23.48700 -3.04300 43.30600
C  22.86400 -0.68600 42.85200
C  26.08600 -1.60500 41.40000
C  25.94600 -0.73800 40.14600
H  25.50100 -1.23600 38.78500
N  22.66800 -5.45900 45.04800
C  21.89800 -4.90900 44.05600
C  20.65400 -5.67400 43.88300
C  20.65700 -6.70600 44.80500
C  21.99800 -6.57300 45.48000
C  19.65200 -5.31000 42.74400
C  19.62700 -7.81100 44.93700
O  18.75700 -7.81200 44.10700
C  19.60200 -8.72600 46.16900
N  24.71200 -6.61100 46.77000
C  23.76500 -7.69300 46.89800
C  24.33800 -8.87800 47.57300
C  25.70600 -8.40700 48.06000
C  25.86700 -6.98100 47.47100
C  23.45900 -9.47000 48.74300
C  26.87100 -9.41200 47.68500
C  27.92900 -9.75900 48.77000
N  26.44400 -4.42600 46.26300
C  27.39200 -5.11800 46.95900
C  28.64400 -4.46000 46.97700
C  28.47500 -3.45600 46.03000
C  27.18900 -3.51900 45.52000
C  29.87700 -4.88100 47.72100
C  29.18000 -2.36800 45.34100
O  30.32700 -1.93300 45.50300
C  28.17500 -1.85200 44.29000
C  27.86300 -0.38900 44.44100
O  27.22600 0.13400 45.36600
O  28.30800 0.17300 43.29100
C  28.09800 1.67800 43.18900
H  21.52300 -3.40300 42.63200
H  22.02900 -8.50800 46.49200
H  27.80000 -6.83000 48.18100
H  25.53300 -0.52100 43.02400
H  23.63800 -1.93000 41.36000
H  22.08700 -0.45500 42.12200
H  23.53800 0.14500 43.05800
H  22.39700 -1.03100 43.77400
H  25.70700 -2.51000 40.92700
H  27.14400 -1.72700 41.63200
H  26.86700 -0.16000 40.06800
H  25.14600 -0.09300 40.50700
H  19.96200 -5.92400 41.89900
H  19.55400 -4.24700 42.52500
H  18.68100 -5.57500 43.16200
H  18.60500 -9.15800 46.24900
H  19.78100 -8.14200 47.07200
H  20.35700 -9.49600 46.01200
H  24.44600 -9.59800 46.76200
H  25.68700 -8.28600 49.14300
H  23.83200 -9.54700 49.76500
H  23.51100 -10.53900 48.54000
H  22.43100 -9.11200 48.68900
H  27.46200 -8.92600 46.90900
H  26.43500 -10.31500 47.25600
H  27.83600 -10.81600 49.02000
H  27.66900 -9.07600 49.57900
H  28.95000 -9.58500 48.43300
H  30.57400 -5.38400 47.05000
H  29.65600 -5.43100 48.63600
H  30.42000 -3.96900 47.96500
H  28.70400 -2.04900 43.35800
H  28.47900 2.16900 44.08400
H  27.04400 1.88100 43.00000
H  28.62900 2.04800 42.31100
Mg 49.56400 34.42500 27.77100
C  47.24800 33.69800 30.41100
C  50.23100 37.44400 29.48000
C  51.25800 35.23600 25.16000
C  48.40700 31.49600 26.07100
N  48.92000 35.36900 29.76800
C  47.95000 34.91300 30.62900
C  47.91700 35.75700 31.91400
C  48.62300 37.09000 31.39200
C  49.34200 36.56100 30.13800
C  47.75700 38.32300 31.12800
C  48.69800 35.14800 33.12400
C  47.90800 35.23600 34.43500
H  48.39300 36.20900 35.47100
N  50.62500 36.08700 27.39400
C  50.86300 37.18800 28.18800
C  51.76800 38.07100 27.52000
C  52.03500 37.52300 26.32100
C  51.34100 36.21300 26.28000
C  51.94200 39.45500 28.00900
C  52.62900 38.19400 25.04900
O  52.73200 37.55200 23.99200
C  53.12300 39.58700 25.07500
N  49.73700 33.54500 25.82800
C  50.56200 34.06900 24.92500
C  50.55900 33.28600 23.53700
C  49.90400 31.99100 23.98300
C  49.34300 32.29300 25.42000
C  49.81400 34.14700 22.48000
C  50.96500 30.80200 23.93000
C  50.52800 29.45300 23.30800
N  48.10300 32.89600 28.04600
C  47.75400 31.79300 27.23400
C  46.69300 31.02200 27.99000
C  46.43500 31.83400 29.12000
C  47.36300 32.86400 29.17700
C  46.09100 29.76700 27.65900
C  45.57500 31.86300 30.33900
O  44.74400 31.01800 30.71100
C  46.01600 33.17600 31.13300
C  46.29000 32.56200 32.52900
O  47.39600 32.41600 32.92200
O  45.12200 32.35900 33.24400
C  45.34900 31.87600 34.64100
H  50.29100 38.45900 29.87800
H  51.77900 35.49200 24.23500
H  47.99100 30.57500 25.65700
H  46.85900 35.91300 32.12300
H  49.37000 37.45900 32.09500
H  47.92300 38.70800 30.12200
H  47.91800 39.17800 31.78500
H  46.68300 38.15600 31.20900
H  49.55300 35.79300 33.32600
H  49.02200 34.12700 32.91800
H  48.08200 34.27500 34.91800
H  46.82700 35.35100 34.36200
H  51.49800 39.63900 28.98800
H  51.44500 40.19900 27.38700
H  53.02500 39.56000 27.94300
H  52.28300 40.25000 25.28000
H  53.28500 39.83100 24.02500
H  53.97300 39.74500 25.73800
H  51.56300 33.30600 23.11100
H  49.03300 31.79800 23.35700
H  50.48400 34.63200 21.77000
H  49.22900 34.93200 22.96100
H  49.03300 33.61200 21.94000
H  51.37200 30.60000 24.92100
H  51.82900 31.17300 23.37900
H  49.54500 29.50000 22.83900
H  50.35400 28.67600 24.05300
H  51.25300 29.16900 22.54500
H  45.81800 29.83600 26.60600
H  45.15900 29.71100 28.22200
H  46.88800 29.04700 27.84200
H  45.11400 33.78400 31.20000
H  45.89600 30.93600 34.56700
H  44.43400 31.67200 35.19700
H  46.03400 32.58300 35.10900

