158

Mg -1.98700 17.35500 26.47400
C  -2.50800 15.01500 29.11300
C  -2.78000 19.84400 28.72500
C  -1.67000 19.41500 23.99000
C  -1.54600 14.53300 24.33500
N  -2.45500 17.36200 28.72600
C  -2.63400 16.33100 29.55200
C  -3.09900 16.85300 30.95500
C  -3.45000 18.37800 30.65700
C  -2.87900 18.59400 29.28900
C  -4.99600 18.67400 30.77800
C  -2.03000 16.59300 32.02700
C  -2.61100 16.10500 33.34200
H  -1.66800 15.89900 34.45500
N  -2.06000 19.39300 26.43000
C  -2.26900 20.24900 27.46800
C  -1.96500 21.61200 27.01200
C  -1.70100 21.43000 25.60800
C  -1.83700 20.03600 25.26900
C  -2.01200 22.77400 27.88800
C  -1.28800 22.47100 24.61900
O  -0.96300 22.27300 23.41400
C  -1.09200 23.79500 25.08900
N  -1.82500 16.97900 24.43200
C  -1.64600 18.03100 23.56500
C  -1.39500 17.57300 22.15600
C  -1.13400 16.07800 22.38100
C  -1.63700 15.84800 23.80200
C  -2.50800 17.91900 21.12900
C  0.36400 15.63200 22.14100
C  1.33500 15.52900 23.40300
N  -2.12800 15.20400 26.58200
C  -1.93500 14.19800 25.61900
C  -2.25500 12.91600 26.22700
C  -2.45300 13.15900 27.54400
C  -2.30800 14.57600 27.76500
C  -2.17300 11.62900 25.57900
C  -2.70600 12.53900 28.82600
O  -2.82000 11.38800 29.20800
C  -2.77400 13.70600 29.89400
C  -1.63000 13.49000 30.90400
O  -0.45500 13.75700 30.68300
O  -2.05100 12.87400 32.03500
C  -1.21800 12.63000 33.20100
H  -2.89500 20.65400 29.44700
H  -1.43700 20.06000 23.14000
H  -1.32000 13.70700 23.65800
H  -4.03100 16.29600 31.05400
H  -2.93500 19.00600 31.38300
H  -5.38100 19.30500 29.97800
H  -5.24000 19.17200 31.71700
H  -5.62300 17.79000 30.65700
H  -1.58600 17.56400 32.24600
H  -1.11000 16.06900 31.76600
H  -3.02900 15.15000 33.02500
H  -3.32500 16.87200 33.64000
H  -2.29300 22.50300 28.90500
H  -2.83300 23.44200 27.62700
H  -1.10100 23.36800 27.96100
H  -1.96200 24.20800 25.59900
H  -0.99800 24.41200 24.19500
H  -0.13400 23.92000 25.59300
H  -0.48800 18.06900 21.80800
H  -1.81200 15.45800 21.79400
H  -3.13500 18.73200 21.49500
H  -3.17400 17.06500 21.00200
H  -2.03300 18.15900 20.17800
H  0.87800 16.38600 21.54600
H  0.31400 14.73400 21.52600
H  0.87900 16.03800 24.25200
H  2.31600 16.00000 23.34400
H  1.50200 14.45900 23.53000
H  -1.17800 11.33700 25.24300
H  -2.79800 11.53300 24.69100
H  -2.51700 10.89300 26.30500
H  -3.70700 13.70600 30.45700
H  -1.60400 13.33200 33.94100
H  -0.14200 12.68200 33.04000
H  -1.41700 11.61500 33.54400
Mg 7.20600 53.99700 40.81800
C  6.32800 50.59000 40.71700
C  10.19600 53.18400 39.33800
C  7.79800 57.31700 40.46600
C  3.88600 54.59500 41.61300
N  8.10700 52.10300 40.04000
C  7.63700 50.89400 40.15300
C  8.63100 49.84100 39.52400
C  9.95100 50.68000 39.49900
C  9.38600 52.06000 39.55600
C  11.09900 50.26100 40.56300
C  8.19700 49.21600 38.15500
C  8.42000 50.08700 36.83800
H  7.14000 50.45500 36.09800
N  8.81900 55.09100 40.08200
C  9.97500 54.53400 39.54200
C  11.02800 55.54900 39.36800
C  10.34000 56.78300 39.75200
C  8.95300 56.45700 40.13700
C  12.43800 55.32100 39.09300
C  10.97000 58.19800 39.83800
O  12.11000 58.35200 39.40100
C  10.32500 59.39300 40.46300
N  5.97600 55.76300 40.72100
C  6.44200 56.99000 40.74100
C  5.34400 58.06000 40.94000
C  4.07100 57.14400 41.14600
C  4.65400 55.73700 41.16800
C  5.75700 59.21000 42.04000
C  2.77000 57.27400 40.25200
C  1.40700 57.25500 40.93600
N  5.49300 52.87600 41.26400
C  4.23200 53.27300 41.55500
C  3.41400 52.07800 42.00300
C  4.23200 50.99700 41.70000
C  5.44200 51.56200 41.14100
C  2.07700 52.09500 42.67100
C  4.33200 49.54800 41.75900
O  3.50900 48.77800 42.13200
C  5.64500 49.24500 41.09200
C  5.36600 48.39100 39.88000
O  4.66000 48.74500 38.94000
O  5.90900 47.09400 39.92800
C  5.79200 46.23900 38.80400
H  11.20600 52.85200 39.08700
H  8.05700 58.37600 40.51300
H  2.85100 54.80600 41.89300
H  8.64500 48.89800 40.07000
H  10.41300 50.52200 38.52400
H  10.72600 49.53000 41.28000
H  11.22600 51.10300 41.24300
H  11.98800 49.92200 40.03100
H  7.12500 49.01700 38.16500
H  8.80000 48.31000 38.09200
H  9.00800 49.48900 36.14300
H  9.11700 50.91500 36.96000
H  13.04300 56.13000 39.50300
H  12.79000 55.11200 38.08300
H  12.64200 54.41400 39.66200
H  11.07800 60.14200 40.71200
H  9.93300 59.11500 41.44100
H  9.57100 59.80300 39.79100
H  5.24900 58.64700 40.02600
H  3.66600 57.27900 42.14900
H  6.73500 59.04000 42.49100
H  5.03600 59.30900 42.85200
H  5.77500 60.19100 41.56700
H  2.75200 56.44400 39.54700
H  2.88200 58.23600 39.75200
H  0.71600 57.96000 40.47400
H  1.59300 57.24000 42.01000
H  0.96700 56.30400 40.63600
H  1.53800 51.22600 42.29400
H  1.46500 52.99200 42.57700
H  2.23300 51.98200 43.74400
H  6.18400 48.59300 41.78000
H  6.52500 45.43800 38.90500
H  5.82300 46.90300 37.94000
H  4.79900 45.82200 38.96700

