158

Mg 7.09200 2.87500 27.91900
C  8.62000 1.90000 30.75700
C  5.27800 5.24400 29.82200
C  5.40000 3.78500 25.13800
C  8.60100 0.40000 26.12000
N  6.80300 3.35100 30.05900
C  7.71100 2.93000 31.05000
C  7.56700 3.74100 32.34700
C  6.42700 4.77500 32.02000
C  6.05500 4.34100 30.56900
C  5.16000 4.79300 32.95000
C  8.80000 4.38800 33.02600
C  9.10300 3.82400 34.41100
H  8.76000 4.75000 35.56600
N  5.64400 4.36500 27.54100
C  5.08100 5.24400 28.38600
C  4.36100 6.20600 27.59100
C  4.23000 5.66500 26.30300
C  5.13800 4.56900 26.28300
C  3.58400 7.34200 28.20700
C  3.50700 6.22500 25.13700
O  3.46600 5.55700 24.13000
C  2.80900 7.48000 25.06700
N  6.95100 2.16800 25.96100
C  6.21400 2.68300 25.01400
C  6.26000 1.78400 23.69600
C  7.65300 1.07300 23.89000
C  7.73600 1.17000 25.40900
C  5.00500 0.84200 23.58000
C  8.90300 1.67200 23.04300
C  10.16000 2.11000 23.83000
N  8.34800 1.38200 28.33600
C  8.86200 0.42600 27.50800
C  9.72900 -0.48700 28.22600
C  9.67900 0.11700 29.50900
C  8.73800 1.18100 29.55500
C  10.56800 -1.60500 27.76300
C  10.28100 0.04500 30.80400
O  11.11600 -0.70800 31.23900
C  9.57100 1.18600 31.64400
C  8.87700 0.55600 32.72500
O  7.76900 0.03400 32.66400
O  9.71800 0.50000 33.83500
C  9.13800 -0.07100 35.09600
H  4.78400 6.07000 30.33800
H  5.00100 3.91900 24.13100
H  9.08100 -0.37500 25.51800
H  7.09300 3.02600 33.01900
H  6.87400 5.76900 32.00000
H  4.31900 4.34300 32.42100
H  4.83900 5.76700 33.31900
H  5.32700 4.27800 33.89600
H  8.74600 5.47700 33.01400
H  9.66300 4.11200 32.42000
H  10.18500 3.70300 34.46200
H  8.70500 2.83500 34.63900
H  2.54900 7.20000 27.89500
H  3.85700 8.36000 27.92900
H  3.61100 7.32800 29.29600
H  2.03900 7.46000 25.83900
H  2.32800 7.48900 24.08900
H  3.50900 8.30200 25.21300
H  6.37100 2.54200 22.92100
H  7.55100 0.04600 23.53900
H  4.35300 1.04100 24.43000
H  5.25600 -0.21600 23.65500
H  4.39100 0.95400 22.68600
H  8.53100 2.51600 22.46200
H  9.29100 0.84200 22.45300
H  9.80800 2.60100 24.73800
H  10.74600 2.89500 23.35200
H  10.70200 1.17200 23.94900
H  11.26600 -1.31300 26.97900
H  9.91700 -2.42600 27.46100
H  11.24200 -1.90300 28.56600
H  10.30200 1.88800 32.04300
H  8.78900 0.69200 35.79100
H  9.95900 -0.60900 35.57000
H  8.34600 -0.76300 34.80800
Mg -1.52000 33.42900 27.20600
C  -3.63200 32.06300 29.79600
C  -0.15400 35.39600 29.68300
C  -0.21400 35.39400 24.88500
C  -3.34800 31.62600 24.94800
N  -1.83800 33.61100 29.54500
C  -2.67500 32.95600 30.33600
C  -2.41600 33.33000 31.78600
C  -1.49100 34.63600 31.71600
C  -1.14500 34.56300 30.23100
C  -2.12400 36.04000 32.05800
C  -1.73300 32.11200 32.54700
C  -2.54000 31.49200 33.67600
H  -1.81000 31.27900 34.99000
N  -0.13200 35.10900 27.30400
C  0.30300 35.72800 28.37200
C  1.26600 36.72600 27.91700
C  1.21100 36.85800 26.52100
C  0.23600 35.76500 26.17500
C  2.12400 37.46800 28.94100
C  1.83300 37.84300 25.52100
O  1.54300 37.78000 24.34400
C  2.67200 38.94000 26.04600
N  -1.72300 33.44600 25.19700
C  -1.01800 34.37200 24.42600
C  -1.33700 34.25100 22.93400
C  -2.10000 32.88400 22.93100
C  -2.37000 32.50300 24.42100
C  -2.13600 35.46000 22.34400
C  -1.31600 31.87300 22.08500
C  0.06200 31.50300 22.59900
N  -3.04300 32.07500 27.30900
C  -3.76700 31.48000 26.30700
C  -4.83200 30.63400 26.77000
C  -4.80000 30.81200 28.15400
C  -3.73800 31.74300 28.44500
C  -5.78300 29.83200 25.88100
C  -5.43400 30.38600 29.35900
O  -6.27700 29.47200 29.52500
C  -4.75600 31.16900 30.50300
C  -5.85900 31.90800 31.30700
O  -6.81300 32.43400 30.83500
O  -5.64100 31.68400 32.63300
C  -6.59800 32.14100 33.56300
H  0.33200 35.95300 30.48700
H  0.12200 36.03400 24.06700
H  -3.87400 31.16700 24.10800
H  -3.36000 33.61200 32.25200
H  -0.55700 34.69600 32.27500
H  -2.53100 36.66500 31.26300
H  -1.34100 36.64000 32.52300
H  -2.93800 35.88900 32.76800
H  -0.75000 32.39000 32.92700
H  -1.49900 31.38100 31.77300
H  -2.68500 30.46400 33.34300
H  -3.42800 32.07700 33.91400
H  3.11400 37.42200 28.48700
H  2.17400 36.91300 29.87800
H  1.92400 38.52500 29.11300
H  3.04500 39.49600 25.18600
H  3.49800 38.64700 26.69400
H  2.14100 39.67500 26.65200
H  -0.40500 34.09400 22.39100
H  -3.08000 32.94500 22.45900
H  -3.00600 35.16400 21.75800
H  -1.60400 36.11500 21.65500
H  -2.44300 35.99800 23.24100
H  -1.18400 32.14000 21.03700
H  -2.04700 31.06500 22.05900
H  0.46600 32.08200 23.43000
H  0.84300 31.51800 21.83900
H  0.07800 30.43200 22.80000
H  -6.79300 30.23900 25.83000
H  -5.77000 28.86200 26.37800
H  -5.41700 29.71800 24.86100
H  -4.23000 30.43700 31.11500
H  -6.11400 32.42200 34.49900
H  -7.35500 31.40900 33.84400
H  -7.11000 33.06600 33.29800

