158

Mg 16.99500 -1.81900 27.35900
C  16.27500 0.08800 30.10800
C  19.09500 -3.71700 29.39000
C  18.28300 -3.41200 24.60600
C  15.51500 0.62400 25.33100
N  17.80900 -1.60200 29.42700
C  17.06800 -1.02300 30.39200
C  17.57700 -1.36700 31.78500
C  18.70000 -2.36500 31.48800
C  18.54700 -2.59000 30.00000
C  20.15400 -2.07300 31.78800
C  16.42200 -1.77100 32.81300
C  16.50700 -1.23500 34.26900
H  17.80200 -0.53900 34.74500
N  18.34400 -3.40400 27.07000
C  19.01000 -4.10800 28.03200
C  19.60000 -5.29500 27.47200
C  19.36200 -5.23200 26.11200
C  18.62500 -4.01800 25.86000
C  20.33500 -6.22000 28.31200
C  19.82700 -6.21500 25.03700
O  19.50600 -6.20900 23.87000
C  20.68200 -7.39400 25.48600
N  17.07700 -1.30300 25.31300
C  17.61400 -2.14100 24.35500
C  17.54600 -1.50700 22.99500
C  16.35600 -0.50900 23.18200
C  16.29800 -0.37400 24.72400
C  18.83300 -0.82000 22.50900
C  14.96300 -1.13600 22.65400
C  14.33800 -0.55900 21.32600
N  15.90100 -0.04800 27.55700
C  15.38500 0.82400 26.70700
C  14.61000 1.87100 27.36100
C  14.95400 1.59500 28.73700
C  15.80600 0.47600 28.79800
C  13.86100 2.93500 26.75100
C  14.72300 2.04100 30.05300
O  14.08900 2.98500 30.50600
C  15.54600 1.14000 31.03000
C  16.51000 2.02000 31.69100
O  17.59700 2.34500 31.25900
O  16.02300 2.44300 32.93100
C  16.93800 3.39300 33.65300
H  19.61500 -4.39800 30.06800
H  18.61800 -4.00900 23.75500
H  15.13400 1.43500 24.70800
H  18.06600 -0.44600 32.10100
H  18.45500 -3.27500 32.03600
H  20.78500 -2.23800 30.91500
H  20.63900 -2.74300 32.49900
H  20.22600 -1.02200 32.06600
H  16.24900 -2.84700 32.84000
H  15.58100 -1.23400 32.37400
H  16.52800 -2.06900 34.97000
H  15.61700 -0.67900 34.56400
H  20.22700 -7.26300 28.01200
H  20.06600 -6.37800 29.35700
H  21.36900 -5.90100 28.18300
H  19.97500 -8.06300 25.97800
H  21.57300 -7.04400 26.00700
H  21.06000 -7.80800 24.55200
H  17.22600 -2.32400 22.34800
H  16.50300 0.41700 22.62500
H  19.38100 -0.65500 23.43700
H  18.71100 0.09200 21.92500
H  19.49600 -1.48700 21.95900
H  14.23500 -1.20200 23.46300
H  15.15800 -2.18100 22.41300
H  14.96500 0.28000 21.02400
H  13.30500 -0.24800 21.48400
H  14.38600 -1.39500 20.62800
H  14.32200 3.91000 26.90900
H  12.94700 2.91900 27.34400
H  13.60000 2.89700 25.69300
H  14.96400 0.57300 31.75600
H  16.73200 4.41300 33.33000
H  17.98700 3.17200 33.45800
H  16.99700 3.43000 34.74100
Mg 36.14100 1.81000 29.15600
C  33.96000 2.94500 31.71300
C  38.66500 1.81400 31.43900
C  38.37700 0.98600 26.65400
C  33.55600 1.99600 26.91600
N  36.23300 2.25700 31.33400
C  35.26800 2.67800 32.15900
C  35.83500 2.83700 33.53100
C  37.33100 2.86400 33.33800
C  37.45200 2.35300 31.90900
C  38.05100 4.18100 33.65900
C  35.25700 1.73600 34.51800
C  34.72900 2.32200 35.87400
H  35.48000 3.49800 36.58700
N  38.10000 1.30700 29.10100
C  38.96000 1.29600 30.19600
C  40.19300 0.65800 29.83100
C  40.18600 0.63200 28.44700
C  38.85200 0.97700 27.98200
C  41.26800 0.35300 30.86600
C  41.33800 0.28700 27.54700
O  41.23900 0.27900 26.31200
C  42.70400 -0.01300 28.05500
N  35.98800 1.55100 27.11300
C  37.03300 1.28300 26.25300
C  36.54700 1.32100 24.74900
C  34.94900 1.27600 24.87700
C  34.77000 1.60200 26.33900
C  36.94200 2.70300 24.19600
C  34.40800 -0.16300 24.48300
C  34.00500 -1.14000 25.53800
N  34.13800 2.37600 29.19600
C  33.18000 2.41100 28.19700
C  31.96400 2.86300 28.79300
C  32.20800 3.08400 30.13500
C  33.58100 2.83200 30.32600
C  30.56900 2.88100 28.21200
C  31.59800 3.56700 31.41100
O  30.45000 4.06000 31.59900
C  32.74800 3.45000 32.41400
C  32.95900 4.72300 33.08700
O  33.68600 5.63200 32.65700
O  32.14300 4.74200 34.22000
C  32.15600 6.01200 34.94500
H  39.50600 1.76400 32.13400
H  39.04900 0.70200 25.84200
H  32.83100 2.04100 26.10100
H  35.40400 3.73800 33.96900
H  37.72700 2.05900 33.95700
H  38.93000 3.98300 34.27200
H  37.37300 4.96200 34.00200
H  38.49300 4.58400 32.74800
H  35.99200 0.94900 34.68400
H  34.48100 1.18500 33.98600
H  34.68000 1.45800 36.53700
H  33.66600 2.53900 35.77100
H  41.63700 -0.65600 30.68200
H  40.94600 0.25800 31.90300
H  41.95300 1.20000 30.83700
H  43.36400 -0.09800 27.19100
H  42.76000 -0.99400 28.52600
H  43.02300 0.85200 28.63600
H  36.93400 0.56800 24.06100
H  34.45300 2.04700 24.28900
H  36.11900 3.34300 23.87700
H  37.60400 2.63400 23.33300
H  37.50800 3.16100 25.00800
H  34.96800 -0.66700 23.69600
H  33.49100 0.16400 23.99300
H  34.48400 -2.08500 25.28300
H  32.91800 -1.16400 25.46700
H  34.24700 -0.76800 26.53400
H  30.67900 2.57100 27.17300
H  30.10900 3.86400 28.10900
H  29.89000 2.22100 28.75200
H  32.40900 2.65300 33.07600
H  32.12800 6.72200 34.11800
H  33.06600 6.09100 35.54000
H  31.35500 6.26300 35.64000

