158

Mg 49.33900 45.42500 43.37600
C  45.95900 46.00100 42.48100
C  48.96500 42.18100 42.48400
C  52.66500 45.18400 43.55600
C  49.65700 49.09600 43.70900
N  47.63300 44.30800 42.61900
C  46.33800 44.65900 42.43700
C  45.49700 43.46200 42.04500
C  46.43700 42.29200 42.26300
C  47.76000 42.98900 42.45000
C  46.04200 41.36300 43.38600
C  45.03400 43.43600 40.47900
C  46.10600 43.71900 39.33900
H  46.23000 42.69000 38.20800
N  50.67700 43.83600 43.08100
C  50.28400 42.60800 42.65000
C  51.47300 41.75100 42.65200
C  52.61600 42.54800 43.12200
C  52.05100 43.90900 43.25500
C  51.46400 40.23000 42.27800
C  54.06500 42.05600 43.40600
O  54.25000 40.82000 43.37300
C  55.28900 42.97600 43.66300
N  50.91500 47.00700 43.61000
C  52.22000 46.50900 43.69300
C  53.15000 47.73000 44.01200
C  52.23000 48.95800 43.82000
C  50.80900 48.32600 43.79000
C  53.71000 47.61600 45.42900
C  52.44800 49.84200 42.52100
C  53.03000 51.25800 42.74500
N  48.11300 47.28700 43.13600
C  48.36200 48.60600 43.31400
C  47.11600 49.37300 43.04400
C  46.11900 48.41000 42.68500
C  46.81000 47.14800 42.77700
C  46.92700 50.89900 43.06900
C  44.73900 48.15600 42.42300
O  43.83100 48.92600 42.33800
C  44.66900 46.59300 42.11400
C  43.47700 45.96900 42.78900
O  42.50000 45.54000 42.24400
O  43.54000 46.32000 44.15800
C  42.31000 46.07600 44.89900
H  48.75300 41.12500 42.30500
H  53.74200 45.07900 43.70400
H  49.72000 50.18400 43.78500
H  44.60100 43.54700 42.65900
H  46.58000 41.74100 41.33400
H  45.35100 41.93800 44.00200
H  46.94800 40.96800 43.84600
H  45.44800 40.50200 43.07900
H  44.23000 44.17100 40.42500
H  44.51700 42.51100 40.22300
H  47.06800 43.77600 39.84800
H  45.94400 44.70900 38.91300
H  50.51400 40.01500 41.78900
H  51.44900 39.56900 43.14400
H  52.30500 40.03400 41.61300
H  55.14900 43.81700 42.98400
H  56.18100 42.43000 43.35500
H  55.34200 43.15400 44.73700
H  54.00900 47.67200 43.34300
H  52.34000 49.52300 44.74500
H  53.56300 48.45500 46.10800
H  54.78700 47.56700 45.26800
H  53.32800 46.68700 45.85100
H  51.53000 49.92900 41.93900
H  53.13800 49.24800 41.92200
H  53.36400 51.28800 43.78200
H  52.34000 52.06600 42.50000
H  53.91800 51.43700 42.13900
H  47.40100 51.53000 43.82100
H  45.85700 51.04000 42.92100
H  47.43300 51.18700 42.14700
H  44.48200 46.43400 41.05200
H  41.97500 45.04000 44.86100
H  41.55300 46.78200 44.55700
H  42.52800 46.37700 45.92400
Mg 49.19800 35.66200 28.46800
C  47.05500 34.16400 30.73000
C  49.44800 38.44100 30.63700
C  50.86400 37.29900 26.18200
C  48.63500 33.04100 26.24400
N  48.37500 36.16600 30.46900
C  47.61800 35.35800 31.30300
C  47.46900 36.01400 32.63900
C  47.79900 37.52900 32.41400
C  48.59300 37.38500 31.07200
C  46.58600 38.43300 32.33600
C  48.11200 35.18600 33.72100
C  49.51600 35.62400 34.33700
H  49.64700 36.38400 35.60900
N  50.26900 37.52300 28.45600
C  50.20400 38.48600 29.47800
C  50.99400 39.61800 29.01000
C  51.55600 39.27800 27.73300
C  50.86100 38.03000 27.37800
C  51.17100 40.80600 29.85800
C  52.57200 39.99300 26.79800
O  52.86800 39.54000 25.73400
C  53.27400 41.35000 27.24800
N  49.54700 35.28300 26.43400
C  50.33400 36.10700 25.68500
C  50.50200 35.55400 24.26300
C  49.83300 34.14600 24.31400
C  49.39600 34.11300 25.76100
C  49.88600 36.47100 23.15300
C  50.68500 32.86500 23.97800
C  51.38500 32.60200 22.64700
N  48.13400 33.89900 28.46500
C  48.04100 32.93300 27.50700
C  47.16100 31.87400 28.03400
C  46.66100 32.38400 29.28100
C  47.34600 33.58400 29.49100
C  46.73000 30.59100 27.45300
C  45.75200 32.06000 30.36800
O  45.06700 31.09100 30.58300
C  45.97000 33.23000 31.35500
C  46.23500 32.74500 32.72200
O  47.14300 32.05100 33.04800
O  45.18900 33.04300 33.51500
C  45.19700 32.61800 34.92700
H  49.56200 39.30100 31.30000
H  51.52800 37.64000 25.38500
H  48.37100 32.26600 25.52200
H  46.41400 35.90300 32.88800
H  48.52800 37.96400 33.09800
H  45.72700 37.80800 32.09700
H  46.77200 39.14800 31.53400
H  46.36800 38.86900 33.31100
H  48.33200 34.22700 33.25200
H  47.47600 35.03100 34.59200
H  50.00200 36.26900 33.60500
H  50.13700 34.72800 34.31900
H  52.18400 40.70800 30.24900
H  50.60900 40.89600 30.78700
H  51.11500 41.68800 29.22000
H  53.42800 41.17300 28.31300
H  52.58100 42.18400 27.13900
H  54.26400 41.44900 26.80400
H  51.56800 35.42600 24.07900
H  48.84000 34.12000 23.86500
H  50.71200 36.86300 22.56000
H  49.21100 37.23700 23.53500
H  49.26400 35.96800 22.41300
H  49.97600 32.04500 24.09000
H  51.51300 32.66800 24.66000
H  52.46100 32.59000 22.82300
H  51.24600 33.46800 22.00100
H  51.08300 31.69600 22.12200
H  47.68100 30.06000 27.40900
H  46.38700 30.77900 26.43500
H  45.99300 30.12500 28.10700
H  45.00800 33.73400 31.44600
H  44.25200 32.87000 35.40900
H  46.04800 33.05300 35.45100
H  45.27000 31.53100 34.94800

