158

Mg 25.85300 0.66100 28.83900
C  27.75900 0.50100 31.74700
C  22.97400 1.06800 30.81200
C  24.08000 0.82100 26.03500
C  28.65000 -0.36600 27.06600
N  25.46300 0.52300 31.00300
C  26.38900 0.58400 32.04800
C  25.72300 0.92700 33.39600
C  24.17000 0.82000 33.09100
C  24.18100 0.76200 31.49500
C  23.43300 -0.35900 33.74500
C  26.11300 2.20300 34.04300
C  26.55500 2.17800 35.52600
H  26.05600 3.31200 36.45600
N  23.84100 0.85500 28.41600
C  22.84000 1.12100 29.36000
C  21.59500 1.30800 28.64800
C  21.84700 1.33400 27.27100
C  23.23500 0.99500 27.21300
C  20.25000 1.34800 29.38300
C  20.87400 1.65200 26.15900
O  21.08300 1.37200 24.95600
C  19.62400 2.38500 26.47400
N  26.26400 0.10100 26.85900
C  25.39600 0.44300 25.86300
C  26.10100 0.25500 24.48100
C  27.57300 0.11800 24.87800
C  27.48600 -0.05000 26.36600
C  25.55400 -0.81700 23.41900
C  28.42700 1.29400 24.34000
C  29.07600 0.95200 23.02800
N  27.79300 0.12000 29.25000
C  28.83900 -0.25500 28.42400
C  30.05600 -0.44900 29.11000
C  29.65200 -0.09300 30.47000
C  28.28700 0.24300 30.47900
C  31.35000 -0.95400 28.59100
C  30.13400 0.05100 31.80900
O  31.26600 -0.18700 32.32600
C  28.92700 0.52600 32.70200
C  28.82600 -0.49500 33.81600
O  28.54100 -1.68600 33.65300
O  29.20900 0.08800 35.04400
C  29.16200 -0.92200 36.16100
H  22.16400 1.36300 31.48300
H  23.61600 0.95100 25.05500
H  29.62000 -0.49900 26.58200
H  25.89200 0.05700 34.03200
H  23.65200 1.70400 33.46200
H  24.13300 -1.17200 33.93700
H  22.67700 -0.71100 33.04300
H  22.89300 -0.03600 34.63500
H  25.24100 2.85400 33.97300
H  26.90500 2.61000 33.41400
H  27.61500 2.42300 35.47200
H  26.39900 1.26200 36.09600
H  19.98600 2.39400 29.53600
H  20.27500 0.75300 30.29600
H  19.49000 0.93400 28.71900
H  19.84500 3.19900 27.16400
H  18.80800 1.72700 26.77300
H  19.24500 2.92000 25.60300
H  26.08000 1.15900 23.87300
H  27.87900 -0.79000 24.36000
H  24.66500 -1.20500 23.91500
H  26.13800 -1.68300 23.10800
H  25.14500 -0.44500 22.47900
H  29.29000 1.46100 24.98600
H  27.92900 2.23100 24.09100
H  29.12400 1.88700 22.47000
H  28.55600 0.22600 22.40300
H  30.12100 0.73000 23.24300
H  31.83500 -0.24300 27.92200
H  31.19000 -1.89100 28.05700
H  32.03400 -1.13900 29.42000
H  29.04200 1.51900 33.13600
H  28.19000 -1.14900 36.59900
H  29.83500 -0.57900 36.94600
H  29.61700 -1.84100 35.79100
Mg -5.26600 24.65100 26.89900
C  -3.89400 26.54000 29.54500
C  -6.81400 22.65900 29.19800
C  -6.45600 22.76900 24.43500
C  -2.94800 26.28800 24.82000
N  -5.17600 24.56500 29.09200
C  -4.73000 25.50600 29.97200
C  -5.16300 25.19500 31.38700
C  -5.69600 23.68700 31.24600
C  -5.93100 23.59900 29.77200
C  -4.72000 22.59300 31.77500
C  -6.20500 26.23100 31.85400
C  -6.63300 26.34300 33.38500
H  -5.88600 25.38300 34.32500
N  -6.61700 23.09600 26.79900
C  -7.16900 22.39700 27.86300
C  -8.15700 21.44100 27.41900
C  -8.09700 21.49300 26.05200
C  -7.04700 22.48300 25.67600
C  -9.12200 20.72300 28.42300
C  -8.99600 20.78900 25.17700
O  -8.99700 21.07400 23.99200
C  -9.87500 19.63500 25.51500
N  -4.81100 24.61000 24.92500
C  -5.40600 23.61100 24.09700
C  -4.73600 23.61500 22.72000
C  -3.64700 24.79800 22.89000
C  -3.75200 25.28300 24.29000
C  -4.21100 22.20700 22.44800
C  -3.69700 25.87100 21.76600
C  -2.37000 26.07800 20.99400
N  -3.61200 26.07100 27.05800
C  -2.86600 26.75500 26.11300
C  -2.24200 27.86900 26.74100
C  -2.51800 27.76900 28.06800
C  -3.45100 26.72500 28.22500
C  -1.36000 28.87400 26.00000
C  -2.27200 28.34900 29.40300
O  -1.48900 29.17400 29.78900
C  -3.23500 27.63900 30.31400
C  -2.40800 27.20000 31.44700
O  -1.53300 26.29200 31.35700
O  -2.77300 27.91100 32.60100
C  -2.03800 27.65600 33.80700
H  -7.25600 22.02800 29.97300
H  -6.80400 22.13400 23.61700
H  -2.38800 26.92700 24.13500
H  -4.27400 25.10000 32.00900
H  -6.67800 23.63500 31.71500
H  -3.87600 22.91600 32.38500
H  -4.49700 21.92400 30.94400
H  -5.21200 21.91500 32.47300
H  -7.16700 26.11100 31.35500
H  -5.88400 27.25700 31.67100
H  -7.69300 26.15900 33.55900
H  -6.41400 27.38200 33.63300
H  -10.16100 20.95900 28.19100
H  -8.90100 20.88800 29.47700
H  -9.05400 19.63600 28.37200
H  -10.40100 19.17600 24.67800
H  -10.70800 19.89600 26.16900
H  -9.21400 18.86800 25.91800
H  -5.57900 23.90700 22.09400
H  -2.66800 24.31800 22.89500
H  -4.12600 21.51000 23.28100
H  -3.33500 22.23400 21.80000
H  -4.96300 21.71600 21.83000
H  -4.01600 26.84400 22.13900
H  -4.46200 25.52100 21.07300
H  -1.57800 25.55600 21.53100
H  -2.13700 27.14200 20.97100
H  -2.44000 25.76300 19.95300
H  -1.76400 29.34700 25.10500
H  -0.55200 28.25100 25.61800
H  -0.92000 29.56900 26.71600
H  -3.99200 28.32800 30.68800
H  -1.47300 26.72500 33.85200
H  -2.81500 27.55600 34.56600
H  -1.43600 28.47000 34.20900

