158

Mg 16.39600 -2.84200 27.29400
C  15.75900 -0.92900 30.17000
C  18.13600 -5.16300 29.20900
C  17.71100 -4.10900 24.46200
C  14.79800 -0.29900 25.36000
N  16.91700 -2.97800 29.37100
C  16.44600 -2.14200 30.35700
C  17.01700 -2.61000 31.73500
C  17.71800 -4.00700 31.41300
C  17.58900 -4.09500 29.89100
C  19.22400 -4.06300 31.94900
C  15.87500 -2.56400 32.87700
C  16.20100 -1.82300 34.18400
H  17.60000 -1.49600 34.63700
N  17.72600 -4.44900 26.92000
C  18.18800 -5.39700 27.77500
C  18.80200 -6.50100 27.03400
C  18.66100 -6.18400 25.62000
C  17.99900 -4.80500 25.61700
C  19.44300 -7.71900 27.62400
C  19.03700 -7.04300 24.38800
O  18.73800 -6.78800 23.23000
C  19.77100 -8.36200 24.43300
N  16.35900 -2.22500 25.17800
C  17.01300 -2.91800 24.26100
C  16.76900 -2.32300 22.81600
C  15.66300 -1.20300 23.14300
C  15.53500 -1.21800 24.62400
C  18.11100 -1.60500 22.30900
C  14.20600 -1.38800 22.49100
C  12.99600 -1.69800 23.31500
N  15.38600 -0.93600 27.66200
C  14.74600 -0.08300 26.75000
C  14.14100 1.01200 27.53100
C  14.58600 0.81000 28.83400
C  15.29300 -0.45100 28.89300
C  13.32500 2.12500 26.93400
C  14.37300 1.18900 30.26700
O  13.76300 2.15100 30.74600
C  15.25800 0.16500 31.09600
C  16.39100 1.07400 31.49100
O  17.24300 1.49600 30.70700
O  16.31900 1.41800 32.79500
C  17.19700 2.43500 33.28000
H  18.50500 -6.03700 29.75100
H  18.00900 -4.45300 23.46900
H  14.35600 0.48500 24.74200
H  17.79400 -1.93400 32.09100
H  17.10600 -4.81900 31.80600
H  19.26700 -4.73200 32.80900
H  19.64100 -3.09100 32.21100
H  19.84600 -4.37200 31.10900
H  15.48900 -3.52800 33.20900
H  14.94900 -2.14600 32.48100
H  15.80700 -2.48100 34.95800
H  15.55900 -0.94400 34.24200
H  19.68700 -7.62600 28.68200
H  20.39600 -7.74100 27.09600
H  18.80500 -8.58700 27.45900
H  20.75600 -8.24800 24.88700
H  19.90700 -8.67800 23.39900
H  19.10200 -9.02000 24.98700
H  16.40800 -3.09400 22.13500
H  16.03000 -0.23000 22.81700
H  18.14400 -0.57600 22.66600
H  18.11800 -1.40900 21.23700
H  19.02800 -2.15100 22.53000
H  14.33300 -2.18500 21.75800
H  14.02500 -0.44100 21.98300
H  12.52300 -0.72200 23.42700
H  13.08500 -2.29200 24.22500
H  12.32100 -2.23500 22.64900
H  13.94100 2.80600 26.34700
H  12.87100 2.68600 27.75100
H  12.49200 1.67100 26.39700
H  14.73800 -0.17300 31.99300
H  16.97600 3.36000 32.74800
H  18.26300 2.23200 33.17500
H  16.85200 2.58500 34.30300
Mg 35.31100 1.79700 29.95700
C  32.83000 2.84200 32.17700
C  37.54800 1.85700 32.64100
C  37.71800 1.19800 27.83400
C  32.90000 2.10300 27.35700
N  35.23700 2.48300 32.08400
C  34.10000 2.71600 32.80000
C  34.31500 2.85100 34.27100
C  35.89100 2.85800 34.47200
C  36.29300 2.40300 32.92400
C  36.54800 4.29300 34.78400
C  33.69500 1.63100 35.08500
C  33.60700 1.86700 36.60500
H  34.03500 3.22800 37.27500
N  37.32200 1.47500 30.22900
C  38.05100 1.48200 31.36500
C  39.44700 0.95700 31.18600
C  39.53300 0.78200 29.73300
C  38.16400 1.14300 29.17300
C  40.56400 0.89600 32.25900
C  40.56400 0.09700 28.89100
O  40.39000 -0.25300 27.72100
C  41.88300 -0.28700 29.54200
N  35.21500 1.72200 27.94300
C  36.42000 1.34900 27.30700
C  36.08200 1.18700 25.78500
C  34.56400 1.55400 25.65600
C  34.17000 1.85400 27.04400
C  36.98700 2.09100 24.84100
C  33.70700 0.46300 24.92300
C  33.35700 0.75300 23.43500
N  33.19800 2.30800 29.69500
C  32.36100 2.35300 28.63900
C  31.00800 2.63800 29.04900
C  31.10900 2.83900 30.44100
C  32.53600 2.65800 30.78800
C  29.73300 2.84900 28.30600
C  30.40700 3.11200 31.65800
O  29.19200 3.18500 31.82200
C  31.50800 3.18500 32.77300
C  31.42200 4.60200 33.33400
O  31.84900 5.62500 32.78600
O  30.88800 4.48100 34.60300
C  30.64900 5.75300 35.19600
H  38.27100 1.69600 33.44400
H  38.49600 0.86700 27.14200
H  32.16000 2.22100 26.56300
H  33.96800 3.83000 34.60100
H  36.22300 2.15300 35.23500
H  37.29200 4.41300 33.99700
H  37.17800 4.16400 35.66400
H  35.83500 5.10400 34.93300
H  34.42700 0.82300 35.07500
H  32.77200 1.37900 34.56300
H  34.17900 1.03900 37.02200
H  32.57100 1.81500 36.93800
H  40.58500 -0.12100 32.65100
H  40.47900 1.67000 33.02200
H  41.54100 1.16500 31.85800
H  41.76300 -0.91300 30.42600
H  42.42000 0.62600 29.79800
H  42.39500 -0.87000 28.77600
H  36.24400 0.12000 25.63000
H  34.65000 2.47500 25.08000
H  37.53500 1.39700 24.20400
H  37.62600 2.73600 25.44400
H  36.46400 2.76500 24.16200
H  32.82500 0.25300 25.52800
H  34.14400 -0.53500 24.93600
H  33.46300 -0.11900 22.78900
H  33.89000 1.63300 23.07300
H  32.28700 0.95400 23.46700
H  29.20100 1.93200 28.05400
H  30.03100 3.36700 27.39400
H  29.21900 3.66300 28.81700
H  31.18800 2.41300 33.47400
H  31.36600 6.51600 34.89400
H  30.76200 5.52300 36.25600
H  29.62200 6.10700 35.10600

