158

Mg 54.64200 23.99800 45.57400
C  52.23000 26.40800 44.64400
C  52.34200 21.50000 44.54900
C  57.05900 21.66400 45.67700
C  56.72900 26.47000 46.47400
N  52.60600 23.93300 44.51200
C  51.77700 25.08500 44.37800
C  50.45900 24.62500 43.74500
C  50.42600 23.12900 44.16400
C  51.87800 22.77900 44.42400
C  49.52800 22.75400 45.39600
C  50.47100 24.93100 42.22000
C  50.63800 23.76900 41.16300
H  51.85400 22.79900 41.17300
N  54.72100 21.82600 45.16200
C  53.67300 21.07500 44.76000
C  54.14300 19.68400 44.57500
C  55.54800 19.72500 44.87300
C  55.85800 21.08500 45.30400
C  53.25600 18.52400 44.15900
C  56.60400 18.53600 44.72100
O  56.31200 17.39700 44.29000
C  58.06000 18.64900 45.08100
N  56.61000 24.10500 45.77400
C  57.38400 23.02000 45.91300
C  58.87700 23.43400 46.21300
C  58.74400 24.93100 46.66400
C  57.26400 25.21400 46.24800
C  59.59300 22.60100 47.21900
C  59.76200 25.87400 45.88300
C  59.78600 25.99000 44.34000
N  54.48200 26.07600 45.75900
C  55.46900 26.99800 46.12900
C  54.83100 28.28800 46.23400
C  53.59500 28.14500 45.55900
C  53.44000 26.76700 45.32900
C  55.40500 29.54600 46.86800
C  52.37600 28.78300 45.11400
O  52.12200 29.97300 45.12500
C  51.55100 27.75500 44.42800
C  51.45800 28.04300 43.02200
O  52.43200 28.23900 42.27700
O  50.18400 28.08200 42.58800
C  49.95300 28.30100 41.11200
H  51.60200 20.73100 44.31800
H  57.98400 21.11200 45.85700
H  57.38200 27.20700 46.94700
H  49.72100 25.18900 44.31600
H  49.96700 22.35600 43.54700
H  49.07400 23.58900 45.93000
H  50.19700 22.18000 46.03700
H  48.75600 22.05200 45.08000
H  51.36600 25.55300 42.21600
H  49.57900 25.51300 41.99000
H  50.59500 24.26000 40.19100
H  49.73600 23.16400 41.25800
H  52.94100 18.69800 43.13000
H  52.44100 18.30300 44.84700
H  53.87400 17.62900 44.09000
H  58.55900 17.70500 44.86300
H  58.12200 18.89300 46.14100
H  58.52500 19.47800 44.54600
H  59.31100 23.45500 45.21300
H  58.77400 25.06900 47.74500
H  60.05600 21.74900 46.72100
H  59.07700 22.50000 48.17400
H  60.49300 23.11600 47.55400
H  60.73800 25.50700 46.19800
H  59.68800 26.87700 46.30300
H  60.74800 25.74700 43.88800
H  59.50200 27.02700 44.16100
H  59.12100 25.22900 43.93300
H  54.99300 29.69000 47.86700
H  55.15200 30.36300 46.19200
H  56.48800 29.48000 46.97400
H  50.58400 27.66000 44.92100
H  50.37700 29.28900 40.93300
H  48.89200 28.26600 40.86600
H  50.47200 27.54200 40.52700
Mg 10.66600 46.55800 25.64700
C  8.64400 46.68500 28.47200
C  13.24000 47.76400 27.48700
C  12.54400 46.14600 22.90500
C  7.75700 46.11700 23.68300
N  10.86800 47.18000 27.70500
C  9.97400 47.06200 28.74100
C  10.52900 47.65900 30.03500
C  11.82600 48.40100 29.54000
C  11.99300 47.74900 28.19300
C  11.62700 49.94300 29.45300
C  10.81600 46.47000 31.05700
C  10.35200 46.59000 32.57800
H  10.44100 45.36900 33.40800
N  12.63800 46.73400 25.24900
C  13.53400 47.21200 26.17900
C  14.88500 47.15800 25.59800
C  14.73300 46.60400 24.27200
C  13.26400 46.41300 24.08200
C  16.14700 47.54800 26.30900
C  15.75400 46.29400 23.22000
O  15.47800 45.88100 22.13600
C  17.22000 46.56100 23.57100
N  10.20800 46.21400 23.57400
C  11.16800 46.09500 22.66600
C  10.62000 45.91000 21.24500
C  9.09000 45.63500 21.57800
C  8.99900 46.07800 22.99200
C  10.90300 47.17400 20.40500
C  8.75300 44.11800 21.29300
C  9.13800 43.06900 22.41600
N  8.68300 46.30300 25.95900
C  7.61400 46.19600 25.06700
C  6.36600 46.19900 25.81800
C  6.71200 46.29900 27.13300
C  8.15100 46.44400 27.20700
C  5.00500 45.98600 25.23700
C  6.13400 46.40500 28.46100
O  4.95700 46.45200 28.79900
C  7.37800 46.84600 29.34100
C  7.28800 45.95800 30.58200
O  7.79100 44.83800 30.67500
O  6.42800 46.56100 31.45800
C  5.99600 45.77800 32.64800
H  14.07700 48.18800 28.04500
H  12.94000 45.81200 21.94400
H  6.91900 46.03000 22.98900
H  9.78800 48.14000 30.67300
H  12.61800 48.18900 30.25800
H  12.27500 50.47000 30.15300
H  10.65400 50.11800 29.91300
H  11.43800 50.31900 28.44700
H  11.89400 46.33200 30.97700
H  10.33200 45.58500 30.64300
H  9.31800 46.91300 32.69900
H  10.91800 47.41600 33.00900
H  16.03800 47.71600 27.38100
H  16.41100 48.47500 25.80000
H  16.88200 46.76000 26.14500
H  17.56500 45.97000 24.42000
H  17.56300 47.59100 23.67300
H  17.81900 46.17000 22.74900
H  11.04000 44.99400 20.82800
H  8.42100 46.22600 20.95200
H  11.65900 47.77300 20.91300
H  9.96300 47.68500 20.20000
H  11.45800 46.78800 19.54900
H  9.41400 43.84500 20.47000
H  7.75600 44.02500 20.86200
H  9.58400 43.51600 23.30500
H  9.92500 42.39100 22.08800
H  8.25400 42.48800 22.68000
H  4.50700 45.08000 25.58400
H  4.87300 46.11900 24.16400
H  4.37100 46.80100 25.58400
H  7.21300 47.89400 29.59200
H  5.15400 45.09700 32.52200
H  5.72200 46.55000 33.36700
H  6.85400 45.41100 33.21000

