158

Mg 9.79400 47.98500 25.80500
C  7.38600 47.88400 28.35800
C  12.12600 49.08000 27.99800
C  11.79100 48.79700 23.20300
C  7.21100 47.30600 23.48000
N  9.72800 48.35600 27.89500
C  8.66900 48.34000 28.77100
C  9.18500 48.60600 30.25600
C  10.52100 49.36700 29.95200
C  10.87900 48.81800 28.54500
C  10.46400 50.98800 30.05000
C  9.50400 47.29400 30.99500
C  9.12700 47.47700 32.49700
H  9.23000 46.17800 33.34300
N  11.78000 48.54200 25.59300
C  12.60800 48.97700 26.60800
C  13.94500 49.33300 26.09000
C  13.89600 48.97900 24.67100
C  12.46300 48.84000 24.40200
C  15.18000 49.74700 26.93000
C  14.96700 48.86200 23.67600
O  14.80000 48.50900 22.49300
C  16.35900 49.00600 24.19600
N  9.42900 48.12900 23.71300
C  10.45900 48.41700 22.92800
C  10.09400 48.14700 21.44400
C  8.79800 47.38900 21.55000
C  8.44400 47.62200 23.00200
C  10.05200 49.46200 20.55800
C  8.75600 45.92400 21.07300
C  7.91900 45.72700 19.77500
N  7.64400 47.69000 25.89700
C  6.75600 47.40400 24.83700
C  5.39300 47.17000 25.41500
C  5.64300 47.30400 26.82300
C  6.95800 47.59500 27.03200
C  4.09700 46.86500 24.55900
C  4.95100 47.24900 28.08000
O  3.83500 46.97800 28.45400
C  6.12800 47.64900 29.17400
C  6.25300 46.43100 29.94100
O  6.80300 45.38300 29.64500
O  5.46700 46.58900 30.97400
C  5.36600 45.46000 31.92200
H  12.96200 49.38700 28.63000
H  12.46800 49.14500 22.42000
H  6.49300 46.98200 22.72300
H  8.61100 49.24400 30.92700
H  11.33300 49.03000 30.59600
H  10.60900 51.35500 29.03300
H  11.07900 51.27400 30.90400
H  9.41800 51.18900 30.28200
H  10.56400 47.05100 30.92200
H  9.08800 46.41000 30.51200
H  8.07300 47.74300 32.57700
H  9.80100 48.23600 32.89500
H  14.72200 50.03800 27.87500
H  15.64900 50.64300 26.52100
H  15.96800 49.01100 27.09000
H  16.53700 50.00300 24.59900
H  16.99700 48.74600 23.35200
H  16.47600 48.29600 25.01500
H  10.84500 47.49500 20.99600
H  8.01700 47.98300 21.07700
H  9.07900 49.57700 20.08000
H  10.76100 49.26800 19.75400
H  10.43000 50.34300 21.07800
H  8.33900 45.21900 21.79300
H  9.81100 45.68000 20.95100
H  7.21700 44.90000 19.87700
H  8.61100 45.57600 18.94700
H  7.34100 46.59000 19.44400
H  3.81700 45.84200 24.80900
H  4.31400 46.86900 23.49100
H  3.43600 47.68200 24.84800
H  6.00800 48.52000 29.81800
H  5.03800 45.93000 32.84900
H  6.28300 44.91100 32.13400
H  4.59200 44.77200 31.58000
Mg -0.74900 34.11000 26.52700
C  -2.58200 32.50500 29.06500
C  0.75600 36.13600 28.93200
C  0.29500 36.12600 24.06800
C  -2.75500 32.35300 24.23500
N  -0.95100 34.33000 28.80100
C  -1.69800 33.48400 29.55900
C  -1.45500 33.87500 31.02200
C  -0.44100 35.15500 30.95600
C  -0.16200 35.24100 29.49100
C  -1.04400 36.41500 31.52900
C  -0.90300 32.62300 31.74500
C  -1.74700 32.14500 33.00900
H  -1.02300 32.03800 34.38900
N  0.41800 35.79600 26.44700
C  1.07500 36.46000 27.57000
C  2.05900 37.42600 27.06900
C  1.86300 37.48200 25.64900
C  0.82600 36.45800 25.35300
C  3.00700 38.08400 28.02800
C  2.50700 38.38700 24.56100
O  2.25700 38.34200 23.37100
C  3.54700 39.21100 25.05500
N  -1.19300 34.19500 24.46000
C  -0.62600 35.14000 23.65300
C  -0.94500 35.00500 22.18800
C  -1.70700 33.62300 22.19900
C  -1.85300 33.30400 23.71300
C  -1.72700 36.15500 21.57900
C  -1.04800 32.45200 21.47900
C  0.06500 31.62800 22.21100
N  -2.23500 32.57300 26.57500
C  -2.90400 31.95900 25.54600
C  -3.84900 31.00000 26.13600
C  -3.79300 31.19600 27.49900
C  -2.77800 32.15900 27.67000
C  -4.70900 30.07400 25.39000
C  -4.27400 30.83800 28.79900
O  -5.21900 30.13000 29.07800
C  -3.55000 31.72100 29.90100
C  -4.59300 32.54700 30.61500
O  -5.04100 33.61000 30.23100
O  -4.94500 31.80700 31.77100
C  -5.86700 32.53900 32.63800
H  1.33100 36.64500 29.70800
H  0.71500 36.74100 23.27000
H  -3.36100 31.80200 23.51300
H  -2.42500 34.30500 31.27000
H  0.49500 34.95700 31.47800
H  -1.63600 36.96500 30.79900
H  -0.25200 37.06200 31.90600
H  -1.57300 36.08400 32.42300
H  0.01700 32.91700 32.25200
H  -0.77100 31.81400 31.02600
H  -2.02200 31.12300 32.74700
H  -2.73300 32.60900 33.02800
H  3.34300 37.38700 28.79600
H  2.50100 38.89600 28.55100
H  3.95100 38.41200 27.59300
H  3.30500 39.93600 25.83100
H  3.90100 39.65400 24.12400
H  4.32600 38.51500 25.37000
H  0.02300 35.00100 21.68700
H  -2.70600 33.67700 21.76600
H  -1.50300 37.04400 22.17000
H  -2.79800 35.97500 21.48700
H  -1.39100 36.45200 20.58600
H  -0.62700 32.91100 20.58400
H  -1.91600 31.84700 21.21500
H  0.29200 32.05000 23.19000
H  0.87900 31.68800 21.48900
H  -0.26900 30.60900 22.40700
H  -5.34500 29.46200 26.03000
H  -4.11800 29.30200 24.89600
H  -5.31800 30.64900 24.69300
H  -3.02700 30.96600 30.48800
H  -6.52200 33.23300 32.11100
H  -5.29100 33.04000 33.41500
H  -6.50000 31.84000 33.18400

