158

Mg 40.69300 10.57900 30.04500
C  42.83400 12.01500 32.56100
C  38.97900 9.05900 32.64900
C  38.87100 9.01300 27.80900
C  43.18500 11.25800 27.76400
N  41.05600 10.53100 32.39500
C  41.77400 11.32700 33.17800
C  41.42900 11.19800 34.64000
C  40.23600 10.15900 34.66800
C  40.08500 9.86500 33.16700
C  40.54900 8.89500 35.48000
C  41.18400 12.60200 35.31300
C  41.54800 12.63300 36.82000
H  40.47300 13.20000 37.75000
N  39.07900 9.37500 30.19100
C  38.53500 8.82500 31.33500
C  37.39700 8.02200 31.02700
C  37.22000 8.07000 29.59200
C  38.39400 8.89800 29.13300
C  36.60600 7.15700 31.97600
C  36.22500 7.45600 28.66100
O  36.29600 7.58600 27.42100
C  35.13700 6.64500 29.21400
N  41.02000 10.10600 28.04000
C  40.06000 9.48500 27.29400
C  40.56000 9.35000 25.84000
C  41.99700 9.96000 25.91100
C  42.07700 10.48100 27.32400
C  40.50000 7.96400 25.22400
C  42.27300 11.11200 24.81300
C  41.74400 12.53300 25.14700
N  42.51300 11.56500 30.09000
C  43.36700 11.79000 29.04700
C  44.48100 12.56600 29.50600
C  44.30600 12.77300 30.88300
C  43.13400 12.03100 31.15100
C  45.64900 12.96300 28.63300
C  44.88200 13.27500 32.06300
O  45.99000 13.72900 32.27100
C  43.81700 12.96900 33.25900
C  44.51800 12.23200 34.40600
O  44.97900 11.06500 34.42700
O  44.73200 13.10700 35.48200
C  45.50700 12.66200 36.65700
H  38.35200 8.64700 33.44300
H  38.28300 8.48100 27.05900
H  44.06200 11.30000 27.11500
H  42.34500 10.78400 35.06200
H  39.37900 10.71900 35.04200
H  40.50600 8.06600 34.77400
H  39.80300 8.76500 36.26500
H  41.52800 8.97400 35.95200
H  40.14600 12.86600 35.11300
H  41.70800 13.47600 34.92700
H  42.46000 13.21000 36.97400
H  41.84500 11.64300 37.16600
H  36.77100 6.13500 31.63300
H  35.52400 7.26500 31.91300
H  36.92900 7.23800 33.01400
H  34.44400 6.31300 28.44200
H  34.52200 7.32600 29.80300
H  35.50200 5.79100 29.78400
H  39.91500 9.99700 25.24400
H  42.81900 9.26700 25.73300
H  39.83600 8.02400 24.36100
H  40.26200 7.16000 25.92000
H  41.46800 7.75400 24.77000
H  41.74800 10.83100 23.90000
H  43.35900 11.02100 24.81100
H  41.27200 12.95100 24.25800
H  42.47900 13.23000 25.54800
H  41.00800 12.49800 25.95000
H  46.45300 13.11300 29.35300
H  45.34000 13.83100 28.05000
H  45.99800 12.07800 28.10100
H  43.37500 13.90900 33.59000
H  44.97100 12.78100 37.59900
H  46.37800 13.31700 36.66900
H  45.86000 11.64200 36.50200
Mg 17.14000 51.15000 25.80700
C  18.83200 49.68300 28.59100
C  14.67900 52.06700 27.98800
C  15.41500 52.21400 23.09900
C  19.52100 49.58300 23.68800
N  16.77200 50.79500 28.00100
C  17.62900 50.28400 28.94800
C  17.07400 50.58100 30.34900
C  15.61800 51.00600 30.10800
C  15.70400 51.33500 28.56600
C  14.60000 49.81700 30.38900
C  17.91600 51.57600 31.16100
C  18.42000 51.13000 32.51600
H  17.83300 51.88600 33.72600
N  15.26900 52.02500 25.54200
C  14.41800 52.37500 26.56800
C  13.28500 53.13000 25.97200
C  13.55200 53.21000 24.58800
C  14.77000 52.45500 24.34000
C  12.05900 53.40900 26.65000
C  12.70000 53.94500 23.50300
O  12.92200 53.98100 22.29100
C  11.51200 54.77200 23.93300
N  17.41800 50.79900 23.67500
C  16.58000 51.50200 22.76200
C  17.16400 51.17000 21.37700
C  18.46900 50.31200 21.58600
C  18.49300 50.25600 23.03200
C  16.22400 50.55900 20.42600
C  19.83300 50.80500 20.98400
C  20.12700 50.18300 19.60800
N  18.90200 49.98300 26.06900
C  19.77800 49.42100 25.09600
C  20.87000 48.65400 25.73500
C  20.53000 48.81500 27.10800
C  19.29000 49.50200 27.24100
C  22.04600 47.99300 25.04800
C  20.90600 48.44200 28.51100
O  21.77600 47.63800 28.89100
C  19.81300 49.09500 29.50400
C  19.20500 48.05700 30.37700
O  18.24400 47.30100 30.10700
O  19.83300 48.02500 31.56700
C  19.39200 47.03100 32.53500
H  13.90500 52.49600 28.62800
H  14.86300 52.56200 22.22400
H  20.25300 49.05900 23.06900
H  16.98200 49.59900 30.81200
H  15.31800 51.89200 30.66600
H  14.82100 49.27200 31.30700
H  14.67500 49.18700 29.50400
H  13.54400 50.08300 30.44000
H  17.37100 52.47800 31.43700
H  18.70000 51.98500 30.52300
H  19.47500 51.40200 32.49900
H  18.38500 50.04500 32.60900
H  11.17700 52.92000 26.23600
H  11.91900 54.48800 26.58700
H  12.15700 53.05200 27.67500
H  11.13900 55.33200 23.07600
H  11.88000 55.54200 24.61300
H  10.72100 54.10700 24.27900
H  17.42400 52.14800 20.97200
H  18.34500 49.25500 21.35200
H  16.57600 50.89700 19.45100
H  15.23300 50.91100 20.71300
H  16.27900 49.47900 20.56000
H  20.73800 50.58500 21.55100
H  19.87500 51.88700 20.86200
H  19.35800 49.48000 19.28800
H  21.11700 49.75700 19.45000
H  20.10700 51.03200 18.92500
H  22.57600 48.71200 24.42300
H  21.76600 47.19400 24.36300
H  22.71500 47.67400 25.84700
H  20.06900 49.87500 30.22100
H  19.73800 46.05200 32.20400
H  18.33000 47.08500 32.77500
H  19.89800 47.24200 33.47700

