158

Mg 8.90100 3.47400 27.38400
C  10.48700 2.01000 30.29700
C  7.24000 5.48100 29.63500
C  7.00800 4.47100 24.80000
C  10.64500 1.22300 25.49800
N  8.85600 3.64700 29.73200
C  9.59300 3.05500 30.65900
C  9.33500 3.54700 32.07900
C  8.15400 4.49800 31.87600
C  8.04200 4.60600 30.34500
C  6.86500 3.98200 32.55500
C  10.61700 4.25800 32.69100
C  11.20400 3.80800 34.04100
H  10.38400 3.31400 35.24800
N  7.38500 4.86100 27.23900
C  6.90400 5.60600 28.24300
C  6.04100 6.53200 27.64700
C  5.82500 6.22700 26.28700
C  6.73600 5.15600 26.01600
C  5.28500 7.57000 28.44700
C  4.85600 6.84100 25.21000
O  4.83400 6.44600 24.07300
C  3.80800 7.91800 25.56700
N  8.76000 2.84300 25.46900
C  7.96200 3.47300 24.55500
C  8.24100 3.00500 23.16500
C  9.33800 1.90600 23.37200
C  9.66600 2.00800 24.83700
C  7.00200 2.54300 22.30500
C  10.56000 1.95200 22.44200
C  10.58300 0.93100 21.25700
N  10.29900 2.04600 27.78500
C  10.94100 1.24600 26.88000
C  11.86600 0.39200 27.56700
C  11.73900 0.71700 28.88400
C  10.77800 1.67100 28.97300
C  12.74400 -0.63200 26.92400
C  12.17500 0.33600 30.18500
O  13.02800 -0.49800 30.50900
C  11.45100 1.26500 31.10400
C  10.78800 0.45900 32.16400
O  9.67200 -0.04800 32.13300
O  11.48100 0.69200 33.32900
C  10.85800 0.09200 34.51300
H  6.78800 6.19600 30.32500
H  6.46800 4.79100 23.90600
H  11.30700 0.58000 24.91400
H  9.03300 2.70200 32.69800
H  8.30100 5.44700 32.39100
H  6.12700 3.92200 31.75500
H  6.53600 4.79700 33.19900
H  6.92600 3.05600 33.12800
H  10.35000 5.28500 32.94000
H  11.43600 4.25800 31.97200
H  12.00400 4.46600 34.38300
H  11.85100 3.03300 33.63000
H  5.68500 8.52900 28.11800
H  5.40000 7.53300 29.53100
H  4.21700 7.58300 28.22900
H  3.23300 8.24300 24.70000
H  4.24200 8.78700 26.06200
H  3.16500 7.35000 26.23900
H  8.71400 3.83300 22.63800
H  9.00600 0.87100 23.29500
H  7.23500 1.54800 21.92700
H  6.94700 3.25500 21.48200
H  6.06500 2.46000 22.85600
H  11.47500 1.79700 23.01400
H  10.59900 2.90900 21.92200
H  10.98600 1.45300 20.38900
H  9.56700 0.66100 20.96900
H  11.19700 0.04100 21.39700
H  12.11700 -1.25200 26.28200
H  13.17400 -1.39600 27.57200
H  13.49500 -0.02800 26.41500
H  12.26400 1.87500 31.49500
H  10.74800 -0.99200 34.50800
H  9.88600 0.54600 34.70600
H  11.61300 0.45000 35.21300
Mg 17.50300 -1.29000 27.17500
C  16.53400 0.56700 29.93900
C  19.44000 -3.29800 29.12900
C  18.73300 -2.82200 24.39200
C  15.82000 1.04200 25.12000
N  17.97100 -1.30200 29.23400
C  17.38100 -0.52500 30.24800
C  17.84700 -0.92900 31.67800
C  18.88100 -2.08400 31.31800
C  18.80200 -2.18900 29.79200
C  20.33900 -1.69100 31.73000
C  16.73000 -1.35700 32.67900
C  16.75000 -0.77800 34.14400
H  18.02400 -0.34200 34.76500
N  18.74300 -3.00700 26.82300
C  19.43200 -3.68900 27.78600
C  20.10900 -4.82400 27.18100
C  19.87400 -4.77000 25.81900
C  19.09700 -3.47500 25.56400
C  21.12300 -5.74000 27.88100
C  20.23000 -5.77000 24.70000
O  19.88200 -5.64500 23.55000
C  21.04000 -7.06200 24.96500
N  17.32300 -0.86000 25.07800
C  17.91700 -1.72300 24.14200
C  17.80100 -0.96000 22.78300
C  16.54500 -0.06000 22.96200
C  16.60500 0.10200 24.45800
C  19.17300 -0.30300 22.41900
C  15.26600 -0.71500 22.37200
C  14.37500 0.34300 21.71500
N  16.34500 0.50600 27.40300
C  15.65400 1.27000 26.51900
C  14.97600 2.29200 27.24900
C  15.32600 2.09400 28.54100
C  16.09900 0.92400 28.64100
C  14.02300 3.35900 26.67300
C  15.03800 2.54200 29.93500
O  14.34100 3.46600 30.41700
C  15.88100 1.56200 30.85400
C  16.92300 2.45800 31.62800
O  17.96100 2.89600 31.12400
O  16.45000 2.58000 32.93200
C  17.31000 3.54400 33.69900
H  20.09900 -3.93900 29.72000
H  19.09200 -3.28800 23.47200
H  15.18900 1.70900 24.52800
H  18.40300 -0.11200 32.13800
H  18.65300 -3.04000 31.78900
H  20.40600 -0.95400 32.53000
H  21.03200 -1.43600 30.92900
H  20.86400 -2.49100 32.25200
H  16.64100 -2.43700 32.79700
H  15.78300 -1.08700 32.21300
H  16.31000 -1.53300 34.79600
H  16.10900 0.10300 34.09300
H  20.56700 -6.67700 27.90000
H  21.40800 -5.56400 28.91900
H  22.05000 -5.86000 27.32000
H  21.17300 -7.75800 24.13700
H  20.54200 -7.55900 25.79800
H  22.05700 -6.84100 25.28600
H  17.61200 -1.69500 22.00100
H  16.77000 0.87200 22.44500
H  19.06600 0.78100 22.46300
H  19.45900 -0.67800 21.43700
H  19.88000 -0.57800 23.20200
H  14.74900 -1.06000 23.26700
H  15.43100 -1.41600 21.55400
H  14.86400 1.31700 21.67600
H  13.37200 0.36700 22.14000
H  14.25600 0.14800 20.64900
H  14.40800 4.37200 26.79300
H  13.12100 3.26400 27.27800
H  13.67500 3.36400 25.64000
H  15.16900 1.07600 31.52100
H  17.16100 4.47400 33.15000
H  18.33500 3.17700 33.74100
H  17.03700 3.72400 34.73900

