158

Mg 44.39400 3.04400 46.66300
C  42.56700 5.95600 46.21100
C  41.57100 1.26100 46.15700
C  46.50000 0.42100 46.40100
C  47.36300 5.12900 46.27000
N  42.26700 3.56100 46.05100
C  41.75400 4.84400 45.95800
C  40.17700 4.75600 45.98300
C  39.95600 3.27300 46.11400
C  41.30300 2.63800 46.17100
C  39.04400 2.75900 47.22700
C  39.55000 5.43000 44.76300
C  40.10700 4.80200 43.39600
H  40.99500 5.53800 42.49200
N  44.07400 1.15400 46.28500
C  42.80400 0.57300 46.10800
C  43.01900 -0.87100 46.00100
C  44.41400 -1.10000 45.93700
C  45.12000 0.20300 46.24000
C  41.92300 -1.87400 45.89000
C  45.16000 -2.44600 45.67100
O  44.61500 -3.49300 45.45000
C  46.58400 -2.54900 45.50400
N  46.59700 2.80800 46.43900
C  47.20600 1.60500 46.55800
C  48.76100 1.71900 46.69800
C  48.92900 3.22900 46.30800
C  47.52200 3.71700 46.38800
C  49.17500 1.22500 48.15200
C  49.60800 3.43300 44.92200
C  51.10500 3.70800 44.92200
N  44.90900 5.09000 46.40100
C  46.10600 5.78900 46.34500
C  45.92000 7.21700 46.36000
C  44.48500 7.28100 46.36700
C  43.97300 5.98900 46.33800
C  46.99200 8.17900 46.37100
C  43.43500 8.21200 46.33900
O  43.47300 9.47800 46.31300
C  42.08300 7.41900 46.17700
C  41.27000 7.61800 47.47500
O  41.09000 6.79100 48.36100
O  40.53600 8.83000 47.44600
C  39.42000 8.91100 48.37000
H  40.68100 0.64000 46.03300
H  47.24700 -0.35900 46.56000
H  48.20800 5.81700 46.35400
H  39.71100 5.23900 46.84100
H  39.64800 2.80400 45.18000
H  38.16500 2.27700 46.80100
H  38.79100 3.58300 47.89500
H  39.47700 1.97700 47.85200
H  39.83700 6.48100 44.71100
H  38.46100 5.38400 44.78300
H  39.20000 4.68000 42.80400
H  40.58900 3.82600 43.46300
H  41.52000 -1.94000 44.87900
H  41.07000 -1.59900 46.51000
H  42.16000 -2.90500 46.15100
H  46.93300 -1.72800 44.87700
H  46.80500 -3.54000 45.10700
H  47.05200 -2.55800 46.48800
H  49.13800 0.95000 46.02400
H  49.50700 3.80600 47.03000
H  49.77600 1.95800 48.69100
H  49.72400 0.28500 48.11100
H  48.29300 1.09200 48.77900
H  49.06600 4.00500 44.16800
H  49.70700 2.46300 44.43300
H  51.55600 3.77900 45.91100
H  51.19000 4.64600 44.37200
H  51.62100 2.94300 44.34200
H  47.51900 8.17000 47.32500
H  46.54500 9.17100 46.31300
H  47.57300 7.97100 45.47300
H  41.45500 7.69300 45.32900
H  39.17100 9.96500 48.49500
H  39.45900 8.41600 49.34000
H  38.60100 8.40700 47.85800
Mg 47.05700 45.13800 43.06100
C  43.66700 44.12000 43.23900
C  47.76200 41.69800 42.45000
C  50.12600 45.99000 42.61200
C  46.00400 48.51200 43.40800
N  45.78100 43.14700 42.81200
C  44.49000 43.01400 43.01300
C  44.02300 41.52500 42.71800
C  45.40000 40.81000 42.85900
C  46.38700 41.96700 42.70000
C  45.55300 39.79800 44.03000
C  43.20000 41.23100 41.51800
C  43.62300 42.01200 40.30700
H  43.19800 41.50700 38.93700
N  48.73600 43.96900 42.42800
C  48.84500 42.54900 42.23300
C  50.21200 42.21300 41.91700
C  50.89900 43.49300 41.85700
C  49.97700 44.57100 42.33100
C  50.72800 40.86400 41.59900
C  52.40700 43.60100 41.53400
O  53.09900 42.65500 41.23200
C  53.06600 44.95700 41.53600
N  47.95500 47.05400 42.95500
C  49.27500 47.09800 42.92900
C  49.73300 48.54100 43.05700
C  48.47200 49.36300 43.35300
C  47.37600 48.28400 43.27100
C  50.96800 48.81600 43.95900
C  48.14600 50.51900 42.29100
C  47.64700 51.73800 42.99000
N  45.23400 46.12900 43.32300
C  44.99800 47.47300 43.42400
C  43.54500 47.70000 43.62000
C  42.98700 46.37800 43.50800
C  44.09000 45.51900 43.30700
C  42.76700 49.04800 43.83100
C  41.73500 45.63800 43.30800
O  40.62000 46.07200 43.13000
C  42.12800 44.15700 43.40600
C  41.80500 43.66400 44.81700
O  42.31900 44.15200 45.76900
O  41.09100 42.50600 44.77600
C  40.87400 41.87900 46.08900
H  47.98300 40.62900 42.44100
H  51.18400 46.25300 42.65700
H  45.78800 49.57300 43.55100
H  43.41300 41.23200 43.57200
H  45.56200 40.21700 41.95900
H  45.97400 38.89500 43.58800
H  44.61400 39.61100 44.55100
H  46.30500 40.23900 44.68500
H  42.12700 41.34400 41.67400
H  43.34900 40.15200 41.48500
H  44.71100 42.05200 40.26000
H  43.30400 43.04200 40.46800
H  49.80900 40.32300 41.37600
H  51.12400 40.36600 42.48400
H  51.30600 40.95900 40.68000
H  52.47400 45.78500 41.14900
H  53.92800 44.78700 40.89100
H  53.36200 45.12700 42.57100
H  50.06300 48.79000 42.04900
H  48.53700 49.72100 44.38100
H  51.08600 47.96700 44.63200
H  50.83500 49.77700 44.45700
H  51.83500 48.91200 43.30600
H  47.39700 50.14000 41.59600
H  49.09200 50.72300 41.78900
H  48.43600 52.48900 42.96100
H  47.33900 51.60400 44.02600
H  46.83100 52.14900 42.39700
H  41.68400 49.05900 43.71100
H  43.13400 49.75500 43.08700
H  43.03800 49.60100 44.73000
H  41.53600 43.53200 42.73800
H  41.86400 41.70400 46.51100
H  40.48600 40.87700 45.90500
H  40.36600 42.65400 46.66200

