158

Mg 40.56700 9.37500 29.40100
C  42.53800 10.78600 31.90700
C  38.64700 7.99700 31.99000
C  38.78600 7.53300 27.08600
C  42.75500 10.40800 27.02100
N  40.62300 9.44600 31.65500
C  41.50100 10.18400 32.42700
C  40.97900 10.23600 33.95900
C  39.65200 9.37400 33.85600
C  39.60000 8.94300 32.40700
C  39.63700 8.18100 34.87500
C  40.59500 11.57900 34.64700
C  39.75400 11.59700 35.99200
H  40.19900 12.60300 37.11500
N  38.90000 7.92800 29.57300
C  38.25100 7.48400 30.70300
C  37.13500 6.56100 30.36200
C  37.22400 6.39200 28.95400
C  38.34300 7.30800 28.48100
C  36.09100 6.00800 31.35500
C  36.38100 5.48100 28.06900
O  36.33500 5.60000 26.85900
C  35.55500 4.40000 28.65800
N  40.78400 8.96900 27.33400
C  39.85400 8.27900 26.59300
C  40.18200 8.36900 25.08100
C  41.42700 9.39200 25.09300
C  41.68300 9.61200 26.57000
C  40.33900 7.05200 24.33100
C  41.21200 10.72800 24.31400
C  40.34400 11.80300 25.03300
N  42.28000 10.33600 29.42800
C  43.13300 10.63700 28.33700
C  44.32300 11.35100 28.92500
C  44.09000 11.37000 30.33400
C  42.83500 10.84300 30.56500
C  45.52300 11.79000 28.06400
C  44.69000 11.81100 31.62600
O  45.73800 12.29800 31.87500
C  43.55200 11.55700 32.67300
C  44.17700 10.77700 33.74800
O  44.64000 9.61300 33.59400
O  44.22700 11.48200 34.94400
C  44.68800 10.67100 36.04200
H  37.87600 7.75400 32.72500
H  38.21900 7.05000 26.28800
H  43.42600 10.65600 26.19500
H  41.66300 9.78300 34.67600
H  38.76400 9.98900 34.00500
H  40.64200 7.78400 35.01700
H  39.03500 7.32300 34.57600
H  39.16300 8.44800 35.82000
H  39.92400 12.05800 33.93400
H  41.47100 12.18000 34.89000
H  39.58100 10.60600 36.41200
H  38.77400 12.02800 35.78800
H  36.10200 4.91800 31.37900
H  35.04200 6.21500 31.14800
H  36.39600 6.36900 32.33700
H  35.02500 3.83500 27.89100
H  34.90700 4.98000 29.31500
H  36.28300 3.82100 29.22500
H  39.23200 8.84200 24.83000
H  42.30400 8.86800 24.71400
H  41.34900 6.64100 24.34200
H  40.11200 7.29900 23.29400
H  39.65300 6.24800 24.59900
H  40.67300 10.38900 23.42900
H  42.12500 11.24200 24.01300
H  39.33000 11.79200 24.63300
H  40.61400 12.82900 24.78300
H  40.29100 11.70000 26.11700
H  46.24900 10.97700 28.04900
H  45.95200 12.59100 28.66600
H  45.20500 12.11200 27.07200
H  43.25900 12.50200 33.12900
H  45.76200 10.79100 36.18500
H  44.30400 9.65600 35.94200
H  44.22000 11.20200 36.87100
Mg 36.53000 49.66000 25.51200
C  36.73700 47.86000 28.37800
C  35.60000 52.48000 27.38100
C  36.12900 51.37000 22.61900
C  37.76800 46.97900 23.69400
N  36.08400 50.13100 27.66600
C  36.37600 49.18000 28.70500
C  36.59200 49.86800 30.01800
C  36.10100 51.31700 29.68600
C  35.80400 51.35700 28.19500
C  34.75300 51.68200 30.51300
C  38.08300 49.77400 30.50800
C  38.36300 49.70600 32.00600
H  37.17700 49.55300 32.96700
N  35.92600 51.69000 25.06700
C  35.61300 52.63900 25.99600
C  35.18500 53.85900 25.26800
C  35.31300 53.62400 23.89600
C  35.73800 52.17700 23.80800
C  34.80100 55.15600 25.97800
C  35.07400 54.49500 22.73000
O  35.31000 54.12100 21.55200
C  34.77300 55.93300 22.85800
N  36.78600 49.19300 23.42500
C  36.58100 50.05500 22.42900
C  36.90800 49.44800 21.06800
C  37.67800 48.26000 21.46600
C  37.39400 48.12100 22.93700
C  35.64800 49.15700 20.23000
C  39.16500 48.29800 21.10100
C  40.15800 47.09100 21.35700
N  36.99000 47.69800 25.87200
C  37.43100 46.75600 25.05300
C  37.65300 45.53500 25.81800
C  37.48000 45.88800 27.19400
C  36.99400 47.25400 27.13300
C  37.97800 44.30900 25.18900
C  37.48300 45.46000 28.61000
O  37.64400 44.39100 29.17200
C  37.00700 46.71900 29.40600
C  35.79900 46.37300 30.22900
O  34.63200 46.63500 29.92700
O  36.17000 45.73400 31.33800
C  35.19400 45.39900 32.38000
H  35.44400 53.42200 27.91200
H  36.04400 51.80300 21.62100
H  38.20700 46.19800 23.06900
H  35.86200 49.38500 30.66800
H  36.83000 52.03800 30.05800
H  34.50000 50.96600 31.29400
H  33.94300 51.83400 29.80000
H  34.76100 52.57300 31.14000
H  38.58100 50.64300 30.07800
H  38.52100 48.94100 29.95700
H  39.03900 50.48000 32.36700
H  38.88800 48.78600 32.26300
H  35.51600 55.94300 25.74100
H  34.76300 55.08700 27.06500
H  33.83200 55.54300 25.66100
H  34.59800 56.37700 21.87800
H  35.64100 56.42200 23.30000
H  33.89600 56.04100 23.49600
H  37.46400 50.15300 20.44900
H  37.25100 47.30400 21.16300
H  34.85100 48.63800 20.76400
H  35.90900 48.61300 19.32200
H  35.30200 50.14400 19.92200
H  39.42100 49.18600 21.67900
H  39.27000 48.67200 20.08300
H  40.84800 47.00500 20.51800
H  39.58600 46.16400 21.41200
H  40.73400 47.27600 22.26400
H  37.61400 44.28200 24.16200
H  37.36000 43.52900 25.63200
H  39.06400 44.25500 25.10900
H  37.70600 47.01300 30.18900
H  35.66300 45.68000 33.32300
H  34.86000 44.36200 32.40900
H  34.26000 45.95100 32.26700

