158

Mg 1.90600 -2.33600 44.20300
C  5.30300 -1.40600 43.87100
C  0.95500 0.39900 42.52600
C  -1.15000 -3.73900 43.62400
C  3.02200 -5.54500 45.25100
N  3.04800 -0.76700 43.17500
C  4.40200 -0.49900 43.35000
C  4.74800 0.91300 42.86000
C  3.31400 1.59700 42.74200
C  2.34200 0.37700 42.87300
C  2.90200 2.69500 43.68600
C  5.66000 0.93100 41.65000
C  5.51100 -0.08200 40.56000
H  5.15000 0.54200 39.15600
N  0.10600 -1.70500 43.31900
C  -0.06500 -0.57900 42.63500
C  -1.44700 -0.37300 42.21700
C  -2.13600 -1.50600 42.68400
C  -1.07200 -2.34100 43.18200
C  -1.95600 0.83000 41.40200
C  -3.61800 -1.65500 42.61200
O  -4.32600 -0.81500 42.06200
C  -4.34000 -2.86700 43.14900
N  1.05800 -4.38900 44.45100
C  -0.24200 -4.63400 44.21300
C  -0.57900 -6.01600 44.67700
C  0.73700 -6.58800 45.17800
C  1.68900 -5.43400 45.04000
C  -1.85800 -6.02900 45.66500
C  1.16500 -7.81900 44.39900
C  2.02300 -8.90300 45.18500
N  3.81300 -3.30900 44.60800
C  4.08100 -4.60000 45.01800
C  5.55300 -4.75400 45.15900
C  6.07200 -3.52900 44.81100
C  5.01700 -2.65700 44.38700
C  6.21700 -5.91300 45.70400
C  7.27100 -2.71300 44.71600
O  8.44500 -2.93000 44.96900
C  6.81200 -1.36000 44.07800
C  7.10400 -0.27900 45.09300
O  6.38800 -0.20400 46.06100
O  8.14700 0.52000 44.80200
C  8.26500 1.79300 45.57400
H  0.53900 1.35600 42.20400
H  -2.14300 -4.18300 43.52200
H  3.39600 -6.47000 45.69400
H  5.30500 1.39500 43.66300
H  3.08400 1.99300 41.75300
H  3.82800 3.10400 44.09000
H  2.31700 2.37400 44.54800
H  2.53400 3.53200 43.09200
H  6.70200 0.88100 41.96700
H  5.44700 1.94900 41.32300
H  4.81100 -0.85800 40.87100
H  6.47900 -0.57700 40.48800
H  -2.59900 0.33600 40.67300
H  -1.16400 1.32100 40.83700
H  -2.60500 1.49600 41.97100
H  -5.40800 -2.76600 43.33900
H  -3.81600 -2.99600 44.09600
H  -4.20200 -3.75700 42.53500
H  -0.97200 -6.45400 43.75900
H  0.75500 -6.87400 46.23000
H  -1.73200 -6.60000 46.58500
H  -2.66900 -6.54700 45.15300
H  -1.98400 -4.95900 45.82800
H  1.71800 -7.55800 43.49700
H  0.28500 -8.42300 44.17500
H  2.85900 -9.18300 44.54500
H  1.39700 -9.76000 45.43200
H  2.39200 -8.48500 46.12200
H  6.31700 -6.71400 44.97200
H  5.82000 -6.35000 46.62100
H  7.23100 -5.60800 45.96100
H  7.40700 -1.22500 43.17500
H  7.29000 2.25900 45.71000
H  8.83700 2.51000 44.98500
H  8.84300 1.58500 46.47400
Mg 7.85100 2.92200 28.23000
C  9.52900 1.36300 31.05200
C  6.33800 5.08900 30.36100
C  6.42500 4.24400 25.58100
C  9.25600 0.27700 26.19200
N  7.92600 3.15900 30.45200
C  8.71400 2.51700 31.35900
C  8.69500 3.32100 32.66500
C  7.60500 4.45800 32.45400
C  7.20400 4.15300 31.02100
C  6.37900 4.21900 33.44500
C  10.12400 3.76700 33.11300
C  10.61000 3.37900 34.52500
H  10.68600 4.50000 35.61500
N  6.56400 4.41200 27.99400
C  5.97200 5.17600 28.98900
C  5.03700 6.10900 28.42100
C  5.16400 5.99500 27.00400
C  6.07400 4.87300 26.77900
C  4.26800 7.23100 29.25400
C  4.47000 6.79500 25.89700
O  4.72300 6.76200 24.70100
C  3.38600 7.71100 26.27000
N  7.83800 2.36500 26.18500
C  7.26700 3.12100 25.27600
C  7.65200 2.67800 23.85400
C  8.53200 1.41200 24.01800
C  8.53500 1.35300 25.60500
C  6.48900 2.46700 22.85700
C  9.89600 1.64400 23.33400
C  11.09600 2.11200 24.09900
N  9.05200 1.01800 28.56000
C  9.54500 0.10200 27.60500
C  10.39700 -0.89400 28.29800
C  10.45600 -0.44300 29.68800
C  9.68200 0.72600 29.73400
C  10.88900 -2.17900 27.65000
C  11.04300 -0.64600 30.96000
O  11.89200 -1.42000 31.41800
C  10.37300 0.48700 31.94600
C  9.63800 -0.19000 32.94600
O  8.63500 -0.83800 32.80500
O  10.26200 0.00000 34.15100
C  9.59700 -0.49400 35.36700
H  5.95300 5.89100 30.99300
H  6.09500 4.79000 24.69400
H  9.64900 -0.43200 25.46100
H  8.51200 2.46500 33.31500
H  8.05000 5.45100 32.40300
H  5.61600 4.98000 33.27700
H  6.67700 4.22400 34.49300
H  5.94800 3.23500 33.26300
H  10.16600 4.85600 33.09300
H  10.80100 3.45100 32.31900
H  11.68800 3.22500 34.48000
H  10.06100 2.50900 34.88700
H  4.43900 8.21400 28.81700
H  4.38300 7.17300 30.33700
H  3.22700 6.96400 29.07000
H  2.70500 8.03200 25.48100
H  3.88700 8.56400 26.72700
H  2.64300 7.22000 26.89900
H  8.20400 3.57500 23.57300
H  7.98500 0.53300 23.67800
H  5.59800 2.90300 23.30700
H  6.28800 1.40200 22.73500
H  6.76100 2.85100 21.87400
H  9.75000 2.34300 22.51100
H  10.21100 0.78700 22.73800
H  11.63500 2.82800 23.47800
H  11.83300 1.36500 24.39300
H  10.83300 2.60300 25.03600
H  10.08600 -2.52700 27.00100
H  10.82200 -3.01300 28.34800
H  11.91400 -2.06500 27.29900
H  11.15400 1.13800 32.33800
H  9.38300 0.31800 36.06100
H  10.23300 -1.25900 35.81200
H  8.72600 -1.09400 35.10400

