158

Mg 25.70000 51.46400 25.83200
C  23.29100 52.10200 28.25400
C  27.96200 50.57600 28.17600
C  27.80900 51.02400 23.36800
C  23.38100 52.90900 23.46400
N  25.70800 51.43300 28.02900
C  24.60000 51.52000 28.75700
C  24.92200 51.13200 30.18800
C  26.41800 50.81900 30.27100
C  26.76500 50.99400 28.77800
C  27.22500 51.68800 31.24600
C  23.89900 50.02300 30.76800
C  22.96200 50.46000 31.90400
H  23.30800 49.91800 33.32500
N  27.65100 50.87300 25.74700
C  28.42500 50.57900 26.81700
C  29.72600 50.15400 26.41800
C  29.77100 50.28600 24.98600
C  28.37200 50.69600 24.62600
C  30.83100 49.69400 27.37200
C  30.89900 49.99700 23.97900
O  30.74200 50.18500 22.79900
C  32.18500 49.43600 24.49800
N  25.61800 52.13100 23.71300
C  26.65100 51.76200 22.96700
C  26.39300 52.17200 21.44000
C  24.86000 52.61700 21.49800
C  24.61600 52.61700 22.98600
C  27.33700 53.28400 21.02000
C  23.86400 51.68600 20.66200
C  23.15400 52.36800 19.44600
N  23.74400 52.27600 25.80900
C  22.96500 52.79200 24.77000
C  21.68900 53.26100 25.27400
C  21.76200 53.03000 26.64000
C  23.05500 52.45100 26.92600
C  20.59900 53.93600 24.48200
C  21.08600 53.15500 27.92300
O  19.99700 53.63200 28.16800
C  22.05400 52.48400 28.99700
C  22.26300 53.52600 30.04500
O  23.15900 54.37700 29.95600
O  21.42700 53.36300 31.11400
C  21.62100 54.33300 32.22300
H  28.60100 50.15300 28.95400
H  28.45000 50.82100 22.50800
H  22.60900 53.34400 22.82600
H  24.72300 52.06000 30.72400
H  26.65400 49.78000 30.50000
H  26.65800 52.31500 31.93400
H  27.94100 52.18700 30.59200
H  27.66500 50.91000 31.87000
H  24.45600 49.12600 31.03800
H  23.25900 49.71100 29.94300
H  21.91500 50.22600 31.71700
H  23.14500 51.53400 31.95400
H  31.02700 48.62600 27.28000
H  30.57400 49.98100 28.39200
H  31.74000 50.22700 27.09300
H  31.99500 48.52200 25.06100
H  32.66400 50.15600 25.16100
H  32.84000 49.16600 23.66900
H  26.59300 51.26300 20.87400
H  24.88200 53.64000 21.12400
H  28.05900 53.57300 21.78400
H  26.76200 54.11200 20.60600
H  28.04800 52.84200 20.32300
H  23.08600 51.31200 21.32800
H  24.28100 50.73300 20.33500
H  23.42100 51.86800 18.51500
H  23.49500 53.39400 19.30800
H  22.06500 52.32200 19.48100
H  20.87300 54.23800 23.47200
H  20.32400 54.90100 24.90900
H  19.69200 53.33200 24.49700
H  21.70800 51.53000 29.39500
H  20.93900 53.95100 32.98300
H  21.40900 55.28500 31.73700
H  22.69300 54.29700 32.41800
Mg 15.85900 52.44700 24.95600
C  17.65200 51.11000 27.79000
C  13.23700 53.23000 26.94000
C  14.16600 53.12200 22.29800
C  18.49600 50.99500 23.06500
N  15.57100 52.17200 27.05500
C  16.41800 51.72200 28.08500
C  15.77200 52.02200 29.43600
C  14.33400 52.39200 29.03400
C  14.33000 52.63200 27.57000
C  13.12400 51.61100 29.64500
C  16.57200 53.06800 30.24000
C  16.86700 52.81400 31.67400
H  16.11000 51.77300 32.53600
N  14.00500 53.22500 24.65400
C  13.05400 53.50800 25.60200
C  11.89800 54.12900 25.00800
C  12.10500 53.95700 23.56200
C  13.45200 53.41400 23.43500
C  10.79900 54.58900 25.83400
C  11.06200 54.21500 22.40600
O  11.37900 54.01500 21.25200
C  9.80800 54.95600 22.75400
N  16.20300 52.03300 22.95000
C  15.37500 52.38100 22.06600
C  15.81000 51.93500 20.62100
C  17.26200 51.43200 20.86600
C  17.32700 51.49900 22.42000
C  14.83400 50.91600 20.01100
C  18.35100 52.30200 20.20500
C  18.15500 52.22900 18.65100
N  17.72200 51.25900 25.27700
C  18.65200 50.78300 24.43200
C  19.65200 50.03300 25.09200
C  19.28800 50.15500 26.43800
C  18.10800 50.90600 26.47500
C  20.76700 49.38900 24.43700
C  19.67500 49.77200 27.79700
O  20.69600 49.18800 28.19400
C  18.72400 50.37800 28.70800
C  18.11500 49.26700 29.54500
O  17.40300 48.34800 29.14400
O  18.61700 49.26400 30.83900
C  18.16900 48.12700 31.65100
H  12.41400 53.48700 27.61000
H  13.63000 53.34100 21.37100
H  19.31400 50.59300 22.46300
H  15.72100 51.14000 30.07400
H  14.16400 53.42600 29.33400
H  12.42600 51.27300 28.87800
H  12.42800 52.17100 30.26900
H  13.50500 50.69000 30.08600
H  16.09000 54.04400 30.18400
H  17.53100 53.11500 29.72600
H  16.85400 53.70800 32.29700
H  17.92500 52.58500 31.80800
H  9.94900 53.94100 25.61900
H  10.51200 55.58800 25.50700
H  10.98200 54.72400 26.90000
H  9.16800 55.02800 21.87500
H  10.11300 55.89700 23.21200
H  9.19300 54.36600 23.43300
H  15.63500 52.82900 20.02300
H  17.44300 50.36500 20.73200
H  14.04200 51.39400 19.43400
H  14.30200 50.25600 20.69600
H  15.33000 50.17900 19.38000
H  19.32900 51.86300 20.40300
H  18.34000 53.32300 20.58900
H  17.41600 51.46300 18.41300
H  19.11600 52.02700 18.17800
H  17.74900 53.15700 18.25000
H  20.94000 48.47400 25.00300
H  21.69200 49.96300 24.50200
H  20.47000 49.37400 23.38900
H  19.24500 51.05600 29.38400
H  18.99900 47.42700 31.74800
H  17.44200 47.38000 31.33200
H  17.93000 48.33100 32.69500

