158

Mg -2.62100 17.96100 25.84600
C  -3.11100 16.01800 28.64300
C  -3.04900 20.80800 27.80500
C  -2.85300 19.67700 23.00600
C  -2.26800 14.89300 23.84000
N  -3.14700 18.30500 27.90600
C  -3.09400 17.35800 28.86500
C  -3.28000 18.01400 30.24700
C  -3.25900 19.52400 29.96300
C  -3.06800 19.58900 28.43900
C  -4.54200 20.32200 30.47000
C  -2.39600 17.66100 31.43500
C  -2.81100 18.27800 32.78600
H  -2.83600 17.31700 33.97100
N  -2.87400 19.99100 25.47700
C  -3.05000 21.04200 26.37900
C  -3.15700 22.29200 25.71900
C  -3.14900 21.97300 24.34200
C  -2.99800 20.49900 24.18100
C  -3.27700 23.64700 26.36600
C  -3.24300 22.88000 23.20300
O  -3.25400 22.45000 22.06000
C  -3.47500 24.29400 23.47800
N  -2.51100 17.36400 23.70200
C  -2.55600 18.31200 22.77100
C  -2.38700 17.67100 21.34800
C  -2.03100 16.21300 21.68300
C  -2.24900 16.11000 23.17400
C  -3.64100 17.86100 20.42400
C  -0.57100 15.82900 21.20300
C  0.64500 16.05700 22.08100
N  -2.71000 15.90900 26.14100
C  -2.70700 14.79700 25.23400
C  -3.01700 13.65300 26.01400
C  -3.05900 14.05500 27.39400
C  -2.89900 15.44900 27.36400
C  -3.12900 12.21700 25.51200
C  -3.17400 13.58800 28.71800
O  -3.33500 12.43700 29.05800
C  -3.14200 14.84300 29.64300
C  -1.84000 14.64500 30.35000
O  -0.66700 14.80900 29.90700
O  -2.19000 14.11400 31.57500
C  -1.02700 13.64800 32.36200
H  -2.90100 21.63700 28.50000
H  -3.01600 20.27900 22.11000
H  -1.97200 13.97000 23.33600
H  -4.28900 17.71000 30.52500
H  -2.45400 20.06800 30.45500
H  -4.21900 21.19400 31.03900
H  -5.07200 19.78200 31.25500
H  -5.27900 20.52100 29.69200
H  -1.40400 17.84200 31.02200
H  -2.56700 16.58700 31.50400
H  -3.82000 18.68700 32.73100
H  -2.09800 19.08000 32.97600
H  -2.44500 24.24500 25.99300
H  -3.19500 23.55300 27.44900
H  -4.23200 24.13800 26.17600
H  -3.46800 24.84200 22.53600
H  -2.53400 24.52800 23.97500
H  -4.27200 24.61400 24.15000
H  -1.55500 18.17100 20.85300
H  -2.64600 15.39900 21.30000
H  -3.25600 18.33300 19.52000
H  -4.29300 18.60600 20.88000
H  -4.14400 16.90100 20.30800
H  -0.43400 16.43900 20.31000
H  -0.60400 14.77000 20.94400
H  0.37400 16.72500 22.89900
H  1.43200 16.46100 21.44400
H  1.02800 15.14200 22.53100
H  -3.37900 11.43900 26.23200
H  -2.27400 11.79600 24.98300
H  -3.99600 12.15300 24.85400
H  -4.00400 14.93900 30.30400
H  -0.56000 14.59900 32.61700
H  -0.25900 13.10800 31.80800
H  -1.39700 13.30500 33.32800
Mg 24.47100 -6.58700 47.78800
C  27.01100 -4.21200 46.88500
C  22.35900 -4.88900 45.67700
C  22.39600 -9.08500 48.27800
C  26.97300 -8.28800 49.62300
N  24.77100 -4.86600 46.21900
C  25.84800 -4.05700 46.15400
C  25.58600 -2.90600 45.13100
C  23.91500 -2.86500 45.27500
C  23.58300 -4.30100 45.74500
C  23.28300 -1.71500 46.09600
C  26.23600 -3.26400 43.72500
C  27.26500 -2.24100 43.11600
H  27.36900 -2.32200 41.61200
N  22.60200 -6.94600 47.06000
C  21.87800 -6.14800 46.12400
C  20.63700 -6.80900 45.84000
C  20.53000 -8.00400 46.67200
C  21.90300 -8.07900 47.43300
C  19.71100 -6.41800 44.78300
C  19.39400 -8.94100 46.76400
O  18.41500 -8.67900 46.07700
C  19.37300 -10.23700 47.58300
N  24.74600 -8.50700 48.70300
C  23.67500 -9.27000 48.85200
C  23.94200 -10.50900 49.62800
C  25.35800 -10.18400 50.34200
C  25.74300 -8.95800 49.55500
C  22.85600 -11.02100 50.64400
C  26.42100 -11.34900 50.40200
C  27.06500 -11.36300 51.79500
N  26.52100 -6.33000 48.29100
C  27.44100 -7.11700 49.00900
C  28.75100 -6.46200 49.02700
C  28.56700 -5.36700 48.18300
C  27.28100 -5.36500 47.73000
C  29.95700 -6.96900 49.80000
C  29.25300 -4.10700 47.75300
O  30.31100 -3.61500 48.10200
C  28.30800 -3.34600 46.78600
C  28.17600 -1.88300 47.21100
O  27.74600 -1.40500 48.28400
O  28.43400 -1.12100 46.11000
C  27.98100 0.22000 46.25600
H  21.63300 -4.25300 45.16500
H  21.77400 -9.92900 48.58300
H  27.73000 -8.91500 50.09800
H  26.01300 -2.04300 45.64100
H  23.53400 -2.80200 44.25600
H  24.01200 -0.91100 46.20300
H  23.03200 -2.11900 47.07600
H  22.36200 -1.33800 45.65200
H  25.41300 -3.10000 43.03000
H  26.60500 -4.28600 43.63700
H  28.26400 -2.41400 43.51500
H  27.02100 -1.23200 43.44900
H  19.38200 -7.24100 44.14900
H  20.22000 -5.67500 44.17100
H  18.86600 -5.93500 45.27400
H  19.62800 -9.95600 48.60500
H  19.93700 -11.02700 47.08700
H  18.35100 -10.60900 47.65500
H  24.06600 -11.31600 48.90600
H  25.19400 -9.72700 51.31800
H  23.44500 -11.36300 51.49500
H  22.37300 -11.90200 50.22300
H  22.13100 -10.23100 50.83800
H  27.21100 -11.03600 49.72000
H  26.09500 -12.28300 49.94500
H  27.19700 -12.40600 52.08300
H  26.43800 -10.93400 52.57600
H  28.00400 -10.81700 51.69900
H  29.56300 -7.32300 50.75200
H  30.74600 -6.22100 49.87900
H  30.40300 -7.84400 49.32800
H  28.72000 -3.39100 45.77700
H  28.41500 0.65500 45.35500
H  28.44600 0.77900 47.06800
H  26.90200 0.36100 46.30400

