158

Mg 46.80900 15.00300 27.46900
C  44.87600 15.27900 30.39400
C  49.04600 17.30900 28.89500
C  48.39500 15.28300 24.56400
C  44.34200 13.37300 25.98100
N  46.94100 16.20800 29.41000
C  46.11400 16.00800 30.47000
C  46.71200 16.70700 31.65000
C  47.74900 17.66400 31.07000
C  47.86200 17.19100 29.64900
C  47.58400 19.22700 31.18200
C  47.25900 15.74200 32.74300
C  47.01600 16.06600 34.24400
H  48.14400 15.89000 35.23600
N  48.57000 15.95700 26.86100
C  49.40000 16.76600 27.65500
C  50.61800 17.05900 26.95900
C  50.45500 16.52100 25.67100
C  49.12100 15.84500 25.64100
C  51.82300 17.70500 27.58500
C  51.43900 16.50000 24.48100
O  51.06100 16.09900 23.38500
C  52.89300 16.88000 24.72000
N  46.33200 14.55000 25.55900
C  47.22900 14.66700 24.52000
C  46.70300 13.97100 23.22800
C  45.47800 13.19200 23.75800
C  45.37200 13.74500 25.21200
C  46.34800 15.00200 22.13700
C  45.48000 11.62500 23.58000
C  46.18600 10.70000 24.57200
N  44.95500 14.53600 28.06700
C  44.02400 13.79600 27.28300
C  42.91200 13.49800 28.12600
C  43.18100 14.12200 29.32900
C  44.47300 14.65200 29.28000
C  41.70400 12.69200 27.66800
C  42.63400 14.33400 30.71300
O  41.61500 14.06200 31.31900
C  43.78900 15.11200 31.45000
C  43.27600 16.36700 32.16400
O  42.67200 17.24500 31.58500
O  43.65200 16.23800 33.44400
C  43.32200 17.37900 34.34200
H  49.78500 17.98000 29.33700
H  48.84500 15.24100 23.57000
H  43.59200 12.75100 25.48900
H  45.99300 17.32200 32.19100
H  48.72300 17.46200 31.51600
H  47.33400 19.66900 30.21700
H  48.47000 19.55400 31.72700
H  46.69600 19.36000 31.80000
H  48.32700 15.60000 32.57800
H  46.83400 14.75700 32.54900
H  46.19700 15.45400 34.62300
H  46.60300 17.07200 34.32100
H  51.64000 17.88000 28.64500
H  51.95400 18.66700 27.08800
H  52.79900 17.22000 27.60400
H  53.34300 16.84400 23.72700
H  53.44300 16.21600 25.38700
H  53.00300 17.89400 25.10300
H  47.49500 13.27900 22.94400
H  44.53100 13.57500 23.37800
H  45.68800 14.55200 21.39600
H  47.28700 15.24200 21.63700
H  45.98800 15.84300 22.72900
H  45.87800 11.39000 22.59300
H  44.42800 11.34600 23.51900
H  46.81800 9.99300 24.03500
H  45.35100 10.19000 25.05300
H  46.68800 11.32500 25.31100
H  42.16800 11.87000 27.12300
H  41.00900 13.20900 27.00700
H  41.24100 12.25200 28.55100
H  44.05400 14.34000 32.17100
H  44.29500 17.64400 34.75700
H  42.62400 17.06000 35.11600
H  42.85300 18.26900 33.92400
Mg -0.92500 34.34500 26.79500
C  -1.95500 32.89300 29.78700
C  0.77600 36.73800 28.79500
C  -0.15200 36.05300 24.09900
C  -2.63600 31.93500 25.02300
N  -0.40000 34.58100 29.09500
C  -0.99500 33.89200 30.15200
C  -0.55400 34.32000 31.48200
C  0.17200 35.70200 31.10400
C  0.19600 35.73200 29.55300
C  -0.45100 36.95400 31.78300
C  0.22300 33.20400 32.20300
C  -0.53800 32.66200 33.43400
H  -0.00900 32.77200 34.81500
N  0.28800 36.02900 26.49500
C  0.98800 36.87800 27.35400
C  1.82700 37.82500 26.66000
C  1.66300 37.55800 25.30000
C  0.52300 36.62000 25.18500
C  2.85300 38.64600 27.37800
C  2.35100 38.25200 24.09200
O  1.97300 38.02200 22.92800
C  3.44300 39.29100 24.35400
N  -1.58300 34.14000 24.87700
C  -1.02400 34.92200 23.89500
C  -1.46800 34.49300 22.52900
C  -1.95100 33.04800 22.84400
C  -2.07900 33.00100 24.35400
C  -2.54000 35.42700 21.89800
C  -0.95100 31.94000 22.21500
C  0.25500 31.34100 22.97600
N  -2.12100 32.80400 27.24500
C  -2.78400 31.87200 26.46500
C  -3.40000 30.85000 27.19300
C  -3.21000 31.29300 28.56200
C  -2.38200 32.43900 28.51300
C  -4.47400 29.84200 26.65600
C  -3.43600 30.94300 29.97200
O  -4.01900 30.03200 30.51700
C  -2.80700 32.14600 30.74800
C  -4.00900 32.89700 31.37700
O  -4.57500 33.78700 30.75500
O  -4.57200 32.29000 32.50800
C  -5.81300 32.85600 32.97900
H  1.34500 37.51300 29.31300
H  0.09400 36.55100 23.15900
H  -2.97000 31.09600 24.41000
H  -1.52600 34.66100 31.83700
H  1.20100 35.73600 31.46100
H  0.36400 37.53600 32.21400
H  -1.18000 36.83900 32.58500
H  -0.88200 37.46500 30.92200
H  1.16000 33.63700 32.55500
H  0.47200 32.43900 31.46800
H  -0.79700 31.63500 33.17600
H  -1.45100 33.25600 33.47500
H  3.85400 38.23400 27.24700
H  2.66100 38.71700 28.44800
H  2.87500 39.66400 26.99000
H  2.85600 40.14300 24.69700
H  4.04300 39.53200 23.47600
H  4.13300 39.07400 25.16900
H  -0.60200 34.46800 21.86700
H  -2.92600 32.76200 22.44900
H  -3.05100 35.96600 22.69500
H  -3.40100 35.04300 21.35000
H  -2.10000 36.15900 21.22000
H  -0.61400 32.37200 21.27200
H  -1.62100 31.09300 22.07100
H  0.37700 31.74900 23.98000
H  1.14900 31.50900 22.37600
H  0.13900 30.26400 23.09400
H  -5.44100 30.34400 26.65400
H  -4.44300 28.98900 27.33400
H  -4.24000 29.70800 25.60000
H  -2.17500 31.77400 31.55500
H  -6.32500 32.10100 33.57600
H  -6.41700 33.31700 32.19700
H  -5.65300 33.68600 33.66600

