158

Mg 2.35000 -0.77300 44.38800
C  5.89200 -0.23700 44.06600
C  1.99700 2.08200 42.59900
C  -0.91700 -1.63800 43.98000
C  2.97700 -3.83500 45.86500
N  3.86800 0.58400 43.17300
C  5.23800 0.69200 43.35700
C  5.82000 2.01300 42.69300
C  4.49600 2.83500 42.36800
C  3.39200 1.78300 42.80700
C  4.45800 4.31600 42.90900
C  6.59100 1.72600 41.41200
C  7.66600 2.77300 40.96100
H  7.24300 3.49600 39.75400
N  0.76700 0.12800 43.42800
C  0.80900 1.34300 42.78200
C  -0.54200 1.68000 42.28400
C  -1.42000 0.65100 42.66900
C  -0.52900 -0.36300 43.36300
C  -0.77900 3.00300 41.50600
C  -2.90500 0.63200 42.41000
O  -3.42200 1.58100 41.82500
C  -3.76600 -0.43800 42.81800
N  1.21100 -2.62300 44.61200
C  -0.17000 -2.60600 44.58900
C  -0.69800 -3.95600 45.02100
C  0.53900 -4.58900 45.78700
C  1.72000 -3.64900 45.37300
C  -2.00700 -3.86700 45.87500
C  0.79000 -6.08000 45.48600
C  0.64000 -7.10200 46.65000
N  4.10900 -1.92000 44.88100
C  4.15000 -3.10700 45.54200
C  5.50400 -3.32900 45.87800
C  6.25400 -2.27900 45.30700
C  5.30500 -1.41600 44.70500
C  6.14200 -4.50200 46.59700
C  7.55200 -1.68000 45.20800
O  8.62500 -2.12000 45.66600
C  7.39500 -0.40400 44.27300
C  7.95900 0.81100 44.96600
O  7.71100 1.27600 46.06900
O  8.95300 1.32400 44.10700
C  9.51700 2.59600 44.57700
H  1.99500 3.09800 42.19900
H  -1.99000 -1.83800 43.95400
H  3.17200 -4.70000 46.50300
H  6.50300 2.49000 43.39600
H  4.39500 2.99000 41.29400
H  4.25700 5.15000 42.23600
H  5.38800 4.58500 43.41000
H  3.80400 4.21000 43.77500
H  5.94300 1.48400 40.57000
H  7.18600 0.81300 41.45200
H  8.68600 2.44600 40.75700
H  7.81800 3.52000 41.74000
H  0.11900 3.61500 41.42100
H  -1.52900 3.61800 42.00200
H  -1.07000 2.80200 40.47500
H  -4.80000 -0.23700 42.53600
H  -3.68300 -0.52300 43.90200
H  -3.43800 -1.32900 42.28200
H  -0.99600 -4.50100 44.12500
H  0.42900 -4.46500 46.86400
H  -2.62900 -4.75200 45.74300
H  -2.62500 -3.00400 45.62600
H  -1.77900 -3.84400 46.94100
H  1.77300 -6.11800 45.01500
H  0.09900 -6.40900 44.71000
H  1.52700 -7.72600 46.54100
H  -0.24900 -7.72300 46.54100
H  0.62700 -6.66100 47.64700
H  5.99500 -4.34400 47.66500
H  7.22900 -4.56200 46.53200
H  5.67700 -5.41600 46.22900
H  7.93700 -0.57000 43.34200
H  10.52500 2.75000 44.19200
H  9.63000 2.51100 45.65800
H  8.89900 3.48400 44.45300
Mg 53.75600 24.07000 45.12800
C  51.11400 26.08000 43.76100
C  52.72600 21.41000 43.30400
C  56.69800 22.73200 45.70900
C  54.94600 27.23000 46.49700
N  52.28600 23.84700 43.49400
C  51.27300 24.76000 43.26500
C  50.19500 24.13400 42.43100
C  50.44800 22.54000 42.63300
C  51.90900 22.56800 43.18500
C  49.43500 21.97600 43.68700
C  50.28900 24.54600 40.93900
C  48.89600 24.80400 40.26800
H  48.51100 23.80100 39.20700
N  54.58000 22.26900 44.60800
C  53.99700 21.29200 43.87300
C  54.86600 20.16700 43.86900
C  56.03700 20.49400 44.67800
C  55.78900 21.85800 45.07600
C  54.58200 18.88700 43.11800
C  57.26300 19.58000 44.96400
O  57.21500 18.40800 44.61100
C  58.52100 20.12700 45.67300
N  55.50300 24.88500 45.93500
C  56.57800 24.05000 46.06500
C  57.72600 24.85400 46.73100
C  57.21200 26.26900 46.63900
C  55.77000 26.14000 46.34900
C  58.18000 24.30700 48.08400
C  57.94900 27.20700 45.56700
C  58.55000 28.44300 46.26300
N  53.05200 26.21000 45.40100
C  53.62700 27.25800 46.02800
C  52.71100 28.32900 46.02000
C  51.72700 27.97100 45.08100
C  52.06100 26.65000 44.68900
C  52.84700 29.54800 46.77200
C  50.40900 28.34100 44.47900
O  49.75100 29.36200 44.57200
C  49.96600 27.04900 43.62000
C  49.66200 27.45400 42.22200
O  50.37100 27.89600 41.31800
O  48.34800 27.45000 42.18800
C  47.63800 28.08400 41.01100
H  52.28900 20.47600 42.94400
H  57.68400 22.36000 45.99300
H  55.22600 28.14500 47.02400
H  49.22800 24.42400 42.84300
H  50.35400 21.96200 41.71400
H  49.08900 22.82000 44.28300
H  50.03200 21.35100 44.35100
H  48.59000 21.41800 43.28300
H  50.80100 23.73000 40.42900
H  50.98600 25.37400 40.80800
H  48.95200 25.81300 39.85900
H  48.09000 24.66600 40.98900
H  53.82400 19.15800 42.38300
H  54.21300 18.13900 43.82000
H  55.43300 18.42400 42.61700
H  58.99300 21.02300 45.27200
H  59.27200 19.33800 45.61900
H  58.33200 20.19600 46.74400
H  58.57900 24.70200 46.07000
H  57.26400 26.70200 47.63800
H  58.44500 25.09600 48.78800
H  59.12800 23.79000 47.93600
H  57.46200 23.64900 48.57400
H  57.11700 27.55300 44.95300
H  58.73000 26.69200 45.00800
H  57.90000 29.27200 45.98200
H  59.48300 28.70000 45.76200
H  58.73600 28.30500 47.32800
H  51.90200 29.98400 47.09600
H  53.39100 30.24200 46.13100
H  53.46800 29.46500 47.66400
H  49.02100 26.74600 44.07300
H  47.97800 29.10400 40.83000
H  46.57100 28.10900 41.23200
H  47.78200 27.57400 40.05900

