158

Mg -3.20900 17.42300 27.09600
C  -3.76200 15.23300 29.86500
C  -3.68600 19.97200 29.27900
C  -3.11400 19.42300 24.44100
C  -3.41000 14.64200 24.99600
N  -3.65500 17.52100 29.35600
C  -3.71800 16.56600 30.26500
C  -3.79600 17.14000 31.74400
C  -4.10300 18.66100 31.43500
C  -3.81700 18.75400 29.90700
C  -5.48600 19.24600 31.98600
C  -2.54600 16.80700 32.60500
C  -2.30900 17.61600 33.93300
H  -1.87300 16.73900 35.10500
N  -3.28300 19.41600 26.93500
C  -3.52800 20.30200 27.91500
C  -3.48900 21.63600 27.35500
C  -3.23800 21.53900 25.95200
C  -3.22500 20.07000 25.72200
C  -3.70100 22.88500 28.32900
C  -3.00900 22.59100 24.89500
O  -3.02700 22.40000 23.69100
C  -2.67700 23.99900 25.40900
N  -3.20800 17.04700 25.10400
C  -3.09200 18.05700 24.17300
C  -3.01800 17.45500 22.73900
C  -2.86400 15.96500 22.99100
C  -3.21800 15.88500 24.41800
C  -4.16500 17.91200 21.71600
C  -1.50500 15.36400 22.62400
C  -0.24600 15.98400 23.41600
N  -3.49200 15.40800 27.41300
C  -3.57200 14.37000 26.39500
C  -3.80100 13.04500 26.97600
C  -3.81300 13.40700 28.33800
C  -3.67600 14.77800 28.57400
C  -3.93300 11.69300 26.27000
C  -3.89800 12.79600 29.66000
O  -3.96400 11.64700 29.93800
C  -3.92700 13.96100 30.71400
C  -2.91100 13.65000 31.71900
O  -1.71400 13.88800 31.61300
O  -3.51300 13.02300 32.74300
C  -2.73700 12.59200 33.88200
H  -3.55800 20.76800 30.01600
H  -3.14100 20.08800 23.57600
H  -3.57600 13.83300 24.28200
H  -4.69700 16.73000 32.20100
H  -3.25900 19.18500 31.88400
H  -5.35000 20.13200 32.60600
H  -6.09700 18.50900 32.50900
H  -6.16000 19.54100 31.18200
H  -1.71900 17.04100 31.93400
H  -2.56300 15.75800 32.90000
H  -3.19100 18.20200 34.19100
H  -1.55200 18.35000 33.66000
H  -4.32900 23.66200 27.89300
H  -2.73500 23.37700 28.44000
H  -4.14200 22.73000 29.31400
H  -2.04900 24.13200 26.28900
H  -3.58700 24.52900 25.69200
H  -2.15700 24.62700 24.68500
H  -2.08500 17.78600 22.28200
H  -3.73700 15.49100 22.54100
H  -5.12400 17.73900 22.20300
H  -3.99300 17.45200 20.74300
H  -4.20200 18.99400 21.59500
H  -1.40300 15.33200 21.54000
H  -1.47300 14.32900 22.96200
H  -0.17700 15.86000 24.49700
H  -0.24200 17.05900 23.24100
H  0.68600 15.57200 23.03000
H  -3.22200 10.97800 26.68500
H  -3.87400 11.63900 25.18300
H  -4.92200 11.47900 26.67600
H  -4.93200 13.94400 31.13400
H  -2.10100 11.71900 33.74100
H  -3.40100 12.16100 34.63100
H  -2.20900 13.39100 34.40200
Mg 7.51400 3.07800 27.96200
C  8.98300 1.77100 30.93300
C  5.50800 4.99000 29.96500
C  5.75500 4.04800 25.20800
C  9.21700 0.67100 26.07600
N  7.38600 3.41000 30.27700
C  8.18400 2.85500 31.28000
C  7.61100 3.32000 32.67500
C  6.41800 4.25200 32.29500
C  6.37700 4.16600 30.75000
C  5.08800 3.81600 32.80700
C  8.65600 3.97100 33.61700
C  9.17600 3.22700 34.76500
H  9.87200 3.98000 35.90300
N  5.87100 4.34700 27.63400
C  5.22900 5.06000 28.59000
C  4.21000 5.85000 27.99700
C  4.39200 5.75600 26.53500
C  5.38600 4.74000 26.39300
C  3.26600 6.74300 28.79200
C  3.76800 6.51900 25.37900
O  4.12400 6.36900 24.25500
C  2.61800 7.54100 25.57700
N  7.40900 2.47300 25.97600
C  6.58800 2.99500 25.00400
C  6.83500 2.29400 23.67200
C  8.21600 1.56700 23.88600
C  8.23500 1.49800 25.42100
C  5.69000 1.30800 23.12800
C  9.47400 2.30900 23.35500
C  9.84700 1.70800 21.90800
N  8.86300 1.61900 28.32700
C  9.45700 0.71000 27.47400
C  10.22500 -0.27300 28.26700
C  10.13800 0.15500 29.59900
C  9.19000 1.27000 29.59200
C  10.81900 -1.52000 27.88200
C  10.56300 -0.09100 30.97300
O  11.32200 -0.90500 31.41000
C  9.86800 0.94100 31.88000
C  9.14800 0.23300 32.94600
O  7.99800 -0.20900 32.80400
O  9.86800 0.05600 34.05200
C  9.24100 -0.41500 35.32100
H  4.88400 5.64900 30.57200
H  5.22500 4.37500 24.31000
H  9.68400 -0.00300 25.35400
H  7.35900 2.38500 33.17600
H  6.58100 5.28800 32.59200
H  5.34200 3.07800 33.56900
H  4.30600 3.37800 32.18700
H  4.68900 4.63800 33.40100
H  8.22300 4.93000 33.90100
H  9.55700 4.11300 33.02100
H  9.87500 2.57200 34.24600
H  8.44700 2.51900 35.16000
H  3.22400 6.57400 29.86800
H  2.28200 6.66800 28.32800
H  3.60700 7.77800 28.81400
H  2.27900 8.04600 24.67300
H  3.18600 8.27100 26.15200
H  1.73600 7.19500 26.11600
H  6.92900 3.17200 23.03400
H  8.09800 0.56100 23.48500
H  5.26200 1.68500 22.19800
H  4.88200 1.29300 23.85900
H  6.03600 0.29200 22.94000
H  10.25600 2.23200 24.11000
H  9.17700 3.33900 23.15900
H  9.91300 2.43800 21.10100
H  9.26700 0.85900 21.54500
H  10.84300 1.29900 22.07400
H  10.32400 -1.93500 27.00500
H  10.64800 -2.16300 28.74500
H  11.86400 -1.46700 27.57900
H  10.69500 1.51500 32.29900
H  9.17000 0.48000 35.93900
H  9.70000 -1.23000 35.88100
H  8.18200 -0.62800 35.17600

