158

Mg 40.55600 9.85100 30.12100
C  42.41000 10.79500 32.95100
C  38.26800 8.20200 32.22000
C  39.03600 8.54100 27.45600
C  43.09700 11.09700 28.13400
N  40.47600 9.47500 32.34900
C  41.24900 10.08500 33.32300
C  40.60200 10.07500 34.74500
C  39.29800 9.10700 34.47900
C  39.36500 8.90300 32.92300
C  39.14400 7.89600 35.34500
C  40.17100 11.54600 35.03800
C  39.49800 11.76000 36.34300
H  40.13400 12.46300 37.52600
N  38.85400 8.49300 29.82000
C  38.04800 8.00300 30.82000
C  36.91500 7.20700 30.21400
C  37.16500 7.19400 28.76100
C  38.36900 8.14000 28.59600
C  35.76200 6.72900 31.08800
C  36.51600 6.49300 27.65300
O  36.81000 6.60900 26.45300
C  35.45200 5.51100 27.91700
N  40.88200 9.96800 28.03300
C  40.11400 9.34100 27.14400
C  40.77100 9.38400 25.76900
C  42.02400 10.25200 25.93900
C  42.03400 10.49300 27.44100
C  41.03400 8.01900 25.16200
C  42.05200 11.58700 25.02800
C  43.15000 11.50700 24.00100
N  42.36400 10.72200 30.42000
C  43.29500 11.21800 29.48800
C  44.42400 11.87300 30.12600
C  44.11900 11.76600 31.50400
C  42.90800 10.99600 31.63900
C  45.60100 12.40100 29.41900
C  44.57500 11.99800 32.89500
O  45.48500 12.69900 33.32500
C  43.38700 11.41900 33.84600
C  44.05900 10.35400 34.76700
O  44.46100 9.25500 34.46600
O  43.87400 10.78500 36.09200
C  44.08800 9.82100 37.20100
H  37.41900 7.92300 32.84700
H  38.49700 8.11500 26.60700
H  43.83400 11.52300 27.45000
H  41.23700 9.67800 35.53700
H  38.41400 9.72700 34.62800
H  38.08200 7.66100 35.41000
H  39.54500 8.30900 36.27100
H  39.61400 7.01700 34.90500
H  39.55100 11.99300 34.26000
H  41.12700 12.06100 35.13000
H  39.19200 10.75400 36.62800
H  38.58600 12.34900 36.25000
H  35.79800 5.64100 31.13600
H  34.85400 7.13000 30.63700
H  35.75200 7.04700 32.13000
H  34.89300 5.10100 27.07600
H  34.77000 5.91800 28.66300
H  35.93700 4.61500 28.30600
H  40.06700 9.92900 25.14000
H  42.88500 9.64700 25.65300
H  40.59600 7.28100 25.83300
H  42.08900 7.75200 25.09700
H  40.58600 7.93300 24.17100
H  42.24600 12.38000 25.75000
H  41.04500 11.69400 24.62300
H  43.03700 10.48900 23.63100
H  44.14700 11.66200 24.41300
H  42.91500 12.30100 23.29200
H  46.45100 12.69300 30.03600
H  45.32200 13.23600 28.77700
H  46.03200 11.64600 28.76100
H  43.10200 12.28100 34.44900
H  43.38900 9.94500 38.02700
H  45.10000 9.99700 37.56800
H  43.99300 8.80100 36.82800
Mg 46.79800 25.30200 28.45800
C  47.86100 27.69600 31.05500
C  46.27500 23.16200 31.15500
C  45.93200 23.16500 26.24000
C  48.23300 27.56000 26.18100
N  46.91200 25.49200 30.78800
C  47.23600 26.57300 31.58500
C  47.03000 26.34400 33.02500
C  46.63700 24.83200 33.09800
C  46.63300 24.43100 31.55900
C  47.61700 23.93600 33.94800
C  46.02000 27.31000 33.72500
C  46.49600 27.79000 35.04600
H  45.48600 27.91300 36.10000
N  46.08400 23.54900 28.65100
C  45.93900 22.75600 29.81200
C  45.14500 21.62600 29.45700
C  44.86800 21.72900 28.01200
C  45.62400 22.85900 27.58400
C  44.75200 20.56600 30.40600
C  44.03200 20.85300 27.14100
O  43.82900 21.10800 25.94800
C  43.19600 19.74200 27.76000
N  47.02600 25.41100 26.42900
C  46.56600 24.41200 25.72900
C  46.89300 24.61400 24.23000
C  47.40000 26.09600 24.20100
C  47.65200 26.37500 25.68100
C  47.93800 23.50400 23.71900
C  46.37800 27.15500 23.58200
C  46.95600 28.07000 22.48500
N  47.77400 27.19800 28.48600
C  48.35500 27.97100 27.44400
C  48.83500 29.23000 27.99400
C  48.64700 29.11600 29.41100
C  48.05500 27.90200 29.66300
C  49.46700 30.35100 27.19100
C  48.89400 29.81900 30.68300
O  49.28800 30.99200 30.85800
C  48.43600 28.81700 31.77100
C  49.42200 28.49800 32.77600
O  50.18500 27.55100 32.67100
O  49.33900 29.31900 33.90400
C  50.08000 28.94000 35.11600
H  46.07000 22.50300 32.00200
H  45.55700 22.44800 25.50700
H  48.70000 28.17800 25.41200
H  48.01300 26.39000 33.49400
H  45.61600 24.57400 33.37900
H  48.03800 23.21000 33.25300
H  47.11800 23.35100 34.72200
H  48.39300 24.49000 34.47600
H  45.10800 26.73500 33.88500
H  45.76700 28.13000 33.05400
H  47.02200 28.74300 34.99200
H  47.27700 27.09800 35.36100
H  43.66900 20.60500 30.52500
H  44.99400 20.69500 31.46100
H  45.11600 19.62600 29.99100
H  43.90000 18.97100 28.07500
H  42.65200 19.22400 26.97000
H  42.58800 20.02200 28.62000
H  45.92100 24.53600 23.74300
H  48.30700 26.18900 23.60400
H  47.91100 22.73100 24.48800
H  48.93800 23.90400 23.55300
H  47.51600 22.98400 22.85900
H  45.99000 27.82800 24.34700
H  45.55000 26.62000 23.11700
H  47.89100 27.63800 22.12900
H  47.10100 29.05300 22.93300
H  46.25000 28.09600 21.65500
H  49.31400 31.23300 27.81300
H  49.04900 30.47400 26.19100
H  50.55000 30.24600 27.13800
H  47.71400 29.44700 32.29000
H  51.12000 29.26200 35.06200
H  49.96300 27.87700 35.32600
H  49.63000 29.45300 35.96600

