158

Mg -2.40200 17.70000 25.55200
C  -2.58300 15.56700 28.36800
C  -2.88100 20.47100 27.54900
C  -2.57100 19.60800 22.86300
C  -2.54200 14.77300 23.54200
N  -2.69700 17.93000 27.70300
C  -2.85200 16.95400 28.66900
C  -3.15700 17.59000 30.12300
C  -3.53400 19.09500 29.71600
C  -2.99400 19.21800 28.28700
C  -5.05300 19.32600 29.64700
C  -1.91900 17.47400 31.09800
C  -2.21300 17.95800 32.49100
H  -1.36900 17.38200 33.64600
N  -2.47700 19.80500 25.26100
C  -2.50000 20.78400 26.22400
C  -2.32500 22.08800 25.60400
C  -2.00300 21.79100 24.26400
C  -2.38900 20.38500 24.05300
C  -2.23200 23.32900 26.40900
C  -1.47700 22.70300 23.20300
O  -1.20500 22.35000 22.07200
C  -1.04600 24.14700 23.49700
N  -2.56800 17.24100 23.60700
C  -2.62000 18.24300 22.64500
C  -2.68500 17.72500 21.20600
C  -2.60800 16.20100 21.45200
C  -2.57500 16.06700 22.93700
C  -3.84400 18.18300 20.38900
C  -1.41800 15.53600 20.65000
C  0.02400 15.88300 21.00900
N  -2.47700 15.62900 25.84900
C  -2.49500 14.58000 24.93300
C  -2.37300 13.32500 25.64100
C  -2.37700 13.65300 26.99300
C  -2.54200 15.09700 27.06800
C  -2.26400 11.95400 24.99000
C  -2.37100 13.07000 28.33000
O  -2.25400 11.94000 28.70700
C  -2.50600 14.28500 29.25400
C  -1.18400 14.28800 30.00300
O  -0.20200 14.78200 29.52700
O  -1.26800 13.71600 31.23000
C  -0.09600 13.74800 32.15400
H  -3.13600 21.37900 28.09700
H  -2.59200 20.28400 22.00600
H  -2.44400 13.90200 22.89000
H  -4.07100 17.10800 30.46700
H  -3.09600 19.87100 30.34300
H  -5.55200 18.51700 30.18000
H  -5.37300 19.34400 28.60500
H  -5.38300 20.23400 30.15100
H  -1.11100 18.09100 30.70600
H  -1.57600 16.44200 31.17600
H  -3.28600 17.89300 32.67400
H  -2.01200 19.02100 32.36300
H  -2.23500 23.13500 27.48100
H  -3.13900 23.89600 26.19900
H  -1.35200 23.92700 26.17200
H  -0.16900 24.06400 24.13800
H  -1.81400 24.75800 23.97100
H  -0.74200 24.56400 22.53700
H  -1.81800 18.04500 20.62800
H  -3.51000 15.71000 21.08600
H  -3.43300 18.96400 19.75000
H  -4.59400 18.50400 21.11200
H  -4.11400 17.31700 19.78400
H  -1.60000 15.93000 19.65100
H  -1.52700 14.46200 20.80000
H  0.11300 16.26600 22.02600
H  0.42200 16.60700 20.29800
H  0.55000 14.93900 21.15000
H  -3.22400 11.44300 24.91600
H  -1.62600 11.35000 25.63500
H  -1.70100 11.96900 24.05700
H  -3.26000 14.28100 30.04100
H  -0.04400 12.74000 32.56500
H  -0.19600 14.45700 32.97600
H  0.79900 13.97300 31.57300
Mg 47.10700 34.58100 28.05800
C  45.57000 32.82900 30.58500
C  47.33500 37.39500 30.35500
C  48.33300 36.57400 25.76200
C  46.27400 32.13700 25.83100
N  46.49300 35.00900 30.23900
C  45.96500 34.07400 31.03700
C  46.04800 34.65300 32.54100
C  46.23000 36.16700 32.38500
C  46.73800 36.17800 30.89200
C  44.91400 36.83300 32.42400
C  47.32400 34.03900 33.23600
C  47.24200 33.62000 34.75500
H  46.51200 34.66800 35.63600
N  47.80400 36.62700 28.12100
C  47.89100 37.56100 29.12700
C  48.57300 38.71700 28.72700
C  48.88300 38.54200 27.39000
C  48.24800 37.23200 27.00000
C  48.97300 39.85800 29.65000
C  49.72600 39.36000 26.53000
O  49.81100 39.10500 25.31200
C  50.42800 40.59400 27.07700
N  47.03400 34.49900 25.98200
C  47.80000 35.36000 25.29900
C  47.85600 34.77200 23.85800
C  47.58800 33.31200 24.04600
C  46.92900 33.30000 25.40700
C  46.83200 35.50700 22.84300
C  48.70400 32.25400 23.90900
C  48.58400 31.27000 22.66200
N  46.23400 32.77600 28.11800
C  45.89000 31.89400 27.14900
C  45.29000 30.63700 27.67200
C  45.09900 31.00400 29.06000
C  45.68100 32.25600 29.21700
C  44.98700 29.36600 26.93800
C  44.61300 30.58900 30.37100
O  44.20700 29.45900 30.73000
C  44.72700 31.80500 31.30100
C  45.30800 31.33800 32.59500
O  46.23100 30.51100 32.72400
O  44.63700 31.87300 33.62900
C  44.68800 31.14200 34.90000
H  47.53100 38.12300 31.14400
H  48.74300 37.03700 24.86200
H  46.15300 31.25700 25.19600
H  45.15800 34.32200 33.07600
H  46.90800 36.56300 33.14200
H  45.00800 37.90800 32.26600
H  44.41100 36.57300 33.35500
H  44.32600 36.46800 31.58200
H  48.18000 34.71100 33.18900
H  47.47400 33.09300 32.71500
H  48.25100 33.65300 35.16500
H  46.93100 32.58900 34.92100
H  49.77300 39.49300 30.29400
H  48.11100 39.99800 30.30200
H  49.22500 40.84000 29.24900
H  49.74000 41.43900 27.04100
H  51.19800 40.90300 26.37000
H  50.92800 40.37300 28.02000
H  48.89700 34.89700 23.56000
H  46.86800 33.02200 23.28200
H  47.40200 36.05600 22.09400
H  46.19200 36.21300 23.37200
H  46.22600 34.71600 22.40200
H  48.68900 31.58700 24.77100
H  49.67900 32.72900 23.79800
H  49.49900 31.47900 22.10800
H  47.74400 31.57000 22.03500
H  48.39200 30.24000 22.96100
H  44.01800 29.28400 26.44700
H  45.29900 28.47700 27.48600
H  45.67100 29.39500 26.09000
H  43.70400 32.13600 31.47600
H  43.80600 30.53600 35.10800
H  44.76100 31.91600 35.66500
H  45.53300 30.46100 35.00900

