158

Mg 2.31600 -0.63100 44.12600
C  5.62200 0.33300 43.97500
C  1.39700 2.54100 43.09400
C  -0.76300 -1.66100 43.95600
C  3.53300 -3.98100 44.61800
N  3.41400 1.21500 43.37400
C  4.75800 1.39500 43.57100
C  5.17900 2.82500 43.25400
C  3.77200 3.53900 43.16300
C  2.78000 2.40000 43.16100
C  3.53400 4.53100 44.36600
C  5.97700 2.94400 41.94800
C  5.46100 2.18100 40.72300
H  5.32100 2.98700 39.42800
N  0.54000 0.40500 43.61000
C  0.32500 1.66900 43.16900
C  -1.10900 1.92000 42.97200
C  -1.72300 0.66700 43.11500
C  -0.65800 -0.23700 43.57600
C  -1.75800 3.18800 42.46600
C  -3.24200 0.36500 42.98900
O  -3.95600 1.17100 42.46400
C  -3.85500 -0.92800 43.60000
N  1.52100 -2.58500 44.21000
C  0.18100 -2.68300 44.35500
C  -0.23400 -4.15900 44.62000
C  1.08400 -4.92700 44.57000
C  2.13800 -3.80500 44.47200
C  -1.07600 -4.41600 45.84200
C  1.22800 -5.88000 43.35400
C  1.82300 -7.34200 43.48700
N  4.13900 -1.68200 44.37600
C  4.51200 -2.92700 44.75200
C  5.93800 -3.00000 45.02800
C  6.38900 -1.73800 44.71100
C  5.27600 -0.98400 44.30100
C  6.68400 -4.11000 45.61100
C  7.64200 -0.96400 44.55400
O  8.80800 -1.23000 44.78400
C  7.11000 0.50500 44.18900
C  7.46800 1.53200 45.19800
O  8.37800 2.36500 45.08300
O  6.76800 1.43400 46.44100
C  6.87400 2.62400 47.29600
H  0.99100 3.53700 42.90700
H  -1.74000 -2.12300 44.11200
H  3.83900 -4.98900 44.90500
H  5.86900 3.11500 44.04600
H  3.68900 4.09500 42.23000
H  4.29000 4.27900 45.10900
H  2.54700 4.28900 44.76100
H  3.57200 5.56600 44.02700
H  6.93800 2.46000 42.12000
H  6.24300 3.98700 41.77700
H  4.54100 1.66000 40.98800
H  6.15300 1.38300 40.45100
H  -1.10600 4.00700 42.77000
H  -2.59300 3.51000 43.08900
H  -2.03600 3.08800 41.41700
H  -3.56600 -1.08500 44.63900
H  -3.74500 -1.71500 42.85500
H  -4.84800 -0.48300 43.65800
H  -0.86900 -4.45400 43.78500
H  1.24900 -5.56300 45.44000
H  -1.81000 -3.63200 46.02900
H  -0.50000 -4.55700 46.75600
H  -1.72200 -5.28700 45.73200
H  1.79600 -5.38400 42.56600
H  0.26100 -6.00100 42.86600
H  1.04600 -8.09300 43.34300
H  2.33500 -7.47100 44.44000
H  2.60200 -7.58800 42.76500
H  5.91200 -4.81600 45.92000
H  7.33200 -3.71800 46.39500
H  7.31800 -4.47400 44.80300
H  7.57200 0.74300 43.23100
H  7.88800 3.00600 47.40900
H  6.42600 2.49200 48.28100
H  6.19200 3.30100 46.78200
Mg 30.48400 58.55800 41.03500
C  27.46600 56.93600 40.34200
C  32.16000 55.59400 40.21700
C  33.47100 60.06400 41.30100
C  28.84800 61.57900 41.12800
N  29.81600 56.55800 40.37900
C  28.57600 56.13100 40.10700
C  28.55700 54.66200 39.53000
C  29.99100 54.15500 39.96100
C  30.74800 55.51600 40.10900
C  30.00300 53.26900 41.25100
C  28.34200 54.70700 37.96100
C  27.08100 54.04500 37.34300
H  26.37100 54.95500 36.25100
N  32.57300 57.86100 40.97700
C  33.00100 56.66200 40.56700
C  34.46500 56.68400 40.57100
C  34.89700 57.95000 40.92000
C  33.66100 58.67400 41.10700
C  35.32100 55.45600 40.17500
C  36.25900 58.38700 41.17800
O  37.13700 57.57000 40.95800
C  36.66900 59.76000 41.70900
N  31.10800 60.53500 41.19100
C  32.40100 60.93300 41.36900
C  32.44000 62.44300 41.26200
C  31.00600 62.85700 41.45500
C  30.22200 61.59300 41.14000
C  33.38100 63.15800 42.30400
C  30.57500 64.06700 40.57700
C  30.45500 63.75100 39.03700
N  28.50800 59.23100 40.75300
C  27.96100 60.52100 40.94100
C  26.52300 60.41500 40.73000
C  26.28500 59.00700 40.45900
C  27.55700 58.34200 40.57600
C  25.59400 61.55800 40.76900
C  25.25000 58.03000 40.15700
O  24.04200 58.14900 40.05600
C  25.98900 56.67400 40.01100
C  25.42700 55.65800 40.96200
O  24.97600 55.96800 42.05500
O  25.31300 54.41400 40.34500
C  24.60000 53.46300 41.27000
H  32.56200 54.59900 40.01400
H  34.36600 60.68900 41.30800
H  28.33000 62.54000 41.16100
H  27.71400 54.03200 39.81300
H  30.42000 53.61200 39.11800
H  30.31700 52.25200 41.01800
H  29.04100 53.27500 41.76300
H  30.75000 53.59800 41.97300
H  29.06800 54.09400 37.42800
H  28.40200 55.70400 37.52300
H  26.32700 53.97500 38.12700
H  27.45800 53.11300 36.92100
H  34.69700 54.79900 39.57000
H  35.48900 54.90700 41.10200
H  36.25300 55.54100 39.61700
H  37.75800 59.73800 41.68600
H  36.19800 59.71400 42.69100
H  36.30600 60.47600 40.97100
H  32.81300 62.52100 40.24100
H  30.68900 63.07000 42.47600
H  34.30700 62.59000 42.38800
H  32.92200 63.19400 43.29300
H  33.58500 64.20500 42.07700
H  31.26100 64.91200 40.63500
H  29.67200 64.45700 41.04600
H  29.43500 64.02800 38.77100
H  30.68100 62.70100 38.84900
H  31.03700 64.49200 38.49000
H  26.00100 62.42200 41.29300
H  24.58900 61.28900 41.09600
H  25.36900 61.93700 39.77200
H  25.70600 56.32100 39.02000
H  25.27000 52.73000 41.71900
H  23.94100 52.86700 40.63900
H  23.93500 53.81300 42.06000

