158

Mg 0.98700 8.06600 26.80800
C  1.46700 9.89600 29.83800
C  0.30700 5.31900 28.64100
C  0.42700 6.64900 23.95000
C  1.82500 11.17900 25.05600
N  0.91800 7.67100 28.98000
C  0.99800 8.51400 30.01300
C  0.59100 7.85800 31.32300
C  0.86700 6.35600 30.98700
C  0.75700 6.40900 29.43300
C  2.23600 5.82200 31.42600
C  -0.84600 8.11700 31.77600
C  -1.20500 8.49100 33.31800
H  -0.03500 8.48200 34.28600
N  0.47400 6.24900 26.39700
C  0.11600 5.25500 27.23800
C  -0.46500 4.14000 26.52200
C  -0.43500 4.50100 25.21000
C  0.12300 5.84200 25.15300
C  -0.92600 2.79200 27.05000
C  -0.89600 3.70100 23.95000
O  -0.70600 4.19800 22.89600
C  -1.61400 2.36800 24.04400
N  1.25200 8.79300 24.77800
C  0.95500 7.95900 23.78800
C  1.44400 8.50300 22.43200
C  1.45100 10.02300 22.78400
C  1.57700 10.00500 24.31300
C  2.90300 7.83700 22.09000
C  0.14600 10.69200 22.45400
C  0.20100 12.23100 22.10900
N  1.75500 10.06600 27.23000
C  2.06200 11.12500 26.47700
C  2.47700 12.29300 27.28200
C  2.17400 11.84300 28.62200
C  1.82800 10.50600 28.52400
C  2.86900 13.69000 26.68600
C  2.21500 12.27200 29.96400
O  2.53400 13.36000 30.35500
C  1.61300 11.01400 30.83200
C  2.63600 10.81300 31.92800
O  3.68400 10.20400 31.85000
O  2.17400 11.41900 33.07300
C  3.19600 11.52800 34.12600
H  0.20500 4.42600 29.26100
H  0.48600 6.17300 22.96900
H  1.96300 12.12800 24.53300
H  1.20000 8.28000 32.12200
H  0.04100 5.78300 31.40900
H  2.96900 6.58100 31.70000
H  2.57500 5.35400 30.50200
H  2.19600 5.14100 32.27600
H  -1.43300 7.22300 31.56200
H  -1.22500 8.82000 31.03400
H  -2.05400 7.85400 33.56600
H  -1.49800 9.52900 33.16200
H  -1.86600 2.42000 26.64100
H  -0.98100 2.74800 28.13700
H  -0.23900 1.98100 26.80500
H  -1.09100 1.74100 24.76500
H  -1.73400 1.87100 23.08100
H  -2.53300 2.66800 24.54800
H  0.81100 8.19700 21.59800
H  2.28200 10.44700 22.21900
H  3.51600 8.12700 22.94300
H  3.27200 8.46800 21.28100
H  2.66700 6.80200 21.84200
H  -0.50200 10.54400 23.31800
H  -0.25000 10.23500 21.54700
H  1.16500 12.60200 21.76200
H  0.01500 12.83300 22.99800
H  -0.49100 12.53000 21.32100
H  2.11000 14.05300 25.99300
H  3.77800 13.63200 26.08700
H  3.09700 14.39100 27.48900
H  0.62300 11.19200 31.25000
H  3.45600 12.58700 34.14800
H  4.13100 11.03700 33.85800
H  2.84000 11.09500 35.06100
Mg 40.25600 9.36200 29.59500
C  42.35300 10.47900 32.27500
C  38.31900 7.94200 32.00000
C  38.56400 8.06200 27.13200
C  42.88800 10.14800 27.41600
N  40.39300 9.16200 32.00800
C  41.21400 9.82000 32.79400
C  40.67100 9.69900 34.28000
C  39.46700 8.68000 34.13400
C  39.32700 8.62600 32.67300
C  39.71000 7.31300 34.74500
C  40.29700 11.04600 34.99100
C  39.71000 10.96300 36.35800
H  40.36100 11.79300 37.53500
N  38.53900 8.25600 29.53700
C  37.87300 7.76700 30.63600
C  36.72000 7.06700 30.17100
C  36.75700 7.05500 28.71600
C  37.96300 7.77600 28.40900
C  35.77200 6.45900 31.13400
C  35.83500 6.34000 27.74000
O  36.16700 6.21600 26.55200
C  34.70700 5.65300 28.23000
N  40.63200 9.23500 27.54200
C  39.79300 8.52600 26.71500
C  40.07700 8.74500 25.24000
C  41.35100 9.62200 25.38600
C  41.73200 9.59600 26.82900
C  40.20600 7.56300 24.30000
C  41.04900 11.09300 25.06000
C  42.31200 11.93200 24.62300
N  42.25600 10.27900 29.70400
C  43.15700 10.53500 28.71200
C  44.26000 11.25400 29.24700
C  43.97600 11.28000 30.63100
C  42.76900 10.60000 30.88500
C  45.42300 11.76600 28.55800
C  44.36200 11.79000 31.96200
O  45.21700 12.53700 32.39500
C  43.34300 11.31100 33.02700
C  43.97200 10.54900 34.08200
O  44.37900 9.35700 33.96600
O  44.00000 11.28700 35.25600
C  44.53900 10.67200 36.49500
H  37.59500 7.57900 32.73300
H  37.92200 7.72200 26.31700
H  43.70200 10.50900 26.78400
H  41.54700 9.28000 34.77600
H  38.54900 9.06600 34.57700
H  39.76800 6.49200 34.03000
H  38.96000 7.01100 35.47600
H  40.70800 7.35500 35.18300
H  39.77400 11.67200 34.26700
H  41.19500 11.63900 35.16200
H  39.55400 9.89200 36.48600
H  38.67700 11.28000 36.22000
H  35.86900 6.99800 32.07600
H  35.95700 5.40900 31.36400
H  34.74000 6.64600 30.83700
H  34.13700 5.20900 27.41500
H  33.98300 6.33200 28.68000
H  35.04000 4.83500 28.87000
H  39.28800 9.35600 24.80100
H  42.23900 9.25200 24.87400
H  39.77900 6.70000 24.81100
H  41.23400 7.36000 23.99900
H  39.59500 7.72600 23.41200
H  40.51600 11.60800 25.85900
H  40.34500 11.13100 24.22800
H  42.05300 12.33800 23.64600
H  43.17200 11.26500 24.67500
H  42.48200 12.77900 25.28900
H  45.30800 12.31000 27.62100
H  46.07300 10.90500 28.40400
H  45.87100 12.45800 29.27000
H  42.89000 12.18700 33.49000
H  43.79500 10.29100 37.19500
H  45.15500 11.34600 37.09100
H  45.13200 9.81400 36.18100

