158

Mg 26.61300 50.11700 26.04500
C  24.53900 51.39100 28.54000
C  28.98300 49.47200 28.37900
C  28.72100 49.34600 23.52900
C  24.35800 51.37600 23.75600
N  26.69400 50.41200 28.29100
C  25.68300 50.80700 29.08200
C  26.04700 50.59700 30.59600
C  27.61400 50.21900 30.47500
C  27.79000 50.00600 28.92400
C  28.63900 51.23700 31.05500
C  25.18300 49.57800 31.37800
C  24.64300 50.04000 32.69600
H  24.90700 49.06900 33.81300
N  28.51300 49.30600 25.97900
C  29.34200 49.04300 27.06200
C  30.62900 48.48200 26.57900
C  30.54200 48.48000 25.15000
C  29.18900 49.04200 24.79400
C  31.66000 47.93400 27.54700
C  31.48200 48.09800 24.08900
O  31.38700 48.40600 22.91800
C  32.83000 47.40200 24.50100
N  26.58900 50.43900 23.91900
C  27.58500 49.99100 23.09000
C  27.22200 50.20400 21.57100
C  25.73800 50.76500 21.65300
C  25.50600 50.87900 23.19200
C  28.35200 50.98500 20.70100
C  24.69900 49.80900 20.95400
C  24.47700 48.38700 21.44800
N  24.82100 51.25900 26.04500
C  23.98100 51.69400 25.04000
C  22.81300 52.31900 25.60700
C  22.96900 52.25500 26.98400
C  24.18900 51.58100 27.20100
C  21.76400 52.91500 24.70700
C  22.40700 52.66500 28.23200
O  21.39900 53.25000 28.46600
C  23.32000 51.98400 29.34500
C  23.73400 53.09900 30.29400
O  24.36600 54.12000 29.97400
O  23.08600 52.91200 31.51700
C  23.27300 53.91300 32.56700
H  29.74500 49.03800 29.03000
H  29.23100 49.28500 22.56500
H  23.60800 51.59800 22.99400
H  25.87900 51.57900 31.03900
H  27.68600 49.22100 30.90700
H  28.20000 51.72300 31.92600
H  28.76100 51.98900 30.27600
H  29.56900 50.91800 31.52600
H  25.85200 48.74700 31.60300
H  24.38700 49.12900 30.78300
H  23.56600 50.07000 32.53000
H  24.93500 51.07400 32.87900
H  31.30200 46.91400 27.68400
H  31.53100 48.26900 28.57600
H  32.66400 48.14600 27.17900
H  33.25600 48.22500 25.07500
H  33.35500 47.03700 23.61800
H  32.66600 46.56500 25.18000
H  27.29500 49.22900 21.09100
H  25.69400 51.75600 21.20000
H  28.61200 50.42200 19.80500
H  29.20400 51.26300 21.32100
H  27.93000 51.93100 20.36200
H  25.03700 49.88600 19.92000
H  23.70700 50.25200 20.86500
H  23.49400 48.29400 21.91100
H  25.21000 48.12300 22.21100
H  24.51800 47.69400 20.60700
H  21.84800 52.47200 23.71500
H  22.02700 53.96800 24.60600
H  20.72500 52.89000 25.03600
H  22.86700 51.15100 29.88200
H  23.92200 53.71100 33.41800
H  22.27600 54.00200 32.99900
H  23.56000 54.87800 32.15000
Mg -5.97900 25.34000 25.70000
C  -3.97100 26.69800 28.17700
C  -7.40900 23.31800 27.94000
C  -7.56800 23.85800 23.15300
C  -3.72900 26.97500 23.32800
N  -5.67900 25.01700 27.78300
C  -4.95500 25.81900 28.68200
C  -5.31300 25.40900 30.15800
C  -6.03100 24.10400 30.02700
C  -6.39900 24.13100 28.52500
C  -5.16500 22.82100 30.33200
C  -6.04100 26.54100 30.89000
C  -5.64000 26.69300 32.33300
H  -5.22900 25.46100 33.08800
N  -7.31100 23.81900 25.57300
C  -7.86200 23.13000 26.61600
C  -8.94700 22.27500 26.12300
C  -9.00300 22.47700 24.72800
C  -7.93000 23.36700 24.41400
C  -9.87600 21.47800 26.99500
C  -9.89100 21.80000 23.62700
O  -9.68000 21.90700 22.37900
C  -11.07600 20.88400 23.91900
N  -5.44900 25.20300 23.54100
C  -6.43500 24.64700 22.77000
C  -6.03000 24.82000 21.30800
C  -4.93000 25.97300 21.27100
C  -4.63700 26.02800 22.79100
C  -5.60600 23.46000 20.74800
C  -5.29600 27.34200 20.67600
C  -4.71800 27.58000 19.22300
N  -4.34400 26.67100 25.67200
C  -3.57400 27.27600 24.68000
C  -2.62400 28.18700 25.23200
C  -2.69500 28.01000 26.62100
C  -3.68500 27.00000 26.79700
C  -1.73500 29.15000 24.52400
C  -2.20600 28.36700 27.90100
O  -1.31800 29.18300 28.12100
C  -2.98800 27.57900 28.93300
C  -2.07200 26.72100 29.75500
O  -1.68900 25.62100 29.59300
O  -1.74900 27.48800 30.84300
C  -1.00800 26.88900 31.97100
H  -7.86100 22.59500 28.62300
H  -8.18000 23.48400 22.32900
H  -3.16400 27.51900 22.56800
H  -4.33100 25.30700 30.62000
H  -6.88300 24.00700 30.70000
H  -5.03200 22.60500 31.39200
H  -4.32000 22.83300 29.64400
H  -5.79900 22.02700 29.93900
H  -7.12800 26.46700 30.89800
H  -5.83200 27.46900 30.35900
H  -6.42000 27.15400 32.93800
H  -4.74100 27.29500 32.20100
H  -9.63300 21.41300 28.05600
H  -9.76300 20.48700 26.55500
H  -10.88000 21.88800 26.88800
H  -11.93800 21.39200 24.35100
H  -10.73700 20.11800 24.61600
H  -11.31900 20.35100 22.99900
H  -6.92800 25.32000 20.94600
H  -3.97000 25.62000 20.89600
H  -5.62000 22.71300 21.54200
H  -4.61100 23.59200 20.32400
H  -6.29800 23.27000 19.92700
H  -5.01100 28.22100 21.25500
H  -6.38600 27.37300 20.70100
H  -5.36700 27.69700 18.35400
H  -4.14800 26.70300 18.91800
H  -4.00000 28.39500 19.31200
H  -0.76900 29.03500 25.01600
H  -2.05800 30.19100 24.54600
H  -1.55900 28.89900 23.47800
H  -3.51900 28.22900 29.62900
H  -0.66500 25.85700 31.90000
H  -1.70600 27.01500 32.79900
H  -0.14300 27.47300 32.28400

