158

Mg 16.88000 -1.76000 27.19800
C  16.26800 0.39500 29.94100
C  18.88500 -3.67000 29.22800
C  17.66400 -3.55200 24.60400
C  15.10000 0.52900 25.14500
N  17.55000 -1.63800 29.29100
C  17.06500 -0.75400 30.21300
C  17.60600 -1.03300 31.63200
C  18.54300 -2.28100 31.33600
C  18.35800 -2.57600 29.87700
C  19.98300 -1.95200 31.75400
C  16.50200 -1.34700 32.71900
C  16.64700 -0.61600 34.00200
H  18.07000 -0.04200 34.47400
N  18.01100 -3.40600 26.94400
C  18.73500 -4.12500 27.93100
C  19.28700 -5.43000 27.34500
C  18.90300 -5.32400 25.96200
C  18.10900 -4.07600 25.77800
C  20.08500 -6.52900 28.03900
C  19.09800 -6.40100 24.87000
O  18.68500 -6.24200 23.73700
C  19.88600 -7.52200 25.05700
N  16.29300 -1.63700 25.17900
C  16.98100 -2.36500 24.31100
C  16.80900 -1.85100 22.86300
C  15.77100 -0.73500 23.04200
C  15.67200 -0.62300 24.49600
C  18.16900 -1.44600 22.10600
C  14.27500 -1.07300 22.49000
C  13.82400 -0.12500 21.41700
N  15.89100 0.10500 27.44300
C  15.16300 0.87800 26.51400
C  14.52400 1.93900 27.19600
C  14.93300 1.82600 28.61400
C  15.79900 0.71000 28.59900
C  13.56200 2.79100 26.54100
C  14.81200 2.38700 29.90600
O  14.13100 3.31100 30.35200
C  15.68200 1.47200 30.81000
C  16.71700 2.33400 31.55800
O  17.84900 2.50900 31.19300
O  16.04700 2.94600 32.60400
C  16.84400 3.99500 33.35300
H  19.37800 -4.43300 29.83300
H  17.98200 -4.09600 23.71200
H  14.74100 1.28600 24.44400
H  18.17500 -0.17400 31.98700
H  18.34500 -3.11900 32.00500
H  20.04900 -1.37400 32.67600
H  20.48500 -1.42600 30.94100
H  20.43500 -2.91900 31.97600
H  16.43700 -2.41200 32.94300
H  15.58600 -1.00500 32.23900
H  16.29800 -1.27600 34.79600
H  15.90600 0.18200 33.95900
H  20.56200 -6.05300 28.89600
H  20.85500 -6.88300 27.35400
H  19.41400 -7.34300 28.31400
H  19.51200 -8.18500 25.83700
H  20.90700 -7.15200 25.15900
H  19.70200 -8.10800 24.15700
H  16.45900 -2.69000 22.26100
H  16.20000 0.18000 22.63200
H  18.16100 -0.43200 21.70600
H  18.41100 -1.95400 21.17300
H  18.97700 -1.59300 22.82300
H  13.54800 -0.98400 23.29700
H  14.31200 -2.05200 22.01100
H  13.25700 0.69000 21.86700
H  13.25200 -0.68200 20.67500
H  14.62800 0.37900 20.88000
H  12.70900 2.20500 26.19900
H  14.07200 3.37600 25.77600
H  13.11900 3.51200 27.22800
H  15.07100 1.10000 31.63300
H  17.61000 4.48900 32.75500
H  17.34400 3.67200 34.26700
H  16.20000 4.81400 33.67000
Mg 46.88700 34.74100 28.95800
C  45.73300 32.54900 31.29000
C  47.18700 37.22500 31.31700
C  47.59700 36.94200 26.48400
C  46.23700 32.30500 26.44700
N  46.57700 34.79900 31.06000
C  46.15600 33.75500 31.84500
C  46.18700 34.13200 33.35700
C  46.17600 35.71200 33.12000
C  46.72200 35.95400 31.76600
C  44.75200 36.44500 33.23300
C  47.37900 33.43200 34.09100
C  48.20900 34.40100 35.00300
H  47.42100 35.15200 36.12300
N  47.43000 36.75700 28.95700
C  47.65800 37.56900 30.04900
C  48.26800 38.76800 29.61600
C  48.44100 38.70900 28.22100
C  47.81300 37.42300 27.82100
C  48.66600 39.80800 30.68500
C  49.01400 39.81100 27.30400
O  49.00100 39.80000 26.11600
C  49.64000 41.06200 27.89800
N  46.90000 34.68900 26.80300
C  47.27200 35.69700 26.03700
C  47.04600 35.41400 24.53900
C  46.64200 33.88700 24.52900
C  46.59800 33.57500 25.98600
C  45.98400 36.37500 23.89000
C  47.57400 32.89600 23.62300
C  47.69700 33.19400 22.09300
N  46.07600 32.83400 28.85800
C  45.83800 31.96500 27.77900
C  45.28000 30.71100 28.23500
C  45.09000 30.90600 29.62800
C  45.66100 32.19600 29.95500
C  44.98000 29.53500 27.26100
C  44.62400 30.34700 30.91700
O  44.12300 29.24600 31.20400
C  44.86500 31.50000 31.97300
C  45.33500 31.00700 33.30000
O  46.34300 30.38300 33.48800
O  44.34500 31.13400 34.23000
C  44.64700 30.78200 35.61600
H  47.34900 37.94000 32.12600
H  47.83800 37.65800 25.69500
H  46.15200 31.56300 25.65000
H  45.26200 33.79600 33.82700
H  46.73600 36.36900 33.78600
H  44.84000 37.26200 33.94900
H  44.04300 35.64800 33.45700
H  44.24000 36.92100 32.39700
H  48.06000 32.89700 33.43000
H  46.96600 32.73500 34.82100
H  48.71900 35.03400 34.27800
H  49.03100 33.87100 35.48500
H  49.66700 40.16300 30.44000
H  48.72100 39.29900 31.64700
H  47.98300 40.63900 30.86600
H  48.84300 41.60300 28.40800
H  49.81300 41.69900 27.03100
H  50.58400 40.84600 28.39800
H  47.95700 35.40600 23.94100
H  45.60600 33.81000 24.20100
H  45.39900 36.93300 24.62100
H  45.34100 35.73200 23.29000
H  46.39200 37.11700 23.20400
H  47.18600 31.87700 23.63800
H  48.57800 32.99600 24.03400
H  46.90300 33.89300 21.83100
H  47.49900 32.22400 21.63900
H  48.73400 33.45700 21.88400
H  45.78500 29.41500 26.53600
H  44.13400 29.91000 26.68400
H  44.79200 28.65500 27.87600
H  43.93300 32.05700 32.07800
H  43.71200 30.57900 36.13800
H  45.17800 31.53200 36.20200
H  45.24400 29.87200 35.55200

