158

Mg 35.31100 1.79700 29.95700
C  32.83000 2.84200 32.17700
C  37.54800 1.85700 32.64100
C  37.71800 1.19800 27.83400
C  32.90000 2.10300 27.35700
N  35.23700 2.48300 32.08400
C  34.10000 2.71600 32.80000
C  34.31500 2.85100 34.27100
C  35.89100 2.85800 34.47200
C  36.29300 2.40300 32.92400
C  36.54800 4.29300 34.78400
C  33.69500 1.63100 35.08500
C  33.60700 1.86700 36.60500
H  34.03500 3.22800 37.27500
N  37.32200 1.47500 30.22900
C  38.05100 1.48200 31.36500
C  39.44700 0.95700 31.18600
C  39.53300 0.78200 29.73300
C  38.16400 1.14300 29.17300
C  40.56400 0.89600 32.25900
C  40.56400 0.09700 28.89100
O  40.39000 -0.25300 27.72100
C  41.88300 -0.28700 29.54200
N  35.21500 1.72200 27.94300
C  36.42000 1.34900 27.30700
C  36.08200 1.18700 25.78500
C  34.56400 1.55400 25.65600
C  34.17000 1.85400 27.04400
C  36.98700 2.09100 24.84100
C  33.70700 0.46300 24.92300
C  33.35700 0.75300 23.43500
N  33.19800 2.30800 29.69500
C  32.36100 2.35300 28.63900
C  31.00800 2.63800 29.04900
C  31.10900 2.83900 30.44100
C  32.53600 2.65800 30.78800
C  29.73300 2.84900 28.30600
C  30.40700 3.11200 31.65800
O  29.19200 3.18500 31.82200
C  31.50800 3.18500 32.77300
C  31.42200 4.60200 33.33400
O  31.84900 5.62500 32.78600
O  30.88800 4.48100 34.60300
C  30.64900 5.75300 35.19600
H  38.27100 1.69600 33.44400
H  38.49600 0.86700 27.14200
H  32.16000 2.22100 26.56300
H  33.96800 3.83000 34.60100
H  36.22300 2.15300 35.23500
H  37.29200 4.41300 33.99700
H  37.17800 4.16400 35.66400
H  35.83500 5.10400 34.93300
H  34.42700 0.82300 35.07500
H  32.77200 1.37900 34.56300
H  34.17900 1.03900 37.02200
H  32.57100 1.81500 36.93800
H  40.58500 -0.12100 32.65100
H  40.47900 1.67000 33.02200
H  41.54100 1.16500 31.85800
H  41.76300 -0.91300 30.42600
H  42.42000 0.62600 29.79800
H  42.39500 -0.87000 28.77600
H  36.24400 0.12000 25.63000
H  34.65000 2.47500 25.08000
H  37.53500 1.39700 24.20400
H  37.62600 2.73600 25.44400
H  36.46400 2.76500 24.16200
H  32.82500 0.25300 25.52800
H  34.14400 -0.53500 24.93600
H  33.46300 -0.11900 22.78900
H  33.89000 1.63300 23.07300
H  32.28700 0.95400 23.46700
H  29.20100 1.93200 28.05400
H  30.03100 3.36700 27.39400
H  29.21900 3.66300 28.81700
H  31.18800 2.41300 33.47400
H  31.36600 6.51600 34.89400
H  30.76200 5.52300 36.25600
H  29.62200 6.10700 35.10600
Mg -9.71700 39.37800 42.43300
C  -8.07600 36.42500 41.50200
C  -7.16000 41.17500 40.92700
C  -11.65100 42.19100 42.46600
C  -12.50500 37.50100 43.43800
N  -7.95000 38.89200 41.18200
C  -7.36100 37.60400 41.10400
C  -6.08500 37.64400 40.19200
C  -5.60600 39.11600 40.54600
C  -6.96900 39.79400 40.85500
C  -4.60300 39.46900 41.65500
C  -6.17100 37.42200 38.64300
C  -5.74200 36.04700 38.15900
H  -4.57000 35.94100 37.10500
N  -9.42400 41.39700 41.88400
C  -8.29100 41.96300 41.33700
C  -8.41700 43.37300 41.23400
C  -9.63300 43.72700 41.83600
C  -10.34400 42.40400 42.09100
C  -7.37300 44.22600 40.63500
C  -10.18300 45.15800 41.96200
O  -9.51900 46.11100 41.49200
C  -11.46800 45.39300 42.69400
N  -11.79800 39.81000 42.87100
C  -12.28900 40.99800 42.78900
C  -13.76100 41.04300 43.37200
C  -14.08800 39.59100 43.69300
C  -12.68200 38.90000 43.43600
C  -14.00900 42.04300 44.51800
C  -15.24200 39.01400 42.84600
C  -14.93800 38.78800 41.31700
N  -10.19300 37.33500 42.66300
C  -11.38500 36.74300 43.06700
C  -11.10400 35.25900 42.95400
C  -9.82900 35.15600 42.42200
C  -9.34100 36.44000 42.15400
C  -11.97800 34.12000 43.40300
C  -8.76800 34.18200 41.98400
O  -8.77000 32.97000 42.01000
C  -7.55700 35.05900 41.41000
C  -6.36800 34.90700 42.33600
O  -5.89900 35.75700 43.13700
O  -5.75700 33.69500 42.13100
C  -4.61700 33.23500 43.01100
H  -6.21800 41.60400 40.58100
H  -12.25900 43.08800 42.59900
H  -13.44000 37.13600 43.86800
H  -5.20000 37.11500 40.54600
H  -5.28900 39.53700 39.59200
H  -4.75400 40.43700 42.13300
H  -3.57800 39.46000 41.28400
H  -4.60900 38.65200 42.37600
H  -5.52700 38.07500 38.05500
H  -7.20800 37.60800 38.36500
H  -6.66800 35.63100 37.76200
H  -5.41000 35.50400 39.04500
H  -6.95700 44.83900 41.43400
H  -7.71500 44.89500 39.84600
H  -6.51200 43.67500 40.25500
H  -12.30000 45.14500 42.03500
H  -11.52100 46.45300 42.94100
H  -11.47400 44.89000 43.66100
H  -14.38100 41.38700 42.54500
H  -14.42300 39.43700 44.71900
H  -14.40400 41.53700 45.40000
H  -14.64700 42.87800 44.22700
H  -13.00700 42.29900 44.86400
H  -16.12900 39.64800 42.85900
H  -15.71800 38.14600 43.30400
H  -13.91900 38.92600 40.95700
H  -15.64100 39.33700 40.69000
H  -15.05400 37.71700 41.15500
H  -11.43600 33.20000 43.18300
H  -12.95600 34.24100 42.93700
H  -12.03000 34.16600 44.49100
H  -7.34200 34.77900 40.37900
H  -4.85600 33.00200 44.04900
H  -3.83500 33.99400 43.05400
H  -4.15900 32.37600 42.52000

