158

Mg 2.45500 -2.45500 45.06200
C  5.76600 -1.81300 44.44000
C  1.62000 0.15300 42.84000
C  -0.85500 -3.42100 45.07200
C  3.29100 -5.51700 46.55900
N  3.54300 -0.95500 43.94500
C  4.92500 -0.89700 43.81900
C  5.45200 0.16200 42.81200
C  4.06200 0.80900 42.38500
C  3.00600 -0.08000 43.08200
C  3.93400 2.22000 42.93400
C  6.30900 -0.35500 41.60100
C  7.72200 0.27500 41.47000
H  8.01800 1.01600 40.21200
N  0.62200 -1.54400 44.33300
C  0.51800 -0.53600 43.38200
C  -0.85300 -0.31300 43.18900
C  -1.63200 -1.21700 43.96900
C  -0.64400 -2.12200 44.55400
C  -1.28900 0.88000 42.25800
C  -3.14100 -1.17200 44.14000
O  -3.85700 -0.37000 43.48800
C  -3.73000 -2.01900 45.11800
N  1.40000 -4.34000 45.58200
C  0.04300 -4.37100 45.58800
C  -0.48100 -5.66800 46.26500
C  0.85700 -6.39300 46.67300
C  1.93700 -5.46600 46.14000
C  -1.62300 -5.45200 47.34300
C  0.91300 -7.83000 46.10700
C  0.53200 -9.03200 47.07000
N  4.16300 -3.44700 45.52800
C  4.33500 -4.70600 46.06700
C  5.79100 -4.97900 46.18400
C  6.43400 -3.84100 45.55000
C  5.39700 -3.01300 45.17800
C  6.50600 -6.20500 46.75200
C  7.72000 -3.20600 45.19800
O  8.88800 -3.50100 45.43300
C  7.30800 -1.89700 44.45900
C  7.76200 -0.75200 45.25800
O  7.61700 -0.64400 46.46600
O  8.45400 0.19000 44.46300
C  8.69400 1.46700 45.05900
H  1.49000 0.84900 42.00900
H  -1.91100 -3.60300 45.28400
H  3.60400 -6.47200 46.98700
H  5.98700 0.90000 43.41000
H  3.81600 0.82700 41.32300
H  3.74200 2.89100 42.09700
H  4.74100 2.50300 43.60800
H  3.04600 2.37800 43.54600
H  5.80500 -0.12600 40.66100
H  6.28200 -1.43700 41.73000
H  8.39300 -0.56000 41.67200
H  7.98800 1.00200 42.23700
H  -2.18200 0.49700 41.76400
H  -0.59600 1.09200 41.44400
H  -1.41700 1.82600 42.78400
H  -3.16300 -2.04300 46.04800
H  -3.77400 -3.01100 44.66800
H  -4.77200 -1.75700 45.29900
H  -1.00600 -6.21500 45.48200
H  0.94800 -6.55300 47.74800
H  -2.07600 -4.46200 47.30200
H  -1.27800 -5.39700 48.37500
H  -2.42800 -6.18100 47.25100
H  1.95100 -7.98300 45.81200
H  0.36000 -8.03400 45.19000
H  -0.42000 -9.38800 46.67800
H  0.27900 -8.65500 48.06100
H  1.36900 -9.72700 47.13600
H  6.09000 -6.54500 47.70100
H  7.56500 -5.98500 46.88400
H  6.42300 -6.92500 45.93900
H  7.79900 -1.97600 43.48900
H  7.80500 1.80800 45.59000
H  8.85100 2.21300 44.28000
H  9.53500 1.39300 45.74800
Mg 27.28000 50.99900 26.87800
C  25.31400 51.95800 29.65300
C  29.80600 50.16700 29.19900
C  29.43200 50.73700 24.37800
C  24.80000 52.34300 24.77600
N  27.53100 51.01700 29.13100
C  26.55300 51.42800 30.02300
C  26.95800 51.11100 31.41500
C  28.47700 50.66200 31.29200
C  28.62200 50.61100 29.76200
C  29.48900 51.67000 31.93400
C  25.97500 50.03000 32.09800
C  25.07600 50.36500 33.21000
H  25.31400 49.66500 34.58300
N  29.29800 50.27600 26.75300
C  30.12300 50.03700 27.79200
C  31.39400 49.49100 27.23200
C  31.29300 49.66700 25.80400
C  29.94900 50.23700 25.59100
C  32.46900 48.97800 28.01700
C  32.24800 49.41300 24.79200
O  32.07900 49.62100 23.58200
C  33.52400 48.76200 25.07600
N  27.27900 51.86900 24.83800
C  28.18300 51.34700 23.98600
C  27.70700 51.41300 22.55600
C  26.16200 51.69800 22.80100
C  26.08000 52.00900 24.28600
C  28.53300 52.48300 21.65400
C  25.17300 50.60400 22.32500
C  24.05700 50.94600 21.33700
N  25.37100 51.93100 27.04600
C  24.46200 52.31100 26.12100
C  23.30600 52.85800 26.84900
C  23.56600 52.72400 28.19300
C  24.84800 52.13000 28.28900
C  22.12700 53.48600 26.17800
C  22.99500 52.83200 29.42500
O  21.88900 53.24100 29.77200
C  24.05800 52.24400 30.46500
C  24.23700 53.18900 31.53200
O  25.18200 54.00100 31.63900
O  23.28300 52.98100 32.53200
C  23.20800 53.99300 33.66300
H  30.61300 49.73700 29.79500
H  29.94500 50.54900 23.43300
H  23.94200 52.50200 24.12000
H  27.01300 52.06000 31.94800
H  28.56400 49.72200 31.83600
H  29.70200 52.47200 31.22600
H  30.35800 51.09900 32.26300
H  29.01400 52.19600 32.76200
H  26.64200 49.23700 32.43500
H  25.42500 49.57900 31.27200
H  24.03300 50.29700 32.90000
H  25.27600 51.38300 33.54300
H  32.41800 49.26900 29.06600
H  33.42900 49.43400 27.77700
H  32.51600 47.91300 27.79200
H  34.26700 48.56700 24.30200
H  33.44200 47.84000 25.65200
H  34.05300 49.50600 25.67100
H  27.85800 50.38900 22.21400
H  25.92800 52.53900 22.14900
H  28.71000 51.90900 20.74400
H  29.49500 52.83600 22.02400
H  27.94000 53.37500 21.45200
H  24.59500 50.24900 23.17700
H  25.69200 49.69100 22.03200
H  24.13500 51.98500 21.01700
H  23.10400 50.80800 21.84700
H  24.05600 50.43200 20.37600
H  22.58600 54.09000 25.39500
H  21.59700 54.05900 26.94000
H  21.40500 52.88600 25.62500
H  23.69700 51.29600 30.86200
H  23.49600 55.03600 33.52600
H  23.81700 53.58800 34.47200
H  22.18700 53.97000 34.04300

