158

Mg 46.28800 25.56100 28.08000
C  47.64800 27.39600 30.72600
C  45.48300 23.20900 30.55700
C  45.60600 23.35100 25.72600
C  48.00400 27.52200 25.85300
N  46.37300 25.43700 30.35400
C  46.83800 26.39300 31.21200
C  46.43800 26.18100 32.65200
C  45.90000 24.71200 32.68300
C  45.91000 24.38700 31.10900
C  46.48400 23.61600 33.53400
C  45.35500 27.19100 33.10800
C  44.62500 26.94000 34.45600
H  45.00200 27.83500 35.66900
N  45.57400 23.59100 28.12600
C  45.33200 22.76000 29.20300
C  44.78400 21.48800 28.79400
C  44.71000 21.55100 27.41000
C  45.29700 22.86900 27.03100
C  44.45500 20.27200 29.72800
C  44.29300 20.44900 26.47600
O  44.32600 20.48300 25.26500
C  43.75000 19.15600 27.06200
N  46.73500 25.47800 26.00800
C  46.15900 24.50100 25.23200
C  46.30400 24.97000 23.73800
C  47.00200 26.37200 23.79000
C  47.21100 26.51600 25.30300
C  46.83800 23.88700 22.73000
C  46.40400 27.62900 23.06800
C  46.13700 27.62500 21.61900
N  47.63400 27.11500 28.13500
C  48.30500 27.85800 27.17900
C  49.17500 28.83600 27.83100
C  48.85100 28.72900 29.19700
C  47.96400 27.62300 29.39100
C  49.98700 29.83900 27.16300
C  49.09100 29.30700 30.47400
O  49.80000 30.21100 30.84200
C  48.24200 28.57100 31.50900
C  49.08700 28.08700 32.63600
O  50.02700 27.30200 32.51100
O  48.71900 28.67300 33.79600
C  49.34100 28.17400 35.01100
H  45.10100 22.58400 31.36600
H  45.17400 22.63800 25.02000
H  48.53200 28.11400 25.10200
H  47.31400 26.19700 33.30000
H  44.83600 24.80100 32.90300
H  45.73700 23.25200 34.24000
H  47.19900 24.17900 34.13500
H  46.89300 22.74500 33.02100
H  44.60200 27.34800 32.33600
H  45.92600 28.11900 33.13200
H  44.95000 25.94400 34.75500
H  43.55300 26.87900 34.27000
H  43.49100 19.76400 29.75900
H  44.53900 20.62700 30.75500
H  45.19000 19.49900 29.50300
H  42.85300 19.47100 27.59500
H  44.49100 18.68900 27.71100
H  43.44200 18.39700 26.34300
H  45.30800 25.28800 23.42800
H  48.01600 26.21900 23.41800
H  46.73200 22.90900 23.20000
H  47.90100 24.07400 22.57900
H  46.31300 23.83900 21.77500
H  47.09100 28.45100 23.27100
H  45.43800 27.87000 23.51000
H  46.64100 26.67900 21.42300
H  46.65100 28.43000 21.09300
H  45.08300 27.56100 21.34900
H  50.11000 29.68200 26.09100
H  51.00900 29.81800 27.53900
H  49.56900 30.83900 27.28200
H  47.45900 29.24300 31.86000
H  49.65000 29.09600 35.50500
H  50.24500 27.58200 34.87300
H  48.58400 27.72400 35.65300
Mg 9.51900 48.54000 25.26400
C  7.58100 48.93500 28.07200
C  12.11600 49.95100 27.04700
C  11.46300 48.25800 22.58200
C  6.73700 47.99900 23.34500
N  9.74500 49.30600 27.26800
C  8.89700 49.26400 28.27800
C  9.43600 49.88100 29.61900
C  10.64000 50.63800 29.00400
C  10.84100 49.94000 27.68400
C  10.49200 52.18100 28.92100
C  9.79600 48.82900 30.69700
C  9.25500 49.14600 32.19400
H  9.97900 50.09500 33.12900
N  11.55700 48.89700 24.93700
C  12.43100 49.48200 25.81200
C  13.72300 49.43000 25.21400
C  13.62000 48.95400 23.94900
C  12.18800 48.65700 23.74500
C  15.00400 49.74600 25.96600
C  14.67100 48.81000 22.85000
O  14.38600 48.44600 21.70200
C  16.20200 49.17500 23.04300
N  9.11300 48.40200 23.22200
C  10.11300 48.07900 22.35600
C  9.54500 47.78700 20.92000
C  8.00600 47.62800 21.16800
C  7.91000 48.09400 22.67200
C  10.13800 48.76200 19.83300
C  7.40000 46.20900 20.93000
C  6.78300 46.12300 19.48400
N  7.48800 48.46900 25.59800
C  6.46100 48.21800 24.74300
C  5.19200 48.15600 25.50600
C  5.62200 48.36800 26.80600
C  6.99100 48.63000 26.78400
C  3.83400 47.92400 24.94100
C  5.16900 48.58000 28.18000
O  4.02900 48.54400 28.70200
C  6.42700 48.94000 28.99700
C  6.54300 47.89300 30.00900
O  7.01800 46.78300 29.74300
O  6.16500 48.22000 31.29300
C  6.18000 47.10400 32.21800
H  12.86700 50.37200 27.71900
H  11.98200 48.04100 21.64600
H  5.92400 47.64800 22.70600
H  8.67000 50.56200 29.99000
H  11.55000 50.42200 29.56400
H  9.77800 52.54000 29.66300
H  9.87300 52.40300 28.05200
H  11.45900 52.68100 28.97400
H  10.85800 48.58200 30.68900
H  9.36700 47.92400 30.26700
H  9.06700 48.22500 32.74600
H  8.27700 49.59800 32.02400
H  15.00300 50.15700 26.97600
H  15.41900 50.57000 25.38500
H  15.67900 48.89000 25.96600
H  16.81500 48.64600 23.77300
H  16.05500 50.23400 23.25200
H  16.71700 49.01700 22.09500
H  9.89300 46.76300 20.78600
H  7.49300 48.30900 20.49000
H  9.37500 49.54000 19.82400
H  10.20400 48.32000 18.83800
H  11.13700 49.16600 19.99300
H  6.58300 46.08200 21.64000
H  8.15100 45.43100 21.07400
H  7.52100 45.72600 18.78700
H  6.22200 46.95400 19.05600
H  6.13300 45.24900 19.46400
H  3.75800 46.91200 24.54400
H  3.70800 48.60900 24.10200
H  3.03300 47.92300 25.68000
H  6.26700 49.91000 29.46800
H  7.18200 46.67800 32.26400
H  5.39500 46.43000 31.87600
H  5.83700 47.49600 33.17600

