158

Mg 7.56900 2.50500 27.73200
C  9.18000 0.90800 30.58000
C  5.55700 4.09000 29.88400
C  5.90500 3.55400 25.09400
C  9.43000 0.21700 25.72800
N  7.37700 2.43200 29.92100
C  8.15100 1.81400 30.89400
C  7.95200 2.53100 32.17500
C  6.63500 3.38100 32.01100
C  6.50300 3.29400 30.53000
C  5.39800 2.89400 32.82900
C  9.17200 3.38100 32.65500
C  9.02600 3.52000 34.19100
H  10.23200 3.04300 35.03800
N  6.05600 3.81600 27.51300
C  5.33400 4.30800 28.53600
C  4.28500 5.05000 27.98900
C  4.45300 5.13800 26.59800
C  5.49300 4.15000 26.32200
C  3.20700 5.73700 28.73900
C  3.71100 5.92100 25.53900
O  4.02100 5.92700 24.38600
C  2.49300 6.81600 25.84800
N  7.66300 1.87900 25.70700
C  6.91000 2.56700 24.82500
C  7.06900 1.90500 23.41500
C  8.28700 0.95700 23.58300
C  8.53400 0.99500 25.09000
C  5.82100 1.24800 22.89700
C  9.56300 1.29700 22.77100
C  9.87200 0.45000 21.54700
N  8.86600 0.80100 28.06200
C  9.53400 0.02600 27.08700
C  10.48200 -0.86600 27.72300
C  10.40500 -0.56300 29.10700
C  9.33600 0.40600 29.27500
C  11.39500 -1.81300 27.05300
C  10.95600 -0.87000 30.49000
O  11.84200 -1.57800 30.91800
C  10.15600 0.10500 31.48300
C  9.46900 -0.68200 32.61200
O  8.39000 -1.27000 32.49000
O  10.21300 -0.70200 33.75400
C  9.49500 -1.17000 34.95400
H  5.09500 4.74300 30.62800
H  5.27400 3.86300 24.25800
H  10.03600 -0.41500 25.07500
H  7.70100 1.78800 32.93200
H  6.79400 4.40400 32.35300
H  5.55200 1.93300 33.32000
H  4.54100 2.82600 32.15900
H  5.24300 3.74500 33.49200
H  9.21100 4.37500 32.20900
H  10.10700 2.90200 32.36500
H  8.14300 2.98400 34.54000
H  8.85100 4.56100 34.46000
H  3.23100 5.49800 29.80200
H  2.21800 5.43900 28.39100
H  3.26900 6.81900 28.62100
H  1.66800 6.20700 26.21600
H  2.21500 7.35700 24.94400
H  2.70600 7.56100 26.61500
H  7.34200 2.69000 22.70900
H  8.03700 -0.06100 23.28500
H  5.04600 1.27900 23.66300
H  6.13400 0.24200 22.61900
H  5.51000 1.79800 22.00800
H  10.42200 1.19600 23.43400
H  9.41400 2.29300 22.35600
H  10.23000 -0.49300 21.96100
H  10.60800 1.01900 20.98000
H  9.00600 0.22000 20.92600
H  10.98100 -2.78400 26.78200
H  12.16300 -2.04500 27.79100
H  11.84900 -1.26700 26.22600
H  10.84400 0.75200 32.02700
H  8.85200 -2.03100 34.77500
H  8.92600 -0.33500 35.36200
H  10.33300 -1.53900 35.54600
Mg 39.85600 10.42300 29.91900
C  42.02500 11.32100 32.51700
C  37.78400 9.04900 32.36500
C  38.09400 9.14200 27.45800
C  42.55700 11.12000 27.69400
N  39.90500 10.29200 32.19100
C  40.80800 10.80100 32.99700
C  40.45400 10.62200 34.45800
C  39.16300 9.71600 34.35400
C  38.93700 9.67600 32.87500
C  39.30300 8.24200 34.86400
C  40.27900 11.98000 35.28600
C  40.01500 11.62000 36.73400
H  40.03400 12.78500 37.63900
N  38.07400 9.42600 29.89500
C  37.35100 8.96800 30.99300
C  36.21300 8.33900 30.49000
C  36.20500 8.41700 29.03800
C  37.51400 8.99100 28.73400
C  35.08600 7.77300 31.37300
C  35.21300 7.92800 28.09000
O  35.37900 8.00600 26.86100
C  33.87700 7.37800 28.48000
N  40.27300 10.15300 27.83100
C  39.35800 9.64000 27.03900
C  39.91100 9.46700 25.58000
C  41.21400 10.38400 25.67300
C  41.31600 10.64000 27.20000
C  40.23500 8.08400 24.89800
C  41.09100 11.63900 24.77300
C  40.43900 12.97100 25.33700
N  41.86700 11.03600 29.97600
C  42.84300 11.28200 29.07300
C  44.05600 11.73600 29.65000
C  43.73500 11.85900 30.98900
C  42.38200 11.41400 31.15200
C  45.37400 11.92900 28.93400
C  44.24600 12.28500 32.28800
O  45.36700 12.72300 32.51400
C  43.16900 12.01300 33.32200
C  43.71100 11.13200 34.38600
O  44.26100 10.06300 34.29100
O  43.43900 11.66600 35.60200
C  43.97300 11.02900 36.81800
H  37.17300 8.61700 33.16000
H  37.50800 8.82700 26.59100
H  43.38000 11.25200 26.98800
H  41.27600 10.15600 35.00100
H  38.25400 10.01500 34.87600
H  39.21500 7.47900 34.09000
H  38.51100 8.06000 35.59000
H  40.19800 8.07900 35.46400
H  39.36700 12.37200 34.83700
H  41.16800 12.61200 35.27700
H  40.82600 10.97300 37.06700
H  39.10900 11.01500 36.76600
H  35.36100 7.76900 32.42700
H  34.86100 6.78000 30.98200
H  34.19200 8.35800 31.15400
H  33.25400 8.07200 29.04300
H  34.05000 6.45800 29.03800
H  33.35200 7.01300 27.59700
H  39.16300 9.93000 24.93700
H  42.08700 9.82200 25.34200
H  40.24400 7.36000 25.71400
H  41.22300 8.13200 24.44000
H  39.43200 7.96600 24.17100
H  40.44200 11.27400 23.97700
H  42.08000 11.86600 24.37700
H  41.18600 13.75700 25.23000
H  40.04300 12.90900 26.35000
H  39.52500 13.26300 24.81800
H  45.29400 12.79900 28.28200
H  45.58100 11.05100 28.32200
H  46.16300 12.16300 29.64900
H  42.77700 12.94400 33.73000
H  45.00600 11.37600 36.79500
H  43.94500 9.93900 36.81700
H  43.44900 11.46700 37.66700

