158

Mg 49.51000 45.04400 42.04600
C  46.36600 46.00800 40.67100
C  48.96100 41.91200 40.49000
C  52.77000 44.50100 42.02300
C  49.94600 48.41200 42.82500
N  47.78700 44.08900 40.74000
C  46.68200 44.66800 40.32800
C  45.74800 43.76800 39.51200
C  46.49700 42.35800 39.71500
C  47.83500 42.76400 40.35900
C  45.60300 41.34200 40.54300
C  45.66500 44.32400 38.05000
C  44.29500 44.30900 37.38800
H  44.21000 44.00500 35.89800
N  50.60900 43.34200 41.43000
C  50.24100 42.24200 40.86600
C  51.35500 41.25700 41.08900
C  52.43600 41.95400 41.56200
C  51.98300 43.34400 41.60900
C  51.17500 39.76300 40.78400
C  53.74700 41.28900 41.84200
O  53.97700 40.08900 41.66800
C  54.94000 42.05700 42.29000
N  51.19300 46.35900 42.16200
C  52.44200 45.89000 42.19900
C  53.44700 46.95700 42.71900
C  52.47900 48.17200 43.05700
C  51.08900 47.59000 42.66400
C  54.32200 46.50800 43.88900
C  52.76400 49.58800 42.45400
C  53.11000 50.71300 43.46200
N  48.38300 46.83100 41.97600
C  48.68500 48.05600 42.45900
C  47.51200 48.92900 42.44200
C  46.51500 48.16700 41.70000
C  47.16500 46.92200 41.39600
C  47.39200 50.36900 42.86500
C  45.21300 48.22400 41.08400
O  44.43800 49.19700 41.03200
C  45.07300 46.81300 40.33900
C  43.80500 46.16500 40.81700
O  42.74100 45.94700 40.23100
O  43.96000 45.92000 42.17600
C  42.90600 45.35600 42.97900
H  48.86100 40.85800 40.22200
H  53.84800 44.43900 41.85600
H  50.02600 49.41400 43.25300
H  44.77700 43.74100 40.00500
H  46.65400 41.77100 38.81000
H  44.58400 41.72800 40.49700
H  46.00100 41.18500 41.54500
H  45.51900 40.33700 40.12800
H  46.29900 43.66500 37.45700
H  46.18900 45.27800 37.98500
H  43.85500 45.28100 37.60900
H  43.67200 43.61100 37.94800
H  52.03800 39.14400 41.03100
H  50.96500 39.73700 39.71500
H  50.27600 39.33900 41.23100
H  54.57300 42.76100 43.03800
H  55.18600 42.58300 41.36700
H  55.76100 41.45000 42.67000
H  54.02700 47.19300 41.82700
H  52.29100 48.12700 44.13000
H  53.93800 46.91300 44.82500
H  55.24900 47.06300 43.73800
H  54.33700 45.41900 43.92700
H  51.98400 50.05500 41.85200
H  53.58900 49.48300 41.74900
H  53.23700 50.32700 44.47400
H  52.29400 51.41800 43.62300
H  54.01400 51.19300 43.08800
H  48.13900 50.40200 43.65800
H  46.38300 50.61000 43.20000
H  47.60400 50.91600 41.94700
H  45.08800 47.01300 39.26700
H  42.73800 46.13100 43.72700
H  43.30000 44.48400 43.50100
H  41.98700 45.13700 42.43600
Mg 6.46700 54.55900 40.43900
C  5.73700 51.09000 40.14600
C  9.66900 53.86900 39.96500
C  6.83300 57.59600 39.49400
C  2.98300 54.98500 40.90700
N  7.48200 52.75400 39.93200
C  7.04900 51.43400 39.92600
C  8.24200 50.42700 39.63100
C  9.38600 51.41100 40.05700
C  8.85200 52.77400 40.06200
C  9.98900 51.05900 41.48400
C  8.26700 49.95200 38.19300
C  8.01600 50.99300 37.09700
H  6.84100 50.65900 36.09800
N  8.15800 55.66500 39.99900
C  9.41900 55.26800 39.90400
C  10.28600 56.32800 39.64700
C  9.43800 57.50900 39.32400
C  8.05800 56.96500 39.56400
C  11.85600 56.26400 39.58900
C  9.90500 58.94400 38.98100
O  11.06900 59.25100 38.93900
C  8.97800 60.09600 38.95000
N  5.07400 56.06000 40.18000
C  5.52900 57.27000 39.81100
C  4.27400 58.27500 39.58900
C  3.09400 57.47400 40.17800
C  3.66400 56.07200 40.36200
C  4.51500 59.54500 40.49800
C  1.78800 57.47300 39.26900
C  0.43600 57.84900 39.84700
N  4.67900 53.30200 40.54600
C  3.43500 53.62500 40.92100
C  2.67600 52.47200 41.25200
C  3.53300 51.40300 40.84000
C  4.72800 51.98400 40.42600
C  1.23900 52.48100 41.65000
C  3.66500 49.91100 40.82100
O  2.96800 49.00600 41.28900
C  5.09900 49.73500 40.32800
C  5.02300 48.93500 38.99600
O  4.59800 49.45300 37.96000
O  5.37300 47.66500 39.20600
C  5.40000 46.89900 37.99000
H  10.71700 53.56800 40.02800
H  6.93000 58.60200 39.08000
H  1.97900 55.23900 41.25100
H  8.12300 49.60900 40.34200
H  10.27100 51.35100 39.42400
H  10.94700 50.58500 41.27400
H  9.35900 50.35100 42.02300
H  10.09700 51.89200 42.17900
H  7.58100 49.11500 38.06600
H  9.28500 49.65500 37.93900
H  8.91200 51.17300 36.50300
H  7.76400 51.93900 37.57600
H  12.25700 56.23100 38.57600
H  12.20400 55.40300 40.15800
H  12.36800 56.97000 40.24300
H  9.52200 60.99800 39.23100
H  8.19000 60.07100 39.70200
H  8.58200 60.14700 37.93600
H  4.22900 58.49100 38.52200
H  2.77700 57.83700 41.15600
H  4.16500 60.40600 39.92800
H  5.53200 59.60100 40.88600
H  3.93100 59.50900 41.41800
H  1.56100 56.43100 39.04100
H  1.92500 58.07500 38.37100
H  -0.38300 57.13200 39.79700
H  0.09100 58.66500 39.21200
H  0.61600 58.09200 40.89400
H  1.12000 53.32100 42.33400
H  0.90300 51.66100 42.28500
H  0.55600 52.64000 40.81600
H  5.59700 49.05300 41.01700
H  5.76500 47.49900 37.15800
H  4.36500 46.60100 37.82400
H  5.96700 45.97800 38.13300

