158

Mg 47.35000 24.83600 29.46100
C  48.09400 27.24200 31.94900
C  46.22300 22.79100 32.05100
C  46.81200 22.56500 27.21800
C  48.90700 26.90900 27.05900
N  47.14500 24.98800 31.69900
C  47.52800 26.07600 32.45200
C  47.18000 25.81900 33.91600
C  47.00200 24.25400 33.95500
C  46.72900 24.01600 32.50800
C  48.19200 23.54800 34.61200
C  46.02200 26.70400 34.46500
C  46.39000 27.58800 35.72200
H  46.52100 26.84900 37.06400
N  46.57600 22.96500 29.65100
C  46.18600 22.28300 30.74100
C  45.68400 20.96000 30.36900
C  45.80300 20.92000 28.92400
C  46.39800 22.19400 28.51600
C  45.01800 19.98800 31.34400
C  45.41200 19.81000 28.02200
O  45.49700 19.89500 26.84700
C  45.13500 18.37700 28.57600
N  47.74300 24.78500 27.42500
C  47.45600 23.70100 26.65200
C  47.72300 23.89700 25.16700
C  48.33100 25.31800 25.12100
C  48.35300 25.71600 26.61200
C  48.66900 22.77300 24.69300
C  47.57500 26.46900 24.25300
C  48.54500 27.06400 23.24100
N  48.28800 26.71900 29.46400
C  48.90600 27.41100 28.41800
C  49.35800 28.71500 28.90500
C  49.10800 28.63200 30.30700
C  48.40400 27.44200 30.58500
C  50.02300 29.79600 28.17200
C  49.22000 29.43200 31.58400
O  49.69400 30.53600 31.74000
C  48.55900 28.51700 32.65500
C  49.73300 28.13600 33.63000
O  50.71000 27.42500 33.41600
O  49.52400 28.65500 34.92000
C  50.62700 28.36300 35.86300
H  46.08300 22.19900 32.95900
H  46.47400 21.93500 26.39300
H  49.28800 27.66400 26.36800
H  48.10200 25.93300 34.48600
H  46.08700 23.99000 34.48400
H  47.91300 22.76100 35.31300
H  48.93100 24.23500 35.02300
H  48.66300 22.86700 33.90300
H  45.20800 26.02200 34.71300
H  45.44800 27.27700 33.73700
H  45.70300 28.42900 35.82100
H  47.37800 28.03800 35.63100
H  45.60400 19.07600 31.45500
H  44.03100 19.60700 31.08300
H  44.95000 20.34200 32.37200
H  45.84200 18.01900 29.32400
H  45.15200 17.65700 27.75800
H  44.16400 18.49100 29.05900
H  46.80700 23.91600 24.57600
H  49.33000 25.22800 24.69500
H  49.07400 23.18200 23.76700
H  48.13200 21.86300 24.42400
H  49.40000 22.63500 25.49000
H  47.19700 27.28500 24.86800
H  46.64800 26.16100 23.77100
H  48.71000 28.13800 23.32400
H  48.07100 26.99400 22.26200
H  49.56700 26.68900 23.17400
H  49.97500 29.63900 27.09500
H  51.08700 29.88300 28.39500
H  49.43600 30.66800 28.46300
H  47.66900 28.82200 33.20400
H  50.04900 27.76200 36.56500
H  50.97400 29.29800 36.30400
H  51.41400 27.70700 35.49000
Mg 1.11800 42.45200 26.27700
C  2.97600 42.17900 29.23200
C  -1.63400 41.62600 28.13700
C  -0.54200 42.02200 23.45500
C  4.08300 42.96900 24.63500
N  0.68300 42.04500 28.50700
C  1.60200 42.15200 29.46700
C  0.95500 42.39000 30.78900
C  -0.57500 42.09000 30.43800
C  -0.53300 41.86100 28.95300
C  -1.27600 40.97500 31.18500
C  1.33000 43.77500 31.32200
C  1.83700 43.75700 32.77500
H  1.51800 42.51100 33.65400
N  -0.76800 41.78900 25.89200
C  -1.78800 41.46500 26.73200
C  -2.87100 40.82100 26.03100
C  -2.49900 40.84000 24.63100
C  -1.25800 41.57400 24.55700
C  -4.05300 40.14200 26.76400
C  -3.19700 40.22000 23.42800
O  -2.77300 40.35500 22.26300
C  -4.40400 39.36800 23.64700
N  1.68400 42.51600 24.33600
C  0.73600 42.46700 23.34000
C  1.41700 42.82900 21.92600
C  2.88400 43.18800 22.38400
C  2.90400 42.89800 23.86600
C  1.43400 41.59600 20.92000
C  3.26800 44.69300 22.03200
C  2.34300 45.76400 22.59100
N  3.10000 42.52700 26.69700
C  4.18900 42.87200 25.96700
C  5.42000 42.91600 26.79200
C  4.98100 42.68100 28.06600
C  3.58000 42.36700 27.94600
C  6.84400 43.19700 26.36500
C  5.31200 42.57200 29.42300
O  6.36900 42.72200 30.00900
C  4.09200 42.27300 30.21500
C  4.28900 41.01300 31.14400
O  3.85600 39.89500 30.88700
O  4.86700 41.45700 32.33000
C  5.31800 40.36300 33.19300
H  -2.56500 41.35900 28.64000
H  -1.02700 41.97400 22.47700
H  4.93600 43.17200 23.98500
H  1.38600 41.61400 31.42100
H  -1.11700 43.02000 30.61100
H  -1.46500 40.14300 30.50700
H  -2.20200 41.24300 31.69300
H  -0.58700 40.60600 31.94600
H  0.49600 44.45600 31.15100
H  2.13600 44.12500 30.67700
H  1.33200 44.56100 33.30900
H  2.87200 44.09800 32.76500
H  -3.90700 39.14500 27.18000
H  -4.95700 40.14100 26.15500
H  -4.37000 40.77200 27.59500
H  -4.78800 38.94300 22.72000
H  -5.16300 39.99100 24.12200
H  -4.17400 38.53600 24.31200
H  0.89200 43.64700 21.43100
H  3.59300 42.49200 21.93500
H  1.14500 40.74900 21.54300
H  2.42900 41.51500 20.48500
H  0.62800 41.72100 20.19700
H  3.21700 44.78800 20.94800
H  4.31400 44.84600 22.29800
H  1.97700 46.30300 21.71800
H  2.93000 46.39300 23.26000
H  1.54100 45.31600 23.17800
H  7.51700 42.33900 26.38600
H  7.23600 43.81700 27.17100
H  6.79400 43.81400 25.46900
H  4.05000 43.15100 30.85900
H  5.14500 40.66100 34.22700
H  6.39700 40.21300 33.23600
H  4.89300 39.38300 32.97400

