158

Mg 47.03400 24.99800 28.47200
C  48.02700 27.35700 30.82100
C  46.56900 22.71600 31.07600
C  46.15000 22.61100 26.16100
C  48.37500 27.02200 25.96500
N  47.28200 25.10600 30.69900
C  47.48700 26.22900 31.39300
C  47.40900 25.98800 32.90800
C  47.18100 24.41800 32.94300
C  46.94700 24.00400 31.47900
C  48.25200 23.63900 33.71000
C  46.22400 26.75200 33.56900
C  45.56800 26.25800 34.84800
H  45.34100 27.17800 36.03600
N  46.32500 23.00000 28.61500
C  46.15600 22.21400 29.80700
C  45.68500 20.89900 29.48300
C  45.55600 20.83800 28.04200
C  45.97200 22.17600 27.56400
C  45.62800 19.67600 30.48100
C  45.18800 19.60000 27.14600
O  45.26200 19.74600 25.97100
C  44.78200 18.29500 27.72900
N  47.29500 24.84500 26.41000
C  46.74600 23.77800 25.68700
C  46.90200 24.07400 24.19700
C  47.29600 25.55000 24.15900
C  47.73700 25.82100 25.62300
C  47.75900 23.02400 23.53300
C  46.29300 26.65400 23.58400
C  46.77400 27.50900 22.38700
N  47.96300 26.76500 28.33100
C  48.54900 27.44900 27.27200
C  49.13000 28.66600 27.72100
C  48.93000 28.65300 29.07700
C  48.21000 27.53400 29.42400
C  49.77900 29.68500 26.94000
C  49.17500 29.38600 30.21700
O  49.75800 30.39300 30.37700
C  48.48800 28.62400 31.43600
C  49.48900 28.40200 32.52200
O  50.52000 27.77200 32.42800
O  49.18900 29.24800 33.59300
C  50.11800 29.21900 34.75900
H  46.46600 21.98900 31.88500
H  45.84500 21.97500 25.32700
H  48.60800 27.73900 25.17500
H  48.36100 26.17600 33.40600
H  46.26000 24.22100 33.49300
H  49.15100 24.25500 33.73300
H  48.49000 22.75600 33.11800
H  47.97900 23.31300 34.71400
H  45.40900 26.87500 32.85600
H  46.43500 27.81000 33.72800
H  46.16500 25.44900 35.26800
H  44.61300 25.77700 34.63300
H  44.67400 19.15200 30.55200
H  46.00500 20.03000 31.44000
H  46.34600 19.01900 29.99000
H  43.93000 18.38600 28.40300
H  45.62500 17.89000 28.28900
H  44.62900 17.54500 26.95300
H  45.92100 24.01100 23.72700
H  48.19100 25.78100 23.58200
H  48.57000 23.55700 23.03600
H  47.21800 22.42900 22.79800
H  48.16700 22.34100 24.27800
H  45.93200 27.35200 24.34000
H  45.47000 26.10900 23.12100
H  46.08400 27.34500 21.55900
H  47.76000 27.21300 22.02700
H  46.68700 28.53100 22.75500
H  50.50600 29.30400 26.22300
H  50.22900 30.46900 27.54800
H  49.03800 30.22700 26.35100
H  47.64400 29.15500 31.87700
H  49.78400 28.58100 35.57700
H  50.01000 30.18300 35.25400
H  51.14400 29.06800 34.42100
Mg -10.63600 16.21800 40.89500
C  -7.22700 16.45100 40.58300
C  -10.82600 19.56300 40.21200
C  -13.96600 15.81300 40.59600
C  -10.31500 12.66300 41.13400
N  -9.14200 17.79900 40.40100
C  -7.79600 17.67000 40.29200
C  -7.15200 19.08700 40.01600
C  -8.30800 20.04600 40.49200
C  -9.54300 19.09100 40.35000
C  -8.17100 20.66300 41.92600
C  -6.70300 19.16200 38.53300
C  -5.24500 18.85700 38.28700
H  -4.75200 17.74800 37.26100
N  -12.16700 17.48100 40.44300
C  -12.04500 18.78200 40.19700
C  -13.33800 19.38400 40.01300
C  -14.35700 18.30100 40.02600
C  -13.48200 17.11800 40.31300
C  -13.57700 20.85800 39.66200
C  -15.93000 18.43700 39.72000
O  -16.53900 19.49500 39.74800
C  -16.79600 17.20400 39.49700
N  -11.91900 14.50900 40.69100
C  -13.26600 14.66700 40.77300
C  -13.98300 13.34900 40.97300
C  -12.83900 12.29000 40.78800
C  -11.57800 13.18500 40.92800
C  -14.87800 13.30900 42.31300
C  -12.73300 11.33400 39.57000
C  -12.31700 11.81300 38.17200
N  -9.04800 14.72400 40.93700
C  -9.05100 13.36100 41.08000
C  -7.67600 12.90500 41.25000
C  -6.90200 14.08300 41.02000
C  -7.80600 15.12600 40.81400
C  -7.24700 11.54600 41.38100
C  -5.56100 14.67300 40.99400
O  -4.46600 14.15200 41.09700
C  -5.72300 16.24000 40.60100
C  -4.91100 17.06400 41.60300
O  -3.71300 17.13100 41.55100
O  -5.60600 17.68400 42.58700
C  -4.75200 18.54800 43.46000
H  -10.84300 20.63600 40.01100
H  -15.04900 15.69300 40.67400
H  -10.17200 11.59400 41.30100
H  -6.19900 19.30100 40.50200
H  -8.44800 20.96500 39.92200
H  -8.75100 20.26500 42.75900
H  -8.52900 21.68000 41.76900
H  -7.12100 20.77300 42.19600
H  -6.92300 20.19000 38.24500
H  -7.42800 18.65400 37.89700
H  -4.74100 18.56600 39.20900
H  -4.77500 19.81300 38.06000
H  -12.81600 21.13500 38.93300
H  -13.60500 21.47100 40.56200
H  -14.55100 20.89200 39.17300
H  -16.29900 16.45800 38.87600
H  -17.68900 17.51000 38.95200
H  -17.13300 16.92300 40.49500
H  -14.69000 13.29000 40.14500
H  -12.96700 11.77400 41.74000
H  -14.43400 13.93100 43.09000
H  -14.89700 12.28600 42.69000
H  -15.89200 13.63800 42.08400
H  -13.66500 10.86500 39.25300
H  -12.09600 10.47000 39.75900
H  -11.75700 12.74600 38.23800
H  -13.23000 11.84400 37.57700
H  -11.66800 11.11600 37.64100
H  -7.36200 10.96000 40.46900
H  -7.76000 10.99400 42.16900
H  -6.18200 11.54400 41.61400
H  -5.28200 16.29200 39.60600
H  -5.28600 18.90600 44.34000
H  -4.40900 19.36500 42.82500
H  -3.87600 18.03400 43.85700

