158

Mg -11.26500 38.00700 42.69500
C  -9.06800 35.40100 41.46800
C  -9.42100 40.19100 40.98600
C  -13.83000 40.00400 42.96700
C  -13.26300 35.32200 44.16400
N  -9.54800 37.74000 41.26100
C  -8.81100 36.61900 40.96700
C  -7.61900 36.97300 40.09900
C  -7.60700 38.57500 40.24600
C  -8.97400 38.89500 40.85600
C  -6.40700 39.13000 41.08400
C  -7.78900 36.46100 38.65400
C  -6.62600 35.60900 38.24200
H  -5.54000 36.26800 37.38200
N  -11.65300 39.88100 42.06400
C  -10.71100 40.66100 41.45700
C  -11.17000 41.97100 41.38800
C  -12.43100 41.99400 42.06600
C  -12.73900 40.59300 42.40900
C  -10.36800 42.96500 40.69200
C  -13.23300 43.21400 42.30200
O  -12.87000 44.34700 41.87500
C  -14.53600 43.14100 43.04000
N  -13.25500 37.65000 43.43600
C  -14.12700 38.70100 43.38100
C  -15.49000 38.28700 43.98200
C  -15.35800 36.72800 44.15900
C  -13.85300 36.52400 43.91000
C  -16.00600 39.11800 45.18500
C  -16.20700 35.81200 43.18700
C  -17.21300 34.86800 43.82000
N  -11.11600 35.85100 42.98100
C  -11.95500 34.94800 43.68800
C  -11.22200 33.64500 43.67400
C  -10.10800 33.78900 42.82800
C  -10.10200 35.13000 42.40200
C  -11.71700 32.49000 44.33900
C  -9.03700 33.05000 42.21300
O  -8.79400 31.82500 42.29500
C  -8.28200 34.08400 41.27300
C  -6.80400 34.02900 41.64000
O  -6.23200 34.83900 42.38700
O  -6.21000 32.98000 41.01000
C  -4.76100 32.75100 41.36100
H  -8.80100 41.03100 40.66600
H  -14.68900 40.67600 43.01800
H  -13.87300 34.52300 44.59100
H  -6.71000 36.55100 40.52700
H  -7.45000 39.08200 39.29400
H  -5.93300 39.78400 40.35200
H  -5.63700 38.42500 41.39800
H  -6.68400 39.73100 41.95000
H  -7.70200 37.33400 38.00800
H  -8.78600 36.04200 38.51600
H  -7.03800 34.70900 37.78400
H  -6.20900 35.18300 39.15500
H  -9.42700 43.19700 41.19000
H  -10.86600 43.91600 40.50200
H  -10.13200 42.69200 39.66300
H  -15.26200 42.66100 42.38300
H  -14.73100 44.18800 43.27300
H  -14.37800 42.67900 44.01500
H  -16.30000 38.38600 43.26000
H  -15.63200 36.38000 45.15500
H  -16.84600 39.63800 44.72500
H  -15.27100 39.86700 45.47900
H  -16.38600 38.49300 45.99200
H  -15.50300 35.22500 42.59600
H  -16.69600 36.37000 42.38800
H  -17.56500 35.37600 44.71900
H  -16.77100 33.92800 44.14800
H  -18.13200 34.79600 43.23900
H  -12.29900 32.49700 45.26100
H  -10.86700 31.96500 44.77500
H  -12.07700 31.66900 43.72100
H  -8.42800 33.78200 40.23600
H  -4.52600 31.73700 41.03600
H  -4.64400 32.89200 42.43500
H  -4.06200 33.47200 40.93700
Mg 0.86400 42.57900 26.19100
C  3.27800 42.58100 28.77700
C  -1.49100 41.94900 28.53100
C  -1.23700 41.98800 23.61800
C  3.57400 42.85900 23.88600
N  0.91500 42.38300 28.35900
C  1.96900 42.56100 29.21900
C  1.59100 42.59400 30.70900
C  0.11300 42.05700 30.59600
C  -0.20700 42.15900 29.07400
C  -0.33600 40.60600 31.15400
C  1.78700 44.08100 31.27600
C  1.17500 44.25000 32.72100
H  1.18400 43.06200 33.69000
N  -1.17400 42.08600 26.14800
C  -1.96100 41.86900 27.16000
C  -3.31800 41.71100 26.66300
C  -3.23500 41.73700 25.24600
C  -1.86600 41.93400 24.92000
C  -4.43800 41.38800 27.71000
C  -4.33600 41.57100 24.26900
O  -4.17700 41.56900 23.05500
C  -5.78400 41.42300 24.84300
N  1.18200 42.65400 24.13200
C  0.11200 42.29900 23.29400
C  0.57500 42.17300 21.83300
C  2.08300 42.73500 21.91500
C  2.30600 42.80300 23.38400
C  0.38100 40.63700 21.36300
C  2.18700 44.23000 21.39800
C  1.48500 45.35500 22.12900
N  3.03500 42.62000 26.23500
C  3.99400 42.75300 25.23400
C  5.31700 42.90900 25.81400
C  5.07300 42.74600 27.25300
C  3.68700 42.60400 27.38200
C  6.61600 43.12300 25.12500
C  5.66000 42.62400 28.53700
O  6.85000 42.66000 28.80000
C  4.56700 42.55800 29.53000
C  4.88900 41.30700 30.32500
O  4.44100 40.17300 30.16800
O  5.61400 41.74600 31.37300
C  5.75700 40.60700 32.38200
H  -2.27900 41.86800 29.28300
H  -1.83200 41.81300 22.71900
H  4.36200 42.92300 23.13200
H  2.28300 41.89000 31.17300
H  -0.62000 42.73600 31.03200
H  0.30200 40.32500 31.99200
H  -0.32900 40.00000 30.24900
H  -1.35700 40.55200 31.53200
H  1.23600 44.68600 30.55600
H  2.84800 44.32000 31.34700
H  0.22800 44.78600 32.78300
H  1.74400 44.93400 33.35000
H  -5.38300 41.91500 27.57500
H  -4.11800 41.68300 28.70900
H  -4.72500 40.33800 27.67600
H  -6.52700 41.48600 24.04800
H  -6.12700 42.21200 25.51200
H  -5.71900 40.49800 25.41600
H  0.07700 42.79400 21.08800
H  2.78100 41.97500 21.56600
H  1.35300 40.16700 21.20800
H  0.02000 40.65500 20.33500
H  -0.29500 40.04600 21.98000
H  1.75000 44.13300 20.40400
H  3.21000 44.56500 21.22300
H  0.82900 45.03200 22.93800
H  0.84600 45.88600 21.42300
H  2.19000 46.05700 22.57300
H  6.54600 43.97700 24.45100
H  7.11700 42.24300 24.72100
H  7.27800 43.41500 25.94000
H  4.68100 43.37300 30.24500
H  6.43600 41.15000 33.03900
H  6.38000 39.80000 31.99600
H  4.87000 40.28100 32.92400

