158

Mg 47.17300 24.74200 28.39900
C  48.05100 27.05600 31.13700
C  46.64500 22.44700 30.73300
C  47.46400 22.60400 25.95200
C  47.95500 27.50500 26.18200
N  47.49900 24.74300 30.73400
C  47.67200 25.76100 31.63500
C  47.33600 25.27800 33.09300
C  47.16500 23.75200 32.84300
C  47.00000 23.63300 31.32200
C  48.19500 22.86700 33.38600
C  46.07300 26.13000 33.46400
C  46.16800 26.91400 34.74500
H  45.08600 26.64400 35.88300
N  46.98100 22.76100 28.30700
C  46.64000 22.01300 29.40300
C  46.40300 20.67200 28.93400
C  46.86900 20.63000 27.61300
C  47.11200 21.99900 27.18800
C  45.97700 19.57100 29.85100
C  47.05900 19.44700 26.69900
O  47.37400 19.53900 25.50600
C  46.87200 18.03300 27.23700
N  47.68500 25.03600 26.39500
C  47.77300 23.93000 25.59500
C  48.09800 24.29600 24.12300
C  47.79700 25.88400 24.17400
C  47.81800 26.19600 25.66000
C  49.52200 24.02900 23.61200
C  46.52000 26.42400 23.52900
C  45.21000 25.96100 24.10400
N  47.82500 26.82700 28.57600
C  47.98400 27.77400 27.57600
C  48.37300 29.02400 28.17200
C  48.40500 28.80300 29.52800
C  48.03200 27.46400 29.74800
C  48.69300 30.26400 27.43600
C  48.65300 29.38500 30.89000
O  49.04300 30.54100 31.17300
C  48.41200 28.33400 31.90400
C  49.69800 28.12800 32.61400
O  50.60500 27.47000 32.25700
O  49.45700 28.56000 33.92200
C  50.57700 28.27300 34.93400
H  46.28300 21.70900 31.45200
H  47.49800 21.92900 25.09500
H  48.23100 28.31300 25.50100
H  48.12400 25.51000 33.80900
H  46.32000 23.35700 33.40700
H  48.31800 22.01400 32.71900
H  47.88900 22.37500 34.30900
H  49.16800 23.35800 33.40600
H  45.25400 25.41400 33.52700
H  45.68600 26.74100 32.64800
H  46.06900 27.97100 34.49800
H  47.11900 26.85600 35.27400
H  46.84200 19.11400 30.33100
H  45.30000 18.94200 29.27300
H  45.36000 20.06300 30.60300
H  47.09000 17.32900 26.43400
H  45.79200 18.12500 27.34800
H  47.44700 17.81000 28.13600
H  47.37300 23.73300 23.53500
H  48.55800 26.55700 23.78000
H  49.92000 24.87000 23.04200
H  49.62700 23.17200 22.94700
H  50.29400 23.85900 24.36200
H  46.55300 26.30600 22.44600
H  46.44800 27.51100 23.55700
H  45.35500 25.01900 24.63400
H  44.35400 25.88600 23.43300
H  44.85700 26.62100 24.89700
H  48.55300 31.16000 28.04100
H  48.11800 30.36000 26.51500
H  49.74300 30.05900 27.23200
H  47.64100 28.75400 32.55000
H  51.54600 28.15400 34.45100
H  50.23300 27.39500 35.48100
H  50.60500 29.12600 35.61200
Mg -9.84500 18.07300 42.75500
C  -6.40800 17.60600 42.81800
C  -9.25800 21.36300 42.18500
C  -13.09900 18.35300 41.94900
C  -10.12100 14.50000 42.59500
N  -8.02200 19.28900 42.54700
C  -6.69600 18.89900 42.60800
C  -5.71600 20.11100 42.61800
C  -6.76700 21.31100 42.83400
C  -8.09300 20.63700 42.51400
C  -6.73200 21.90500 44.29400
C  -4.98700 20.21000 41.23000
C  -5.77500 20.30400 39.95600
H  -5.68200 19.11800 39.00500
N  -11.02700 19.65600 42.06100
C  -10.58600 20.89600 41.83500
C  -11.64300 21.75300 41.38600
C  -12.84600 20.99300 41.56200
C  -12.44100 19.60200 41.87200
C  -11.45300 23.32200 40.94800
C  -14.23100 21.58200 41.28300
O  -14.45900 22.75500 41.04400
C  -15.40000 20.69800 41.52300
N  -11.38100 16.64700 42.17500
C  -12.65600 17.02900 42.08900
C  -13.71000 15.81200 42.20400
C  -12.68900 14.61300 42.33500
C  -11.29700 15.26400 42.32500
C  -14.75500 16.00100 43.32000
C  -12.75200 13.47400 41.18200
C  -13.22200 12.09100 41.58800
N  -8.56900 16.38000 42.80500
C  -8.83500 14.99000 42.78800
C  -7.58500 14.26600 42.99100
C  -6.58700 15.28500 43.03400
C  -7.23800 16.52100 42.87100
C  -7.35600 12.76000 43.00400
C  -5.19500 15.43900 43.22300
O  -4.33200 14.60200 43.43900
C  -5.01900 17.01000 43.11800
C  -4.43100 17.42600 44.36700
O  -3.34100 18.01900 44.54500
O  -5.38600 17.30000 45.43100
C  -5.08600 17.76000 46.79000
H  -9.08800 22.43200 42.33000
H  -14.18900 18.28800 41.91200
H  -10.23400 13.41300 42.59400
H  -5.04500 19.86200 43.44100
H  -6.40100 22.09200 42.16800
H  -7.73600 21.68000 44.65400
H  -6.70300 22.99200 44.37300
H  -5.92200 21.52700 44.91800
H  -4.25100 19.41000 41.15900
H  -4.28900 21.03500 41.37500
H  -5.42200 21.16700 39.39100
H  -6.82600 20.55600 40.09500
H  -11.89000 23.45400 39.95900
H  -10.38400 23.52700 40.88600
H  -11.84100 24.00400 41.70500
H  -15.32900 19.78500 40.93000
H  -16.34300 21.22300 41.36800
H  -15.56200 20.33700 42.53800
H  -14.20900 15.70000 41.24200
H  -12.80600 14.18300 43.33000
H  -14.53400 16.79900 44.02900
H  -14.79900 15.04200 43.83700
H  -15.75700 16.20800 42.94500
H  -11.83700 13.41900 40.59200
H  -13.49300 13.92200 40.52000
H  -12.85100 11.82300 42.57700
H  -12.80100 11.33600 40.92400
H  -14.30300 11.94800 41.60900
H  -7.56700 12.45700 44.02900
H  -6.35500 12.42900 42.72500
H  -8.15300 12.35700 42.37900
H  -4.40000 17.19300 42.23900
H  -4.07900 18.17500 46.84500
H  -4.97500 16.92800 47.48500
H  -5.80100 18.52600 47.08900

