158

Mg 48.04900 25.66300 28.04700
C  49.00600 27.89400 30.55100
C  46.75500 23.62100 30.59400
C  47.40100 23.32600 25.81500
C  49.56000 27.72700 25.71700
N  47.76800 25.82500 30.29900
C  48.20200 26.84500 31.09900
C  47.69800 26.76200 32.50100
C  47.00800 25.30900 32.53800
C  47.27000 24.82300 31.02500
C  47.50800 24.36000 33.65800
C  46.80700 27.93300 32.93900
C  47.13900 28.58200 34.32200
H  45.92000 28.94300 35.19800
N  47.18300 23.74100 28.18600
C  46.70600 23.06300 29.29200
C  46.07500 21.89100 28.83800
C  46.30300 21.74100 27.47600
C  47.01900 22.98200 27.09500
C  45.35600 21.01800 29.77700
C  46.08800 20.55700 26.52400
O  46.44700 20.47600 25.35100
C  45.34400 19.32400 27.05600
N  48.52500 25.48700 26.06500
C  48.10400 24.40900 25.29300
C  48.35300 24.68600 23.75600
C  48.76200 26.21800 23.79500
C  48.89700 26.56600 25.28300
C  49.41200 23.74300 23.13600
C  47.82300 27.14500 22.92900
C  48.69900 27.99800 21.93800
N  49.14700 27.37600 28.07100
C  49.70100 28.11100 27.02800
C  50.31900 29.32800 27.57800
C  50.10800 29.20400 28.92300
C  49.43000 28.03700 29.22700
C  51.00600 30.43900 26.83100
C  50.35800 29.90100 30.19300
O  51.01100 30.90400 30.48900
C  49.60700 29.07400 31.21800
C  50.37600 28.65800 32.47300
O  51.23200 27.77800 32.49600
O  50.12500 29.49200 33.48800
C  50.90200 29.32400 34.74700
H  46.22800 23.03200 31.34800
H  47.27800 22.52000 25.08800
H  49.93700 28.39900 24.94400
H  48.55700 26.82100 33.17000
H  45.94000 25.44300 32.71600
H  47.78300 23.37600 33.27700
H  46.87000 24.26900 34.53700
H  48.44800 24.76800 34.02800
H  45.81200 27.52900 33.12800
H  46.55500 28.64000 32.14800
H  47.68900 29.52200 34.28400
H  47.77700 27.95200 34.94200
H  45.09900 21.32100 30.79200
H  45.89400 20.07600 29.88500
H  44.37400 20.82900 29.34500
H  45.32800 18.52200 26.31800
H  44.33800 19.62800 27.34500
H  45.66000 18.94500 28.02700
H  47.37000 24.49700 23.32200
H  49.79600 26.23100 23.45100
H  49.49500 22.99300 23.92400
H  50.29600 24.33100 22.88900
H  48.91300 23.33200 22.25900
H  47.26300 27.93200 23.43500
H  47.13300 26.52400 22.35700
H  48.09400 28.86200 21.66500
H  48.77000 27.36700 21.05100
H  49.67100 28.28000 22.34200
H  51.75200 30.65600 27.59500
H  50.32000 31.20000 26.46000
H  51.48700 30.06500 25.92700
H  48.81200 29.70900 31.60700
H  51.13000 30.30300 35.16900
H  51.81100 28.74300 34.59400
H  50.29800 28.69300 35.40000
Mg -12.90900 16.57200 42.81300
C  -9.78400 14.77300 42.63600
C  -11.31700 19.20800 41.48000
C  -15.96700 17.97700 42.70600
C  -14.42700 13.36200 43.59100
N  -10.77500 16.81800 42.06500
C  -9.70900 16.02100 42.02600
C  -8.52300 16.64900 41.36400
C  -9.01500 18.08200 41.11700
C  -10.50200 18.05000 41.54400
C  -8.06700 19.15600 41.79300
C  -8.06100 15.83000 40.06300
C  -6.46600 15.54100 39.97900
H  -6.04100 14.18800 39.31600
N  -13.60400 18.43100 42.15800
C  -12.78100 19.40300 41.66600
C  -13.61000 20.58100 41.38000
C  -14.91900 20.29400 41.76900
C  -14.91100 18.89000 42.27800
C  -13.10300 21.87400 40.87100
C  -16.06400 21.27000 41.64700
O  -15.85800 22.46800 41.37400
C  -17.47300 20.81400 42.04400
N  -14.99400 15.74200 42.99000
C  -15.98200 16.59000 43.07300
C  -17.28000 15.80200 43.46200
C  -16.87800 14.34500 43.58900
C  -15.29600 14.43500 43.37800
C  -18.22300 16.32300 44.64300
C  -17.50300 13.47100 42.54200
C  -18.67900 12.59100 42.98100
N  -12.30000 14.44000 43.24000
C  -13.03100 13.31900 43.44200
C  -12.02400 12.17700 43.47200
C  -10.74100 12.71900 43.33100
C  -10.95000 14.14000 43.10300
C  -12.30000 10.71500 43.69700
C  -9.29600 12.36400 43.31100
O  -8.66000 11.35400 43.55400
C  -8.62500 13.77600 42.87200
C  -7.67500 14.15800 43.99000
O  -7.95800 14.51000 45.12600
O  -6.39500 14.16200 43.53300
C  -5.35600 14.56500 44.47100
H  -10.70400 20.00100 41.04600
H  -17.03800 18.19300 42.70800
H  -14.92000 12.45000 43.93400
H  -7.67400 16.70100 42.04500
H  -8.93900 18.29600 40.05100
H  -7.66700 19.74400 40.96700
H  -7.35500 18.67800 42.46500
H  -8.78300 19.77300 42.33500
H  -8.20500 16.44800 39.17700
H  -8.68200 14.93500 40.08700
H  -6.02800 15.45100 40.97300
H  -6.07800 16.38600 39.41000
H  -13.73400 22.08200 40.00700
H  -12.04800 21.96100 40.60800
H  -13.22800 22.74400 41.51600
H  -17.89800 20.18700 41.26100
H  -18.02400 21.74000 42.20800
H  -17.49600 20.26700 42.98600
H  -17.89900 15.91900 42.57200
H  -17.06500 14.05100 44.62100
H  -19.10000 16.84900 44.26800
H  -17.61100 16.87000 45.36100
H  -18.59300 15.51200 45.27000
H  -16.82000 12.71000 42.16400
H  -17.75500 14.00000 41.62300
H  -18.34400 11.55400 42.97000
H  -19.49300 12.74000 42.27200
H  -19.11500 12.91800 43.92500
H  -13.32400 10.41000 43.91300
H  -11.66900 10.32400 44.49500
H  -11.94200 10.27100 42.76900
H  -8.03200 13.72400 41.95900
H  -5.73500 14.69300 45.48500
H  -4.78700 15.41500 44.09600
H  -4.52500 13.86600 44.56700

