158

Mg 25.68000 1.65700 29.14600
C  27.63200 1.23400 32.17300
C  22.95000 1.76000 31.15100
C  24.00400 1.61200 26.37100
C  28.64100 0.86600 27.20600
N  25.30500 1.42800 31.42300
C  26.25700 1.37500 32.40700
C  25.64200 1.57400 33.79800
C  24.11000 1.71600 33.46000
C  24.08000 1.57300 31.93300
C  23.08200 0.94100 34.32900
C  26.24100 2.64600 34.76500
C  25.38200 3.18800 35.85400
H  26.05700 3.37900 37.21800
N  23.73000 1.58800 28.79400
C  22.72100 1.62800 29.76200
C  21.50400 1.66500 29.04000
C  21.79000 1.70700 27.62500
C  23.24700 1.56600 27.53800
C  20.15100 1.64600 29.71700
C  20.83600 1.84000 26.39600
O  21.25400 1.78100 25.25300
C  19.32800 1.94600 26.58100
N  26.27700 1.23300 27.04900
C  25.36200 1.42500 26.08300
C  25.98300 1.61100 24.68800
C  27.49700 1.18100 24.91500
C  27.49200 0.99400 26.46300
C  25.31700 0.72700 23.57200
C  28.44400 2.42400 24.45600
C  28.50300 2.73100 22.98300
N  27.70000 1.33900 29.55700
C  28.79700 1.02500 28.66200
C  29.95000 0.82100 29.48700
C  29.57300 0.87400 30.79400
C  28.17900 1.19500 30.83500
C  31.32800 0.55600 28.87700
C  30.03200 0.81700 32.19500
O  31.13400 0.65200 32.74000
C  28.83900 1.26600 33.08100
C  28.80200 0.38900 34.27100
O  28.49200 -0.78100 34.18600
O  29.23500 1.10300 35.38300
C  29.25500 0.34800 36.64000
H  22.06200 1.89200 31.77200
H  23.40200 1.83800 25.48800
H  29.47400 0.57100 26.56500
H  25.66900 0.59400 34.27600
H  23.91400 2.76600 33.67800
H  22.60000 1.63600 35.01600
H  23.42300 0.16500 35.01400
H  22.25100 0.59800 33.71300
H  26.74000 3.43000 34.19500
H  27.10200 2.17200 35.23700
H  24.51500 2.58200 36.11600
H  25.05700 4.18100 35.54400
H  19.59700 2.58500 29.70200
H  20.31100 1.40500 30.76800
H  19.51000 0.86200 29.31400
H  19.28100 2.51800 27.50800
H  19.01200 0.91000 26.70400
H  18.75900 2.43800 25.79200
H  25.84700 2.62400 24.30900
H  27.79900 0.27000 24.39800
H  24.50200 0.11600 23.95900
H  26.05400 0.08900 23.08500
H  24.92200 1.36500 22.78100
H  29.44400 2.20600 24.83300
H  28.09900 3.29000 25.02000
H  28.94700 3.69200 22.72300
H  27.56200 2.47800 22.49500
H  29.20600 2.12100 22.41400
H  31.26800 0.63000 27.79100
H  31.59300 -0.45400 29.19000
H  31.99400 1.30800 29.30100
H  28.93600 2.28300 33.46100
H  28.33200 0.49000 37.20200
H  29.95700 0.68100 37.40400
H  29.36400 -0.72100 36.46000
Mg 43.43700 3.82200 46.88500
C  41.39000 6.73700 46.61300
C  40.69000 1.92600 46.88900
C  45.30300 1.14800 46.10000
C  46.27400 5.83000 46.42500
N  41.35800 4.36100 46.89100
C  40.71300 5.56500 46.76400
C  39.22100 5.47500 46.95700
C  39.00100 3.96300 47.25400
C  40.44900 3.35300 47.02700
C  38.24600 3.54000 48.56500
C  38.34700 5.97200 45.72800
C  38.57600 5.38800 44.31200
H  39.33800 6.28200 43.40200
N  43.04900 1.78500 46.64000
C  41.82900 1.19300 46.62500
C  41.94100 -0.22500 46.34200
C  43.32900 -0.48000 46.10900
C  43.95900 0.83200 46.23900
C  40.71900 -1.20400 46.42700
C  43.93900 -1.80400 45.76000
O  43.23200 -2.78200 45.71300
C  45.35900 -1.97500 45.29100
N  45.60400 3.55300 46.56900
C  46.06500 2.28000 46.32700
C  47.58900 2.30100 46.40000
C  47.91500 3.87400 46.20900
C  46.54400 4.48100 46.39100
C  48.23900 1.55800 47.65700
C  48.67500 4.25900 44.88200
C  50.22300 4.32100 44.95400
N  43.84000 5.87600 46.64000
C  45.03100 6.54100 46.53700
C  44.72500 7.96400 46.54000
C  43.32200 8.04200 46.53500
C  42.85300 6.74800 46.55200
C  45.75500 9.09500 46.66100
C  42.22900 8.96800 46.42800
O  42.26800 10.13900 46.26200
C  40.91900 8.18600 46.51500
C  40.26400 8.58300 47.78300
O  40.45600 8.10900 48.89800
O  39.26900 9.51500 47.45300
C  38.44500 9.86800 48.62500
H  39.74400 1.38700 46.80700
H  45.89300 0.24500 45.93100
H  47.18800 6.38600 46.20600
H  39.00900 5.97600 47.90200
H  38.42700 3.40600 46.51300
H  37.72300 4.38500 49.01300
H  38.87600 3.23000 49.39800
H  37.55000 2.71200 48.42500
H  38.34900 7.04800 45.55300
H  37.27400 5.95000 45.91700
H  37.55200 5.17500 44.00400
H  39.13500 4.45300 44.30900
H  40.45800 -1.48500 45.40600
H  39.85000 -0.69400 46.84200
H  40.88200 -2.05900 47.08300
H  46.04000 -1.81800 46.12700
H  45.57400 -1.41500 44.38100
H  45.50500 -3.01500 44.99600
H  47.85100 1.70400 45.52600
H  48.55600 4.27900 46.99200
H  48.79100 0.69400 47.28700
H  47.59100 1.09200 48.39900
H  48.85300 2.25200 48.23100
H  48.36200 5.24800 44.54700
H  48.38800 3.60300 44.06000
H  50.52700 3.75100 45.83200
H  50.47200 5.38100 44.91000
H  50.63300 3.78900 44.09500
H  46.26600 9.08900 45.69800
H  46.47400 8.84700 47.44200
H  45.17000 9.98000 46.91000
H  40.18800 8.28500 45.71300
H  37.71600 9.06800 48.75300
H  37.95300 10.78600 48.30600
H  38.98200 10.15300 49.53000

