158

Mg 23.92600 -6.59900 45.75400
C  26.32900 -4.09600 45.26900
C  21.59900 -4.59800 44.15200
C  21.86400 -9.23300 45.86900
C  26.59500 -8.61100 46.95800
N  23.97800 -4.63600 44.84900
C  25.08000 -3.89600 44.68500
C  24.67400 -2.63200 43.82900
C  23.11600 -2.59900 43.95300
C  22.85700 -4.01600 44.42600
C  22.49800 -1.54700 44.90100
C  25.24500 -2.73300 42.38200
C  25.50500 -1.37600 41.75500
H  24.65200 -1.04900 40.50800
N  21.96600 -6.86600 45.10800
C  21.20300 -5.89200 44.44800
C  19.90700 -6.47700 44.21500
C  19.98900 -7.86100 44.63600
C  21.27900 -8.01700 45.23100
C  18.85300 -5.71500 43.33700
C  18.92800 -8.89600 44.53600
O  18.05000 -8.67400 43.77000
C  19.00000 -10.26300 45.13600
N  24.17400 -8.54500 46.31700
C  23.19800 -9.46300 46.34500
C  23.70300 -10.84800 46.95400
C  25.16100 -10.60600 46.88900
C  25.34300 -9.14000 46.66400
C  23.09900 -11.23400 48.34800
C  25.88400 -11.42100 45.78000
C  26.97700 -12.41100 46.08900
N  26.05400 -6.42200 46.15800
C  26.96400 -7.31600 46.67300
C  28.21500 -6.66500 46.91100
C  28.02300 -5.38100 46.25800
C  26.70500 -5.30900 45.79800
C  29.46100 -7.25800 47.42500
C  28.63400 -4.08400 45.95100
O  29.72700 -3.64400 46.15600
C  27.50800 -3.25900 45.10800
C  27.27300 -1.84200 45.63700
O  27.07700 -1.59500 46.82300
O  27.34700 -0.96600 44.65800
C  27.61100 0.41000 45.00700
H  20.80900 -3.96700 43.73900
H  21.27600 -10.15200 45.81500
H  27.31600 -9.36000 47.29200
H  24.90700 -1.67400 44.29400
H  22.60400 -2.49800 42.99600
H  23.24900 -0.91400 45.37300
H  21.90400 -1.95500 45.71900
H  21.82100 -0.96500 44.27600
H  24.43200 -3.17700 41.80700
H  26.14700 -3.33600 42.27400
H  26.56700 -1.27400 41.53100
H  25.35700 -0.53700 42.43500
H  19.12500 -5.24500 42.39200
H  18.53300 -4.84400 43.91000
H  17.90700 -6.20800 43.11300
H  18.00500 -10.70800 45.10600
H  19.19500 -10.02000 46.18000
H  19.73200 -10.91000 44.65200
H  23.36600 -11.56600 46.20600
H  25.54800 -10.82400 47.88400
H  22.08200 -11.56300 48.12900
H  23.09900 -10.32300 48.94600
H  23.58500 -12.00900 48.94000
H  26.43800 -10.72200 45.15300
H  25.19300 -12.02200 45.18900
H  26.65500 -13.44400 45.95900
H  27.55100 -12.21800 46.99500
H  27.60200 -12.25900 45.20800
H  29.39000 -7.73300 48.40300
H  30.28100 -6.54100 47.38000
H  29.79000 -7.92800 46.63100
H  27.85400 -3.22600 44.07400
H  27.95000 1.05600 44.19700
H  28.27100 0.49600 45.87000
H  26.66100 0.90700 45.20300
Mg 40.40500 9.19600 29.56000
C  42.36400 10.56200 32.21300
C  38.26100 7.93000 32.00100
C  38.64400 7.70200 27.19000
C  42.81700 10.17400 27.43700
N  40.31200 9.28300 31.84300
C  41.16300 10.02900 32.64400
C  40.66300 10.02000 34.14200
C  39.49300 8.99500 34.06200
C  39.31000 8.72900 32.52700
C  39.56800 7.65900 34.88100
C  40.36100 11.43300 34.66500
C  39.32700 11.59900 35.75400
H  39.57200 12.32200 37.12500
N  38.63800 7.99700 29.56700
C  37.90900 7.60500 30.66800
C  36.71100 6.91400 30.21500
C  36.84800 6.79200 28.80900
C  38.08600 7.49100 28.44100
C  35.54500 6.46500 31.12700
C  35.92600 6.07400 27.87100
O  36.16700 6.14300 26.67200
C  34.72400 5.25400 28.39900
N  40.53800 9.13000 27.58700
C  39.76700 8.37300 26.74000
C  40.20000 8.51600 25.24000
C  41.60000 9.22000 25.38600
C  41.67800 9.51100 26.89100
C  40.25700 7.26500 24.36000
C  41.83600 10.45200 24.48000
C  41.03500 11.73800 24.90900
N  42.23200 10.09500 29.70200
C  43.11200 10.46100 28.75000
C  44.27500 11.18000 29.31200
C  44.05900 11.23400 30.67800
C  42.83400 10.49700 30.88500
C  45.40900 11.79400 28.55100
C  44.49700 11.67300 32.01700
O  45.48400 12.28800 32.39600
C  43.40200 11.23400 33.09600
C  43.87200 10.32100 34.16500
O  43.89900 9.11300 34.05700
O  44.21300 10.98100 35.28600
C  44.35600 10.08400 36.41700
H  37.60600 7.52500 32.77600
H  38.20600 7.26900 26.28800
H  43.59400 10.45500 26.72300
H  41.46900 9.62600 34.76200
H  38.52600 9.41600 34.33800
H  38.65900 7.54100 35.47000
H  40.41600 7.64200 35.56600
H  39.77200 6.73500 34.34100
H  40.03000 12.10400 33.87300
H  41.26400 11.75100 35.18500
H  39.14800 10.65400 36.26700
H  38.37700 11.80000 35.26000
H  34.75100 7.18400 30.92500
H  35.85100 6.64000 32.15900
H  35.15400 5.46400 30.94600
H  35.11100 4.42000 28.98600
H  34.36100 4.75700 27.50000
H  34.19900 5.95400 29.04900
H  39.48200 9.22300 24.82400
H  42.52600 8.66100 25.25100
H  39.83700 7.48900 23.37900
H  39.65700 6.50400 24.86000
H  41.23400 6.86700 24.08500
H  41.41600 10.18000 23.51200
H  42.91400 10.58900 24.38900
H  40.39200 11.42900 25.73300
H  40.42000 12.20700 24.14100
H  41.77600 12.46700 25.23500
H  45.08300 12.14200 27.57200
H  46.21000 11.05700 28.48900
H  45.85100 12.64600 29.06800
H  42.98300 12.08800 33.62700
H  45.16800 9.38400 36.22500
H  43.39700 9.64000 36.68700
H  44.64400 10.64800 37.30400

