158

Mg 9.34500 3.61100 28.18200
C  10.58500 1.84800 30.88600
C  6.97100 5.06200 30.23200
C  7.81000 5.05200 25.47300
C  11.09900 1.50000 25.98200
N  8.75200 3.28900 30.33400
C  9.53900 2.71000 31.25600
C  9.14000 3.18700 32.67600
C  7.95500 4.22100 32.47500
C  7.80100 4.16900 30.89000
C  6.66200 3.85400 33.23500
C  10.43900 3.74200 33.52600
C  10.18900 4.64600 34.75700
H  10.73500 4.19300 36.10200
N  7.69200 4.98900 27.89700
C  6.89400 5.45300 28.89600
C  5.93100 6.41400 28.34800
C  6.12800 6.37400 26.90200
C  7.18300 5.40400 26.67700
C  4.90300 7.23900 29.09600
C  5.48800 7.19200 25.78600
O  5.82000 7.07500 24.57300
C  4.29300 8.12400 26.11600
N  9.41200 3.24000 26.05200
C  8.82500 4.06200 25.13500
C  9.30700 3.91000 23.66400
C  10.39400 2.81200 23.94800
C  10.31700 2.46200 25.41200
C  8.21500 3.40100 22.71300
C  11.80500 3.25600 23.49800
C  12.51800 4.26700 24.36500
N  10.58600 2.01400 28.33900
C  11.19300 1.22600 27.31600
C  11.94100 0.21000 27.99800
C  11.79000 0.49900 29.40600
C  10.89300 1.55500 29.51300
C  12.81500 -0.79100 27.29100
C  12.32400 0.16200 30.76700
O  13.16500 -0.62100 31.10800
C  11.54600 1.09300 31.73900
C  10.83300 0.22900 32.66800
O  9.89700 -0.49100 32.37800
O  11.32800 0.29300 33.91100
C  10.54200 -0.35600 34.96700
H  6.29000 5.61700 30.88100
H  7.35100 5.52000 24.59900
H  11.85500 1.04700 25.33700
H  8.82600 2.27200 33.17700
H  8.18800 5.25300 32.73600
H  5.90100 3.62100 32.49000
H  6.29800 4.74100 33.75400
H  6.87900 3.03100 33.91600
H  11.10700 4.22400 32.81200
H  10.90300 2.83000 33.90300
H  9.11900 4.73000 34.94900
H  10.43300 5.65500 34.42500
H  4.88300 6.98200 30.15500
H  3.89500 7.06700 28.71800
H  5.11000 8.26900 28.80800
H  3.89300 8.49500 25.17200
H  4.51800 8.96200 26.77500
H  3.39900 7.59700 26.44700
H  9.76700 4.82500 23.29300
H  10.00600 1.97500 23.36700
H  7.38800 3.02900 23.31800
H  8.55800 2.51200 22.18400
H  8.03000 4.06300 21.86700
H  11.73300 3.74300 22.52600
H  12.43500 2.37600 23.36500
H  12.09700 4.50500 25.34200
H  12.74100 5.17200 23.79900
H  13.50000 3.89000 24.65100
H  13.39700 -0.32700 26.49500
H  12.25800 -1.58400 26.79400
H  13.49200 -1.31500 27.96500
H  12.12800 1.88800 32.20600
H  9.71300 -0.99800 34.66700
H  10.16000 0.49900 35.52400
H  11.16100 -0.99800 35.59400
Mg 26.63700 0.67800 29.39600
C  28.56100 0.33800 32.17400
C  23.78300 1.17800 31.38800
C  24.66600 0.63300 26.59100
C  29.48100 -0.09500 27.31000
N  26.25700 0.68100 31.55000
C  27.22200 0.69300 32.52900
C  26.61500 0.89400 33.92000
C  25.08800 1.01000 33.60200
C  25.00900 1.02300 32.09300
C  24.25100 -0.02700 34.27600
C  27.19600 2.25200 34.53500
C  28.08700 2.01400 35.74900
H  27.81600 2.87900 37.03000
N  24.58000 0.88900 28.99400
C  23.61900 1.10900 29.96800
C  22.30600 1.30900 29.28300
C  22.53600 1.04100 27.88200
C  23.96200 0.86800 27.79900
C  20.99100 1.54500 30.00200
C  21.52900 1.07800 26.70100
O  21.89300 0.93900 25.52200
C  20.07400 1.29200 26.94500
N  27.03700 0.23700 27.31900
C  25.99800 0.33900 26.40700
C  26.55200 0.35900 24.92800
C  28.17000 0.23100 25.13400
C  28.23100 0.10400 26.70600
C  25.99700 -0.68500 24.10500
C  28.97800 1.56500 24.72500
C  30.03600 1.28600 23.68600
N  28.54800 0.13500 29.64500
C  29.59100 -0.09100 28.70400
C  30.79200 -0.33800 29.50900
C  30.43200 -0.18200 30.85400
C  29.07300 0.10800 30.87000
C  32.14800 -0.69000 28.93900
C  30.91400 -0.34700 32.19500
O  31.91600 -0.86000 32.70800
C  29.71000 0.10400 33.11200
C  29.40000 -0.99600 34.11400
O  28.63500 -1.97600 33.91800
O  30.07400 -0.74700 35.27800
C  30.09000 -1.81700 36.25800
H  22.81700 1.32800 31.87600
H  24.23100 0.69500 25.59200
H  30.42000 -0.34200 26.81100
H  26.82600 0.06100 34.59000
H  24.74000 1.94400 34.04300
H  23.55900 0.42600 34.98500
H  24.94200 -0.73500 34.73400
H  23.64500 -0.53900 33.52800
H  26.47500 2.97100 34.92500
H  27.81400 2.78100 33.80900
H  29.10600 2.31200 35.49900
H  28.05400 0.96400 36.03800
H  20.39900 0.65300 29.79800
H  20.50800 2.39200 29.51600
H  21.02000 1.68600 31.08200
H  19.48700 1.11600 26.04300
H  20.02100 2.36700 27.12200
H  19.73900 0.62200 27.73700
H  26.34400 1.25800 24.34900
H  28.49400 -0.64700 24.57600
H  26.66800 -1.14900 23.38300
H  25.37400 -0.19900 23.35300
H  25.39600 -1.45200 24.59300
H  29.56200 2.03700 25.51600
H  28.32200 2.34800 24.34500
H  31.05000 1.32600 24.08200
H  30.05800 2.05900 22.91700
H  29.86700 0.32100 23.20700
H  32.93700 -0.46700 29.65900
H  32.36400 -0.15900 28.01200
H  32.12400 -1.77200 28.80900
H  29.91200 1.06200 33.58900
H  30.12500 -2.85200 35.91700
H  29.25100 -1.63800 36.93000
H  31.02000 -1.76100 36.82300

