158

Mg -12.21000 16.26400 41.77400
C  -9.09100 14.55100 41.37700
C  -10.68500 18.94100 40.39300
C  -15.25900 17.58400 41.25200
C  -13.67200 13.25800 42.84900
N  -10.14500 16.60300 40.95200
C  -9.07000 15.84800 40.82800
C  -7.87500 16.53900 40.22900
C  -8.35300 18.05700 40.18700
C  -9.84800 17.86600 40.46400
C  -7.67200 18.95900 41.30000
C  -7.35800 15.82900 38.90500
C  -5.90800 15.39600 38.79000
H  -4.93100 16.32400 37.99700
N  -12.88200 18.01500 41.10700
C  -12.08600 18.99900 40.63500
C  -12.86600 20.21700 40.43100
C  -14.22900 19.84100 40.56700
C  -14.16100 18.41900 40.93600
C  -12.37800 21.55000 39.94800
C  -15.38200 20.77800 40.13200
O  -15.16400 21.87700 39.66200
C  -16.82300 20.13700 39.94100
N  -14.22500 15.50600 42.00700
C  -15.31500 16.30600 41.74000
C  -16.55100 15.54700 42.04400
C  -16.03700 14.41300 42.97200
C  -14.54900 14.37700 42.60900
C  -17.70300 16.32700 42.75600
C  -16.72800 13.04400 42.59800
C  -16.87800 12.05300 43.77200
N  -11.57100 14.29500 41.95500
C  -12.26200 13.20100 42.55800
C  -11.37100 12.03600 42.79000
C  -10.07400 12.53700 42.35800
C  -10.27600 13.89400 41.88700
C  -11.81600 10.64400 43.14000
C  -8.61500 12.30200 42.23900
O  -7.94400 11.35300 42.53200
C  -7.96000 13.58600 41.51500
C  -6.86200 14.05400 42.39000
O  -6.98900 14.88800 43.26200
O  -5.67400 13.57700 41.95400
C  -4.50700 14.41500 42.29700
H  -10.21100 19.78800 39.89200
H  -16.23700 18.06800 41.29000
H  -14.18100 12.40600 43.30400
H  -7.01100 16.47000 40.89100
H  -8.20600 18.41800 39.16900
H  -7.96700 18.82900 42.34100
H  -7.85500 20.00600 41.06000
H  -6.58600 18.90900 41.22000
H  -7.51200 16.40900 37.99400
H  -8.02200 14.99500 38.68000
H  -5.89500 14.36400 38.43700
H  -5.66800 15.21800 39.83900
H  -12.95800 22.34800 40.41300
H  -12.46300 21.60300 38.86300
H  -11.34000 21.64600 40.26500
H  -16.65700 19.16800 39.46900
H  -17.24300 20.76800 39.15800
H  -17.34400 20.10900 40.89800
H  -16.88400 15.21200 41.06200
H  -16.19500 14.63900 44.02700
H  -17.38200 17.35500 42.92500
H  -18.09100 15.84400 43.65300
H  -18.47300 16.49800 42.00400
H  -16.18200 12.47100 41.84800
H  -17.72100 13.13500 42.15700
H  -17.90100 11.67800 43.79300
H  -16.67500 12.46100 44.76200
H  -16.22400 11.21200 43.53900
H  -12.26200 10.67000 44.13500
H  -10.91700 10.02800 43.12200
H  -12.49600 10.28100 42.37000
H  -7.60000 13.28800 40.53100
H  -4.15900 14.12600 43.28900
H  -4.54800 15.49200 42.13200
H  -3.75600 14.14000 41.55600
Mg -5.84500 25.40300 26.31500
C  -4.61700 26.91200 29.10700
C  -7.75100 23.26000 28.37400
C  -6.54600 23.47100 23.71700
C  -3.82300 27.29400 24.33600
N  -6.11200 24.98500 28.51300
C  -5.56100 25.89400 29.45000
C  -6.07100 25.60300 30.85400
C  -6.81100 24.21000 30.64800
C  -6.94000 24.11300 29.12100
C  -6.19100 23.00200 31.30200
C  -6.98100 26.72400 31.35700
C  -7.06800 26.97300 32.85400
H  -6.47100 25.92000 33.79800
N  -7.18400 23.74300 26.00100
C  -7.89200 23.07700 27.00000
C  -8.83200 22.11800 26.35800
C  -8.49500 22.18100 24.92400
C  -7.32400 23.17700 24.76500
C  -9.84100 21.30000 27.07300
C  -9.00400 21.34500 23.82800
O  -8.78200 21.46400 22.65200
C  -9.97300 20.21600 24.20200
N  -5.31600 25.38100 24.30600
C  -5.62600 24.45600 23.42800
C  -5.15100 24.79100 22.03500
C  -4.53600 26.19500 22.20900
C  -4.52600 26.34100 23.68700
C  -4.28600 23.66200 21.42400
C  -5.35900 27.36000 21.43300
C  -6.34500 28.22900 22.24800
N  -4.52700 26.84200 26.59800
C  -3.81700 27.55900 25.69300
C  -2.98700 28.56200 26.40000
C  -3.28400 28.38100 27.76100
C  -4.21100 27.32100 27.78400
C  -2.20900 29.74200 25.77000
C  -3.10700 28.86400 29.14500
O  -2.40000 29.78200 29.60000
C  -3.94900 27.90500 29.98800
C  -3.03400 27.26300 31.00900
O  -2.39500 26.30500 30.67500
O  -3.12600 27.95500 32.21000
C  -2.22500 27.39200 33.18200
H  -8.29500 22.54100 28.98900
H  -7.04300 23.14300 22.80100
H  -3.10000 27.87100 23.75500
H  -5.20300 25.48600 31.50300
H  -7.81500 24.18300 31.07100
H  -5.46800 23.26900 32.07300
H  -5.74200 22.38300 30.52600
H  -6.95300 22.44000 31.84100
H  -7.98400 26.48800 31.00000
H  -6.70300 27.63900 30.83500
H  -8.13600 26.94800 33.06600
H  -6.58800 27.92100 33.09900
H  -10.84300 21.60500 26.77100
H  -9.94900 21.44100 28.14800
H  -9.74800 20.24800 26.80200
H  -9.40800 19.41500 24.68000
H  -10.34500 19.85200 23.24400
H  -10.77500 20.62400 24.81700
H  -6.00700 24.88000 21.36600
H  -3.51900 26.23900 21.81800
H  -3.34500 23.98200 20.97700
H  -4.80700 23.11400 20.64000
H  -4.01200 22.96800 22.21900
H  -5.91700 26.90400 20.61400
H  -4.61200 27.94300 20.89400
H  -6.20800 28.08500 23.32000
H  -7.38000 27.99400 22.00100
H  -6.30100 29.31600 22.18100
H  -2.48700 29.99900 24.74800
H  -1.14800 29.49200 25.79700
H  -2.41300 30.56300 26.45700
H  -4.61700 28.53400 30.57700
H  -1.29900 27.03000 32.73400
H  -2.80000 26.63100 33.70900
H  -2.16000 28.26000 33.83800

