158

Mg 8.96600 4.53100 27.46300
C  10.26200 2.89600 30.39500
C  7.05700 6.36800 29.66700
C  7.48000 6.02700 24.85700
C  10.41200 2.15000 25.57900
N  8.55400 4.45800 29.77400
C  9.30400 3.85000 30.80500
C  8.98500 4.35600 32.24500
C  8.00100 5.48700 31.92900
C  7.84000 5.45300 30.34600
C  6.60000 5.42400 32.73800
C  10.19700 4.84100 33.08000
C  9.82400 5.44200 34.45600
H  10.87500 5.13500 35.60000
N  7.52400 5.94900 27.28800
C  6.88100 6.60200 28.32300
C  5.97600 7.62400 27.76300
C  6.21200 7.59500 26.37100
C  7.03400 6.41900 26.11400
C  5.07900 8.53900 28.68300
C  5.66200 8.48000 25.26700
O  5.88400 8.30400 24.05200
C  4.81700 9.73200 25.66000
N  8.95500 4.10300 25.52900
C  8.42100 4.96800 24.57300
C  8.87200 4.61900 23.15000
C  9.68100 3.31200 23.41400
C  9.79100 3.23200 24.90900
C  7.69600 4.40800 22.13700
C  11.07700 3.25300 22.72100
C  12.17800 4.00600 23.51300
N  10.14300 2.89400 27.84900
C  10.65100 2.01200 26.90900
C  11.48000 1.07500 27.58000
C  11.27600 1.35700 28.95600
C  10.50400 2.47500 29.06000
C  12.30600 -0.07200 27.05000
C  11.62800 0.94900 30.28700
O  12.45700 0.15500 30.59000
C  11.00500 1.99300 31.26300
C  10.27200 1.12500 32.28000
O  9.19800 0.64400 32.06300
O  10.97400 1.17400 33.52400
C  10.26000 0.68700 34.72600
H  6.60800 7.12700 30.31200
H  7.11200 6.40900 23.90300
H  11.00100 1.47400 24.95400
H  8.57300 3.47900 32.74500
H  8.43500 6.41000 32.31400
H  6.45100 6.37300 33.25500
H  6.69900 4.70200 33.54800
H  5.86000 5.27700 31.95200
H  10.96400 5.42300 32.56900
H  10.62700 3.92200 33.47800
H  8.84800 5.06600 34.76400
H  9.68300 6.51700 34.34200
H  5.55200 9.46400 29.01200
H  4.93300 7.91800 29.56800
H  4.13400 8.76400 28.19100
H  5.10800 10.23000 26.58600
H  3.80900 9.31800 25.64700
H  4.81700 10.51400 24.90000
H  9.50800 5.45100 22.84500
H  9.18800 2.42500 23.01700
H  7.73000 5.10300 21.29700
H  6.75200 4.31400 22.67300
H  7.71700 3.40400 21.71200
H  11.04700 3.81900 21.79000
H  11.35200 2.20100 22.63500
H  11.66300 4.61700 24.25500
H  12.63600 4.67600 22.78600
H  12.97100 3.32900 23.82900
H  13.14700 -0.14000 27.74100
H  12.54300 0.24000 26.03300
H  11.65300 -0.94500 27.04500
H  11.85400 2.47500 31.74700
H  10.94100 0.44100 35.54000
H  9.66200 -0.20200 34.52300
H  9.58000 1.45700 35.09000
Mg 50.26400 45.76800 41.13400
C  47.34000 47.41200 39.87900
C  48.89300 42.79500 40.35400
C  53.41700 44.36900 41.21200
C  51.66500 48.85200 41.78800
N  48.45000 45.24700 40.03800
C  47.29500 45.99600 39.77300
C  46.17200 45.15800 39.15300
C  46.55100 43.72400 39.66800
C  48.09600 43.89900 40.02900
C  45.76300 43.40400 40.92200
C  46.16600 45.24400 37.59400
C  44.75600 45.24400 37.05700
H  44.53300 44.28200 35.89000
N  51.05300 43.80000 40.77800
C  50.26500 42.70600 40.60400
C  51.05300 41.54600 40.55600
C  52.41100 41.94600 40.74000
C  52.35500 43.41600 40.91700
C  50.38500 40.15500 40.54100
C  53.57600 40.96800 40.85900
O  53.41400 39.75800 40.68300
C  54.89900 41.55600 41.28100
N  52.32400 46.51600 41.31700
C  53.40100 45.76100 41.36200
C  54.70800 46.59300 41.74200
C  54.07100 47.97200 41.86900
C  52.58900 47.77500 41.76500
C  55.45500 46.18100 42.97700
C  54.65400 48.99700 40.91700
C  55.64800 49.98300 41.39900
N  49.69600 47.73100 40.96300
C  50.31000 48.88500 41.26800
C  49.50400 50.07400 41.00300
C  48.36800 49.53400 40.37900
C  48.51200 48.06200 40.43700
C  49.88500 51.51700 41.40800
C  47.12900 49.92700 39.75500
O  46.66800 51.05100 39.49100
C  46.39800 48.49400 39.38200
C  45.16800 48.39400 40.16700
O  45.04500 48.30000 41.37900
O  44.11100 48.19700 39.23600
C  42.76000 47.88200 39.72200
H  48.38600 41.82800 40.38500
H  54.43300 43.97400 41.14500
H  52.21900 49.72700 42.13300
H  45.20000 45.48600 39.52200
H  46.24200 42.98500 38.92900
H  46.40500 43.24800 41.78900
H  45.19300 42.49300 40.73900
H  45.05700 44.18800 41.19400
H  46.66200 44.39400 37.12600
H  46.73000 46.03500 37.09900
H  44.60500 46.21000 36.57500
H  43.94800 45.12300 37.77900
H  50.48500 39.76400 39.52900
H  49.32900 40.23800 40.79900
H  50.92200 39.57300 41.29000
H  54.60700 42.04300 42.21200
H  55.35000 42.23200 40.55500
H  55.60200 40.77600 41.57500
H  55.43900 46.59600 40.93400
H  54.35900 48.33800 42.85500
H  54.80000 46.28700 43.84200
H  56.31100 46.83500 43.14200
H  55.87100 45.18900 42.80200
H  53.88700 49.56300 40.38800
H  55.08400 48.50100 40.04600
H  56.56300 50.10500 40.82000
H  55.88900 49.85000 42.45400
H  55.15000 50.95300 41.38300
H  49.11400 51.67900 42.16100
H  49.87300 52.23300 40.58600
H  50.88600 51.54300 41.83900
H  46.12500 48.47000 38.32700
H  42.64000 46.84400 40.03200
H  41.92100 47.84000 39.02800
H  42.52000 48.55400 40.54600

