158

Mg 1.35500 7.63200 25.95200
C  1.92700 9.55500 28.84900
C  1.32600 4.78100 27.96000
C  1.28300 5.79400 23.16600
C  1.53600 10.49000 24.11900
N  1.89100 7.18400 28.14900
C  1.87800 8.21500 29.11200
C  1.60200 7.53300 30.47700
C  1.70300 6.03400 30.19500
C  1.65100 5.97300 28.69500
C  3.01500 5.24200 30.72500
C  0.33000 8.00300 31.15700
C  0.32800 8.16800 32.75300
H  1.58100 7.74700 33.52000
N  1.41300 5.52600 25.61800
C  1.33600 4.53300 26.57700
C  0.91500 3.30000 25.93500
C  0.87300 3.55300 24.59900
C  1.19100 4.99500 24.35500
C  0.58700 2.03000 26.72000
C  0.52500 2.61800 23.45200
O  0.43500 3.06100 22.34000
C  0.10600 1.13500 23.71800
N  1.56600 8.03400 23.91200
C  1.44500 7.16400 22.92000
C  1.30100 7.85700 21.51500
C  1.28400 9.30100 21.89100
C  1.43700 9.31100 23.45900
C  2.42900 7.43200 20.47000
C  0.04900 10.09700 21.38000
C  0.52700 10.76100 20.13100
N  1.66700 9.61800 26.39400
C  1.79500 10.66000 25.47400
C  2.13400 11.92700 26.17200
C  2.17400 11.51500 27.48000
C  1.88600 10.16700 27.60100
C  2.29800 13.28600 25.55800
C  2.43400 12.06800 28.85000
O  2.82600 13.18600 29.29300
C  2.13500 10.81000 29.74200
C  3.14900 10.71400 30.83700
O  4.27600 10.19200 30.72900
O  2.65800 11.29400 31.99200
C  3.57300 11.82000 32.96100
H  1.22400 3.90100 28.59900
H  1.07400 5.25100 22.24200
H  1.38700 11.40900 23.54900
H  2.50800 7.81200 31.01500
H  0.80700 5.54900 30.58200
H  3.59500 5.76900 31.48200
H  3.69000 4.97700 29.91100
H  2.72500 4.23400 31.02100
H  -0.51300 7.32600 31.02300
H  0.19700 8.99700 30.72900
H  -0.54200 7.71900 33.23000
H  0.20200 9.22900 32.97100
H  -0.21900 1.47300 26.24300
H  0.28000 2.28600 27.73400
H  1.51400 1.46600 26.82500
H  0.69700 0.71200 24.53100
H  0.35800 0.60700 22.79800
H  -0.92600 1.10200 24.06700
H  0.31400 7.59800 21.13100
H  2.20300 9.78000 21.55700
H  3.03900 8.31400 20.27500
H  2.02700 7.22900 19.47700
H  3.03400 6.59900 20.82700
H  -0.35700 10.84800 22.05800
H  -0.76500 9.43000 21.09700
H  0.79700 10.06400 19.33800
H  1.34800 11.44600 20.34600
H  -0.28100 11.32900 19.67200
H  2.46100 14.08700 26.27900
H  1.33800 13.46000 25.07200
H  3.11100 13.37600 24.83700
H  1.23400 11.04300 30.31000
H  4.29200 12.27900 32.28200
H  4.03700 11.04800 33.57500
H  3.12800 12.57500 33.60900
Mg 39.85500 8.69000 28.59500
C  41.68300 9.78500 31.42800
C  37.69900 7.04400 30.95300
C  38.20400 7.27600 26.08000
C  42.48200 9.68800 26.61400
N  39.74700 8.42400 30.88400
C  40.50600 9.14700 31.80100
C  39.93700 9.08100 33.21200
C  38.94200 7.86600 33.07400
C  38.76600 7.75000 31.48800
C  39.40000 6.58200 33.77200
C  39.21300 10.37200 33.75200
C  39.60600 10.78900 35.19100
H  39.86800 12.32400 35.40700
N  38.06500 7.37200 28.49700
C  37.40300 6.87000 29.55900
C  36.34200 6.09000 29.09000
C  36.34200 6.20300 27.64600
C  37.58900 6.98500 27.33900
C  35.34300 5.49100 29.97700
C  35.39800 5.55600 26.61800
O  35.44600 5.78500 25.44200
C  34.19300 4.84100 27.11000
N  40.21900 8.60900 26.68100
C  39.31400 8.06100 25.80600
C  39.76900 8.21600 24.35900
C  41.07800 9.06100 24.53800
C  41.29800 9.11300 26.04700
C  40.10500 6.90300 23.53500
C  40.87000 10.47600 23.93700
C  40.05100 11.47800 24.67000
N  41.72800 9.49900 28.84000
C  42.66300 9.93000 27.95900
C  43.82400 10.47900 28.61900
C  43.40900 10.48800 29.98300
C  42.21200 9.76400 30.05400
C  45.07500 10.90500 27.90300
C  43.73100 11.01500 31.22600
O  44.76000 11.65800 31.59300
C  42.74100 10.51600 32.27200
C  43.45800 9.78400 33.38500
O  44.20900 8.85500 33.29700
O  43.25200 10.48700 34.56000
C  43.88700 9.99800 35.77400
H  37.14700 6.55800 31.76100
H  37.57000 6.80600 25.32500
H  43.22500 10.10300 25.93000
H  40.81500 8.89100 33.82900
H  37.95400 8.05200 33.49400
H  40.29600 6.73700 34.37300
H  39.45700 5.74400 33.07800
H  38.63000 6.34600 34.50700
H  38.13600 10.21700 33.67900
H  39.36400 11.12300 32.97600
H  40.52000 10.29900 35.52600
H  38.82300 10.38500 35.83200
H  35.15800 5.97900 30.93400
H  35.37600 4.40300 29.92900
H  34.39200 5.79900 29.54400
H  34.51900 4.09000 27.83000
H  33.57800 4.39200 26.33000
H  33.59300 5.58500 27.63400
H  38.94700 8.77500 23.91100
H  41.93300 8.47500 24.19900
H  41.14600 6.81800 23.22400
H  39.47700 6.95400 22.64500
H  39.98900 5.95800 24.06500
H  40.38000 10.28100 22.98300
H  41.84700 10.85300 23.63500
H  40.27500 11.35800 25.73000
H  38.99400 11.23200 24.57600
H  40.20900 12.50800 24.35100
H  45.73000 11.31700 28.67100
H  44.68600 11.69400 27.26000
H  45.59700 10.12200 27.35300
H  42.12800 11.33800 32.64100
H  43.25200 10.20600 36.63500
H  44.84600 10.49300 35.92300
H  44.05000 8.92200 35.71200

