158

Mg 47.70600 16.29000 29.12500
C  45.75900 15.72500 31.96900
C  49.83700 18.06700 31.26900
C  49.41900 17.50900 26.39300
C  45.31000 14.96300 27.11600
N  47.68500 16.93500 31.33400
C  46.92500 16.45000 32.30600
C  47.29200 16.88100 33.79200
C  48.38800 17.90900 33.44000
C  48.69500 17.59000 31.90700
C  47.77200 19.38100 33.52100
C  47.87100 15.70300 34.64500
C  47.98500 15.84900 36.20600
H  47.65000 17.21600 36.98800
N  49.37900 17.50600 28.90000
C  50.14900 18.10100 29.90400
C  51.36000 18.69600 29.33500
C  51.24600 18.53900 27.88600
C  49.95000 17.85200 27.67600
C  52.50800 19.37600 30.20200
C  52.30000 19.08300 26.87000
O  52.06500 19.11400 25.68000
C  53.48900 19.79100 27.32100
N  47.42000 16.25000 27.07700
C  48.21200 16.83500 26.11700
C  47.73300 16.67300 24.64700
C  46.55100 15.69100 24.89000
C  46.43200 15.53200 26.46400
C  47.38800 18.07200 23.97500
C  46.54300 14.31700 24.12500
C  45.58000 14.00800 22.92500
N  45.87500 15.52700 29.37700
C  44.96400 14.92800 28.55800
C  43.82900 14.35200 29.28600
C  44.16100 14.60400 30.60500
C  45.35800 15.32200 30.62600
C  42.61100 13.67000 28.68900
C  43.60300 14.52100 31.94800
O  42.61100 13.99900 32.43700
C  44.63800 15.21800 32.92400
C  43.93500 16.36400 33.48200
O  43.37700 17.19500 32.82200
O  43.98300 16.32700 34.88900
C  43.49000 17.57800 35.48100
H  50.58800 18.55300 31.89500
H  49.92800 17.85600 25.49200
H  44.60900 14.52000 26.40600
H  46.48300 17.27200 34.41000
H  49.20100 17.85000 34.16400
H  48.63200 20.05100 33.50900
H  47.34500 19.54200 34.51000
H  47.07400 19.58700 32.70900
H  48.85800 15.59400 34.19400
H  47.26300 14.85200 34.33800
H  49.05500 15.69900 36.35100
H  47.42700 15.18400 36.86500
H  52.51000 18.98700 31.22000
H  52.51900 20.46100 30.09600
H  53.47500 19.02300 29.84400
H  53.23900 20.68000 27.90000
H  54.07200 20.26400 26.53200
H  54.13700 19.05800 27.80100
H  48.40600 16.04400 24.06400
H  45.66000 16.26700 24.64100
H  47.97400 18.81300 24.51800
H  46.34800 18.37600 24.09100
H  47.70100 18.22500 22.94200
H  46.39200 13.55000 24.88500
H  47.48100 14.30900 23.57000
H  46.13300 13.71200 22.03300
H  44.88400 14.83600 22.79000
H  44.98100 13.16100 23.25800
H  42.26200 13.11200 29.55800
H  42.97500 12.96400 27.94300
H  41.88800 14.37800 28.28300
H  44.79900 14.49900 33.72800
H  42.40200 17.52900 35.52200
H  43.81300 18.48300 34.96800
H  43.79900 17.65100 36.52400
Mg 48.60100 46.05600 43.41300
C  45.32200 46.75100 42.47500
C  48.26600 42.84800 41.81200
C  51.87500 45.56500 43.59700
C  49.07200 49.45300 44.07100
N  47.01100 44.94800 42.21200
C  45.73000 45.44700 42.04600
C  44.84400 44.39200 41.26500
C  45.89100 43.16900 41.14200
C  47.12400 43.64500 41.84400
C  45.36600 41.94400 41.89700
C  44.47400 44.94600 39.85700
C  43.07000 44.93700 39.40200
H  42.66100 43.84500 38.33700
N  49.92400 44.41100 42.86300
C  49.60200 43.19000 42.24900
C  50.76800 42.34700 42.25200
C  51.86000 43.08500 42.84700
C  51.31500 44.42800 43.12300
C  50.73400 40.85900 41.99800
C  53.19600 42.60700 43.17900
O  53.55100 41.47700 42.77900
C  54.20400 43.35400 44.08300
N  50.26500 47.37200 43.76300
C  51.50600 46.89400 43.82000
C  52.57600 48.07400 43.97300
C  51.62000 49.24200 44.25000
C  50.25200 48.69800 44.05500
C  53.61700 47.90200 45.13600
C  51.80100 50.53400 43.36400
C  51.71400 52.00900 43.92800
N  47.46900 47.72500 43.49700
C  47.75800 49.03300 43.81400
C  46.53500 49.80300 43.79200
C  45.53300 48.91400 43.41500
C  46.18800 47.68300 43.07600
C  46.45100 51.26000 44.13700
C  44.09400 48.76500 43.20100
O  43.21300 49.54900 43.47300
C  43.92800 47.32600 42.60000
C  42.95300 46.53700 43.47700
O  42.98000 46.31600 44.71500
O  42.07400 45.86500 42.65500
C  41.41300 44.74300 43.29600
H  48.21100 41.84500 41.38300
H  52.96000 45.44800 43.62100
H  49.20400 50.52700 44.21500
H  43.97600 44.18200 41.89100
H  46.16000 42.95500 40.10800
H  44.36400 41.99000 42.32300
H  46.04800 41.79900 42.73500
H  45.34600 41.12100 41.18300
H  44.93500 44.27800 39.13000
H  44.99800 45.89900 39.78400
H  42.86800 45.88800 38.90900
H  42.49700 44.85300 40.32500
H  51.33700 40.61600 41.12300
H  49.76300 40.53300 41.62500
H  51.00300 40.11200 42.74500
H  53.71300 43.57100 45.03200
H  54.65500 44.13400 43.47000
H  54.95800 42.59300 44.28400
H  53.08400 48.29700 43.03400
H  51.60100 49.58400 45.28500
H  53.44400 48.40600 46.08700
H  54.54900 48.22000 44.67000
H  53.83300 46.89700 45.49800
H  51.07600 50.49200 42.55100
H  52.74700 50.39200 42.84100
H  50.93700 52.56500 43.40400
H  52.70700 52.45800 43.89300
H  51.53100 51.99900 45.00300
H  46.60900 51.84900 43.23300
H  47.24400 51.59400 44.80600
H  45.47500 51.51700 44.54700
H  43.39100 47.39800 41.65400
H  40.86800 44.94100 44.21900
H  42.09300 43.94700 43.59900
H  40.76500 44.37300 42.50300

