158

Mg 48.18300 46.03100 43.48500
C  44.75400 46.07600 42.54900
C  48.25200 42.72300 42.39200
C  51.50500 46.20300 43.12000
C  47.96900 49.58900 43.49000
N  46.58700 44.57600 42.69000
C  45.29800 44.77300 42.40100
C  44.55400 43.46200 42.04800
C  45.72500 42.41000 42.26600
C  46.94900 43.26900 42.53600
C  45.45600 41.39300 43.34900
C  43.94700 43.39700 40.54800
C  44.63700 44.16900 39.40800
H  44.98300 43.32000 38.11600
N  49.66400 44.59700 43.13500
C  49.44900 43.30900 42.81200
C  50.71700 42.63400 42.68700
C  51.75200 43.58100 42.92800
C  50.98900 44.86500 43.16700
C  50.87300 41.25200 42.27100
C  53.20800 43.32600 42.89900
O  53.57500 42.24900 42.51600
C  54.24400 44.35100 43.13600
N  49.53800 47.64900 43.12800
C  50.86700 47.44900 43.16100
C  51.65800 48.83900 43.12600
C  50.49100 49.85100 43.39900
C  49.23100 48.96600 43.31500
C  52.86300 49.07900 44.02700
C  50.58200 51.10500 42.40300
C  50.20200 52.45300 43.06300
N  46.70400 47.57200 43.29800
C  46.77000 48.94500 43.38600
C  45.46300 49.52800 43.24300
C  44.63400 48.45400 42.88200
C  45.44400 47.26400 42.96600
C  45.18700 50.95800 43.33800
C  43.31800 48.13800 42.43700
O  42.35100 48.82700 42.20500
C  43.29500 46.57500 42.23100
C  42.29000 45.95000 43.21100
O  41.67500 44.92600 42.92200
O  42.21600 46.56800 44.44100
C  41.10500 46.20700 45.32200
H  48.18300 41.69300 42.03700
H  52.57800 46.27600 42.92800
H  48.07700 50.67100 43.38900
H  43.70900 43.29800 42.71600
H  46.11000 41.86500 41.40500
H  46.11500 41.44700 44.21500
H  45.57400 40.37000 42.99100
H  44.50300 41.46300 43.87500
H  42.95400 43.84500 40.55300
H  43.77100 42.35600 40.27500
H  45.50700 44.65900 39.84600
H  44.00000 45.00900 39.13100
H  50.01400 40.64600 42.55900
H  51.76000 40.84200 42.75500
H  51.04300 41.15300 41.19900
H  54.42700 44.99700 42.27800
H  55.15500 43.86400 43.48200
H  54.01900 44.86900 44.06800
H  51.96800 49.11300 42.11800
H  50.47700 50.20200 44.43100
H  52.81000 50.02700 44.56200
H  53.73800 49.01800 43.38000
H  52.99800 48.27500 44.75100
H  49.95100 50.88300 41.54300
H  51.60200 51.15900 42.02200
H  49.28100 52.79100 42.58800
H  50.91600 53.17300 42.66300
H  50.19800 52.53900 44.15000
H  44.22000 51.24300 42.92300
H  46.00300 51.59500 42.99600
H  45.21200 51.16000 44.40900
H  43.02300 46.34800 41.20000
H  41.16500 45.15600 45.60400
H  40.13500 46.31600 44.83800
H  41.22500 46.81400 46.21900
Mg -12.06000 15.58200 41.58400
C  -8.97000 14.00900 41.01900
C  -10.71400 18.51500 40.25000
C  -15.15300 16.65400 41.13400
C  -13.26700 12.40400 42.56100
N  -10.21300 16.05500 40.42800
C  -9.02700 15.25500 40.40200
C  -7.84800 16.01200 39.81600
C  -8.36500 17.48500 39.70800
C  -9.89500 17.35300 40.19600
C  -7.68300 18.58700 40.48100
C  -7.25200 15.36700 38.48100
C  -5.66300 15.28000 38.47100
H  -4.91000 15.55400 37.20600
N  -12.88900 17.35700 40.85300
C  -12.15000 18.40900 40.32200
C  -13.06500 19.48100 40.06100
C  -14.36600 19.08500 40.39300
C  -14.20800 17.69100 40.80000
C  -12.53400 20.81800 39.47700
C  -15.63400 19.95100 40.41400
O  -15.62400 21.13000 40.03400
C  -16.98300 19.43500 40.90300
N  -13.95700 14.70600 41.98000
C  -15.08800 15.36100 41.58800
C  -16.30200 14.50500 41.71300
C  -15.70000 13.16100 42.14100
C  -14.22600 13.43900 42.23300
C  -17.32000 15.14300 42.68800
C  -16.00400 11.95000 41.22200
C  -16.15400 10.60300 41.92300
N  -11.29600 13.56800 41.92300
C  -11.85600 12.46500 42.40100
C  -10.91000 11.47300 42.54200
C  -9.61700 11.97800 42.16800
C  -9.97800 13.29800 41.68200
C  -11.25900 10.06900 42.95500
C  -8.19700 11.79400 41.93200
O  -7.46800 10.86800 42.15100
C  -7.78600 13.10600 41.11600
C  -6.67500 13.72800 41.90200
O  -6.86900 14.30500 42.96200
O  -5.40300 13.51100 41.32700
C  -4.24400 13.98800 42.04400
H  -10.25300 19.47000 39.98800
H  -16.16700 16.87300 40.79300
H  -13.70100 11.42300 42.76100
H  -7.12400 16.11800 40.62400
H  -8.41900 17.80300 38.66700
H  -7.26100 19.31200 39.78500
H  -6.92400 18.15200 41.13200
H  -8.40400 19.18900 41.03300
H  -7.52800 15.99900 37.63700
H  -7.68800 14.37900 38.33200
H  -5.40300 14.24500 38.69300
H  -5.22100 15.92200 39.23300
H  -13.39600 21.40800 39.16700
H  -11.75900 20.73500 38.71600
H  -12.17400 21.41400 40.31600
H  -17.83000 20.12100 40.91000
H  -16.91600 18.77500 41.76900
H  -17.08900 18.76300 40.05100
H  -16.69600 14.33200 40.71200
H  -15.74900 12.99000 43.21600
H  -16.84100 15.49200 43.60300
H  -18.03500 14.37400 42.98000
H  -17.79900 16.02000 42.25400
H  -15.22700 11.92800 40.45800
H  -16.95700 12.07800 40.70900
H  -16.44100 10.84600 42.94600
H  -15.16000 10.16400 42.00500
H  -16.90800 9.98400 41.43600
H  -10.35100 9.49000 42.79200
H  -12.12700 9.63900 42.45300
H  -11.43600 10.13400 44.02800
H  -7.28600 12.76400 40.20900
H  -4.28400 15.06200 42.22800
H  -3.42400 13.66900 41.40100
H  -4.21500 13.47700 43.00600

