158

Mg 1.75000 -0.24500 43.86600
C  5.29900 0.05100 43.38500
C  1.29100 2.60000 42.14400
C  -1.42400 -1.06300 43.84300
C  2.56600 -3.55000 44.99900
N  3.16000 1.05000 42.85900
C  4.53000 1.06100 42.70900
C  4.98100 2.11800 41.67800
C  3.80700 3.13900 41.69100
C  2.65200 2.17700 42.28500
C  3.95400 4.44900 42.60600
C  5.23200 1.56400 40.23800
C  6.40100 2.26600 39.58100
H  5.81900 2.88800 38.28900
N  0.12100 0.68000 43.17400
C  0.09100 1.88400 42.54000
C  -1.26700 2.22600 42.35900
C  -2.08600 1.13000 42.86100
C  -1.09600 0.21200 43.32100
C  -1.68800 3.42700 41.65000
C  -3.57700 1.01500 42.81300
O  -4.20200 2.09000 42.61200
C  -4.37300 -0.26500 43.04000
N  0.72000 -2.01200 44.43100
C  -0.62600 -2.06300 44.36300
C  -1.18600 -3.38500 44.86600
C  0.06600 -4.25400 45.22600
C  1.22500 -3.24000 44.89400
C  -2.10600 -3.29000 46.19400
C  0.20000 -5.53100 44.27500
C  0.58700 -6.82700 44.98700
N  3.51500 -1.47200 44.28800
C  3.68100 -2.75900 44.72400
C  5.10200 -2.98300 44.99600
C  5.76400 -1.89700 44.55900
C  4.77300 -0.99300 44.07700
C  5.65100 -4.38900 45.36400
C  7.10000 -1.38500 44.27400
O  8.20300 -1.95500 44.36300
C  6.79700 -0.06200 43.47500
C  7.39800 1.08400 44.18100
O  6.93700 1.81900 45.08400
O  8.63600 1.30500 43.57900
C  9.40800 2.55300 43.84500
H  1.13700 3.58500 41.69800
H  -2.45600 -1.38600 44.00000
H  2.73900 -4.59400 45.27000
H  5.82300 2.66400 42.10100
H  3.39400 3.51000 40.75300
H  3.12400 4.57300 43.30100
H  3.99900 5.27700 41.89700
H  4.84500 4.43700 43.23400
H  4.32500 1.75800 39.66600
H  5.47000 0.50100 40.28300
H  7.11800 1.48000 39.34500
H  6.78200 3.08300 40.19400
H  -2.47400 3.90700 42.23300
H  -2.07600 3.07100 40.69600
H  -1.00800 4.19700 41.28800
H  -5.38300 -0.10000 42.66400
H  -4.38900 -0.38600 44.12300
H  -3.93900 -0.98400 42.34600
H  -1.78200 -3.82900 44.06900
H  0.16500 -4.56900 46.26500
H  -3.07600 -3.74400 45.99000
H  -2.37800 -2.25500 46.40400
H  -1.69000 -3.82500 47.04800
H  0.95200 -5.29700 43.52100
H  -0.73500 -5.68000 43.73500
H  -0.35500 -7.33000 45.20700
H  1.06000 -6.67700 45.95700
H  1.20400 -7.40400 44.29800
H  5.49700 -5.05700 44.51600
H  5.16300 -4.73700 46.27400
H  6.73200 -4.41000 45.50600
H  7.31700 -0.00900 42.51800
H  10.07600 2.51400 44.70600
H  8.78100 3.44100 43.92900
H  10.13500 2.70400 43.04800
Mg -2.04900 34.70000 26.99500
C  -3.70600 32.79300 29.45000
C  -1.00200 36.84500 29.27500
C  -1.16900 36.62000 24.38100
C  -3.22300 32.33800 24.62100
N  -2.36900 34.85400 29.06600
C  -2.93800 33.89900 29.91300
C  -2.56300 34.14300 31.34300
C  -1.63900 35.39600 31.25900
C  -1.74400 35.79300 29.78400
C  -1.94700 36.48600 32.28200
C  -1.75500 32.96600 31.98500
C  -2.17200 32.47000 33.35500
H  -1.18300 32.61200 34.57900
N  -1.13400 36.54500 26.85100
C  -0.75600 37.26400 27.95500
C  -0.08400 38.49100 27.55100
C  -0.27600 38.49100 26.10900
C  -0.91500 37.19700 25.66900
C  0.55000 39.50900 28.54700
C  0.20100 39.52400 25.10800
O  0.14200 39.34300 23.88800
C  0.86200 40.81100 25.62900
N  -2.27100 34.51700 24.76000
C  -1.68000 35.44400 23.93600
C  -1.62200 34.94800 22.49600
C  -2.14100 33.53100 22.67800
C  -2.51900 33.37600 24.11600
C  -2.55400 35.80200 21.64800
C  -1.09800 32.50400 22.18400
C  -0.02000 32.11300 23.18400
N  -3.24200 32.93900 26.99500
C  -3.67800 32.10100 25.93300
C  -4.53200 31.05300 26.39600
C  -4.52800 31.27800 27.80400
C  -3.69700 32.42100 28.05400
C  -5.30400 30.04100 25.61200
C  -5.05400 30.79300 29.11400
O  -5.79400 29.86800 29.42200
C  -4.40300 31.71500 30.25900
C  -5.45800 32.24300 31.16000
O  -6.16900 33.17300 30.87900
O  -5.53500 31.46700 32.34200
C  -6.49600 31.97200 33.33700
H  -0.54400 37.48300 30.03500
H  -0.75000 37.12600 23.50900
H  -3.45700 31.57600 23.87400
H  -3.51000 34.28500 31.86300
H  -0.60000 35.09700 31.39700
H  -2.36100 37.35800 31.77600
H  -1.05100 36.63800 32.88400
H  -2.69700 36.04500 32.93900
H  -0.71000 33.25300 32.10700
H  -1.70600 32.08600 31.34400
H  -2.35500 31.40100 33.24000
H  -3.14700 32.94300 33.47200
H  1.42100 39.96200 28.07300
H  0.90500 39.06000 29.47500
H  -0.15900 40.29500 28.80800
H  0.90600 41.50600 24.79000
H  1.83700 40.56500 26.05000
H  0.19700 41.23100 26.38300
H  -0.59700 35.03300 22.13500
H  -3.04200 33.44600 22.07100
H  -3.25500 36.33600 22.28800
H  -3.14700 35.25000 20.91900
H  -1.99400 36.59800 21.15700
H  -0.63100 32.87600 21.27200
H  -1.68800 31.70000 21.74500
H  0.10900 32.94000 23.88300
H  0.93100 31.95400 22.67600
H  -0.19200 31.11100 23.57700
H  -5.04400 30.05900 24.55400
H  -6.36400 30.23200 25.77900
H  -5.12400 29.05100 26.03100
H  -3.65500 31.06800 30.71600
H  -7.38600 32.42100 32.89500
H  -6.13600 32.69500 34.06900
H  -6.73800 31.20300 34.07000

