158

Mg 48.21300 25.86800 27.84600
C  48.92400 28.06600 30.25800
C  47.11600 23.44700 30.14500
C  47.58200 23.58900 25.27900
C  49.50100 28.06700 25.44300
N  47.88100 25.79400 29.87600
C  48.29600 26.79800 30.68300
C  48.00900 26.51900 32.18300
C  47.75400 24.96700 32.12700
C  47.55600 24.70900 30.63800
C  48.67300 24.01400 32.90600
C  46.78600 27.42100 32.67700
C  46.16500 27.00400 33.99500
H  46.04000 28.05600 35.14200
N  47.44400 23.83100 27.74500
C  47.09000 23.03900 28.77700
C  46.55700 21.72000 28.31600
C  46.74200 21.77800 26.93200
C  47.26700 23.13800 26.56200
C  45.88400 20.71400 29.19000
C  46.43700 20.60800 25.95600
O  46.65100 20.63900 24.79400
C  45.97500 19.35000 26.46600
N  48.59600 25.84600 25.65500
C  48.09600 24.84200 24.84600
C  48.09100 25.28600 23.39200
C  48.85800 26.57200 23.39600
C  49.04200 26.87400 24.91900
C  48.60500 24.24500 22.37500
C  48.21400 27.74500 22.61900
C  48.89800 28.28500 21.38400
N  49.09900 27.66600 27.81200
C  49.59500 28.44800 26.77700
C  50.10700 29.70900 27.31500
C  49.80100 29.65100 28.70000
C  49.25600 28.37300 28.93300
C  50.66400 30.96800 26.60200
C  49.91300 30.34500 29.98200
O  50.27000 31.50900 30.17100
C  49.34800 29.35600 31.06500
C  50.38200 29.03800 32.14500
O  51.44300 28.47300 32.02800
O  49.92600 29.61200 33.34200
C  50.74600 29.36500 34.54000
H  46.79100 22.72400 30.89600
H  47.30700 22.95600 24.43300
H  49.77100 28.84800 24.73000
H  48.88900 26.77600 32.77300
H  46.80200 24.73800 32.60600
H  49.03900 23.18300 32.30300
H  48.21500 23.60200 33.80500
H  49.52700 24.56400 33.30400
H  46.03400 27.49400 31.89200
H  47.24100 28.39300 32.86900
H  46.70100 26.15000 34.40900
H  45.19600 26.57700 33.73600
H  46.56000 19.86200 29.25700
H  44.98100 20.38100 28.67900
H  45.63200 21.07100 30.18900
H  45.90500 18.57900 25.69900
H  45.00300 19.43300 26.95200
H  46.76300 18.99800 27.13200
H  47.11300 25.48600 22.95400
H  49.85100 26.52500 22.94900
H  49.05800 23.39400 22.88500
H  49.37300 24.63200 21.70600
H  47.76800 23.74800 21.88500
H  48.07400 28.59600 23.28600
H  47.24800 27.42700 22.22800
H  49.63400 27.65500 20.88300
H  49.33300 29.18200 21.82500
H  48.17400 28.53100 20.60700
H  50.13100 31.91600 26.68400
H  50.56100 30.80200 25.52900
H  51.69900 31.23200 26.81400
H  48.44800 29.82300 31.46500
H  51.04800 30.36200 34.86100
H  51.61500 28.71800 34.41700
H  50.11200 28.88900 35.28700
Mg -11.25300 39.27400 42.16200
C  -9.21800 36.39100 41.40800
C  -8.90200 41.07200 40.44200
C  -13.45900 41.79000 41.83500
C  -13.86900 37.00300 42.80500
N  -9.33200 38.74000 41.06300
C  -8.71700 37.55200 40.87700
C  -7.40600 37.65300 40.05400
C  -7.15700 39.23200 40.04600
C  -8.53700 39.76800 40.57100
C  -5.90400 39.72300 40.90700
C  -7.45300 36.97600 38.67700
C  -6.36100 35.92900 38.32600
H  -5.65000 36.08200 36.98100
N  -11.09200 41.28200 41.52500
C  -10.04000 41.76700 40.84300
C  -10.30100 43.16100 40.56900
C  -11.63000 43.42800 41.01600
C  -12.12200 42.14100 41.49200
C  -9.31200 44.07100 39.91800
C  -12.36000 44.78800 40.93300
O  -11.76800 45.71100 40.44900
C  -13.68400 45.08700 41.51400
N  -13.35600 39.29600 42.10800
C  -14.03400 40.50300 42.10300
C  -15.55100 40.37400 42.40900
C  -15.66800 38.78700 42.56600
C  -14.19800 38.32400 42.46500
C  -16.12300 41.22400 43.53700
C  -16.73100 38.20100 41.56000
C  -17.70300 37.20600 42.24700
N  -11.47500 37.13400 42.29600
C  -12.64000 36.39400 42.58800
C  -12.29800 35.06200 42.74800
C  -10.92200 34.99600 42.29700
C  -10.53500 36.26800 41.96500
C  -13.09900 34.03800 43.28800
C  -9.69800 34.18500 42.17200
O  -9.49400 32.99300 42.35300
C  -8.56000 35.04000 41.47900
C  -7.31200 35.02500 42.30300
O  -6.49800 34.12900 42.25300
O  -7.21100 36.07800 43.14700
C  -6.13200 36.05300 44.18600
H  -8.18000 41.62700 39.83900
H  -14.25600 42.53500 41.86000
H  -14.72000 36.32600 42.90500
H  -6.62000 37.13900 40.60700
H  -7.02700 39.50000 38.99700
H  -5.91800 39.43700 41.95900
H  -5.86200 40.81200 40.88300
H  -4.97800 39.34200 40.47500
H  -7.18300 37.75900 37.96800
H  -8.48400 36.68500 38.47300
H  -6.69700 34.90600 38.50000
H  -5.61900 36.09800 39.10600
H  -8.62700 43.42400 39.37000
H  -8.85800 44.73400 40.65500
H  -9.79700 44.68200 39.15800
H  -13.60800 44.92500 42.58900
H  -14.39900 44.44300 41.00100
H  -13.89900 46.15300 41.43800
H  -16.09500 40.77900 41.55600
H  -15.85800 38.72100 43.63700
H  -15.34500 41.51000 44.24400
H  -16.85700 40.62500 44.07600
H  -16.61900 42.08300 43.08500
H  -16.29300 37.59800 40.76500
H  -17.33100 38.98800 41.10400
H  -18.67100 37.26900 41.74900
H  -17.80500 37.37500 43.31900
H  -17.33500 36.18100 42.20400
H  -12.48000 33.19100 43.58200
H  -13.86800 33.80300 42.55200
H  -13.56900 34.43000 44.19000
H  -8.34800 34.60500 40.50200
H  -6.49800 35.70100 45.15000
H  -5.85000 37.09700 44.32200
H  -5.20600 35.56700 43.87700

