158

Mg 9.51600 3.57100 27.57200
C  10.53200 1.84300 30.38100
C  7.61200 5.62000 29.68600
C  8.04900 4.91000 24.80800
C  10.88700 1.03800 25.52800
N  9.12600 3.72500 29.81300
C  9.64900 2.89100 30.75200
C  9.51600 3.53400 32.13700
C  8.54100 4.72600 31.82900
C  8.40800 4.72100 30.40500
C  7.13400 4.76100 32.48200
C  10.85300 4.08000 32.82200
C  10.59700 4.88200 34.06900
H  11.37500 4.26000 35.28600
N  8.29100 5.18600 27.28000
C  7.54800 5.85500 28.30700
C  6.73800 6.88500 27.64200
C  6.90100 6.74900 26.24400
C  7.81800 5.60100 26.02300
C  5.87200 7.79100 28.42400
C  6.30500 7.52600 25.09100
O  6.69000 7.42200 23.88800
C  5.30000 8.53400 25.44900
N  9.37900 2.99600 25.42500
C  8.78400 3.70500 24.55500
C  8.82300 2.94200 23.16500
C  9.95400 1.99000 23.38000
C  10.09400 1.96200 24.82300
C  7.44800 2.32500 22.79500
C  11.30300 2.39600 22.68800
C  12.07900 1.31500 22.02200
N  10.54500 1.82200 27.83600
C  11.07000 0.91100 26.94600
C  11.61100 -0.22800 27.63800
C  11.58000 0.17600 29.00800
C  10.85500 1.36700 29.04100
C  12.15000 -1.50000 27.10600
C  11.91400 -0.20400 30.37400
O  12.63100 -1.13500 30.76900
C  11.28000 0.87800 31.28000
C  10.44600 0.24400 32.39900
O  9.49600 -0.51000 32.27100
O  10.82900 0.74700 33.60900
C  10.07400 0.15600 34.76200
H  7.09300 6.35500 30.30400
H  7.34000 5.26400 24.05700
H  11.48600 0.31800 24.96700
H  9.11100 2.83400 32.86900
H  9.09400 5.65300 31.98300
H  6.55700 4.25100 31.71100
H  6.76700 5.76100 32.71000
H  6.97700 4.18500 33.39400
H  11.45300 4.61700 32.08700
H  11.52800 3.26200 33.07200
H  9.53400 4.89400 34.30800
H  10.99400 5.89500 33.99900
H  5.67400 7.63200 29.48400
H  4.89900 7.87400 27.94000
H  6.31300 8.78600 28.36900
H  5.73300 9.22100 26.17600
H  4.45100 7.98100 25.85200
H  4.88100 8.99600 24.55500
H  9.13700 3.77400 22.53400
H  9.82600 0.93600 23.13300
H  6.69700 2.30300 23.58400
H  7.71300 1.29700 22.54700
H  7.15000 2.84200 21.88300
H  11.99600 2.76100 23.44600
H  11.15300 3.19600 21.96300
H  11.41800 0.86000 21.28400
H  12.47400 0.63000 22.77200
H  12.96500 1.74000 21.54900
H  12.97100 -1.77600 27.76700
H  12.51800 -1.47000 26.08100
H  11.37400 -2.26100 27.19700
H  12.12500 1.39100 31.74000
H  10.28000 -0.91400 34.75400
H  9.00200 0.32800 34.85500
H  10.55800 0.53600 35.66200
Mg -10.88000 17.11900 43.31000
C  -7.40900 17.75300 43.23500
C  -11.45300 20.42800 42.52400
C  -14.03400 16.24700 42.60900
C  -9.98300 13.66700 43.50300
N  -9.55300 18.80700 43.00600
C  -8.19600 18.89000 43.07900
C  -7.67900 20.32200 42.70600
C  -8.93400 21.12700 42.99800
C  -10.10700 20.07900 42.83500
C  -9.01500 21.87100 44.37600
C  -7.17500 20.41400 41.18900
C  -5.99500 21.35900 40.82600
H  -4.89000 20.55500 40.28500
N  -12.57100 18.20900 42.61500
C  -12.57000 19.57700 42.31900
C  -13.90500 19.99400 41.97800
C  -14.69300 18.75700 41.93900
C  -13.74000 17.63800 42.38000
C  -14.31200 21.35300 41.59700
C  -16.17900 18.73600 41.47900
O  -16.73900 19.77800 41.21100
C  -17.00000 17.42500 41.27700
N  -11.84000 15.20600 42.97900
C  -13.16600 15.17500 42.87200
C  -13.66800 13.71600 43.06600
C  -12.34600 12.88700 42.94900
C  -11.35300 13.95400 43.21700
C  -14.46700 13.51000 44.38800
C  -12.17800 12.02100 41.67300
C  -12.15000 12.84600 40.30300
N  -9.08700 15.92400 43.54700
C  -8.89700 14.47700 43.57500
C  -7.49600 14.17200 43.71800
C  -6.87500 15.47900 43.67400
C  -7.88400 16.45400 43.44700
C  -6.89300 12.84200 44.07100
C  -5.61800 16.19400 43.79900
O  -4.54400 15.74200 44.06800
C  -5.84000 17.71900 43.44600
C  -5.56400 18.52700 44.69800
O  -5.95200 18.33200 45.83700
O  -4.69800 19.53800 44.33500
C  -4.35600 20.34900 45.46700
H  -11.62300 21.49700 42.67100
H  -15.08000 15.99700 42.42200
H  -9.63000 12.63400 43.56000
H  -6.93600 20.67300 43.42200
H  -9.21700 21.85300 42.23700
H  -9.71900 21.40600 45.06600
H  -9.20700 22.93400 44.23200
H  -8.05400 21.77700 44.88100
H  -7.90600 20.76700 40.46100
H  -6.95000 19.38400 40.91400
H  -5.67300 21.89100 41.72100
H  -6.34700 22.12200 40.13200
H  -14.52700 21.48100 40.53600
H  -13.53100 22.04200 41.91900
H  -15.18800 21.57900 42.20500
H  -17.97800 17.54400 40.80900
H  -17.22900 17.12200 42.29900
H  -16.45300 16.64900 40.74100
H  -14.18100 13.31400 42.19300
H  -12.28800 12.24700 43.83000
H  -14.95700 14.42100 44.73100
H  -13.86000 13.07300 45.18200
H  -15.12100 12.69200 44.08700
H  -12.98900 11.29300 41.71300
H  -11.28100 11.40100 41.66100
H  -12.76800 12.41600 39.51500
H  -11.09600 12.76100 40.03800
H  -12.52200 13.86500 40.41300
H  -5.86400 12.80500 44.42800
H  -6.95200 12.24900 43.15800
H  -7.46400 12.36600 44.86800
H  -5.32000 18.11100 42.57200
H  -5.20000 20.85000 45.94200
H  -3.60200 21.09800 45.22500
H  -4.02500 19.67400 46.25700

