158

Mg 2.77000 -3.49600 45.12900
C  6.07200 -2.53800 44.28800
C  1.47400 -1.22100 43.03000
C  -0.23900 -4.93800 45.73500
C  4.31900 -6.08000 47.29600
N  3.69000 -2.15600 43.73300
C  5.04100 -1.84800 43.55100
C  5.22400 -0.74600 42.56800
C  3.78600 -0.31700 42.14600
C  2.93000 -1.21200 43.10900
C  3.55100 1.23900 42.17200
C  6.17200 -1.12100 41.39500
C  7.34400 -0.10400 41.20300
H  7.74400 0.27600 39.75400
N  0.84800 -3.19000 44.41400
C  0.51300 -2.10400 43.56500
C  -0.96000 -2.12500 43.51800
C  -1.43000 -3.37400 44.10300
C  -0.23800 -3.94900 44.77400
C  -1.75100 -1.09300 42.85700
C  -2.84900 -3.94200 44.08700
O  -3.77500 -3.35200 43.47700
C  -3.13400 -5.31000 44.59300
N  2.15200 -5.29200 46.28200
C  0.84800 -5.56600 46.38500
C  0.65700 -6.77100 47.33600
C  2.09200 -7.31700 47.57200
C  2.90200 -6.16800 47.04600
C  -0.21100 -6.56600 48.61500
C  2.56400 -8.56200 46.71700
C  3.38500 -9.62600 47.56800
N  4.72300 -4.19900 45.71000
C  5.18200 -5.17300 46.57300
C  6.61300 -5.10600 46.66000
C  6.99700 -4.04900 45.84300
C  5.80700 -3.55800 45.21400
C  7.48300 -6.00600 47.50800
C  8.17500 -3.26900 45.36300
O  9.35000 -3.36000 45.63600
C  7.54800 -2.19700 44.39900
C  7.85500 -0.84000 45.03400
O  7.51000 -0.61900 46.13400
O  8.30300 0.05600 44.12000
C  8.34300 1.46900 44.63500
H  1.10400 -0.37300 42.45100
H  -1.26300 -5.18600 46.02300
H  4.72200 -6.90600 47.88500
H  5.73300 -0.01000 43.19000
H  3.52900 -0.67900 41.15100
H  4.40600 1.80700 42.53700
H  2.71400 1.43100 42.84400
H  3.18900 1.52300 41.18300
H  5.59100 -1.16400 40.47400
H  6.50800 -2.14800 41.53700
H  8.21500 -0.52800 41.70300
H  7.14500 0.80500 41.77100
H  -1.61400 -1.19900 41.78100
H  -1.27600 -0.17400 43.20300
H  -2.77500 -0.96500 43.20900
H  -3.41400 -5.45700 45.63600
H  -2.37200 -5.99800 44.22700
H  -4.01100 -5.59800 44.01300
H  0.15900 -7.47600 46.67000
H  2.27900 -7.55000 48.62000
H  -0.22500 -5.58100 49.08100
H  0.18200 -7.32100 49.29500
H  -1.22700 -6.87700 48.37100
H  3.30700 -8.25200 45.98200
H  1.69500 -9.01500 46.23900
H  2.85200 -9.74300 48.51200
H  4.35200 -9.15900 47.75700
H  3.46100 -10.56900 47.02700
H  7.87200 -6.91000 47.03900
H  6.99500 -6.27300 48.44500
H  8.26100 -5.32700 47.85900
H  8.07800 -2.17600 43.44700
H  9.20700 1.54800 45.29500
H  7.36100 1.67000 45.06400
H  8.47100 2.19500 43.83300
Mg -5.46900 25.21200 25.77900
C  -3.85000 26.52900 28.72800
C  -7.02200 23.04200 27.95300
C  -6.72700 23.84500 23.14800
C  -3.21600 27.06600 23.95600
N  -5.38200 24.87900 28.06800
C  -4.85200 25.59200 29.05400
C  -5.46400 25.30800 30.39500
C  -6.18900 24.00400 30.11200
C  -6.09000 23.80800 28.59000
C  -5.71400 22.79800 30.93300
C  -6.36500 26.53000 30.93300
C  -6.22700 26.94600 32.32600
H  -5.66400 25.88400 33.33500
N  -6.75300 23.68400 25.57400
C  -7.33400 22.95400 26.57300
C  -8.34200 22.01600 25.99800
C  -8.30200 22.22500 24.57500
C  -7.25300 23.29200 24.36500
C  -9.15400 21.02200 26.76000
C  -9.12700 21.69300 23.42800
O  -9.00600 22.03600 22.24200
C  -10.21000 20.77400 23.84300
N  -5.00900 25.47100 23.86200
C  -5.72300 24.78800 22.93100
C  -5.19600 25.08200 21.54800
C  -4.16100 26.31000 21.73000
C  -4.13400 26.27400 23.27600
C  -4.64700 23.85000 20.98300
C  -4.54300 27.68100 21.15900
C  -3.40600 28.37600 20.44000
N  -3.84400 26.51800 26.22200
C  -3.07800 27.20300 25.33600
C  -2.06700 28.08300 26.00900
C  -2.32500 27.85400 27.36000
C  -3.40700 26.86400 27.44300
C  -1.27200 29.16400 25.29700
C  -2.00700 28.23900 28.70300
O  -1.20200 29.09900 29.06800
C  -2.94200 27.41600 29.59900
C  -1.99000 26.57100 30.40500
O  -1.40200 25.58300 30.04700
O  -1.87800 27.13100 31.64500
C  -0.92300 26.43400 32.52000
H  -7.68700 22.46500 28.59800
H  -7.22900 23.46200 22.25700
H  -2.56600 27.68100 23.33000
H  -4.75200 24.95200 31.13900
H  -7.22700 24.22400 30.36100
H  -4.89000 22.27700 30.44500
H  -6.58300 22.14100 30.92600
H  -5.45700 22.89400 31.98800
H  -7.39200 26.20400 30.77300
H  -6.23200 27.45900 30.37800
H  -7.19700 27.29600 32.67900
H  -5.54100 27.78800 32.23000
H  -10.13200 21.41600 27.03800
H  -8.60800 20.73600 27.65900
H  -9.19900 20.08100 26.21300
H  -9.60200 19.94400 24.20300
H  -10.72400 20.38800 22.96300
H  -10.91900 21.16200 24.57300
H  -5.93600 25.33800 20.78900
H  -3.15500 26.01100 21.43500
H  -3.58000 24.03600 20.86500
H  -5.13600 23.57000 20.04900
H  -4.64500 23.06000 21.73400
H  -4.81800 28.23200 22.05800
H  -5.35000 27.56400 20.43700
H  -2.63200 27.66400 20.15500
H  -2.99200 29.14300 21.09400
H  -3.87400 28.79800 19.55000
H  -1.93800 29.92400 24.88800
H  -0.63500 28.67100 24.56300
H  -0.78400 29.75000 26.07600
H  -3.57600 28.10700 30.15500
H  -1.22200 25.38700 32.46500
H  -0.88700 26.62200 33.59300
H  0.05900 26.44900 32.04800

