158

Mg 41.38700 8.80100 29.95500
C  43.03900 10.05600 32.69800
C  39.09400 7.11200 31.95500
C  39.92500 7.42900 27.22600
C  43.86700 10.07100 27.84100
N  41.14100 8.55200 32.08500
C  41.83200 9.30700 33.03100
C  41.29900 9.03600 34.38700
C  40.19200 7.95100 34.11900
C  40.12100 7.84000 32.63300
C  40.35100 6.58400 34.95800
C  40.92000 10.34900 35.07600
C  40.66100 10.15700 36.57500
H  41.42800 11.07400 37.61700
N  39.64200 7.54000 29.63900
C  38.80100 7.04400 30.58000
C  37.68300 6.43600 29.92800
C  37.82100 6.52700 28.52600
C  39.19000 7.14500 28.42500
C  36.58800 5.65600 30.68900
C  36.83200 6.05800 27.47300
O  37.18700 6.08000 26.32000
C  35.39300 5.50300 27.80300
N  41.85000 8.63200 27.78300
C  41.08500 8.09400 26.89800
C  41.60100 8.38800 25.48300
C  42.92300 9.21500 25.69300
C  42.83700 9.39300 27.17600
C  41.79200 7.12300 24.58800
C  42.97600 10.56000 24.93600
C  44.12100 10.58700 23.92700
N  43.20300 9.83000 30.15800
C  44.08000 10.27500 29.19000
C  45.16900 10.85000 29.94300
C  44.79300 10.80000 31.29000
C  43.57700 10.16100 31.37000
C  46.31000 11.43700 29.24800
C  45.18600 11.22900 32.59800
O  46.22500 11.73900 33.03600
C  44.06500 10.72000 33.56300
C  44.68200 9.78200 34.57400
O  45.20600 8.70100 34.29600
O  44.74800 10.40800 35.79500
C  45.37000 9.58600 36.83700
H  38.51700 6.61200 32.73600
H  39.49200 7.03500 26.30500
H  44.63300 10.45100 27.16200
H  42.12100 8.60600 34.96000
H  39.21800 8.30100 34.46100
H  39.42500 6.46000 35.51900
H  41.10600 6.55100 35.74300
H  40.56500 5.79400 34.23800
H  40.02900 10.79800 34.63600
H  41.70800 11.08900 34.94200
H  40.76300 9.11400 36.87500
H  39.61100 10.36000 36.78400
H  36.62600 5.78900 31.77100
H  36.67700 4.59100 30.47400
H  35.59300 6.06700 30.51700
H  34.88400 5.17900 26.89400
H  34.87400 6.32600 28.29400
H  35.50300 4.57100 28.35700
H  40.84700 9.05800 25.07000
H  43.80100 8.59000 25.53400
H  41.71900 6.19900 25.16100
H  42.64900 7.16600 23.91500
H  40.91600 7.13200 23.94000
H  43.14900 11.35700 25.66000
H  42.04400 10.75500 24.40600
H  44.00000 11.29000 23.10300
H  44.30700 9.65100 23.39900
H  45.06900 10.90200 24.36100
H  46.78200 12.16000 29.91300
H  45.97700 12.03100 28.39700
H  47.05100 10.74000 28.85500
H  43.75000 11.59500 34.13100
H  46.44600 9.68900 36.97300
H  44.93400 8.58800 36.88800
H  45.07600 10.02000 37.79200
Mg 6.03100 54.34200 39.77500
C  5.35500 50.82900 39.95700
C  9.42400 53.39700 39.22800
C  6.84200 57.46700 39.22600
C  2.71000 55.06600 39.76900
N  7.16100 52.24400 39.45100
C  6.77400 50.99300 39.72200
C  7.88800 49.98300 39.59100
C  9.11100 50.91700 39.77400
C  8.56000 52.30100 39.38700
C  9.83400 50.92900 41.16900
C  7.88400 49.27200 38.24700
C  7.60600 49.96100 36.90900
H  6.27000 49.63600 36.21000
N  7.89000 55.34500 39.42800
C  9.10200 54.78700 39.18800
C  10.03000 55.87800 39.02600
C  9.36200 57.08200 39.10200
C  8.00000 56.64100 39.23800
C  11.52400 55.68800 38.83900
C  9.99900 58.48700 39.01000
O  11.22500 58.60400 38.87200
C  9.25500 59.75100 39.19200
N  4.89900 56.01900 39.28000
C  5.44700 57.21400 39.27300
C  4.40100 58.35600 39.50700
C  3.09200 57.52600 39.58900
C  3.55800 56.07200 39.45400
C  4.74000 59.32900 40.70000
C  1.99100 58.07800 38.60100
C  2.07400 57.41900 37.21400
N  4.33000 53.27700 39.77100
C  3.02300 53.69100 39.90600
C  2.20500 52.57400 40.28300
C  3.03600 51.42500 40.23700
C  4.37800 51.92500 39.95900
C  0.70300 52.56700 40.25600
C  3.02500 50.01500 40.44300
O  2.16300 49.14500 40.62500
C  4.55000 49.59000 40.35400
C  4.54100 48.57500 39.29600
O  4.12300 48.67900 38.17900
O  4.92300 47.35200 39.79200
C  4.69400 46.16500 38.94200
H  10.47900 53.11800 39.20700
H  6.91900 58.55400 39.29600
H  1.68600 55.43400 39.85000
H  7.65100 49.29200 40.40000
H  9.84600 50.63200 39.02100
H  10.83700 50.51200 41.08900
H  9.28200 50.34900 41.90900
H  9.81500 51.95800 41.52900
H  7.17400 48.45500 38.38000
H  8.86100 48.78800 38.25100
H  8.40900 49.55700 36.29300
H  7.82500 51.01200 37.09900
H  11.76700 55.52600 37.78900
H  11.94000 54.88200 39.44300
H  12.11000 56.52300 39.22400
H  10.05900 60.48400 39.11700
H  8.79900 59.74300 40.18100
H  8.52700 59.73500 38.38100
H  4.43200 59.01500 38.64000
H  2.63600 57.56300 40.57800
H  3.97000 59.29000 41.47000
H  4.78200 60.35700 40.34000
H  5.67700 59.04300 41.17900
H  2.07200 59.16200 38.52800
H  0.96600 57.97900 38.95900
H  1.07200 56.99600 37.13800
H  2.82800 56.66600 36.98400
H  2.24200 58.19900 36.47200
H  0.38600 53.40300 40.87900
H  0.37900 51.69300 40.82100
H  0.40200 52.58000 39.20800
H  4.87400 49.19400 41.31700
H  5.63500 46.13800 38.39300
H  3.84300 46.30400 38.27600
H  4.49000 45.30900 39.58500

