158

Mg 0.46400 7.36700 25.30300
C  0.99500 9.44200 27.95200
C  0.16600 4.57100 27.44700
C  -0.39400 5.37600 22.59700
C  1.15000 10.00500 23.02900
N  0.71500 7.07200 27.40500
C  0.78400 8.06500 28.32800
C  0.64600 7.50800 29.79400
C  0.75200 5.92800 29.48000
C  0.56100 5.82300 27.98600
C  2.12700 5.38000 29.95700
C  -0.62200 8.03700 30.53900
C  -0.46100 8.33700 32.04400
H  1.01100 8.25800 32.71200
N  0.07800 5.27600 25.06700
C  -0.08000 4.29300 26.05600
C  -0.54000 3.05600 25.49800
C  -0.64100 3.26400 24.09800
C  -0.35400 4.70600 23.85900
C  -0.63900 1.73200 26.32800
C  -0.86600 2.24300 22.98400
O  -0.93400 2.48000 21.81900
C  -1.17500 0.83600 23.41500
N  0.36500 7.64500 23.18900
C  -0.09400 6.72600 22.29300
C  -0.33000 7.34400 20.96400
C  0.32500 8.68700 21.06600
C  0.62400 8.81000 22.50400
C  0.13400 6.52900 19.76700
C  -0.46600 9.83100 20.32100
C  0.09100 10.21800 18.90300
N  1.07700 9.30900 25.41900
C  1.30000 10.29400 24.45900
C  1.58700 11.51400 25.14300
C  1.46500 11.20600 26.49700
C  1.16700 9.83000 26.61400
C  1.95900 12.69000 24.46600
C  1.50200 11.83100 27.82900
O  1.79200 12.93500 28.20500
C  1.17300 10.67500 28.80900
C  2.37200 10.55700 29.71000
O  3.44000 10.03100 29.42300
O  2.19300 11.33700 30.84300
C  3.28200 11.67400 31.77100
H  0.12300 3.75100 28.16700
H  -0.75100 4.91000 21.67600
H  1.46000 10.81800 22.37000
H  1.57200 7.88700 30.22500
H  -0.04200 5.40700 30.01400
H  2.54700 5.89700 30.82000
H  2.90300 5.45700 29.19500
H  2.07500 4.35200 30.31500
H  -1.32700 7.20700 30.49300
H  -1.09300 8.88000 30.03400
H  -1.03800 7.67600 32.69200
H  -0.80600 9.36100 32.18500
H  -0.14500 0.95700 25.74300
H  -1.64300 1.50500 26.68800
H  -0.07400 1.72100 27.26000
H  -0.23000 0.32700 23.60500
H  -1.60400 0.53300 22.46000
H  -1.91100 0.71100 24.21000
H  -1.41100 7.43500 20.85400
H  1.33800 8.65000 20.66400
H  1.09300 6.09400 20.05100
H  0.38500 7.11500 18.88300
H  -0.60900 5.78500 19.47900
H  -0.29500 10.72800 20.91700
H  -1.52500 9.63800 20.15400
H  -0.77800 10.32200 18.25400
H  0.64300 9.34000 18.56800
H  0.65600 11.14900 18.85700
H  2.44700 12.63200 23.49300
H  2.72300 13.11300 25.11800
H  1.13000 13.35800 24.23200
H  0.27300 10.93400 29.36700
H  3.51400 12.68200 31.42800
H  4.15600 11.03300 31.65900
H  3.00600 11.80600 32.81700
Mg 46.92000 16.96600 28.24200
C  44.94900 16.28900 30.98900
C  48.73400 19.16200 30.13900
C  48.38700 17.94100 25.40100
C  44.48100 15.25500 26.20200
N  46.80800 17.72600 30.39100
C  46.04300 17.11000 31.35600
C  46.44000 17.51400 32.77700
C  47.70300 18.43100 32.49100
C  47.77000 18.47000 30.94900
C  47.59000 19.81900 33.04900
C  46.77200 16.19300 33.61900
C  47.31200 16.29200 35.10600
H  46.74700 17.47600 35.86600
N  48.48600 18.24900 27.82000
C  48.98600 19.19100 28.70900
C  50.04900 19.97300 27.99300
C  50.06600 19.49300 26.59900
C  48.93800 18.53400 26.52500
C  50.76700 21.06000 28.65600
C  51.01100 19.88700 25.45100
O  50.88100 19.43500 24.37800
C  52.24300 20.81400 25.79600
N  46.38400 16.84500 26.04500
C  47.28500 17.15600 25.12200
C  46.91900 16.65500 23.68400
C  45.76200 15.70200 24.01600
C  45.50100 15.92100 25.53100
C  46.40400 17.84900 22.69800
C  46.12900 14.21600 23.60600
C  45.23600 13.38800 22.64400
N  45.10000 15.98500 28.47300
C  44.18700 15.37300 27.58900
C  43.01200 14.83200 28.32300
C  43.28900 15.20900 29.68400
C  44.56600 15.90600 29.70400
C  41.87700 13.95100 27.64000
C  42.77900 15.03200 31.06000
O  41.77800 14.57300 31.51100
C  43.78000 15.77700 31.95400
C  42.99000 16.90300 32.58200
O  42.62900 17.86700 31.94300
O  42.82600 16.73100 33.94100
C  42.05200 17.80400 34.55700
H  49.46100 19.71500 30.73600
H  48.95300 18.16800 24.49500
H  43.82700 14.79800 25.45700
H  45.64600 18.16500 33.14200
H  48.60000 18.08400 33.00300
H  47.22000 20.42000 32.21800
H  48.59000 20.19800 33.26300
H  46.92400 20.06600 33.87600
H  47.50700 15.60100 33.07400
H  45.92000 15.52900 33.76400
H  48.37200 16.53000 35.01400
H  47.06100 15.34900 35.59200
H  50.53500 21.24300 29.70500
H  50.64200 21.99400 28.10700
H  51.80000 20.72100 28.72900
H  52.69400 20.58800 26.76300
H  51.97100 21.86900 25.78800
H  53.00400 20.70300 25.02400
H  47.68500 16.07400 23.17100
H  44.89300 16.05300 23.46000
H  45.34700 17.68000 22.49000
H  47.00100 17.70200 21.79800
H  46.54300 18.81800 23.17700
H  46.29000 13.67500 24.53800
H  47.05400 14.20700 23.02800
H  44.73100 12.58000 23.17300
H  45.64300 12.84800 21.78800
H  44.49000 14.06900 22.23600
H  41.07200 13.67400 28.32100
H  42.34800 12.97700 27.50200
H  41.52900 14.19800 26.63700
H  44.12600 15.09400 32.73000
H  42.40000 17.71600 35.58600
H  40.97400 17.74400 34.40500
H  42.36400 18.80600 34.26300

