158

Mg 47.44000 34.81900 27.89600
C  45.37700 33.06800 30.22900
C  47.84300 37.33100 30.33200
C  48.30700 37.03400 25.61700
C  46.35500 32.56400 25.51700
N  46.75100 35.05600 30.02400
C  45.91400 34.23100 30.79500
C  46.08300 34.58000 32.31400
C  46.58300 36.07600 32.18200
C  47.06700 36.18800 30.72500
C  45.46600 37.02400 32.49900
C  47.20900 33.76800 32.96600
C  47.06800 33.56000 34.48300
H  46.26300 34.55800 35.31900
N  48.29600 36.74000 27.99600
C  48.46000 37.58700 29.12400
C  49.13500 38.79100 28.77900
C  49.25300 38.70700 27.34100
C  48.55200 37.45300 26.91000
C  49.45000 39.85900 29.83000
C  49.66100 39.75600 26.30600
O  49.68000 39.59900 25.10100
C  50.24100 41.03900 26.94700
N  47.24800 34.82600 25.80500
C  47.72800 35.83900 25.03900
C  47.40300 35.68700 23.52400
C  46.92300 34.15900 23.53800
C  46.86900 33.78600 25.04300
C  46.32200 36.70000 23.09700
C  47.83300 33.20500 22.75800
C  47.13500 32.36900 21.70800
N  46.32100 33.10900 27.82600
C  46.01900 32.21100 26.78200
C  45.19700 31.10900 27.21000
C  44.94900 31.41500 28.60800
C  45.61500 32.60600 28.90100
C  44.79300 29.78400 26.56600
C  44.30200 30.88900 29.82700
O  43.70900 29.88000 30.09200
C  44.30100 32.18800 30.81900
C  44.48600 31.83800 32.26000
O  45.44300 31.27000 32.68100
O  43.36600 32.22600 32.93600
C  43.33000 32.00700 34.39900
H  48.01100 38.00300 31.17600
H  48.37400 37.75500 24.79900
H  45.98100 31.96900 24.68200
H  45.14500 34.54400 32.86700
H  47.36800 36.22700 32.92400
H  45.82200 37.57700 33.36800
H  44.49200 36.58400 32.71300
H  45.25600 37.81500 31.77900
H  48.21700 34.17600 32.88400
H  47.27600 32.83400 32.40800
H  48.06000 33.56000 34.93400
H  46.57200 32.60000 34.62600
H  50.53100 39.98000 29.89800
H  49.09000 39.59900 30.82500
H  49.03700 40.80300 29.47600
H  49.34700 41.52100 27.34300
H  50.52300 41.53300 26.01800
H  51.03000 40.86300 27.67900
H  48.31300 35.81000 22.93600
H  45.93200 34.04400 23.10000
H  45.76200 36.29400 22.25500
H  46.77400 37.67100 22.89400
H  45.56600 36.91100 23.85400
H  48.37800 32.56900 23.45700
H  48.58900 33.78400 22.22800
H  46.04900 32.40600 21.62500
H  47.20900 31.35200 22.09100
H  47.72200 32.36600 20.79000
H  43.90000 29.90200 25.95300
H  44.73300 29.02800 27.35000
H  45.60500 29.49000 25.90000
H  43.26700 32.53200 30.77900
H  43.29000 32.97800 34.89300
H  44.16500 31.39600 34.74100
H  42.36700 31.54400 34.61600
Mg -8.36600 39.70800 42.20800
C  -7.40100 36.44100 41.15600
C  -5.90300 40.95400 40.36900
C  -9.87000 42.67300 42.42900
C  -11.42100 38.20700 43.61400
N  -6.94000 38.80900 40.88300
C  -6.61600 37.46500 40.67500
C  -5.29000 37.26500 39.92800
C  -4.79300 38.76100 39.71700
C  -5.93900 39.56200 40.31400
C  -3.30300 39.03900 40.15000
C  -5.49100 36.48300 38.62900
C  -4.51600 35.33400 38.45900
H  -3.66400 35.39000 37.20900
N  -7.73800 41.60400 41.80700
C  -6.72800 41.88600 41.06800
C  -6.58500 43.31700 41.01800
C  -7.65400 43.82600 41.73800
C  -8.48200 42.70700 42.09100
C  -5.35600 43.97000 40.36900
C  -7.93900 45.38400 42.07300
O  -7.14800 46.25400 41.75700
C  -9.02600 45.80300 42.98100
N  -10.30300 40.29900 43.00400
C  -10.64500 41.61600 42.90800
C  -12.15600 41.76600 43.19100
C  -12.56300 40.39500 43.82800
C  -11.28600 39.54400 43.54400
C  -12.47600 43.00400 43.99600
C  -13.98200 39.64100 43.45900
C  -15.23400 40.62800 43.55600
N  -9.26700 37.70400 42.39700
C  -10.46500 37.30400 43.01000
C  -10.51300 35.91600 42.83100
C  -9.33700 35.52100 42.23400
C  -8.63800 36.62900 41.89600
C  -11.58100 34.98800 43.37000
C  -8.52400 34.36800 41.65100
O  -8.77600 33.15100 41.61100
C  -7.23700 34.93700 41.09000
C  -6.05200 34.54600 41.97400
O  -5.64700 34.99300 43.03300
O  -5.30300 33.63700 41.20100
C  -3.96800 33.29400 41.70500
H  -5.09100 41.38600 39.78100
H  -10.45000 43.59300 42.33700
H  -12.40900 37.82300 43.87800
H  -4.61100 36.66000 40.52900
H  -4.75200 38.90800 38.63800
H  -2.56200 38.98100 39.35200
H  -3.00000 38.22900 40.81300
H  -3.25700 39.99600 40.66800
H  -5.23900 37.09200 37.76100
H  -6.49200 36.06200 38.52600
H  -5.01700 34.36600 38.47400
H  -3.79500 35.29100 39.27500
H  -5.05100 44.89200 40.86200
H  -5.60800 44.34400 39.37600
H  -4.58900 43.20000 40.44500
H  -8.86500 46.60000 43.70700
H  -9.21500 45.04300 43.73900
H  -9.91700 46.08000 42.41800
H  -12.72900 41.88200 42.27100
H  -12.72200 40.55700 44.89400
H  -12.97000 43.61200 43.23800
H  -11.60100 43.52300 44.38800
H  -13.28200 42.74900 44.68300
H  -14.12200 38.80800 44.14700
H  -13.91300 39.27100 42.43600
H  -15.38500 41.06700 42.57000
H  -15.05200 41.51700 44.16000
H  -16.12600 40.08900 43.87400
H  -12.54100 35.09700 42.86500
H  -11.69600 35.10200 44.44800
H  -11.19400 33.96900 43.39300
H  -7.03300 34.51200 40.10700
H  -3.42600 34.23900 41.67200
H  -3.48600 32.60200 41.01400
H  -4.01900 32.84100 42.69500

