158

Mg 46.59900 24.54100 28.30700
C  47.45800 26.82600 30.78500
C  45.64800 22.38000 30.79200
C  45.74700 22.38200 25.96300
C  47.32500 26.85900 25.88800
N  46.46600 24.66700 30.54300
C  46.83400 25.70200 31.33700
C  46.61600 25.45200 32.89000
C  46.17000 23.90300 32.81800
C  46.06900 23.60400 31.26700
C  47.22300 22.97700 33.47500
C  45.47700 26.43600 33.50200
C  45.90900 27.13600 34.77300
H  44.87200 27.40200 35.85100
N  45.78300 22.60400 28.34400
C  45.43400 21.91600 29.43000
C  44.92900 20.69900 29.04400
C  45.17400 20.56100 27.68100
C  45.53900 21.89800 27.22300
C  44.51400 19.61700 30.04100
C  45.05600 19.32300 26.82000
O  45.02100 19.40100 25.57300
C  44.81100 17.98900 27.42900
N  46.70500 24.49800 26.21100
C  46.24700 23.54300 25.42200
C  46.30900 23.81500 23.95700
C  46.55700 25.35800 23.98400
C  46.93700 25.60800 25.45900
C  47.49700 23.15900 23.28100
C  45.35000 26.24500 23.51300
C  44.09300 26.01600 24.24900
N  47.46500 26.43900 28.30100
C  47.61800 27.30400 27.23900
C  48.26800 28.52100 27.74300
C  48.22300 28.40400 29.15700
C  47.65300 27.13500 29.46100
C  48.75500 29.63100 26.85100
C  48.57000 29.05600 30.45600
O  49.05800 30.17400 30.70000
C  47.92000 28.12000 31.53300
C  48.94100 27.87000 32.57600
O  49.91000 27.20500 32.41200
O  48.55900 28.47200 33.70900
C  49.51500 28.54800 34.81500
H  45.47600 21.71000 31.63700
H  45.43000 21.77400 25.11300
H  47.40400 27.63300 25.12100
H  47.52900 25.44800 33.48600
H  45.20700 23.72500 33.29600
H  47.04600 21.93900 33.19300
H  47.11800 23.06400 34.55600
H  48.20500 23.23100 33.07600
H  44.55100 25.89000 33.68000
H  45.18900 27.24900 32.83500
H  46.24500 28.14000 34.51700
H  46.69200 26.56700 35.27600
H  45.32100 18.88400 30.05400
H  43.53500 19.24300 29.74300
H  44.51400 20.04900 31.04100
H  43.93000 17.72000 28.01200
H  45.64400 17.93900 28.13100
H  44.97500 17.21700 26.67800
H  45.38500 23.60800 23.41700
H  47.44900 25.72500 23.47600
H  48.34200 23.84300 23.19500
H  47.08500 22.86200 22.31700
H  47.83500 22.28500 23.83800
H  45.20000 26.12200 22.44000
H  45.60500 27.30200 23.57800
H  43.28100 25.92000 23.52900
H  43.82000 26.82800 24.92300
H  44.16300 25.12500 24.87400
H  48.81800 30.58300 27.37900
H  48.04000 29.74300 26.03600
H  49.68100 29.32600 26.36400
H  47.09900 28.62500 32.04100
H  50.21900 27.72000 34.73200
H  48.93800 28.33500 35.71500
H  49.93800 29.55300 34.82500
Mg -1.13700 34.84100 26.36400
C  -2.90000 33.04900 28.59300
C  -0.26200 37.05900 28.71000
C  -0.23600 37.12200 23.86700
C  -3.07500 33.17700 23.79700
N  -1.86000 35.16200 28.43000
C  -2.30800 34.18900 29.22200
C  -2.14200 34.44900 30.74800
C  -1.53300 35.91500 30.69800
C  -1.21900 36.08300 29.16400
C  -2.63400 36.89300 31.11000
C  -1.22900 33.40200 31.46500
C  -1.72700 32.70600 32.71500
H  -0.80500 32.57500 33.88300
N  -0.06100 36.58300 26.32700
C  0.22500 37.29300 27.42500
C  1.14600 38.38100 27.07800
C  1.13800 38.40900 25.65400
C  0.33400 37.33200 25.21000
C  1.85300 39.34600 28.03800
C  1.82100 39.51200 24.71500
O  1.78000 39.47600 23.53300
C  2.34100 40.74100 25.32100
N  -1.80900 35.26800 24.15700
C  -1.24200 36.25900 23.39400
C  -1.79800 36.28600 21.94900
C  -2.44400 34.81400 21.88800
C  -2.49000 34.34700 23.34100
C  -2.74000 37.52100 21.81000
C  -1.75600 33.70300 20.98100
C  -0.57700 32.90600 21.52600
N  -2.52000 33.26200 26.16600
C  -3.19200 32.68400 25.13200
C  -3.99000 31.56400 25.56600
C  -3.82900 31.61500 27.03700
C  -2.98100 32.69200 27.26100
C  -4.76600 30.48900 24.74000
C  -4.24500 31.08500 28.28200
O  -5.06300 30.16400 28.57800
C  -3.50400 31.92400 29.38200
C  -4.50800 32.31800 30.40700
O  -5.47300 33.03800 30.16200
O  -4.31800 31.70900 31.63700
C  -5.38900 31.95500 32.67800
H  0.19300 37.70100 29.46800
H  0.27000 37.68700 23.08100
H  -3.56700 32.46900 23.12800
H  -3.10200 34.47300 31.26300
H  -0.64000 36.02800 31.31300
H  -3.24100 36.64000 31.98000
H  -3.26000 36.96700 30.22100
H  -2.18400 37.87300 31.26600
H  -0.31500 33.97500 31.62300
H  -0.88200 32.64800 30.75700
H  -1.93900 31.64900 32.55700
H  -2.63100 33.20800 33.05900
H  2.90800 39.37700 27.76700
H  1.77300 39.06000 29.08700
H  1.48300 40.36900 28.09400
H  1.43500 41.08600 25.81800
H  2.85700 41.40200 24.62500
H  3.04300 40.50100 26.11900
H  -0.95700 36.24300 21.25600
H  -3.46900 34.96100 21.54900
H  -2.91100 38.00300 22.77300
H  -3.72500 37.20100 21.47200
H  -2.27300 38.23400 21.13000
H  -1.35000 34.21700 20.11100
H  -2.50400 33.09300 20.47400
H  0.25700 32.83600 20.82700
H  -0.95500 31.89600 21.68300
H  -0.24100 33.29400 22.48800
H  -5.42700 31.01500 24.05100
H  -5.21000 29.76300 25.42100
H  -4.04200 29.94800 24.13000
H  -2.70200 31.39500 29.89500
H  -5.41900 33.00400 32.97100
H  -5.17200 31.45700 33.62300
H  -6.32500 31.65700 32.20600

