158

Mg -2.49400 17.16700 27.40000
C  -3.32500 14.73200 29.96600
C  -3.56000 19.63200 29.37800
C  -2.61400 19.14900 24.68700
C  -2.20600 14.25000 25.12100
N  -3.18800 17.14500 29.50000
C  -3.52100 16.08900 30.36500
C  -3.98000 16.57900 31.72800
C  -4.24200 18.09200 31.39200
C  -3.61900 18.31900 29.97100
C  -5.74900 18.59000 31.39000
C  -2.99500 16.29200 32.88800
C  -3.04400 17.28500 34.10300
H  -2.33100 16.65000 35.30700
N  -2.91800 19.24700 27.09700
C  -3.26600 20.11100 28.09600
C  -3.30100 21.45400 27.52000
C  -3.01600 21.29000 26.17400
C  -2.88500 19.84100 25.92100
C  -3.58000 22.70900 28.36300
C  -2.76000 22.30100 25.19000
O  -2.41900 22.06500 24.02500
C  -2.72800 23.78300 25.57200
N  -2.42200 16.75900 25.27800
C  -2.49100 17.80300 24.38700
C  -2.36400 17.29300 22.92600
C  -1.75500 15.87700 23.08700
C  -2.18300 15.57500 24.55700
C  -3.53400 17.40700 21.98300
C  -0.22100 15.72500 22.77700
C  0.73800 16.59700 23.62600
N  -2.57800 14.99300 27.45700
C  -2.38900 13.96400 26.51700
C  -2.53700 12.69200 27.13300
C  -2.76000 12.94300 28.51100
C  -2.88900 14.36600 28.61300
C  -2.56100 11.40500 26.44300
C  -3.05200 12.27900 29.81300
O  -3.05800 11.13800 30.10200
C  -3.54800 13.43700 30.72700
C  -2.72600 13.31100 31.98800
O  -1.48700 13.56900 32.07400
O  -3.37800 12.86300 33.09500
C  -2.57600 12.64800 34.30100
H  -3.97400 20.43400 29.99200
H  -2.49600 19.64000 23.71800
H  -1.97200 13.42400 24.44500
H  -4.90700 16.05800 31.96600
H  -3.68900 18.73800 32.07400
H  -6.03200 18.75100 30.35000
H  -5.83500 19.52600 31.94200
H  -6.39700 17.86200 31.87800
H  -2.00200 16.17200 32.45400
H  -3.21300 15.31200 33.31200
H  -4.05500 17.50800 34.44400
H  -2.50600 18.19800 33.84600
H  -2.77700 23.44500 28.30900
H  -3.76000 22.51800 29.42100
H  -4.49000 23.16400 27.96900
H  -1.97400 24.09600 26.29400
H  -3.74300 23.93800 25.93900
H  -2.66700 24.31700 24.62400
H  -1.52100 17.82300 22.48300
H  -2.31700 15.13100 22.52500
H  -4.04400 16.46200 21.79000
H  -3.33000 18.01300 21.10000
H  -4.32400 17.98500 22.46300
H  0.02500 15.78100 21.71600
H  -0.05700 14.65700 22.92200
H  1.31900 17.18700 22.91600
H  1.38200 15.90700 24.17100
H  0.25400 17.27500 24.32800
H  -2.06700 11.51600 25.47800
H  -3.59100 11.19000 26.15800
H  -2.06100 10.60900 26.99400
H  -4.56200 13.23700 31.07500
H  -2.94600 11.72100 34.73900
H  -2.72400 13.46700 35.00500
H  -1.53000 12.37700 34.16200
Mg 44.88800 5.49200 48.63600
C  42.89300 8.15100 47.88700
C  42.10000 3.35800 47.47900
C  46.79000 2.67200 48.67100
C  47.64000 7.47800 48.84600
N  42.68000 5.70900 47.96600
C  42.23700 6.95900 47.60200
C  40.99200 6.86100 46.80500
C  40.62200 5.36500 47.02700
C  41.81900 4.73700 47.56500
C  39.28000 5.10600 47.78600
C  41.06900 7.40200 45.34400
C  39.94800 8.41200 44.99100
H  39.31500 8.31700 43.59900
N  44.45700 3.35600 48.23300
C  43.31400 2.75400 47.81100
C  43.51800 1.33600 47.83000
C  44.89600 0.99000 48.24400
C  45.47300 2.33400 48.39900
C  42.40300 0.35300 47.41900
C  45.51100 -0.38800 48.30400
O  44.75100 -1.29700 48.15600
C  46.95100 -0.57900 48.66400
N  46.92900 5.12700 48.78600
C  47.49700 3.91700 48.75100
C  49.02200 4.04900 49.07600
C  49.28000 5.56400 48.99000
C  47.87000 6.14100 48.88100
C  49.58200 3.36500 50.39600
C  50.29600 5.92800 47.87200
C  51.37200 7.03500 48.25900
N  45.25500 7.38300 48.48500
C  46.42600 8.09500 48.57200
C  46.07300 9.51000 48.30600
C  44.69000 9.60100 48.14900
C  44.25700 8.24700 48.15000
C  47.05900 10.66400 48.25500
C  43.58800 10.52200 47.97900
O  43.50200 11.74700 47.99700
C  42.30600 9.55100 47.66700
C  41.19900 9.94700 48.52200
O  40.92200 9.56200 49.67100
O  40.42700 10.91900 48.00100
C  39.16900 11.37100 48.57400
H  41.23800 2.76200 47.17300
H  47.45700 1.84300 48.91800
H  48.55400 8.06500 48.95600
H  40.30700 7.46800 47.39700
H  40.41900 4.81600 46.10700
H  38.73300 6.03700 47.93400
H  39.62700 4.78100 48.76700
H  38.58900 4.44300 47.26600
H  41.06900 6.55000 44.66400
H  42.01400 7.93900 45.26000
H  40.32100 9.41700 45.18700
H  39.07100 8.16200 45.58800
H  42.84300 -0.17700 46.57500
H  41.47600 0.87400 47.18000
H  42.20700 -0.26600 48.29500
H  47.59200 -0.12000 47.91100
H  47.21100 -1.62700 48.80900
H  47.11300 -0.04500 49.60100
H  49.46200 3.43700 48.28800
H  49.62400 6.02600 49.91500
H  48.77300 2.72100 50.74000
H  49.82600 4.14200 51.12000
H  50.40100 2.75100 50.02200
H  49.79700 6.26500 46.96400
H  50.91900 5.06900 47.62500
H  51.30400 7.32800 49.30700
H  51.17900 7.85000 47.56200
H  52.39300 6.72700 48.03200
H  46.57500 11.60300 47.98800
H  47.97700 10.52700 47.68300
H  47.42200 10.87500 49.26100
H  42.09800 9.83500 46.63500
H  38.75800 12.14900 47.93100
H  39.30900 11.65800 49.61600
H  38.54700 10.47700 48.62400

