158

Mg 34.90300 1.06800 29.34200
C  33.01000 2.21400 32.05600
C  37.77100 1.63100 31.49400
C  37.04300 0.45700 26.69900
C  32.25900 1.02600 27.38200
N  35.31500 1.63300 31.60200
C  34.35200 2.00700 32.48800
C  34.91700 2.28500 33.85800
C  36.44300 2.45600 33.58000
C  36.51700 1.95400 32.10300
C  36.99600 3.87900 33.78600
C  34.50500 1.33200 35.01600
C  33.86100 1.97100 36.31300
H  34.35800 3.30900 36.86300
N  37.05200 1.03400 29.13200
C  38.00200 1.23400 30.15600
C  39.32600 0.95800 29.58800
C  39.11300 0.53200 28.22200
C  37.68600 0.67200 27.92400
C  40.49400 1.00800 30.42400
C  40.11200 0.07700 27.17900
O  39.86200 -0.25200 26.02400
C  41.63700 -0.12700 27.51600
N  34.63800 0.82700 27.35300
C  35.61100 0.42500 26.51700
C  35.07000 0.23800 25.12800
C  33.51400 0.14900 25.36500
C  33.40700 0.65400 26.77500
C  35.52600 1.35600 24.12700
C  32.88400 -1.24000 25.11300
C  33.47300 -2.38500 25.99000
N  32.95700 1.52600 29.55700
C  31.92000 1.49300 28.68600
C  30.71800 1.83600 29.30400
C  31.06700 2.12800 30.58700
C  32.45900 1.94400 30.76100
C  29.34900 1.82400 28.70100
C  30.47300 2.47900 31.87600
O  29.32400 2.73600 32.24900
C  31.78600 2.68500 32.83400
C  31.85100 4.11300 33.29900
O  32.24000 5.06500 32.60500
O  31.42100 4.19300 34.62300
C  31.38000 5.60100 35.09400
H  38.62700 1.69200 32.16900
H  37.59400 0.22800 25.78400
H  31.45600 1.01800 26.64100
H  34.39900 3.22200 34.06200
H  36.98100 1.77000 34.23400
H  36.34300 4.53400 34.36300
H  37.37500 4.38700 32.89900
H  37.90500 3.75700 34.37500
H  35.39000 0.76600 35.30600
H  33.80100 0.65700 34.52800
H  33.68600 1.16200 37.02200
H  32.86200 2.20600 35.94500
H  40.27300 0.61600 31.41800
H  40.71300 2.06300 30.58900
H  41.40000 0.47800 30.13200
H  42.07500 0.84000 27.76300
H  42.16900 -0.66100 26.72800
H  41.73100 -0.76600 28.39400
H  35.42300 -0.71300 24.73000
H  32.85900 0.79400 24.77900
H  36.33400 1.99300 24.48600
H  34.70300 1.95300 23.73400
H  35.88800 0.83800 23.23900
H  32.81400 -1.39200 24.03600
H  31.86300 -1.29500 25.49200
H  34.51400 -2.15600 26.21600
H  33.48700 -3.30400 25.40400
H  32.93000 -2.53200 26.92500
H  29.25100 1.02300 27.96800
H  29.00400 2.79800 28.35600
H  28.65100 1.59200 29.50600
H  31.63700 2.12000 33.75500
H  31.11800 5.59900 36.15200
H  30.72400 6.21500 34.47700
H  32.42100 5.92100 35.05400
Mg 46.68600 24.95700 28.62300
C  47.39700 27.13500 31.29200
C  45.36900 22.75300 30.80200
C  46.55700 22.65300 26.11600
C  48.12100 27.19800 26.48000
N  46.45800 24.95400 30.82100
C  46.76300 25.98200 31.69900
C  46.21100 25.59800 33.11000
C  45.49200 24.19200 32.89600
C  45.79700 23.88300 31.43200
C  45.85800 23.13300 33.91000
C  45.27400 26.63900 33.84100
C  45.80500 27.19400 35.16400
H  44.82400 27.29400 36.32500
N  46.21400 22.93300 28.48800
C  45.54800 22.24400 29.47700
C  45.35700 20.85400 29.02200
C  45.76900 20.80500 27.67500
C  46.20900 22.15300 27.33600
C  44.62600 19.87200 29.91500
C  45.80800 19.65000 26.63900
O  46.12200 19.77700 25.44500
C  45.34200 18.26700 27.16600
N  47.25500 24.94700 26.55600
C  47.10000 23.87800 25.75900
C  47.64700 24.18800 24.36100
C  47.80700 25.74200 24.39500
C  47.68200 26.02600 25.87800
C  49.00500 23.41100 24.14800
C  46.76100 26.46600 23.61400
C  46.93200 26.66000 22.13900
N  47.56600 26.78300 28.78800
C  48.06800 27.63200 27.81900
C  48.50300 28.90000 28.35800
C  48.29500 28.70900 29.70800
C  47.69500 27.39700 29.97200
C  49.20300 30.00100 27.71400
C  48.45000 29.37200 31.02000
O  48.88500 30.46400 31.39300
C  47.81700 28.40200 32.00700
C  48.78300 28.25500 33.13100
O  49.78200 27.50000 33.14000
O  48.48300 29.10300 34.17400
C  49.14100 28.70300 35.42800
H  44.90600 22.17300 31.60400
H  46.64000 21.99300 25.24900
H  48.48000 27.91400 25.73800
H  47.08200 25.45400 33.75000
H  44.40300 24.14300 32.92400
H  45.22500 22.24800 33.84400
H  45.74700 23.57300 34.90200
H  46.89500 22.82700 33.77200
H  44.40200 26.09100 34.19800
H  45.03400 27.44200 33.14400
H  46.29000 28.16800 35.10200
H  46.57400 26.48500 35.47300
H  43.57000 19.86200 29.64600
H  44.74100 20.17600 30.95500
H  45.00500 18.85100 29.95900
H  45.42000 17.60000 26.30800
H  44.35900 18.14700 27.62300
H  46.07300 18.08700 27.95400
H  47.03700 23.85200 23.52200
H  48.78200 26.08400 24.04600
H  49.86100 24.07200 24.01100
H  49.04300 22.58200 23.44200
H  49.19200 22.93800 25.11200
H  46.75900 27.47100 24.03600
H  45.75300 26.06000 23.69500
H  47.76200 26.04200 21.79600
H  47.21000 27.69500 21.93800
H  46.07500 26.33000 21.55200
H  49.43500 29.56200 26.74400
H  50.11000 30.33400 28.21700
H  48.51900 30.84600 27.63700
H  46.95700 28.93400 32.41400
H  50.16300 29.07600 35.37500
H  49.10000 27.63700 35.65100
H  48.66900 29.20200 36.27500

