158

Mg 2.58900 -1.10100 43.89000
C  6.01300 -0.59200 43.18400
C  1.78700 1.57900 41.83200
C  -0.54900 -2.23100 43.70900
C  3.57300 -4.29100 45.05900
N  3.79600 0.27700 42.58700
C  5.19100 0.33400 42.57800
C  5.62900 1.59000 41.75700
C  4.27300 2.36500 41.51000
C  3.18300 1.36600 42.00000
C  4.11900 3.85100 42.05900
C  6.40800 1.27100 40.46300
C  5.92700 0.29700 39.40900
H  5.91100 0.80200 38.02100
N  0.80000 -0.29000 43.01800
C  0.68500 0.77700 42.19300
C  -0.65300 0.93500 41.81300
C  -1.39600 -0.04300 42.52100
C  -0.39900 -0.96700 43.11500
C  -1.22000 2.13000 41.02900
C  -2.88200 -0.08800 42.64400
O  -3.61100 0.72700 42.02800
C  -3.57800 -1.04200 43.57700
N  1.69900 -2.95800 44.34500
C  0.42300 -3.09100 44.21300
C  -0.01900 -4.51200 44.66700
C  1.24700 -5.17600 45.12400
C  2.23700 -4.06900 44.85800
C  -1.25800 -4.65600 45.57900
C  1.57400 -6.57300 44.53600
C  0.43600 -7.53400 44.11500
N  4.42500 -2.12700 44.36600
C  4.63500 -3.36600 44.90200
C  6.04000 -3.54500 45.16700
C  6.68100 -2.49500 44.45600
C  5.63100 -1.68000 43.98100
C  6.62300 -4.70600 45.91800
C  7.95700 -1.91400 44.06800
O  9.14000 -2.20900 44.23600
C  7.52100 -0.58000 43.21000
C  8.15700 0.58900 43.97400
O  7.74600 1.08000 44.96800
O  9.24000 0.94900 43.28300
C  9.79000 2.25700 43.55800
H  1.60100 2.51900 41.30700
H  -1.59000 -2.53600 43.57600
H  3.82000 -5.32800 45.29400
H  6.39200 2.13800 42.30900
H  4.02900 2.34700 40.44700
H  4.35000 4.64100 41.34600
H  4.90500 3.86500 42.81500
H  3.17100 3.85600 42.59700
H  7.36200 0.84900 40.77700
H  6.74500 2.21500 40.03400
H  4.93300 0.03000 39.76800
H  6.58800 -0.56800 39.45500
H  -1.64100 2.85100 41.72900
H  -1.90200 1.82300 40.23600
H  -0.46000 2.71500 40.51000
H  -3.62900 -2.01100 43.08100
H  -4.53300 -0.61800 43.89000
H  -2.94500 -0.96200 44.46100
H  -0.22300 -4.90600 43.67200
H  1.30100 -5.36200 46.19700
H  -1.64500 -3.63800 45.53600
H  -1.01500 -4.93600 46.60400
H  -1.99400 -5.34500 45.16300
H  2.29600 -7.08100 45.17600
H  2.07000 -6.43600 43.57500
H  -0.55300 -7.09600 44.24800
H  0.59400 -8.41900 44.73100
H  0.50600 -7.92000 43.09800
H  6.99700 -5.38100 45.14700
H  5.89800 -5.26400 46.51000
H  7.54500 -4.56300 46.48100
H  7.98300 -0.74700 42.23600
H  9.04500 3.02300 43.34100
H  10.52100 2.41800 42.76600
H  10.13900 2.28300 44.59000
Mg -10.08500 18.41100 41.89700
C  -6.78500 17.66500 41.80200
C  -9.39500 21.74400 41.35000
C  -13.37300 19.01300 41.35600
C  -10.78000 15.04900 42.17800
N  -8.29900 19.46200 41.36700
C  -6.99500 19.00000 41.55100
C  -5.97000 20.07900 41.46700
C  -6.81700 21.39500 41.45900
C  -8.29700 20.83100 41.42200
C  -6.52300 22.38400 42.58200
C  -5.02800 19.88200 40.27100
C  -5.63600 19.11300 39.06500
H  -4.83400 19.21200 37.75800
N  -11.22800 20.14800 41.31100
C  -10.76400 21.40500 41.18400
C  -11.88700 22.31600 40.92500
C  -13.08400 21.55300 40.93400
C  -12.61000 20.18500 41.16700
C  -11.75400 23.76500 40.68100
C  -14.44200 22.13300 40.67000
O  -14.56900 23.32900 40.53200
C  -15.61300 21.18800 40.53800
N  -11.76700 17.25800 41.86300
C  -12.95100 17.71200 41.71200
C  -14.11600 16.69400 41.90400
C  -13.32300 15.39300 41.77500
C  -11.85200 15.89300 41.84200
C  -14.90500 16.92100 43.24400
C  -13.66100 14.50700 40.48400
C  -15.14300 14.10400 40.22800
N  -8.99600 16.66400 42.07100
C  -9.38800 15.34300 42.21600
C  -8.25300 14.45000 42.28700
C  -7.20500 15.39100 42.23900
C  -7.69100 16.67500 41.99800
C  -8.16900 12.98300 42.44000
C  -5.79200 15.48500 42.36500
O  -4.92500 14.60000 42.64200
C  -5.46100 16.94600 42.06100
C  -4.63600 17.52300 43.14100
O  -3.61000 18.09700 43.05500
O  -5.21100 17.20100 44.39500
C  -4.42300 17.51600 45.61600
H  -9.22400 22.81700 41.24600
H  -14.43600 19.05600 41.10800
H  -11.07200 14.01300 41.99200
H  -5.33900 20.01500 42.35400
H  -6.74000 21.90800 40.50000
H  -5.59200 22.18700 43.11200
H  -7.29300 22.50700 43.34400
H  -6.38500 23.29500 41.99900
H  -4.19300 19.32300 40.69200
H  -4.70600 20.84800 39.88100
H  -6.63200 19.53300 38.92300
H  -5.80100 18.07000 39.33600
H  -12.41500 24.16300 39.91100
H  -10.77600 24.07800 40.31800
H  -11.95300 24.35200 41.57800
H  -15.72700 20.76200 41.53400
H  -15.25400 20.48400 39.78700
H  -16.50900 21.59700 40.07000
H  -14.83900 16.92200 41.12100
H  -13.54000 14.89100 42.71900
H  -15.74000 17.57300 42.99000
H  -14.21900 17.39000 43.94800
H  -15.21100 15.95600 43.64700
H  -13.09200 13.58400 40.58900
H  -13.16900 14.97700 39.63200
H  -15.56600 14.53700 39.32100
H  -15.69100 14.49500 41.08500
H  -15.05900 13.02700 40.08700
H  -7.38100 12.37700 41.99200
H  -9.12000 12.53700 42.14700
H  -8.04400 12.90700 43.52000
H  -4.84400 16.93500 41.16200
H  -5.03900 17.98300 46.38500
H  -3.62400 18.20700 45.34600
H  -3.77400 16.75200 46.04500

