158

Mg 5.65200 52.93600 41.46600
C  4.49700 49.67400 40.95300
C  8.64200 52.01200 40.06900
C  6.45700 56.23800 41.14800
C  2.33900 53.74300 41.99800
N  6.43200 51.00300 40.52200
C  5.80900 49.82000 40.40300
C  6.72300 48.67400 39.94200
C  8.10400 49.42600 40.03700
C  7.74300 50.89800 40.10700
C  9.07700 49.07600 41.17200
C  6.46700 48.25200 38.47900
C  6.17600 49.29700 37.43600
H  5.69200 48.74700 36.06400
N  7.35000 53.98900 40.83000
C  8.50300 53.41500 40.29600
C  9.48100 54.46900 39.97900
C  8.79900 55.69900 40.28200
C  7.46700 55.36700 40.81500
C  10.92000 54.17400 39.57500
C  9.42000 57.12200 40.26000
O  10.48100 57.22000 39.73100
C  8.83200 58.28800 40.91300
N  4.57300 54.82800 41.75700
C  5.08400 56.07300 41.49200
C  4.02700 57.14600 41.50200
C  2.71300 56.32400 41.87600
C  3.23300 54.87800 41.91300
C  4.19500 58.29500 42.44500
C  1.57100 56.68100 40.89300
C  1.41900 55.87800 39.61000
N  3.88200 51.95000 41.68300
C  2.64600 52.38200 42.10300
C  1.68600 51.31000 42.31600
C  2.44300 50.18900 42.00500
C  3.69800 50.66300 41.54200
C  0.17000 51.42600 42.59000
C  2.35800 48.76600 41.73500
O  1.43200 47.96100 41.88600
C  3.69000 48.41600 41.08200
C  3.32300 48.00400 39.73100
O  2.93800 48.75600 38.81200
O  3.40700 46.68700 39.63600
C  3.05500 46.06400 38.34600
H  9.61500 51.62700 39.75400
H  6.48600 57.30700 40.92300
H  1.29600 54.01800 42.16900
H  6.69400 47.73900 40.50300
H  8.64900 49.43500 39.09400
H  8.82400 48.05300 41.44900
H  9.00000 49.66800 42.08400
H  10.08300 49.22100 40.77800
H  5.59600 47.60000 38.55300
H  7.24600 47.56500 38.14900
H  7.12000 49.84000 37.37800
H  5.44800 49.99300 37.85400
H  11.34400 53.34600 40.14400
H  11.59100 55.01100 39.76600
H  11.09200 53.99500 38.51400
H  9.60800 59.02800 41.11300
H  8.42300 57.94000 41.86100
H  8.09000 58.78500 40.28900
H  4.06100 57.48100 40.46600
H  2.37000 56.60800 42.87100
H  5.01900 58.10800 43.13300
H  3.24900 58.49700 42.94800
H  4.30200 59.23800 41.91000
H  1.53400 57.70900 40.53500
H  0.66100 56.45500 41.44900
H  2.40300 55.60700 39.22900
H  0.93600 56.46200 38.82700
H  0.84500 54.96500 39.77000
H  -0.19000 50.64800 43.26400
H  -0.41500 51.47500 41.67200
H  0.02700 52.39700 43.06500
H  4.28900 47.58900 41.46300
H  3.86200 45.35200 38.17200
H  3.00700 46.76900 37.51600
H  2.04800 45.64900 38.39200
Mg 16.78300 51.67600 26.08600
C  18.62700 50.22100 28.66300
C  14.28100 52.45000 28.40900
C  15.02200 52.94000 23.66300
C  19.45800 50.89300 23.96600
N  16.51600 51.37300 28.27400
C  17.44300 50.85500 29.12700
C  17.07600 51.22000 30.56600
C  15.60200 51.57800 30.41900
C  15.42100 51.84500 28.93000
C  14.70200 50.42600 31.00800
C  17.99400 52.27900 31.15300
C  18.20200 52.33100 32.63100
H  17.07200 51.70800 33.49400
N  14.93100 52.53800 26.01700
C  14.04800 52.76800 27.04900
C  12.84300 53.47200 26.60900
C  13.08300 53.73700 25.21700
C  14.35900 53.05100 24.89100
C  11.81700 54.20700 27.48900
C  12.41800 54.62500 24.19500
O  12.85900 54.84900 23.09000
C  11.09700 55.30300 24.53200
N  17.09200 51.76300 24.06800
C  16.26900 52.43000 23.30000
C  16.80700 52.70700 21.94400
C  18.39000 52.36600 22.21300
C  18.34500 51.62700 23.49400
C  16.09800 51.86700 20.83100
C  19.31500 53.57100 22.31400
C  20.68700 53.53500 21.52000
N  18.62900 50.68600 26.22200
C  19.53600 50.37500 25.27000
C  20.55000 49.50400 25.85900
C  20.23500 49.46200 27.18600
C  19.06400 50.11000 27.33700
C  21.75900 49.06700 25.09600
C  20.68500 49.04000 28.52000
O  21.71500 48.49800 28.89900
C  19.65000 49.56500 29.55700
C  19.10900 48.49400 30.41800
O  18.60000 47.44200 30.00600
O  19.19000 48.83000 31.74900
C  18.63900 47.80600 32.68700
H  13.46400 52.71900 29.08100
H  14.50800 53.23700 22.74700
H  20.33600 50.66700 23.35800
H  17.13000 50.28700 31.12700
H  15.32500 52.50700 30.91700
H  14.25900 49.92100 30.15000
H  13.85900 50.74400 31.62100
H  15.20400 49.67600 31.61900
H  17.70700 53.22000 30.68400
H  19.01000 52.13000 30.78700
H  18.39700 53.35200 32.96000
H  19.05700 51.70700 32.89100
H  10.82400 54.17300 27.04100
H  12.11200 55.25600 27.48000
H  11.72700 53.94800 28.54400
H  11.24500 55.82000 25.48000
H  10.39400 54.49600 24.74000
H  10.72300 56.00200 23.78400
H  16.74900 53.76800 21.70200
H  18.82700 51.66700 21.49900
H  16.74500 51.01700 20.61200
H  15.90700 52.45500 19.93300
H  15.09900 51.60900 21.18100
H  19.64900 53.64500 23.34900
H  18.78900 54.48400 22.03500
H  21.03800 54.52700 21.23400
H  20.59900 53.00600 20.57100
H  21.41900 53.01500 22.13800
H  22.18900 49.65300 24.28300
H  21.51600 48.06300 24.74800
H  22.45800 48.87400 25.90900
H  20.11900 50.21900 30.29300
H  19.46900 47.44400 33.29500
H  18.14300 46.94700 32.23600
H  17.99800 48.21000 33.47000

