158

Mg -1.98300 17.14900 27.32100
C  -2.58700 14.98900 29.94100
C  -2.54200 19.80600 29.37900
C  -1.98700 19.19900 24.56400
C  -1.94600 14.37300 25.07500
N  -2.53300 17.25800 29.42300
C  -2.67700 16.27800 30.32900
C  -2.99100 16.84400 31.73700
C  -3.11800 18.40200 31.41900
C  -2.69700 18.56000 29.94400
C  -4.45200 19.07600 31.79900
C  -2.11100 16.41400 32.96900
C  -2.71800 15.77900 34.27000
H  -1.90100 15.78100 35.51400
N  -2.00600 19.16900 27.00000
C  -2.23500 20.09300 27.99300
C  -2.16900 21.44800 27.45000
C  -1.89800 21.34300 26.04400
C  -1.97700 19.84700 25.81000
C  -2.36900 22.70700 28.26800
C  -1.66100 22.39800 25.02100
O  -1.55800 22.25600 23.82700
C  -1.36800 23.83200 25.57000
N  -2.17800 16.85500 25.11500
C  -2.05000 17.83100 24.20500
C  -1.73800 17.41500 22.80100
C  -1.53700 15.89100 23.01100
C  -1.97300 15.67000 24.48600
C  -2.82500 17.83200 21.73800
C  -0.05800 15.48300 22.68300
C  0.93100 15.11600 23.75100
N  -2.26900 15.16900 27.40100
C  -2.15700 14.15900 26.43900
C  -2.26900 12.87000 27.09100
C  -2.45700 13.16900 28.43700
C  -2.52400 14.60000 28.57600
C  -2.13400 11.53900 26.48200
C  -2.62100 12.51900 29.68800
O  -2.61200 11.32700 29.99300
C  -2.68000 13.66400 30.69600
C  -1.64700 13.35700 31.65900
O  -0.40600 13.53100 31.45400
O  -2.14900 12.73200 32.75100
C  -1.11900 12.16600 33.63500
H  -2.65100 20.66900 30.04000
H  -1.96600 19.89900 23.72700
H  -1.68000 13.55700 24.39900
H  -3.96500 16.38700 31.91200
H  -2.36300 18.94000 31.99200
H  -4.32500 19.79300 32.61000
H  -5.18800 18.29100 31.97100
H  -4.85300 19.55400 30.90500
H  -1.71000 17.31100 33.44100
H  -1.15800 15.98100 32.66700
H  -2.92600 14.75300 33.96800
H  -3.71000 16.17600 34.48600
H  -2.69700 22.48700 29.28400
H  -3.15500 23.22800 27.72100
H  -1.49100 23.34600 28.35600
H  -0.93400 24.43200 24.77000
H  -0.59900 23.63600 26.31700
H  -2.28000 24.27300 25.97200
H  -0.86500 17.98800 22.48700
H  -2.16000 15.26100 22.37600
H  -3.20100 16.95700 21.20900
H  -2.25900 18.46600 21.05600
H  -3.51300 18.52400 22.22600
H  0.41700 16.26000 22.08300
H  -0.18000 14.64700 21.99400
H  0.46700 14.71300 24.65100
H  1.70600 15.84700 23.98300
H  1.39600 14.27700 23.23200
H  -1.11100 11.16700 26.44400
H  -2.58500 11.53800 25.49000
H  -2.76100 10.91300 27.11600
H  -3.63300 13.47500 31.19100
H  -0.79500 12.97700 34.28800
H  -0.29000 11.76300 33.05400
H  -1.63800 11.45300 34.27500
Mg 48.73500 46.78700 42.61600
C  45.47300 47.39800 41.60500
C  48.59000 43.78900 41.19400
C  52.06800 46.69600 43.17400
C  48.80400 50.25900 43.57500
N  47.16600 45.72500 41.59000
C  45.93500 46.16400 41.26700
C  45.18300 45.14100 40.47400
C  46.07700 43.87600 40.61500
C  47.35300 44.49900 41.12500
C  45.62200 42.67200 41.55000
C  44.83900 45.54400 39.04400
C  43.43600 45.13500 38.52700
H  43.42300 44.67600 37.00200
N  50.22300 45.42900 42.10000
C  49.91400 44.27400 41.51500
C  51.17400 43.61000 41.27900
C  52.23100 44.50500 41.73700
C  51.55700 45.60800 42.42600
C  51.39000 42.24700 40.63400
C  53.72700 44.43700 41.44100
O  54.18000 43.51300 40.76200
C  54.73000 45.45200 41.96100
N  50.21700 48.23700 43.44400
C  51.55200 47.91900 43.60400
C  52.38900 49.08800 44.19000
C  51.34400 50.30200 44.20000
C  50.07400 49.59900 43.66600
C  53.14600 48.99100 45.67800
C  51.87000 51.49300 43.36200
C  52.00400 52.82200 44.07900
N  47.39800 48.46100 42.74300
C  47.59700 49.79600 43.18800
C  46.42500 50.56800 43.03600
C  45.53600 49.63400 42.44700
C  46.20100 48.38000 42.26200
C  46.15200 51.97600 43.42400
C  44.15000 49.49400 42.05500
O  43.17100 50.22600 42.17300
C  44.07800 48.09000 41.39100
C  42.96300 47.36800 42.08900
O  42.97700 47.03900 43.25400
O  41.96700 47.05700 41.20100
C  40.73400 46.41400 41.61400
H  48.42700 42.78500 40.79700
H  53.08600 46.77000 43.56400
H  48.80000 51.28800 43.94000
H  44.30800 44.73700 40.98300
H  46.21000 43.39000 39.64800
H  44.62500 42.91700 41.91700
H  46.34600 42.55200 42.35600
H  45.52100 41.80100 40.90300
H  45.55500 44.99400 38.43300
H  45.05700 46.59000 38.83100
H  42.88300 46.07000 38.43600
H  42.86200 44.40200 39.09500
H  51.91800 41.55000 41.28500
H  51.94400 42.30500 39.69700
H  50.38800 41.89000 40.39300
H  54.25400 46.37200 41.62100
H  55.72600 45.32500 41.53700
H  54.84700 45.45500 43.04500
H  53.13800 49.23700 43.41200
H  51.28100 50.65100 45.23100
H  53.93000 49.73600 45.54600
H  53.68500 48.06000 45.84900
H  52.58800 49.15200 46.60000
H  51.16800 51.55400 42.53000
H  52.85000 51.32300 42.91500
H  51.49200 53.66300 43.61100
H  53.06800 53.05900 44.07000
H  51.65900 52.70000 45.10600
H  46.40900 52.74800 42.69800
H  46.70200 52.13100 44.35300
H  45.09600 52.16400 43.61700
H  43.87000 48.18300 40.32600
H  40.33500 46.93500 42.48400
H  40.91500 45.35800 41.81900
H  39.96900 46.59100 40.85900

