158

Mg -3.12900 35.36300 26.51400
C  -4.65000 33.59000 29.09200
C  -1.76000 37.48600 28.88300
C  -1.83200 37.27000 24.00700
C  -4.88700 33.42800 24.17500
N  -3.32200 35.63000 28.75200
C  -3.81400 34.61600 29.58100
C  -3.52500 34.95800 31.09700
C  -2.72400 36.33000 30.93600
C  -2.63800 36.49400 29.42800
C  -3.53500 37.51500 31.55900
C  -2.65800 33.78000 31.78000
C  -3.37500 33.12200 32.99300
H  -2.55800 32.93000 34.25600
N  -2.00000 37.23200 26.44900
C  -1.53400 37.86300 27.54500
C  -0.50000 38.84000 27.10800
C  -0.36300 38.63400 25.67900
C  -1.40400 37.67500 25.31800
C  0.23400 39.76900 28.12800
C  0.55600 39.30500 24.71500
O  0.54300 39.11600 23.52800
C  1.63500 40.17200 25.25300
N  -3.48800 35.48400 24.40600
C  -2.72800 36.28300 23.58600
C  -2.88000 35.94500 22.08200
C  -3.70800 34.61300 22.15500
C  -4.05900 34.46700 23.67000
C  -3.49900 37.09600 21.32700
C  -3.06900 33.34000 21.50800
C  -1.97700 32.60300 22.33500
N  -4.44100 33.77500 26.59200
C  -5.14800 33.11600 25.49400
C  -5.83100 31.97200 26.03600
C  -5.66500 32.10800 27.46800
C  -4.89800 33.26000 27.71400
C  -6.54800 30.90600 25.20300
C  -6.09300 31.58600 28.75500
O  -6.85900 30.63300 29.09200
C  -5.48400 32.59500 29.87500
C  -6.53900 33.09200 30.76600
O  -7.45900 33.85600 30.46400
O  -6.51300 32.35000 31.92200
C  -7.32700 32.75700 33.06400
H  -1.09400 37.95100 29.61300
H  -1.25100 37.78900 23.24300
H  -5.30900 32.78600 23.39900
H  -4.42300 35.17200 31.67700
H  -1.74800 36.27300 31.41800
H  -2.81900 38.04800 32.18300
H  -4.39200 37.22600 32.16800
H  -3.83700 38.25300 30.81500
H  -1.76000 34.17200 32.25600
H  -2.35800 33.01500 31.06400
H  -3.70500 32.15600 32.61200
H  -4.24300 33.68300 33.33900
H  -0.34500 39.92000 29.03900
H  0.33000 40.81900 27.85300
H  1.20300 39.29700 28.29100
H  2.30200 40.49500 24.45400
H  2.14900 39.69000 26.08400
H  1.35300 41.14300 25.65900
H  -1.98400 35.61600 21.55500
H  -4.60500 34.79400 21.56400
H  -3.57900 37.95000 21.99900
H  -4.53100 36.89700 21.03600
H  -2.82100 37.34500 20.51100
H  -2.56800 33.62100 20.58200
H  -3.89100 32.64000 21.35900
H  -1.86200 31.55500 22.05900
H  -2.25500 32.51500 23.38500
H  -1.03800 33.13900 22.19700
H  -6.25700 29.94300 25.62300
H  -6.50000 30.88400 24.11400
H  -7.57700 31.15300 25.46600
H  -4.74000 32.01500 30.42100
H  -6.79300 33.49500 33.66300
H  -7.52100 31.84100 33.62200
H  -8.28000 33.17200 32.73400
Mg -6.91900 26.05400 25.30700
C  -5.24800 27.29100 28.10400
C  -8.31300 23.70400 27.49000
C  -8.06100 24.35500 22.48900
C  -5.05600 27.95800 23.21700
N  -6.82300 25.62100 27.50100
C  -6.15900 26.35900 28.41700
C  -6.58700 26.01500 29.83500
C  -7.41200 24.67800 29.62100
C  -7.55300 24.66700 28.14600
C  -6.79700 23.34500 30.24400
C  -7.37400 27.19300 30.57400
C  -7.07900 27.40500 32.02800
H  -6.63100 26.17400 32.86200
N  -8.18300 24.31900 25.03400
C  -8.59500 23.52200 26.05700
C  -9.27900 22.40800 25.44400
C  -9.33500 22.53400 23.99900
C  -8.53700 23.78500 23.78700
C  -9.79900 21.30900 26.24000
C  -10.03400 21.71600 22.90000
O  -10.04800 22.17300 21.77800
C  -10.69600 20.41200 23.27900
N  -6.82200 26.32400 23.13600
C  -7.30200 25.41800 22.20600
C  -6.81100 25.82600 20.74900
C  -6.00200 27.15200 21.03100
C  -5.96900 27.18700 22.58700
C  -6.15600 24.72000 19.90400
C  -6.63100 28.46600 20.44300
C  -5.96800 29.04400 19.18200
N  -5.54300 27.51600 25.54700
C  -4.77200 28.14300 24.61100
C  -3.83800 29.03700 25.29800
C  -3.99800 28.74700 26.73400
C  -5.01500 27.77000 26.79500
C  -2.96300 30.06500 24.69900
C  -3.62100 29.12900 28.06300
O  -2.78200 29.95000 28.44700
C  -4.27900 28.03500 28.99100
C  -3.26900 27.11900 29.60700
O  -3.05500 26.01400 29.22900
O  -2.57400 27.73600 30.64500
C  -1.48500 26.92000 31.18200
H  -8.75300 22.97300 28.17200
H  -8.34000 23.82000 21.57900
H  -4.41000 28.53900 22.55600
H  -5.67700 25.86900 30.41700
H  -8.42200 24.81900 30.00400
H  -6.02900 22.98800 29.55800
H  -7.51100 22.54500 30.43800
H  -6.37900 23.60200 31.21700
H  -8.45000 27.18200 30.40100
H  -7.11400 28.14900 30.12000
H  -7.98500 27.79900 32.48700
H  -6.31300 28.17900 32.07800
H  -10.86500 21.47100 26.39600
H  -9.32600 21.20600 27.21700
H  -9.62900 20.33900 25.77300
H  -9.94900 19.70500 23.64000
H  -11.24300 20.07200 22.40000
H  -11.49500 20.61300 23.99200
H  -7.71500 26.05200 20.18300
H  -5.06300 26.97900 20.50500
H  -5.91600 23.88200 20.55900
H  -5.21800 25.03900 19.45000
H  -6.82900 24.27500 19.17200
H  -6.67100 29.37000 21.05100
H  -7.63400 28.31900 20.04300
H  -6.71100 29.40900 18.47300
H  -5.23500 28.37000 18.73900
H  -5.43100 29.92800 19.52700
H  -3.35600 30.40700 23.74200
H  -2.04100 29.54700 24.43400
H  -2.67100 30.82300 25.42600
H  -4.75600 28.71400 29.69700
H  -0.64600 26.97800 30.49000
H  -1.81200 25.88000 31.16700
H  -1.18700 27.34200 32.14200

