158

Mg 34.57200 3.72500 29.22100
C  32.27800 4.51500 31.87600
C  37.20000 3.94800 31.50000
C  36.71400 3.23800 26.72100
C  31.92100 3.95200 27.03600
N  34.73100 4.23700 31.41500
C  33.57600 4.41900 32.33400
C  34.14300 4.59800 33.74700
C  35.73000 4.66800 33.46800
C  35.92900 4.27000 32.02300
C  36.51800 5.99000 33.86700
C  33.66100 3.47600 34.64400
C  33.62000 3.75600 36.20800
H  34.31700 4.95500 36.77700
N  36.69100 3.44600 29.14900
C  37.56400 3.59700 30.19200
C  38.92700 3.29300 29.69900
C  38.85400 3.19700 28.23900
C  37.40300 3.24800 27.95900
C  40.15100 3.21800 30.60900
C  39.88600 3.12000 27.18900
O  39.64600 3.04400 26.00200
C  41.33800 3.05900 27.56100
N  34.35000 3.68500 27.24600
C  35.36400 3.45800 26.41900
C  34.83400 3.29000 24.96000
C  33.33100 2.99500 25.14400
C  33.16000 3.58000 26.55600
C  35.10700 4.61500 24.21300
C  32.87100 1.53600 25.06400
C  31.80700 1.29000 24.02200
N  32.56100 4.12800 29.33900
C  31.59100 4.24400 28.37900
C  30.29100 4.52000 28.95900
C  30.49100 4.62100 30.33700
C  31.87100 4.37800 30.49600
C  28.96600 4.72700 28.25700
C  29.85600 4.87900 31.58100
O  28.69900 5.17400 31.88500
C  31.00000 4.68400 32.60900
C  30.97900 5.92300 33.44500
O  31.68000 6.88900 33.25700
O  30.18000 5.76100 34.54600
C  30.39300 6.70200 35.65500
H  38.08300 4.09800 32.12500
H  37.42400 2.87600 25.97400
H  31.00900 4.00600 26.43800
H  33.76500 5.49600 34.23600
H  36.27900 3.87400 33.97500
H  36.99500 6.40900 32.98100
H  37.31600 5.82100 34.59000
H  35.92000 6.76300 34.35100
H  34.23800 2.55800 34.52800
H  32.64400 3.31100 34.28900
H  34.05500 2.87600 36.68200
H  32.57300 3.90100 36.47600
H  40.71700 2.34300 30.29000
H  40.00500 3.02200 31.67200
H  40.66000 4.18200 30.61800
H  41.45400 2.37200 28.39900
H  41.61300 4.06200 27.88800
H  42.05600 2.79100 26.78600
H  35.31600 2.46100 24.44100
H  32.83200 3.56400 24.36000
H  35.38500 4.33300 23.19800
H  35.84900 5.21500 24.74100
H  34.20900 5.21900 24.08600
H  32.56700 1.19100 26.05200
H  33.67600 0.86600 24.76100
H  30.97500 0.66800 24.35200
H  32.32600 0.70300 23.26500
H  31.34300 2.20900 23.66200
H  28.43900 3.85200 28.63900
H  29.04100 4.71700 27.17000
H  28.48400 5.66900 28.51700
H  30.77200 3.89000 33.32000
H  31.14900 7.47900 35.54200
H  30.76600 6.11500 36.49400
H  29.46700 7.11300 36.05800
Mg 52.89200 24.73100 44.27900
C  50.05100 26.98100 43.73100
C  50.85500 22.30600 42.94500
C  55.62800 22.97000 44.00400
C  54.68400 27.63300 45.26800
N  50.78700 24.72400 43.24500
C  49.83400 25.72500 43.13300
C  48.43800 25.19600 42.75900
C  48.58200 23.66300 42.98400
C  50.15300 23.52500 43.07700
C  47.80800 23.19000 44.22400
C  47.90500 25.67800 41.32400
C  49.02500 26.02200 40.21700
H  48.90000 25.37300 38.78300
N  53.23900 22.91900 43.61100
C  52.30800 22.05600 43.09800
C  52.91500 20.74400 42.83000
C  54.31800 20.94500 43.09000
C  54.42300 22.32000 43.61200
C  52.26200 19.52200 42.33200
C  55.46100 19.96300 42.70700
O  55.15400 18.82300 42.31500
C  56.96100 20.34100 42.70600
N  54.92000 25.29600 44.51900
C  55.85000 24.32600 44.39100
C  57.23000 24.81200 44.92500
C  56.85600 26.39400 45.27100
C  55.38300 26.47600 44.99500
C  57.98700 24.04800 46.07900
C  57.63500 27.45800 44.42100
C  58.46700 28.62200 45.20200
N  52.47100 26.79700 44.66400
C  53.27900 27.83300 45.10100
C  52.49600 28.97300 45.40000
C  51.20000 28.70900 44.86400
C  51.21700 27.40400 44.37000
C  52.98200 30.22700 46.09000
C  49.88700 29.28800 44.59800
O  49.42200 30.42800 44.78000
C  49.20100 28.21400 43.69300
C  49.00500 28.78100 42.32200
O  49.87400 28.94100 41.40600
O  47.72300 29.22300 42.24500
C  47.31000 29.97400 41.10200
H  50.14000 21.48900 42.82700
H  56.58400 22.44500 44.03900
H  55.31700 28.42900 45.66700
H  47.82300 25.54900 43.58700
H  48.38200 23.01700 42.13000
H  48.49100 22.99600 45.05100
H  47.15200 22.33200 44.07400
H  47.12000 23.95500 44.58500
H  47.34200 26.61000 41.37200
H  47.20900 24.92800 40.94900
H  49.99500 25.75900 40.64000
H  48.90000 27.09200 40.05000
H  52.52900 19.13700 41.34800
H  51.19500 19.74300 42.35100
H  52.45500 18.68300 43.00000
H  57.51200 19.65700 42.06000
H  57.10700 20.26500 43.78300
H  57.07300 21.37500 42.37800
H  57.93600 24.89100 44.09900
H  57.01100 26.56600 46.33600
H  57.50500 23.10500 46.33400
H  58.00900 24.74900 46.91400
H  58.96600 23.81700 45.65800
H  56.81600 28.05300 44.01800
H  58.09900 27.02800 43.53300
H  59.53400 28.46500 45.04800
H  58.23600 28.48500 46.25800
H  58.03300 29.51900 44.75900
H  53.74300 30.07800 46.85600
H  52.14300 30.77600 46.52000
H  53.35900 30.99400 45.41300
H  48.23000 28.03600 44.15500
H  46.29200 30.32800 41.26600
H  47.32300 29.23300 40.30300
H  48.05100 30.72900 40.84100

