158

Mg 40.37700 8.57200 28.93800
C  42.48200 9.80400 31.56100
C  38.38400 7.05200 31.40300
C  38.52900 7.44100 26.48800
C  42.83700 9.66000 26.57100
N  40.48500 8.42300 31.16400
C  41.35900 9.13500 32.01700
C  40.87600 9.02200 33.51800
C  39.75200 7.86200 33.40100
C  39.51200 7.71200 31.91600
C  39.96300 6.58000 34.16800
C  40.28200 10.42300 34.02500
C  41.07900 11.12100 35.15700
H  40.42300 11.94900 36.22600
N  38.71200 7.35900 28.91200
C  37.96900 6.85500 30.00000
C  36.82300 6.10000 29.51400
C  36.84100 6.20400 28.03500
C  38.04400 7.06700 27.76200
C  35.72500 5.48100 30.36300
C  35.97100 5.54700 27.01300
O  36.01000 5.76700 25.82300
C  34.95400 4.44700 27.34600
N  40.69100 8.48700 26.80900
C  39.71100 8.09300 26.02600
C  40.08400 8.30200 24.53100
C  41.37600 9.05000 24.60000
C  41.65900 9.08600 26.05300
C  40.09400 7.05900 23.59700
C  41.42500 10.37900 23.91900
C  40.76500 11.58500 24.53900
N  42.26300 9.54900 28.97900
C  43.12700 9.84800 27.96100
C  44.28300 10.49200 28.52000
C  44.00400 10.54500 29.92200
C  42.83100 9.92100 30.18200
C  45.59700 10.76300 27.92300
C  44.61000 10.84100 31.18600
O  45.72700 11.27700 31.39600
C  43.60000 10.49300 32.28800
C  44.30500 9.69000 33.31900
O  44.85300 8.60600 33.14000
O  44.34100 10.32000 34.55200
C  44.79100 9.38700 35.59100
H  37.72700 6.70300 32.20300
H  37.88800 7.09700 25.67400
H  43.63700 9.95200 25.88700
H  41.65800 8.73000 34.22000
H  38.82800 8.30800 33.76800
H  39.14700 6.30600 34.83600
H  40.85600 6.75000 34.76900
H  40.04000 5.66900 33.57400
H  39.25200 10.44500 34.37900
H  40.27900 11.05200 33.13400
H  41.77800 11.86000 34.76600
H  41.63900 10.28000 35.56600
H  34.76000 5.96800 30.21800
H  35.80300 5.64300 31.43800
H  35.76900 4.44600 30.02500
H  35.39400 3.73700 28.04600
H  34.78200 3.96600 26.38300
H  34.06700 4.86900 27.81700
H  39.26700 8.87700 24.09500
H  42.14400 8.41100 24.16400
H  40.72600 7.38800 22.77200
H  39.12600 6.79000 23.17400
H  40.53900 6.16600 24.03700
H  40.99100 10.23800 22.92900
H  42.48600 10.62700 23.89000
H  41.40500 12.45000 24.36600
H  40.42600 11.56200 25.57500
H  39.86200 11.83400 23.98100
H  46.41700 10.27500 28.45000
H  45.75600 11.84100 27.93200
H  45.80200 10.74400 26.85300
H  43.38000 11.48900 32.67100
H  44.11400 8.55000 35.76100
H  44.78400 10.00700 36.48800
H  45.75700 8.91500 35.41200
Mg 47.92700 34.32200 27.06700
C  46.21700 33.07100 29.93200
C  48.26100 37.31100 28.75400
C  49.04100 35.72400 24.20900
C  47.04000 31.51500 25.33300
N  47.35000 34.98100 29.11200
C  46.67200 34.31700 30.10600
C  46.92500 35.00100 31.47400
C  47.15100 36.51200 30.99600
C  47.59600 36.34200 29.51900
C  45.97900 37.55200 31.00600
C  48.11100 34.43100 32.34400
C  47.73900 34.38500 33.84900
H  46.56100 35.22100 34.37000
N  48.61100 36.26100 26.59600
C  48.70500 37.35200 27.40200
C  49.32900 38.43100 26.77300
C  49.60100 38.00200 25.40100
C  49.10200 36.55900 25.36300
C  49.71000 39.80000 27.39400
C  50.37800 38.71100 24.23900
O  50.64000 38.13700 23.15300
C  50.85800 40.03600 24.40100
N  47.96800 33.79600 25.05700
C  48.55200 34.50600 24.10200
C  48.45300 33.73600 22.73700
C  47.90600 32.29300 23.09100
C  47.68600 32.52800 24.60700
C  47.52000 34.51100 21.74500
C  48.87000 31.02900 22.92400
C  50.40600 31.26700 23.06700
N  46.93500 32.59200 27.50500
C  46.62100 31.54000 26.64000
C  45.71400 30.63400 27.39700
C  45.52500 31.19700 28.65300
C  46.27100 32.39500 28.64300
C  45.30100 29.34300 26.82500
C  44.85800 31.06300 29.93800
O  44.06600 30.19300 30.35700
C  45.31200 32.25200 30.81800
C  45.97000 31.72700 32.05900
O  47.07500 31.28400 32.13500
O  45.04000 31.56200 33.02400
C  45.33700 30.51800 34.01200
H  48.42200 38.21700 29.34200
H  49.37100 36.27400 23.32600
H  46.72200 30.65700 24.73700
H  45.98700 34.91500 32.02100
H  47.92900 36.98900 31.59200
H  46.09900 38.20600 30.14200
H  45.99800 38.13500 31.92700
H  44.99700 37.08500 30.93800
H  48.97500 35.08000 32.20100
H  48.42900 33.49900 31.87700
H  48.58000 34.84400 34.36800
H  47.53000 33.41200 34.29400
H  49.36600 40.64800 26.80200
H  50.79600 39.71400 27.36200
H  49.30400 39.86300 28.40400
H  49.97000 40.65200 24.53900
H  51.42500 40.20000 23.48400
H  51.52200 39.99400 25.26500
H  49.45200 33.66300 22.30800
H  46.93100 32.15400 22.62300
H  46.49000 34.20900 21.92900
H  47.89500 34.21000 20.76600
H  47.76500 35.53200 22.03700
H  48.72700 30.62900 21.92100
H  48.55600 30.21500 23.57700
H  50.84200 31.21800 22.06900
H  50.86500 30.47800 23.66300
H  50.47000 32.22400 23.58400
H  44.21400 29.41500 26.87500
H  45.36100 28.53300 27.55100
H  45.66000 29.06900 25.83300
H  44.60600 32.93000 31.29800
H  45.34900 29.55200 33.50900
H  44.44100 30.62400 34.62400
H  46.30800 30.80100 34.41900

