158

Mg 6.09600 54.14100 41.39100
C  5.68100 50.73600 40.61700
C  9.18000 54.08200 40.07000
C  5.79000 57.47400 41.51000
C  2.54800 54.02500 42.66800
N  7.27200 52.55500 40.40700
C  6.88800 51.32100 40.20600
C  8.17600 50.45500 39.69600
C  9.34600 51.50800 39.81400
C  8.53100 52.81700 40.02800
C  10.53400 51.28000 40.88400
C  8.07500 49.82600 38.38600
C  7.78000 50.74500 37.15500
H  6.80200 50.09400 36.13800
N  7.35100 55.61200 40.94300
C  8.66000 55.37800 40.46000
C  9.29900 56.72000 40.34800
C  8.30300 57.68900 40.78900
C  7.06200 56.92900 41.04900
C  10.76700 57.01300 39.84400
C  8.52000 59.19700 40.91000
O  9.59200 59.64800 40.54000
C  7.58000 60.19900 41.47200
N  4.52100 55.55800 42.32400
C  4.65800 56.82100 41.96200
C  3.44100 57.64800 42.34300
C  2.47600 56.57400 42.93800
C  3.22900 55.28100 42.58500
C  3.78200 58.80300 43.36100
C  1.04400 56.65500 42.30300
C  -0.12300 56.38300 43.23500
N  4.45100 52.73600 41.68800
C  3.14800 52.79000 42.23400
C  2.68300 51.42900 42.47300
C  3.57200 50.59200 41.82700
C  4.61100 51.41500 41.31500
C  1.53800 50.99000 43.35200
C  3.90400 49.16900 41.55900
O  3.34800 48.13700 41.92600
C  5.20800 49.28400 40.63500
C  4.75600 48.73700 39.31700
O  3.96500 49.28300 38.54500
O  5.30200 47.45000 39.06100
C  4.75500 46.81400 37.87200
H  10.24700 54.12000 39.84000
H  5.66100 58.52500 41.24100
H  1.47800 54.11700 42.86500
H  8.49300 49.73600 40.45100
H  9.83200 51.56700 38.84000
H  10.32400 51.94800 41.71900
H  11.55300 51.44800 40.53500
H  10.46600 50.27600 41.30200
H  7.41000 48.96300 38.39200
H  9.05800 49.44400 38.10900
H  8.75100 51.00200 36.73000
H  7.35800 51.67100 37.54600
H  11.30100 56.08200 40.03900
H  11.28600 57.75900 40.44500
H  10.85500 57.22100 38.77800
H  8.14600 61.10000 41.70800
H  6.98300 59.90700 42.33600
H  6.82700 60.44900 40.72500
H  3.01400 58.11100 41.45300
H  2.46600 56.77400 44.01000
H  3.73800 59.75900 42.83900
H  4.72600 58.61100 43.87100
H  2.97400 58.79600 44.09300
H  0.91500 55.91700 41.51000
H  0.83100 57.61600 41.83600
H  -0.92000 57.12600 43.20400
H  0.04100 56.33000 44.31100
H  -0.51300 55.37700 43.08000
H  0.77500 51.73200 43.11300
H  1.76200 50.93100 44.41700
H  1.21100 50.00300 43.02300
H  5.94300 48.65700 41.14000
H  3.96500 46.08400 38.05100
H  5.60500 46.27300 37.45600
H  4.42100 47.51700 37.10900
Mg -12.02400 16.16200 42.52600
C  -8.86000 14.69700 41.86900
C  -10.63100 19.11300 41.50300
C  -15.14800 17.42600 42.42200
C  -13.22800 12.98700 43.37800
N  -9.94200 16.78100 41.57700
C  -8.83000 16.04300 41.53200
C  -7.61100 16.85100 41.24700
C  -8.20200 18.25100 41.54500
C  -9.66400 18.07900 41.51900
C  -7.63000 18.73600 42.97300
C  -7.08500 16.76300 39.79600
C  -5.60700 16.32100 39.60900
H  -5.31700 15.16700 38.60300
N  -12.76700 17.99100 41.98300
C  -12.00900 19.10500 41.58300
C  -12.86700 20.14600 41.27700
C  -14.22400 19.82400 41.66300
C  -14.09800 18.38300 42.05100
C  -12.42100 21.39000 40.54900
C  -15.47600 20.74800 41.62800
O  -15.40800 21.92700 41.26600
C  -16.76200 20.25300 42.11000
N  -13.98700 15.32500 42.93800
C  -15.11400 16.06100 42.76500
C  -16.29700 15.20700 42.94700
C  -15.75700 13.72100 43.24100
C  -14.21200 14.00400 43.20400
C  -17.26800 15.65300 44.11800
C  -16.27900 12.70900 42.18000
C  -17.59400 12.12900 42.54800
N  -11.23900 14.20000 42.66100
C  -11.81100 13.03000 43.07600
C  -10.79400 11.96300 43.18000
C  -9.64200 12.57100 42.64300
C  -9.91600 13.92000 42.40900
C  -10.96100 10.53700 43.66300
C  -8.25500 12.31500 42.26200
O  -7.62900 11.29400 42.34500
C  -7.72600 13.66800 41.78700
C  -6.69500 14.03100 42.83400
O  -6.99100 14.11700 44.06200
O  -5.47600 14.25200 42.26400
C  -4.38000 14.78800 43.14000
H  -10.20600 20.11500 41.41500
H  -16.20200 17.71300 42.43500
H  -13.68900 12.04100 43.67100
H  -6.82700 16.61300 41.96600
H  -7.96100 18.99700 40.78800
H  -8.44600 18.47700 43.64800
H  -7.48600 19.81600 42.95300
H  -6.73600 18.24000 43.35100
H  -7.12200 17.69100 39.22500
H  -7.71400 16.06200 39.24900
H  -5.09200 16.12200 40.54900
H  -5.00900 17.19600 39.35400
H  -12.93000 21.47700 39.58900
H  -11.34400 21.55400 40.50500
H  -12.62800 22.25300 41.18200
H  -17.23600 19.53300 41.44300
H  -17.47100 21.08000 42.11300
H  -16.46300 19.87800 43.08900
H  -16.87900 15.36000 42.03800
H  -15.99200 13.35100 44.24000
H  -18.03600 16.33100 43.74400
H  -16.72000 16.17800 44.90000
H  -17.72800 14.78400 44.58800
H  -15.48700 11.98200 42.00300
H  -16.43900 13.28700 41.26900
H  -17.52200 11.44600 43.39400
H  -18.01800 11.55900 41.72200
H  -18.31300 12.93000 42.72100
H  -11.26700 10.47600 44.70700
H  -10.01800 10.06200 43.39300
H  -11.68800 9.91400 43.14100
H  -7.23500 13.74000 40.81600
H  -3.55900 14.07100 43.15200
H  -4.73300 14.96200 44.15700
H  -3.93700 15.74500 42.86600

