158

Mg 1.39900 -2.31700 44.67900
C  4.69800 -1.18400 44.18800
C  0.36500 0.62100 42.88400
C  -1.79400 -3.43600 44.64800
C  2.65500 -5.37200 45.40800
N  2.38500 -0.48500 43.74800
C  3.75500 -0.21700 43.76100
C  4.04900 1.07000 43.05900
C  2.60200 1.82200 43.01700
C  1.72500 0.54800 43.18300
C  2.37900 2.86300 44.10800
C  4.64200 0.83600 41.56100
C  5.97400 1.48700 41.11800
H  6.75000 0.75000 40.01500
N  -0.48600 -1.47300 43.84800
C  -0.62500 -0.27000 43.25200
C  -2.06100 -0.13900 43.04900
C  -2.78400 -1.30300 43.52400
C  -1.67200 -2.14600 44.01800
C  -2.64500 1.11700 42.44100
C  -4.27800 -1.59200 43.50500
O  -5.07400 -0.66100 43.34300
C  -4.82600 -2.98600 43.70500
N  0.56700 -4.12800 44.92300
C  -0.79100 -4.34900 45.06800
C  -1.15000 -5.70500 45.66500
C  0.33400 -6.38200 45.77200
C  1.27400 -5.19200 45.43900
C  -1.97700 -5.72400 46.96700
C  0.52500 -7.68000 44.77500
C  1.29800 -8.84300 45.45200
N  3.32400 -3.19900 44.94200
C  3.71300 -4.48000 45.26000
C  5.10600 -4.59800 45.35100
C  5.54300 -3.26400 45.01300
C  4.42300 -2.49900 44.67500
C  5.89500 -5.87800 45.73900
C  6.78200 -2.53100 44.83400
O  7.95500 -2.79800 44.86600
C  6.20900 -1.08000 44.28600
C  6.64000 -0.07100 45.25200
O  6.57100 -0.21100 46.45400
O  7.06000 1.06800 44.68300
C  7.42600 2.16200 45.49400
H  -0.03900 1.59200 42.59000
H  -2.80800 -3.76200 44.88600
H  2.98000 -6.36800 45.71300
H  4.72600 1.60100 43.72700
H  2.37100 2.40400 42.12500
H  2.48600 3.85800 43.67700
H  3.11900 2.71400 44.89500
H  1.44600 2.67500 44.64100
H  3.90500 0.92800 40.76300
H  4.90500 -0.22000 41.61000
H  6.62300 1.70800 41.96500
H  5.53300 2.40400 40.72900
H  -3.64600 0.96400 42.03900
H  -2.07600 1.41100 41.55900
H  -2.59200 1.96900 43.11900
H  -4.24200 -3.70400 43.12900
H  -5.81100 -2.86500 43.25500
H  -4.96400 -3.24200 44.75600
H  -1.76600 -6.17000 44.89700
H  0.60000 -6.68200 46.78500
H  -1.44200 -6.33100 47.69700
H  -2.95000 -6.18000 46.78300
H  -2.16500 -4.74800 47.41500
H  0.96000 -7.38600 43.82000
H  -0.46600 -8.12400 44.67800
H  1.88100 -8.61700 46.34500
H  2.03200 -9.22600 44.74400
H  0.60700 -9.67200 45.60300
H  6.05400 -6.40300 44.79700
H  5.20300 -6.45700 46.34900
H  6.83700 -5.57200 46.19400
H  6.63800 -0.81800 43.31800
H  7.79900 2.94300 44.83200
H  8.02600 1.97100 46.38400
H  6.46400 2.39500 45.95200
Mg 24.45200 2.95100 29.38500
C  26.90000 2.74900 32.02900
C  22.01900 3.18100 31.62300
C  22.40500 2.82000 26.78000
C  27.19300 2.36800 27.05700
N  24.50500 2.93200 31.59300
C  25.55300 2.97700 32.41900
C  25.09500 3.06600 33.92000
C  23.52300 3.25200 33.77700
C  23.29700 3.12300 32.20400
C  22.72600 2.30600 34.61500
C  25.78500 4.25200 34.67800
C  26.19400 3.92500 36.12000
H  25.26500 4.71000 37.08700
N  22.52300 2.85800 29.21100
C  21.65300 3.00600 30.26500
C  20.26400 3.02700 29.82400
C  20.38500 2.83400 28.41600
C  21.82700 2.81300 28.08800
C  18.97300 3.22700 30.67700
C  19.27800 2.82800 27.43400
O  19.39700 2.82700 26.21200
C  17.94900 2.53700 28.02500
N  24.75500 2.67400 27.07800
C  23.72600 2.87900 26.25000
C  24.25300 3.15900 24.83400
C  25.82500 3.05200 25.02800
C  25.94800 2.72900 26.46700
C  23.72800 2.25800 23.64900
C  26.67700 4.23800 24.67400
C  26.60000 5.52200 25.68400
N  26.55500 2.63500 29.48500
C  27.47700 2.23500 28.46700
C  28.78600 2.03700 29.07800
C  28.58300 2.20500 30.47000
C  27.29500 2.60100 30.69800
C  30.06900 1.55400 28.45600
C  29.24500 2.19900 31.72400
O  30.39900 1.99900 32.08400
C  28.10800 2.52700 32.80600
C  28.02500 1.36300 33.83000
O  27.39100 0.30500 33.83100
O  28.72800 1.80300 34.99600
C  28.89600 0.79200 36.10100
H  21.19200 3.49700 32.26300
H  21.59300 2.97400 26.06600
H  28.11800 2.44500 26.48100
H  25.29300 2.06500 34.30400
H  23.21300 4.25800 34.05700
H  22.61500 1.37900 34.05100
H  21.81400 2.78200 34.97600
H  23.16700 1.97600 35.55600
H  25.14200 5.13100 34.63500
H  26.67400 4.53800 34.11500
H  27.19900 4.26500 36.37200
H  26.01200 2.86800 36.31000
H  18.32500 4.02800 30.32100
H  19.19200 3.53900 31.69800
H  18.41200 2.29200 30.65800
H  17.93400 1.63000 28.63000
H  17.31200 2.32500 27.16600
H  17.38300 3.39200 28.39500
H  24.12100 4.17400 24.45900
H  26.18700 2.18700 24.47200
H  24.33300 1.35300 23.58900
H  23.73900 2.87400 22.75000
H  22.71300 1.92200 23.86400
H  26.47400 4.48900 23.63200
H  27.71300 3.90100 24.69000
H  26.33900 5.19700 26.69100
H  25.88000 6.15400 25.16300
H  27.56300 6.01800 25.80800
H  30.81600 1.74300 29.22700
H  30.36800 2.19200 27.62400
H  30.11500 0.49900 28.18600
H  28.39900 3.47100 33.26600
H  29.25800 -0.16400 35.72200
H  28.04400 0.47600 36.70300
H  29.53800 1.23500 36.86200

