158

Mg 23.32300 -6.26400 45.18500
C  25.59000 -3.98000 43.70800
C  20.78200 -4.72500 43.41200
C  21.26200 -8.86200 46.03100
C  25.98700 -7.80700 46.73200
N  23.17300 -4.47200 43.81400
C  24.24600 -3.72500 43.38200
C  23.78700 -2.54700 42.49600
C  22.23500 -2.64100 42.64700
C  22.00900 -3.95500 43.34500
C  21.49600 -1.44300 43.38400
C  24.23100 -2.83900 41.05600
C  24.61100 -1.57100 40.21100
H  23.98700 -1.43900 38.87900
N  21.31700 -6.71900 44.71700
C  20.43600 -5.92100 44.01700
C  19.11200 -6.52900 43.97200
C  19.24400 -7.70700 44.77700
C  20.65600 -7.78500 45.24600
C  17.90300 -5.92300 43.25400
C  18.08300 -8.66100 45.03900
O  16.93900 -8.37600 44.59400
C  18.26300 -9.88200 45.94100
N  23.54800 -8.07700 46.36800
C  22.59400 -9.00400 46.48500
C  23.05600 -10.15200 47.38900
C  24.52300 -9.74600 47.78700
C  24.74400 -8.50400 46.86000
C  22.19200 -10.49800 48.58500
C  25.54600 -10.96400 47.69000
C  26.18300 -11.34100 49.06900
N  25.41600 -6.03500 45.24400
C  26.34400 -6.70000 45.95300
C  27.61600 -6.04100 45.81300
C  27.40100 -5.05700 44.88900
C  26.00400 -5.09500 44.55200
C  28.85600 -6.32500 46.54400
C  28.07200 -3.92300 44.22500
O  29.24400 -3.52100 44.25700
C  26.87800 -3.15200 43.39400
C  26.89100 -1.72800 43.82700
O  26.26100 -1.29200 44.75800
O  27.79500 -1.01500 43.14000
C  27.95800 0.39000 43.55000
H  19.97900 -4.26800 42.82900
H  20.70100 -9.73700 46.36500
H  26.82700 -8.36500 47.15100
H  24.22400 -1.61500 42.85500
H  21.70700 -2.73200 41.69800
H  22.15700 -0.60700 43.61600
H  21.22400 -1.71900 44.40300
H  20.59500 -1.11200 42.86800
H  23.40400 -3.23100 40.46500
H  25.09000 -3.50900 41.02500
H  25.68100 -1.64300 40.01700
H  24.38600 -0.62000 40.69400
H  17.25800 -6.64200 42.74900
H  18.09900 -5.13100 42.53200
H  17.33200 -5.42900 44.04100
H  17.24600 -10.26600 46.02600
H  18.59800 -9.57800 46.93300
H  18.93900 -10.63500 45.53800
H  22.98000 -11.02200 46.73600
H  24.51400 -9.36800 48.80900
H  22.01100 -11.56700 48.47300
H  21.23400 -9.98400 48.66100
H  22.75400 -10.39600 49.51300
H  26.29200 -10.91600 46.89700
H  24.96400 -11.80100 47.30500
H  25.76400 -12.27500 49.44500
H  26.01400 -10.50700 49.74900
H  27.27000 -11.26800 49.09700
H  29.19600 -5.35100 46.89700
H  29.64600 -6.82600 45.98600
H  28.69600 -6.83500 47.49500
H  27.07600 -3.09000 42.32400
H  27.04900 0.90300 43.23600
H  28.84200 0.88300 43.14500
H  28.07600 0.34300 44.63200
Mg 16.50700 -1.80400 28.12700
C  15.16200 0.21000 30.78700
C  18.46100 -3.58100 30.33300
C  18.06800 -3.29700 25.46700
C  14.98600 0.54100 25.92000
N  16.85300 -1.59600 30.30600
C  16.19800 -0.74800 31.18800
C  16.49700 -1.14700 32.61100
C  17.53900 -2.28200 32.40400
C  17.65600 -2.46600 30.95900
C  18.84700 -2.05700 33.14100
C  15.13800 -1.47600 33.37800
C  15.09200 -1.03300 34.86900
H  16.31500 -0.51800 35.62600
N  17.97100 -3.25500 27.91200
C  18.57100 -3.95900 28.95000
C  19.27700 -5.11200 28.42900
C  19.22500 -5.01100 26.99200
C  18.42500 -3.78200 26.75000
C  20.21700 -5.98300 29.28700
C  19.75000 -5.91900 25.99000
O  19.48700 -5.83400 24.78500
C  20.47100 -7.18400 26.41500
N  16.61600 -1.37000 26.02600
C  17.21300 -2.20600 25.13300
C  16.81800 -1.89100 23.71100
C  15.72000 -0.81300 23.95000
C  15.74300 -0.52100 25.42300
C  17.98200 -1.34800 22.83100
C  14.26700 -1.30400 23.66400
C  13.87000 -1.44100 22.17600
N  15.10500 -0.11100 28.23800
C  14.71900 0.74000 27.23000
C  13.86700 1.75700 27.87400
C  14.01900 1.55800 29.19400
C  14.80000 0.47400 29.40800
C  13.12600 2.82100 27.16900
C  13.68100 2.09900 30.46400
O  13.00600 3.04900 30.74400
C  14.49700 1.26300 31.60400
C  15.37100 2.21800 32.33100
O  16.54300 2.43000 32.11900
O  14.75800 2.68800 33.46100
C  15.56100 3.31500 34.45300
H  19.06400 -4.14800 31.04500
H  18.47500 -3.78800 24.58100
H  14.63300 1.34500 25.27100
H  17.00100 -0.30500 33.08500
H  17.13000 -3.19200 32.84200
H  19.21200 -3.03000 33.47100
H  18.69200 -1.46900 34.04500
H  19.60400 -1.70000 32.44200
H  14.97400 -2.55200 33.42700
H  14.23100 -1.18600 32.84600
H  14.50100 -1.63200 35.56200
H  14.44700 -0.16100 34.76400
H  20.07600 -5.82200 30.35600
H  21.21000 -5.64700 28.98700
H  20.24800 -7.06800 29.18800
H  19.68000 -7.75700 26.90000
H  21.31800 -6.82900 27.00200
H  20.84000 -7.73900 25.55300
H  16.37000 -2.76200 23.23200
H  15.84900 0.12800 23.41600
H  17.75600 -0.31400 22.56800
H  18.03900 -1.89400 21.88900
H  18.93700 -1.25300 23.34700
H  13.58200 -0.58400 24.11200
H  14.19600 -2.25800 24.18500
H  14.33400 -0.71200 21.51000
H  12.78400 -1.50800 22.24100
H  14.09300 -2.44000 21.80200
H  12.13100 2.60000 26.78300
H  13.70100 3.16800 26.31000
H  12.96000 3.59000 27.92300
H  13.71700 0.84500 32.23900
H  15.26300 4.36300 34.47700
H  16.64800 3.28500 34.37200
H  15.32700 2.96300 35.45800

