158

Mg 1.70100 8.91600 27.38900
C  2.30000 11.01200 30.00100
C  1.64800 6.36100 29.51300
C  1.21100 6.95600 24.61200
C  1.85500 11.70000 25.16000
N  2.11000 8.74900 29.48900
C  2.01900 9.73300 30.39300
C  1.91000 9.27000 31.82000
C  2.18900 7.71900 31.68700
C  1.94300 7.56200 30.13800
C  3.61600 7.19100 32.02800
C  0.56100 9.67200 32.47000
C  0.64800 9.64000 34.00700
H  1.94100 9.02900 34.75700
N  1.49100 6.94200 27.11800
C  1.45000 5.98700 28.14400
C  1.18600 4.71100 27.62500
C  1.08000 4.84000 26.16700
C  1.25300 6.35300 25.93700
C  1.28600 3.45200 28.54800
C  0.89600 3.74500 25.12100
O  0.76000 4.05200 23.90900
C  1.03300 2.35900 25.44000
N  1.61300 9.27200 25.29700
C  1.47200 8.27800 24.35400
C  1.81600 8.78100 22.95800
C  1.46900 10.31800 23.16700
C  1.73400 10.43700 24.64700
C  3.31600 8.59000 22.46800
C  0.05600 10.69200 22.89500
C  -0.29100 11.58300 21.67800
N  2.21500 10.92400 27.45400
C  2.21100 11.99600 26.54700
C  2.52400 13.20400 27.10700
C  2.58800 12.90800 28.49900
C  2.36900 11.48900 28.69500
C  2.71500 14.66200 26.43600
C  2.81500 13.48900 29.81900
O  3.09200 14.60400 30.22300
C  2.50400 12.27900 30.89700
C  3.61700 12.19500 31.91900
O  4.62600 11.56700 31.80200
O  3.23000 12.84800 33.06200
C  3.99500 12.78000 34.28400
H  1.55500 5.49400 30.17100
H  1.11500 6.22200 23.80900
H  1.83900 12.52200 24.44200
H  2.71500 9.74500 32.38000
H  1.39800 7.04200 32.01000
H  4.05600 7.77100 32.84000
H  4.32500 7.19700 31.20100
H  3.62300 6.14100 32.32100
H  -0.19600 9.00200 32.06300
H  0.43000 10.71600 32.18600
H  -0.26100 9.31400 34.51200
H  0.77100 10.71700 34.12700
H  0.86500 2.56700 28.07100
H  0.74700 3.60500 29.48300
H  2.34200 3.38600 28.80800
H  1.81700 2.18800 26.17600
H  1.23300 1.77500 24.54100
H  0.06900 2.10500 25.88000
H  1.11200 8.25500 22.31200
H  2.16200 10.88000 22.54100
H  3.68100 7.79900 23.12200
H  3.83000 9.53100 22.66600
H  3.30600 8.14100 21.47500
H  -0.30900 11.31900 23.70900
H  -0.57000 9.80300 22.81800
H  0.59600 11.59100 21.04500
H  -0.55800 12.56300 22.07300
H  -1.13700 11.16900 21.12900
H  3.77600 14.90600 26.48500
H  2.22500 15.48500 26.95600
H  2.46900 14.68800 25.37400
H  1.59800 12.64600 31.38000
H  3.33400 12.53500 35.11500
H  4.59100 13.67400 34.46900
H  4.67400 11.93100 34.20300
Mg 34.94500 48.62000 26.42800
C  35.34100 46.74500 29.37100
C  33.66600 51.20600 28.27100
C  34.04600 50.10900 23.54100
C  35.81300 45.70100 24.60100
N  34.49600 48.81200 28.62000
C  34.91200 48.04700 29.59700
C  34.90900 48.74600 30.98000
C  34.17100 50.09000 30.61300
C  34.08600 50.01600 29.03200
C  32.71900 50.10900 31.26700
C  36.33500 48.98000 31.60400
C  36.38000 48.60100 33.16500
H  35.15300 48.40200 33.92600
N  34.17900 50.46700 26.01700
C  33.77100 51.48500 26.86200
C  33.51400 52.73700 26.13300
C  33.49300 52.31100 24.75200
C  33.89300 50.89500 24.72800
C  33.19100 54.05300 26.81800
C  33.06400 53.16200 23.57100
O  33.19300 52.67400 22.42300
C  32.56400 54.62700 23.63900
N  35.00500 48.10200 24.43700
C  34.51800 48.77100 23.43800
C  34.50900 48.07600 22.05800
C  35.40700 46.86700 22.47000
C  35.46900 46.94600 23.97600
C  33.16800 47.68200 21.44000
C  36.75200 46.73400 21.77500
C  37.64800 48.00000 22.00600
N  35.56200 46.60500 26.87200
C  35.88200 45.58500 26.01100
C  36.21800 44.41800 26.79500
C  36.00300 44.77100 28.14500
C  35.59200 46.17400 28.12500
C  36.66100 43.15500 26.27600
C  36.01400 44.36900 29.51800
O  36.21300 43.25600 29.92600
C  35.62300 45.61000 30.36700
C  34.39000 45.07300 31.00600
O  33.25800 45.11600 30.52100
O  34.63000 44.52300 32.19900
C  33.47100 43.85300 32.85000
H  33.31700 52.06100 28.85400
H  33.72200 50.50100 22.57400
H  36.02900 44.90500 23.88400
H  34.30400 48.11400 31.62900
H  34.81000 50.91800 30.91800
H  32.44800 49.22800 31.84900
H  32.00700 50.20100 30.44700
H  32.51700 50.92800 31.95700
H  36.53100 50.05200 31.59900
H  37.17500 48.51300 31.09000
H  36.98200 49.34600 33.68400
H  37.05000 47.75000 33.04400
H  33.73200 54.88100 26.35900
H  33.50000 54.06100 27.86300
H  32.10700 54.16500 26.80500
H  32.54500 55.10000 22.65700
H  33.30800 55.19200 24.20100
H  31.56500 54.64600 24.07400
H  35.04900 48.87200 21.54500
H  34.87600 45.93600 22.27300
H  33.03700 46.62400 21.21500
H  33.15100 48.21800 20.49100
H  32.33200 47.95400 22.08500
H  36.72900 46.63300 20.69000
H  37.32200 45.87400 22.12700
H  38.16300 48.09700 21.05000
H  38.27600 47.80000 22.87400
H  37.12300 48.94500 22.14800
H  36.93600 43.32100 25.23400
H  36.01400 42.27900 26.32200
H  37.52800 42.79900 26.83200
H  36.27600 45.93300 31.17700
H  33.50500 42.78800 32.62500
H  32.49600 44.28900 32.63400
H  33.61500 43.86900 33.93100

