158

Mg -2.62600 17.65100 26.75300
C  -3.19300 15.55400 29.53200
C  -2.86300 20.32600 28.72600
C  -2.78300 19.63000 23.89500
C  -2.91000 14.85900 24.65400
N  -2.99400 17.84500 28.84800
C  -3.02900 16.85700 29.86500
C  -3.05900 17.46500 31.26400
C  -3.20100 18.99400 30.90500
C  -3.07900 19.09900 29.39200
C  -4.46600 19.72100 31.35900
C  -1.92900 16.98900 32.25000
C  -1.65900 17.94500 33.34700
H  -1.40700 17.32100 34.65100
N  -2.48100 19.72700 26.41100
C  -2.56400 20.66600 27.37400
C  -2.31000 22.00500 26.75500
C  -2.30400 21.76300 25.37400
C  -2.59000 20.35400 25.14400
C  -2.36300 23.25100 27.55600
C  -2.04700 22.74400 24.26600
O  -2.04200 22.41400 23.08600
C  -1.60100 24.09300 24.56200
N  -2.89200 17.39800 24.55300
C  -2.89700 18.27400 23.61100
C  -2.69100 17.67800 22.24400
C  -2.61500 16.14500 22.43800
C  -2.75200 16.13100 24.00700
C  -3.67300 18.01700 21.12000
C  -1.16900 15.57900 21.91600
C  0.15700 16.03200 22.52400
N  -2.98700 15.66500 26.98600
C  -2.96300 14.64700 26.03900
C  -3.14400 13.35400 26.72700
C  -3.21400 13.67500 28.06400
C  -3.14400 15.07900 28.19700
C  -3.42400 12.00100 26.17100
C  -3.38500 13.13100 29.43300
O  -3.59600 11.99600 29.85100
C  -3.30000 14.37700 30.43200
C  -2.02400 14.12400 31.20200
O  -0.92800 14.45500 30.80500
O  -2.30500 13.44700 32.36100
C  -1.15200 13.23100 33.21000
H  -2.98700 21.13800 29.44600
H  -2.90000 20.19100 22.96600
H  -2.95800 13.99200 23.99100
H  -4.06800 17.16800 31.55100
H  -2.38500 19.57800 31.33200
H  -5.10500 19.31000 32.14100
H  -5.11600 19.91900 30.50700
H  -4.05800 20.63900 31.78100
H  -1.01400 16.95400 31.65900
H  -2.20600 16.03600 32.70000
H  -2.54000 18.58300 33.42000
H  -0.74500 18.49500 33.12200
H  -2.55900 23.11200 28.62000
H  -3.12100 23.91400 27.13900
H  -1.41200 23.73600 27.33500
H  -2.37000 24.64700 25.10100
H  -1.33600 24.57000 23.61900
H  -0.72200 24.01500 25.20200
H  -1.66000 17.93200 21.99900
H  -3.46500 15.65200 21.96500
H  -3.59500 19.09800 21.00500
H  -4.71000 17.72800 21.28900
H  -3.25400 17.52200 20.24400
H  -0.99400 15.85700 20.87700
H  -1.27500 14.49400 21.93200
H  0.64000 15.23700 23.09300
H  0.00200 16.86900 23.20500
H  0.80700 16.48500 21.77600
H  -3.17100 11.26000 26.93000
H  -2.71500 11.85300 25.35600
H  -4.47000 11.92900 25.87500
H  -4.16700 14.46000 31.08800
H  -1.02300 12.19800 33.53100
H  -1.23900 13.73900 34.17000
H  -0.13000 13.44600 32.89700
Mg -2.09200 34.31700 26.63000
C  -3.98800 32.50800 28.88500
C  -0.94000 36.25300 29.26000
C  -0.56500 36.41700 24.42400
C  -3.57300 32.56600 23.98200
N  -2.61600 34.52200 28.73900
C  -3.25800 33.55300 29.45600
C  -3.12100 33.84000 30.97800
C  -2.36800 35.18600 31.04800
C  -1.95400 35.37700 29.58100
C  -3.16900 36.40700 31.46800
C  -2.21800 32.69900 31.61000
C  -2.93800 31.68700 32.65100
H  -2.45400 31.80900 34.17300
N  -0.89900 36.11000 26.83400
C  -0.39700 36.63200 28.03300
C  0.37700 37.76500 27.67500
C  0.31100 38.04100 26.28900
C  -0.40300 36.81600 25.77600
C  0.97600 38.69600 28.60400
C  0.90400 39.14500 25.42400
O  0.59500 39.22900 24.21900
C  1.81900 40.26500 25.95900
N  -2.29400 34.61100 24.41700
C  -1.37800 35.44500 23.80000
C  -1.49800 35.18700 22.26400
C  -2.36300 33.86800 22.16500
C  -2.75600 33.62300 23.59000
C  -2.02000 36.48800 21.49700
C  -1.69000 32.65000 21.61100
C  -0.51200 32.12300 22.40300
N  -3.50200 32.88700 26.42500
C  -3.95600 32.20600 25.28800
C  -4.77600 31.11800 25.67100
C  -4.84000 31.23800 27.08100
C  -4.03800 32.28300 27.48200
C  -5.45000 30.09000 24.82600
C  -5.42400 30.65900 28.26500
O  -6.30400 29.75100 28.46800
C  -4.72000 31.38100 29.50800
C  -5.86400 31.75700 30.47000
O  -6.41600 32.85700 30.47400
O  -5.91400 30.91100 31.48400
C  -6.97700 31.10700 32.48900
H  -0.47800 36.79000 30.09100
H  -0.01700 37.00100 23.68200
H  -4.04600 32.01500 23.16700
H  -4.11800 33.85300 31.41900
H  -1.55000 35.11600 31.76500
H  -3.03300 36.62900 32.52600
H  -4.19000 36.45200 31.08800
H  -2.61100 37.20800 30.98300
H  -1.39500 33.13800 32.17500
H  -1.75000 32.12500 30.81000
H  -2.87600 30.65100 32.31700
H  -4.00600 31.89900 32.61800
H  2.05300 38.79900 28.47200
H  0.90600 38.28600 29.61200
H  0.28000 39.52900 28.50500
H  1.07800 40.93500 26.39600
H  2.32700 40.75700 25.13000
H  2.58200 39.94700 26.66900
H  -0.58600 35.10000 21.67400
H  -3.20300 33.93900 21.47400
H  -1.25900 37.11500 21.03300
H  -2.45400 37.08400 22.29900
H  -2.76200 36.21500 20.74600
H  -1.21100 32.92200 20.67000
H  -2.46100 31.89400 21.46500
H  0.35600 31.93000 21.77200
H  -0.80400 31.17800 22.86000
H  -0.07500 32.75900 23.17300
H  -4.71400 29.75100 24.09700
H  -6.25300 30.49300 24.20900
H  -5.83200 29.28500 25.45400
H  -4.09800 30.68700 30.07300
H  -7.78000 31.74000 32.11100
H  -6.46400 31.62900 33.29700
H  -7.30400 30.10400 32.76100

