158

Mg -12.95200 16.97200 41.42900
C  -10.02300 15.30200 40.40600
C  -11.34800 19.95200 40.76200
C  -15.90000 18.27400 41.57500
C  -14.30300 13.58800 41.84800
N  -10.82700 17.56500 40.52100
C  -9.83500 16.67700 40.24500
C  -8.57500 17.52500 39.84800
C  -8.93600 18.97000 40.25800
C  -10.45200 18.84900 40.60400
C  -8.03600 19.59500 41.36800
C  -8.23600 17.33100 38.31800
C  -7.15900 16.34800 37.83400
H  -6.16800 16.76900 36.69300
N  -13.56100 18.97000 41.20900
C  -12.81200 20.04400 40.95400
C  -13.65300 21.25700 40.98600
C  -14.98800 20.78800 41.19400
C  -14.93700 19.26800 41.38800
C  -13.08600 22.62600 40.76600
C  -16.23300 21.71100 41.18100
O  -16.10200 22.89800 40.88300
C  -17.59800 21.23800 41.61600
N  -14.76300 16.08300 41.72500
C  -15.89400 16.88200 41.72500
C  -17.20800 16.05200 41.88500
C  -16.65300 14.54200 42.15100
C  -15.12800 14.73200 41.83500
C  -18.03800 16.54000 43.10400
C  -17.37800 13.48700 41.35200
C  -17.37400 12.01600 41.94000
N  -12.34800 14.86300 41.28600
C  -12.99800 13.66200 41.53600
C  -12.08500 12.58000 41.51900
C  -10.91600 13.13900 40.92700
C  -11.10800 14.51400 40.90300
C  -12.32900 11.10900 41.87500
C  -9.54000 12.88700 40.53600
O  -8.93600 11.85800 40.44700
C  -8.86200 14.32700 40.15900
C  -7.63900 14.53800 41.13400
O  -7.73300 14.79700 42.30600
O  -6.39900 14.34700 40.44500
C  -5.14100 14.56000 41.15900
H  -10.79500 20.88000 40.60200
H  -16.84200 18.82400 41.54500
H  -14.83000 12.63700 41.95200
H  -7.71400 17.26300 40.46400
H  -8.78300 19.60800 39.38800
H  -7.06200 19.86900 40.96100
H  -7.92900 18.93600 42.23000
H  -8.58000 20.45600 41.75600
H  -7.81600 18.29900 38.04400
H  -9.09500 17.13700 37.67600
H  -7.68100 15.51600 37.36200
H  -6.59500 16.10100 38.73300
H  -12.95700 22.86600 39.71100
H  -12.25500 22.95900 41.38800
H  -13.85000 23.26600 41.20700
H  -17.98200 20.55900 40.85400
H  -18.23000 22.12600 41.61500
H  -17.48300 20.69800 42.55600
H  -17.78300 16.18700 40.96900
H  -16.65400 14.19800 43.18500
H  -18.91400 17.08000 42.74400
H  -17.55400 17.25900 43.76500
H  -18.33100 15.73300 43.77500
H  -16.91000 13.44800 40.36800
H  -18.36500 13.94000 41.25000
H  -18.41500 11.69400 41.90800
H  -17.00500 11.90800 42.96000
H  -16.88100 11.41800 41.17300
H  -11.37400 10.59100 41.78900
H  -13.02300 10.47900 41.31800
H  -12.64500 10.97600 42.91000
H  -8.62700 14.43400 39.10000
H  -5.11800 15.59700 41.49400
H  -4.28100 14.43900 40.50100
H  -5.07800 13.80200 41.94000
Mg -5.93800 24.98400 26.10800
C  -4.30300 26.28300 29.06800
C  -7.80600 22.95200 28.19400
C  -6.74400 23.28800 23.43500
C  -3.53200 26.76200 24.25300
N  -5.93400 24.63200 28.38900
C  -5.18000 25.24300 29.35700
C  -5.62800 24.92400 30.71300
C  -6.61100 23.70400 30.43100
C  -6.87200 23.78000 28.86500
C  -5.93700 22.27800 30.73600
C  -6.43500 26.14300 31.23900
C  -6.30100 26.45000 32.74600
H  -5.65300 25.34800 33.64200
N  -7.23500 23.47400 25.85700
C  -7.97400 22.84800 26.79000
C  -8.82000 21.91300 26.09500
C  -8.60100 21.99400 24.74700
C  -7.49300 22.89400 24.59900
C  -9.73300 21.02800 26.88100
C  -9.24200 21.19200 23.55000
O  -8.88800 21.34600 22.42200
C  -10.35400 20.25000 23.81200
N  -5.35600 25.17800 24.06900
C  -5.85500 24.31000 23.16100
C  -5.12600 24.49200 21.73600
C  -4.21000 25.72700 22.01200
C  -4.33000 25.86800 23.53500
C  -4.40300 23.21700 21.31900
C  -4.60700 27.01400 21.23700
C  -5.46300 28.02600 21.89100
N  -4.40800 26.33300 26.52100
C  -3.55200 26.95400 25.63900
C  -2.74900 27.90300 26.40800
C  -3.04500 27.69600 27.69400
C  -4.03800 26.68900 27.74900
C  -1.78500 28.87000 25.90900
C  -2.63500 28.04400 28.99000
O  -1.81700 28.86800 29.45300
C  -3.43400 27.17700 29.95700
C  -2.44500 26.46100 30.85200
O  -1.90100 25.35700 30.69200
O  -2.33100 27.16700 32.02400
C  -1.69900 26.68600 33.29200
H  -8.28400 22.25100 28.88200
H  -6.94400 22.65000 22.57200
H  -2.81200 27.34200 23.67200
H  -4.74300 24.63900 31.28100
H  -7.55500 23.89300 30.94300
H  -5.84900 21.58300 29.90100
H  -6.62800 21.86000 31.46800
H  -5.01600 22.34900 31.31400
H  -7.47700 26.04400 30.93500
H  -6.20100 27.07500 30.72300
H  -7.30100 26.57600 33.16100
H  -5.75100 27.38300 32.86800
H  -9.61200 19.96200 26.68400
H  -10.68700 21.27200 26.41400
H  -9.80400 21.23600 27.94800
H  -11.10200 20.55900 24.54300
H  -9.82200 19.36000 24.14600
H  -10.77800 20.02500 22.83300
H  -5.84700 24.82100 20.98700
H  -3.16900 25.50100 21.78100
H  -4.55300 22.39900 22.02400
H  -3.34100 23.41400 21.17100
H  -4.73900 22.90400 20.33100
H  -4.94600 26.80200 20.22300
H  -3.66800 27.50200 20.97600
H  -4.88900 28.92900 22.10100
H  -6.02800 27.73500 22.77700
H  -6.13500 28.40800 21.12200
H  -2.28500 29.83100 25.78100
H  -1.44000 28.60600 24.90900
H  -0.84600 28.87900 26.46200
H  -4.07200 27.85700 30.52100
H  -2.29700 27.11500 34.09700
H  -0.62900 26.88400 33.34800
H  -1.72400 25.59800 33.36000

