158

Mg -2.16200 17.26000 27.08500
C  -2.67900 15.18300 29.79800
C  -2.97800 20.00300 29.08000
C  -2.26500 19.22300 24.32900
C  -1.93300 14.59500 24.99700
N  -2.99900 17.44800 29.15300
C  -2.75300 16.52500 30.12200
C  -2.89500 17.14600 31.58500
C  -3.08700 18.61900 31.23900
C  -3.01400 18.69200 29.77200
C  -4.41200 19.32600 31.84900
C  -1.73700 16.72600 32.49400
C  -1.26200 17.71100 33.59500
H  -0.91300 17.02600 34.97600
N  -2.36700 19.32100 26.80400
C  -2.71300 20.31900 27.72800
C  -2.65300 21.67200 27.18300
C  -2.33400 21.40500 25.79400
C  -2.33200 19.91100 25.58900
C  -2.97000 22.81000 27.94100
C  -2.16500 22.41400 24.69900
O  -1.72800 22.08600 23.56700
C  -2.27000 23.87700 25.04800
N  -2.04100 17.01300 24.89000
C  -2.11000 17.89000 23.96800
C  -2.06300 17.47400 22.54000
C  -1.74400 15.91300 22.80600
C  -1.96700 15.84600 24.31300
C  -3.45600 17.66300 21.79100
C  -0.28500 15.57300 22.31700
C  0.93600 15.85100 23.26100
N  -2.37600 15.32100 27.23200
C  -2.22200 14.32500 26.33100
C  -2.34800 13.09500 26.91900
C  -2.43000 13.34100 28.32000
C  -2.52600 14.73700 28.46800
C  -2.32300 11.77400 26.19000
C  -2.59800 12.68900 29.58600
O  -2.70000 11.55200 29.93700
C  -2.75100 13.92100 30.61700
C  -1.56900 13.74600 31.54700
O  -0.40700 13.96700 31.23200
O  -1.98100 13.25300 32.72600
C  -0.93400 13.13200 33.75200
H  -3.12400 20.85300 29.75000
H  -2.32100 19.93000 23.49900
H  -1.80900 13.75500 24.31000
H  -3.79000 16.71100 32.03000
H  -2.26700 19.21100 31.64400
H  -4.13800 20.12200 32.54100
H  -4.93900 18.71300 32.58000
H  -5.12400 19.49100 31.04000
H  -0.87800 16.50400 31.86100
H  -2.13100 15.81900 32.95200
H  -2.06300 18.43700 33.73300
H  -0.29100 18.08400 33.26800
H  -2.67700 22.73600 28.98900
H  -4.05700 22.83600 27.86800
H  -2.59600 23.77900 27.60800
H  -2.12200 24.40200 24.10400
H  -1.38600 23.98800 25.67700
H  -3.20500 24.24900 25.46600
H  -1.22500 17.96600 22.04700
H  -2.40800 15.33200 22.16600
H  -3.86300 16.72600 21.40900
H  -3.28500 18.14900 20.83100
H  -4.07100 18.33400 22.39100
H  -0.18100 16.11700 21.37800
H  -0.14200 14.53500 22.01900
H  0.50000 16.07300 24.23500
H  1.55000 16.67200 22.89000
H  1.57600 14.97300 23.34800
H  -3.29100 11.63200 25.70800
H  -2.08200 10.90900 26.80800
H  -1.64100 11.71400 25.34100
H  -3.69600 13.88100 31.15700
H  -1.16700 13.69200 34.65900
H  0.08700 13.38900 33.47200
H  -0.94500 12.07500 34.01700
Mg 0.10200 7.78700 26.98000
C  0.95700 9.91800 29.53700
C  0.57200 5.02000 29.14200
C  0.11600 5.83500 24.24200
C  0.72000 10.59600 24.73700
N  0.90000 7.51100 29.06200
C  0.78400 8.55000 29.95200
C  0.70700 8.07000 31.37900
C  1.01200 6.53100 31.30500
C  0.79900 6.30500 29.72900
C  2.34400 6.02000 31.90500
C  -0.62700 8.36100 32.05800
C  -0.51300 8.82700 33.50400
H  0.52400 8.30100 34.48100
N  0.23800 5.68800 26.69900
C  0.30400 4.79400 27.74100
C  0.21500 3.49000 27.07600
C  0.10500 3.66100 25.66700
C  0.08000 5.12800 25.49900
C  0.27000 2.28700 27.92000
C  0.03500 2.71000 24.51600
O  -0.25200 3.03100 23.38800
C  -0.00800 1.24300 24.82900
N  0.29900 8.15700 24.75500
C  0.18000 7.17100 23.84900
C  0.32600 7.74100 22.43200
C  0.42200 9.28800 22.60500
C  0.42700 9.38600 24.14000
C  1.47500 7.16300 21.57100
C  -0.76100 10.17700 21.99300
C  -2.01900 10.39100 22.80000
N  0.62600 9.82800 27.08100
C  0.80700 10.83100 26.15100
C  1.09700 12.09900 26.76700
C  1.21800 11.82100 28.13000
C  0.85900 10.44100 28.25700
C  1.41000 13.42600 26.02500
C  1.58800 12.32100 29.43600
O  1.84900 13.45000 29.82100
C  1.43800 11.08800 30.43500
C  2.66800 10.76100 31.11400
O  3.70600 10.21200 30.71100
O  2.50800 11.14200 32.49200
C  3.81500 11.12300 33.26400
H  0.57500 4.16300 29.82000
H  -0.15400 5.32100 23.31800
H  0.71000 11.49900 24.12400
H  1.54500 8.44200 31.96900
H  0.19400 5.99600 31.78900
H  2.11800 5.32100 32.71000
H  2.95500 6.81100 32.33900
H  2.83400 5.46900 31.10200
H  -1.39700 7.59400 31.97900
H  -1.13800 9.20700 31.59900
H  -1.48800 8.75700 33.98600
H  -0.22700 9.87800 33.44400
H  -0.59500 1.62500 27.90800
H  0.24000 2.47200 28.99400
H  1.23600 1.82600 27.71400
H  0.13600 0.62300 23.94400
H  -0.98700 0.94400 25.20300
H  0.74700 0.87900 25.52500
H  -0.59700 7.51500 21.89900
H  1.36300 9.73700 22.28700
H  0.89000 6.66900 20.79600
H  2.18500 6.52100 22.09300
H  2.04700 7.90600 21.01600
H  -1.11700 9.72300 21.06800
H  -0.44100 11.14600 21.61100
H  -2.13700 9.59500 23.53400
H  -2.86600 10.28500 22.12300
H  -2.03300 11.38700 23.24400
H  1.76900 13.21300 25.01800
H  2.13800 14.04500 26.54900
H  0.46700 13.95500 25.88900
H  0.58900 11.06200 31.11800
H  4.27900 12.06900 32.98500
H  4.66400 10.47500 33.04800
H  3.65100 11.07500 34.34100

