158

Mg 8.94800 3.63100 27.16900
C  9.98700 2.29600 30.35400
C  6.69300 5.54200 28.88700
C  8.44400 5.12800 24.35700
C  10.93500 1.30900 25.59400
N  8.34000 3.81300 29.39300
C  8.97000 3.25900 30.46100
C  8.41100 3.69600 31.70900
C  7.17900 4.58200 31.24000
C  7.41800 4.64600 29.74300
C  5.82000 4.00100 31.66500
C  9.47500 4.43900 32.55600
C  9.54400 3.79100 34.02100
H  10.77000 4.11400 34.95200
N  7.70800 5.05600 26.64900
C  6.76800 5.69300 27.45400
C  6.09700 6.71400 26.71300
C  6.77600 6.72900 25.41000
C  7.77700 5.63300 25.43500
C  4.86400 7.47500 27.29900
C  6.55400 7.66600 24.23300
O  7.09500 7.53800 23.18100
C  5.70000 8.83300 24.42500
N  9.57200 3.31500 25.26100
C  9.15100 3.97900 24.27900
C  9.61500 3.48100 22.88400
C  10.47900 2.25400 23.25700
C  10.39900 2.34500 24.74600
C  8.40100 3.22200 21.93900
C  11.88100 2.30600 22.61000
C  12.17300 1.01800 21.76300
N  10.18000 2.11800 27.80100
C  10.96300 1.24600 27.01400
C  11.69100 0.33700 27.84700
C  11.45300 0.80400 29.16000
C  10.44200 1.82600 29.07800
C  12.66000 -0.54700 27.38300
C  11.80800 0.60800 30.57500
O  12.50800 -0.21600 31.12700
C  10.89300 1.58900 31.37100
C  10.17900 0.74600 32.36500
O  9.08600 0.21800 32.19400
O  10.96600 0.71300 33.55600
C  10.32500 0.04800 34.70000
H  5.96900 6.16200 29.42000
H  8.32200 5.61600 23.38800
H  11.39400 0.52200 24.99200
H  8.07600 2.76600 32.16800
H  7.29200 5.57100 31.68400
H  5.20000 4.88600 31.81200
H  5.88300 3.29300 32.49100
H  5.26700 3.42200 30.92500
H  9.04200 5.43600 32.64200
H  10.46100 4.48000 32.09300
H  9.47100 2.70400 33.99900
H  8.58400 4.09500 34.43800
H  4.48200 6.94500 28.17200
H  4.16900 7.74700 26.50400
H  5.25000 8.41300 27.69800
H  4.69700 8.54000 24.11600
H  6.06100 9.67700 23.83800
H  5.75600 8.96700 25.50500
H  10.19200 4.24600 22.36600
H  9.99100 1.31300 23.00200
H  7.44500 3.55800 22.34000
H  8.44400 2.18700 21.60000
H  8.47400 3.87900 21.07200
H  12.59700 2.18300 23.42200
H  12.15100 3.15200 21.97900
H  13.17300 1.26500 21.40700
H  11.47900 0.86100 20.93700
H  12.09400 0.10000 22.34700
H  12.11500 -1.43100 27.05100
H  13.45300 -0.78300 28.09200
H  13.12700 -0.11200 26.50000
H  11.55600 2.29100 31.87600
H  9.97300 0.69200 35.50600
H  11.02900 -0.66700 35.12500
H  9.47600 -0.58800 34.44800
Mg 40.90900 8.94400 29.52200
C  42.47700 9.74100 32.45900
C  38.66700 7.21600 31.06100
C  39.61100 8.12700 26.47800
C  43.64400 10.49100 27.75900
N  40.77400 8.40900 31.46600
C  41.40800 8.88400 32.60500
C  40.80000 8.39200 33.88300
C  39.86900 7.26200 33.29200
C  39.72500 7.65500 31.82300
C  40.55500 5.80600 33.34200
C  40.03500 9.55800 34.64600
C  40.12400 9.38500 36.19000
H  39.92000 10.67500 37.05500
N  39.20400 8.02900 28.83400
C  38.37600 7.39400 29.64600
C  37.27800 6.92400 28.89500
C  37.50400 7.15100 27.53300
C  38.88700 7.77400 27.55400
C  36.11500 6.12500 29.57100
C  36.65900 6.78900 26.35700
O  37.10900 6.99200 25.22300
C  35.24400 6.31800 26.56400
N  41.54100 9.22600 27.39400
C  40.86800 8.67200 26.36700
C  41.66400 8.83200 24.97900
C  42.91500 9.74000 25.44900
C  42.67600 9.86900 26.94600
C  42.06900 7.46200 24.24900
C  42.86300 11.14400 24.74900
C  41.58400 12.00400 24.93100
N  42.68800 9.92600 30.00100
C  43.71800 10.47300 29.19800
C  44.60900 11.17800 30.14300
C  44.16900 10.89400 31.43700
C  43.06600 10.12200 31.26100
C  45.78300 11.90300 29.71800
C  44.46200 11.17800 32.84000
O  45.32400 11.85000 33.48600
C  43.32200 10.37000 33.53700
C  43.83700 9.46900 34.59700
O  44.54300 8.52300 34.41200
O  43.44600 9.94600 35.88100
C  44.00600 9.13800 37.05400
H  37.94000 6.71400 31.70200
H  39.20500 7.81800 25.51300
H  44.56600 10.82100 27.27500
H  41.47600 7.91300 34.59000
H  38.89400 7.31100 33.77800
H  39.92100 5.05100 33.80900
H  41.40200 5.88800 34.02300
H  40.95800 5.59500 32.35200
H  38.97900 9.37800 34.44400
H  40.38600 10.51000 34.24800
H  41.07300 8.91100 36.44200
H  39.34000 8.73300 36.57400
H  36.31900 6.15500 30.64200
H  36.18900 5.08600 29.25100
H  35.20600 6.67900 29.33500
H  35.28500 5.40900 27.16300
H  34.87700 6.05600 25.57100
H  34.71600 7.17900 26.97400
H  41.01100 9.33900 24.26900
H  43.91800 9.32400 25.35900
H  41.52700 7.31900 23.31400
H  41.82200 6.71900 25.00700
H  43.12500 7.33000 24.01500
H  43.01900 11.00600 23.67900
H  43.74200 11.72100 25.03800
H  41.32100 12.20000 23.89100
H  41.94400 12.94000 25.35800
H  40.72800 11.70900 25.53800
H  46.55000 11.15900 29.50300
H  46.21500 12.52700 30.50000
H  45.59200 12.37900 28.75600
H  42.94400 11.20900 34.12200
H  44.27100 8.14800 36.68300
H  43.36900 9.20100 37.93600
H  44.96100 9.57700 37.34200

