158

Mg 45.83900 3.66500 47.07500
C  43.49300 6.27300 46.52800
C  43.21300 1.42300 46.92300
C  48.00700 1.08600 46.95300
C  48.31100 5.90900 46.78300
N  43.65200 3.87800 46.77700
C  42.90400 5.00000 46.55100
C  41.42800 4.72300 46.45800
C  41.34200 3.27400 46.98200
C  42.82400 2.77800 46.91400
C  40.78700 3.18400 48.42000
C  40.84800 4.81800 44.91400
C  39.67700 5.78900 44.66700
H  39.81000 6.86600 43.62000
N  45.60000 1.49400 47.04400
C  44.45300 0.79100 47.05500
C  44.73000 -0.60700 47.23800
C  46.16200 -0.68800 47.20900
C  46.67300 0.66300 47.06200
C  43.69000 -1.66500 47.24200
C  46.91600 -1.90600 47.48800
O  46.32300 -2.97000 47.79700
C  48.41700 -1.95300 47.56000
N  47.80000 3.53400 46.66700
C  48.49700 2.39800 46.78800
C  50.01600 2.58700 46.85800
C  50.08100 4.20200 46.76300
C  48.63500 4.56400 46.62200
C  50.62100 2.30400 48.21600
C  51.02100 4.73900 45.65800
C  52.24800 5.48200 46.08200
N  45.94400 5.64700 46.68500
C  47.07500 6.48700 46.77900
C  46.73700 7.92100 46.68800
C  45.26500 7.87700 46.59400
C  44.87900 6.48800 46.66700
C  47.61000 9.19000 46.59900
C  44.07300 8.64900 46.53500
O  43.86100 9.87600 46.58400
C  42.78100 7.64400 46.59800
C  42.04700 7.73900 47.92700
O  42.30600 7.23000 49.00300
O  41.10000 8.68200 47.77100
C  40.10500 8.95500 48.84400
H  42.45500 0.65700 47.10000
H  48.89400 0.46000 47.06800
H  49.14700 6.60900 46.71400
H  40.84500 5.44500 47.03000
H  40.74000 2.68200 46.29200
H  40.46800 4.17400 48.74400
H  41.61400 2.86700 49.05600
H  39.96400 2.47500 48.51100
H  40.52900 3.81700 44.62400
H  41.63700 5.12000 44.22600
H  39.27900 6.30000 45.54300
H  38.75600 5.27300 44.39800
H  43.87000 -2.57200 46.66600
H  42.76000 -1.21700 46.89200
H  43.43300 -2.01500 48.24200
H  48.78000 -2.96600 47.73400
H  48.83000 -1.46200 48.44100
H  48.80400 -1.53200 46.63200
H  50.52500 2.06100 46.05000
H  50.39000 4.66000 47.70300
H  51.33800 3.09500 48.43700
H  51.17300 1.36500 48.19400
H  49.96600 2.35000 49.08600
H  50.27100 5.25700 45.05900
H  51.37000 3.83600 45.15600
H  52.39600 5.59000 47.15700
H  52.40400 6.48200 45.67800
H  53.10000 5.04800 45.55900
H  48.62300 8.82900 46.42500
H  47.46300 9.68000 47.56200
H  47.35400 9.79700 45.73100
H  42.07100 7.84600 45.79600
H  40.14000 10.00900 49.12000
H  40.42700 8.57200 49.81200
H  39.10500 8.61800 48.57300
Mg 30.28100 58.25700 39.91000
C  27.52800 56.39700 38.93900
C  32.32300 55.60000 39.02400
C  33.02900 60.43000 39.83300
C  28.14400 60.97200 40.32200
N  29.93900 56.15600 39.08000
C  28.74100 55.67300 38.71800
C  28.86700 54.23600 38.28700
C  30.43300 53.90200 38.41000
C  30.95500 55.30700 38.84300
C  30.89100 52.77900 39.40700
C  28.30200 53.96900 36.83600
C  28.85100 54.93900 35.79000
H  27.79800 55.80800 34.98400
N  32.44300 57.99400 39.68700
C  32.98200 56.85400 39.28300
C  34.41100 57.05600 39.22000
C  34.71500 58.49100 39.46800
C  33.34600 59.05300 39.67500
C  35.37500 55.87800 38.88000
C  36.06700 59.06200 39.42000
O  37.01600 58.32500 39.27800
C  36.37900 60.55400 39.50100
N  30.57700 60.35700 40.04600
C  31.79200 61.05800 40.04200
C  31.55200 62.49300 40.27000
C  30.05900 62.56900 40.77800
C  29.53000 61.21600 40.34500
C  32.63600 63.22400 41.06900
C  29.43900 63.92900 40.24100
C  29.03900 65.03900 41.28200
N  28.25700 58.60200 39.78700
C  27.51700 59.74100 39.98800
C  26.15400 59.45200 39.87600
C  26.07900 58.07200 39.51600
C  27.42600 57.61700 39.44700
C  24.98600 60.36200 40.06600
C  25.19200 57.05100 39.15200
O  23.99300 57.02500 39.01600
C  26.09600 55.87100 38.77600
C  25.75600 54.78700 39.72900
O  25.94700 54.77300 40.94800
O  25.36500 53.64800 38.96900
C  24.97500 52.46500 39.74300
H  32.97200 54.77000 38.73800
H  33.89400 61.07300 40.00200
H  27.45400 61.77900 40.57800
H  28.38000 53.69000 39.09600
H  30.94200 53.53700 37.51800
H  31.36400 51.89900 38.97300
H  29.97600 52.41400 39.87400
H  31.45700 53.28400 40.19000
H  27.21800 53.90400 36.93500
H  28.64900 52.96000 36.61600
H  29.39900 54.40700 35.01100
H  29.56700 55.56000 36.32900
H  35.32200 55.64400 37.81700
H  35.07500 54.97900 39.41800
H  36.45000 56.05700 38.89300
H  36.03800 60.93200 40.46400
H  35.81800 60.92800 38.64400
H  37.42100 60.77500 39.27200
H  31.54600 62.94200 39.27700
H  30.04100 62.56500 41.86800
H  32.28000 64.00300 41.74400
H  33.36300 63.68100 40.39700
H  33.08000 62.58800 41.83500
H  28.55400 63.57400 39.71400
H  30.02700 64.19500 39.36300
H  29.31000 64.81900 42.31400
H  27.96200 65.18200 41.20400
H  29.55000 65.96900 41.03200
H  25.02400 61.30100 39.51300
H  24.89600 60.55500 41.13500
H  24.11500 59.75500 39.82300
H  25.93500 55.68500 37.71400
H  25.82600 51.78500 39.74200
H  24.15100 51.88300 39.33000
H  24.71900 52.67500 40.78200

