158

Mg 7.41700 2.76200 28.21500
C  8.80300 1.47100 31.32600
C  5.47300 4.83400 30.21600
C  5.94200 3.68100 25.48700
C  9.15600 0.22000 26.61900
N  7.13100 3.01600 30.49000
C  7.86800 2.50600 31.48800
C  7.60800 3.20400 32.82700
C  6.38200 4.10000 32.50900
C  6.33400 4.01100 30.95000
C  5.11800 3.83300 33.40900
C  8.84900 4.00400 33.32900
C  8.67600 4.75200 34.69500
H  9.53100 4.18400 35.80300
N  5.88600 4.11900 27.89900
C  5.24800 4.93900 28.83100
C  4.47100 5.87300 28.05900
C  4.56500 5.61300 26.64400
C  5.41500 4.42100 26.63700
C  3.64900 7.05000 28.69500
C  4.03600 6.38200 25.42700
O  4.22100 6.00200 24.25400
C  3.12600 7.56100 25.56700
N  7.57400 2.14700 26.38900
C  6.86400 2.64700 25.35300
C  7.31600 2.12100 24.01100
C  8.49400 1.18100 24.38100
C  8.37800 1.18800 25.92100
C  6.18000 1.40200 23.29500
C  9.86200 1.71400 23.81900
C  10.94800 2.43400 24.69300
N  8.60800 1.08700 28.83000
C  9.24600 0.07900 28.03000
C  9.92000 -0.91000 28.83400
C  9.78500 -0.36200 30.07000
C  8.96600 0.80000 30.08200
C  10.74600 -2.06200 28.33800
C  10.35200 -0.43400 31.36800
O  11.20100 -1.16500 31.81400
C  9.60900 0.61200 32.26700
C  8.68900 -0.16600 33.18900
O  7.64500 -0.76500 32.79500
O  9.08400 -0.07200 34.47100
C  8.46900 -1.00000 35.42800
H  4.89600 5.46600 30.89400
H  5.52900 4.01300 24.53200
H  9.75900 -0.47700 26.03400
H  7.34300 2.45100 33.56900
H  6.78800 5.04100 32.88100
H  4.89300 4.72900 33.98600
H  5.28400 3.00100 34.09300
H  4.29700 3.56200 32.74500
H  9.28900 4.65300 32.57100
H  9.72200 3.36500 33.45800
H  7.62900 4.67300 34.98700
H  8.92800 5.79700 34.51000
H  2.62600 6.68200 28.60800
H  3.59900 8.05600 28.27800
H  3.79300 7.21900 29.76200
H  3.46700 8.42800 25.00100
H  2.76600 7.85400 26.55300
H  2.22100 7.21600 25.06700
H  7.50900 3.00600 23.40500
H  8.36200 0.10900 24.23300
H  5.28000 1.25100 23.89100
H  6.43400 0.42200 22.89100
H  5.92800 1.97400 22.40200
H  9.57200 2.28100 22.93500
H  10.29300 0.78800 23.43700
H  10.56600 2.75400 25.66300
H  11.21900 3.33700 24.14600
H  11.82500 1.80400 24.84300
H  10.70400 -1.95200 27.25500
H  10.24100 -3.00400 28.54900
H  11.73300 -1.99400 28.79600
H  10.31600 1.27700 32.76500
H  9.17200 -1.73600 35.81900
H  7.63700 -1.58400 35.03500
H  7.97700 -0.39200 36.18700
Mg 6.34900 55.52200 41.25000
C  3.54100 53.46100 40.83600
C  8.33600 53.18900 40.12200
C  8.76100 57.94800 41.13100
C  4.06700 57.93300 42.31500
N  5.88100 53.64100 40.47900
C  4.70600 52.97900 40.27600
C  5.05000 51.66100 39.56200
C  6.54100 51.43100 39.89900
C  7.02700 52.81400 40.21700
C  6.93500 50.42400 40.97000
C  4.71800 51.83300 38.05300
C  3.93400 50.64300 37.49800
H  4.74100 49.95500 36.35500
N  8.26400 55.58400 40.58800
C  8.92800 54.50500 40.14300
C  10.25300 54.87600 39.87000
C  10.42800 56.22200 40.15900
C  9.10100 56.65400 40.66100
C  11.28200 53.99500 39.38700
C  11.73500 57.06600 39.94100
O  12.86600 56.59400 39.70200
C  11.76000 58.59800 40.04600
N  6.38200 57.69000 41.49100
C  7.57900 58.40400 41.58500
C  7.37600 59.80100 42.33900
C  5.76000 59.80600 42.47200
C  5.34700 58.36300 42.06000
C  8.07900 59.85600 43.68200
C  5.05700 60.92500 41.60300
C  3.87000 61.63800 42.31000
N  4.29500 55.64800 41.71600
C  3.51900 56.68700 42.20200
C  2.15500 56.23800 42.45500
C  2.13600 55.00700 41.90000
C  3.41300 54.70900 41.42500
C  0.96000 57.01700 42.97400
C  1.19800 53.92200 41.64600
O  -0.03500 53.76400 41.75900
C  2.15900 52.84700 40.88400
C  1.51300 52.64400 39.50100
O  1.43500 53.45300 38.59800
O  0.96100 51.35500 39.61300
C  0.26100 50.85000 38.45600
H  9.12100 52.47100 39.87500
H  9.60900 58.60000 41.35000
H  3.38100 58.72100 42.63300
H  4.50300 50.77800 39.89100
H  7.11200 51.14800 39.01400
H  6.03700 50.10500 41.50000
H  7.57500 50.85900 41.73700
H  7.52400 49.57000 40.63500
H  5.60500 51.88900 37.42200
H  4.14800 52.75400 37.93100
H  2.99700 51.04100 37.10900
H  3.61400 49.89200 38.22100
H  10.84600 53.07200 39.00500
H  12.03100 53.64400 40.09700
H  11.80900 54.38400 38.51700
H  12.50500 59.07600 39.41100
H  12.01700 58.71700 41.09900
H  10.80000 59.05200 39.80000
H  7.67000 60.61500 41.67700
H  5.53200 60.00400 43.51900
H  7.99700 58.81300 43.98900
H  7.50600 60.49000 44.35800
H  9.06200 60.28700 43.49200
H  4.66900 60.39300 40.73400
H  5.85500 61.62100 41.34400
H  3.78400 61.29900 43.34200
H  2.95500 61.43000 41.75500
H  4.09800 62.70200 42.25100
H  1.41500 57.96300 43.26500
H  0.59700 56.51300 43.86900
H  0.27900 57.09900 42.12700
H  2.07400 51.88500 41.39000
H  -0.65700 50.49100 38.92100
H  0.78800 50.03000 37.96800
H  0.13500 51.65000 37.72700

