158

Mg 47.63700 17.10500 28.73900
C  45.47500 16.28300 31.45300
C  49.72700 18.60800 31.09800
C  49.69000 18.13100 26.33400
C  45.46400 15.65000 26.55500
N  47.57200 17.39500 31.03200
C  46.61700 16.93000 31.91000
C  46.94700 17.32200 33.34300
C  48.05900 18.45400 33.09300
C  48.56200 18.06900 31.65100
C  47.63100 19.95200 33.25100
C  47.39400 16.04000 34.08500
C  47.02700 16.01300 35.64100
H  46.99600 17.35700 36.39000
N  49.55000 18.25600 28.75300
C  50.21800 18.72600 29.81100
C  51.48200 19.30200 29.35400
C  51.50900 19.12600 27.95500
C  50.21700 18.43700 27.62900
C  52.47000 19.94400 30.25100
C  52.59000 19.39400 26.99100
O  52.56300 18.93000 25.82500
C  53.68400 20.31500 27.34300
N  47.58200 16.89600 26.76300
C  48.56400 17.44100 25.94700
C  48.11500 17.22500 24.46300
C  47.00600 16.11300 24.57500
C  46.62200 16.24100 26.01100
C  47.66100 18.49800 23.67600
C  47.42800 14.59800 24.26100
C  46.46000 13.76700 23.37800
N  45.82100 16.06800 28.89800
C  45.04100 15.56400 27.87100
C  43.87300 14.97200 28.53200
C  43.91400 15.16700 29.87800
C  45.14700 15.90700 30.10000
C  42.76500 14.07200 27.80000
C  43.34900 15.00700 31.20400
O  42.31400 14.49000 31.50400
C  44.28900 15.65100 32.29000
C  43.54900 16.73100 33.10900
O  43.11800 17.81900 32.78000
O  43.57300 16.30200 34.36700
C  43.35700 17.28800 35.42200
H  50.27000 19.11300 31.90000
H  50.21500 18.47100 25.43900
H  44.78800 15.15500 25.85500
H  46.01100 17.70400 33.75000
H  48.85300 18.36800 33.83400
H  46.71600 19.79000 33.82100
H  47.58200 20.36800 32.24500
H  48.32800 20.52400 33.86400
H  48.48200 15.98400 34.13000
H  47.11400 15.09700 33.61400
H  47.83600 15.50500 36.16600
H  46.10800 15.42700 35.64200
H  53.45000 19.52900 30.01500
H  52.27000 19.65700 31.28300
H  52.37200 21.01200 30.05600
H  54.48300 19.81700 27.89300
H  53.21400 21.14000 27.87900
H  54.16000 20.70900 26.44500
H  48.97900 16.80300 23.94900
H  46.14800 16.39500 23.96500
H  46.68100 18.33400 23.22800
H  48.33700 18.74000 22.85700
H  47.61000 19.36700 24.33200
H  47.42200 14.17800 25.26700
H  48.43100 14.63300 23.83500
H  46.89200 13.60700 22.39000
H  45.49000 14.26200 23.33500
H  46.52400 12.80400 23.88500
H  43.31400 13.48900 27.06100
H  41.90300 14.51400 27.29900
H  42.41200 13.36300 28.54900
H  44.67400 14.83600 32.90200
H  43.72600 16.95000 36.39000
H  42.28800 17.36600 35.62000
H  43.63900 18.31400 35.18600
Mg -10.46400 38.93300 41.11600
C  -8.64300 36.04400 40.38800
C  -8.00500 40.76200 39.42000
C  -12.42700 41.57400 41.00700
C  -13.00000 36.98200 42.45400
N  -8.58200 38.56200 40.04400
C  -8.10800 37.25100 39.84800
C  -7.02100 37.21400 38.76800
C  -6.60000 38.69900 38.74200
C  -7.85300 39.42400 39.34900
C  -5.24200 39.09300 39.47900
C  -7.47300 36.61900 37.38500
C  -6.71300 35.52000 36.78500
H  -6.13100 35.70400 35.41600
N  -10.19400 40.91000 40.53300
C  -9.13600 41.43600 39.78800
C  -9.33500 42.85200 39.71700
C  -10.59900 43.13500 40.21300
C  -11.15000 41.86600 40.62200
C  -8.32800 43.69700 39.05900
C  -11.16300 44.56900 40.40500
O  -10.54900 45.50400 40.01600
C  -12.42500 44.78100 41.17300
N  -12.44300 39.22500 41.49100
C  -13.00300 40.38600 41.42000
C  -14.46000 40.35000 41.98700
C  -14.78900 38.80100 42.06900
C  -13.31700 38.26300 42.05700
C  -14.52700 41.18600 43.37900
C  -15.42400 38.12000 40.78100
C  -16.49100 37.08000 41.04000
N  -10.77400 36.90800 41.52600
C  -11.81600 36.25400 42.21400
C  -11.40900 34.88000 42.35200
C  -10.22700 34.72500 41.65300
C  -9.86700 36.01300 41.15200
C  -12.15300 33.79700 43.10800
C  -9.18100 33.81500 41.17200
O  -9.08900 32.60200 41.34500
C  -8.19200 34.59700 40.29300
C  -6.80400 34.42500 40.89300
O  -6.02800 33.55200 40.52100
O  -6.55200 35.33900 41.86600
C  -5.15800 35.44600 42.20000
H  -7.16100 41.28600 38.96700
H  -13.13400 42.40500 40.94900
H  -13.82900 36.39500 42.85500
H  -6.24600 36.59500 39.21900
H  -6.52200 39.03200 37.70700
H  -4.50200 38.29300 39.50500
H  -5.40300 39.33600 40.53000
H  -4.65000 39.88000 39.01200
H  -7.25900 37.41500 36.67200
H  -8.55500 36.49200 37.35900
H  -7.30300 34.60400 36.75100
H  -5.94200 35.23800 37.50200
H  -8.16700 44.62700 39.60400
H  -8.62100 43.94500 38.03900
H  -7.33400 43.25300 39.11900
H  -12.41200 45.82200 41.49800
H  -12.41700 44.16000 42.06800
H  -13.32100 44.63000 40.57100
H  -15.14900 40.78800 41.26500
H  -15.17600 38.63900 43.07500
H  -13.54200 41.61900 43.55100
H  -14.77200 40.58300 44.25300
H  -15.26400 41.98100 43.26300
H  -14.59200 37.67800 40.23400
H  -15.85900 38.94200 40.21300
H  -16.84800 37.27500 42.05100
H  -16.16700 36.04000 40.98200
H  -17.25700 37.23100 40.28000
H  -12.71500 33.13100 42.45300
H  -12.88000 34.31100 43.73800
H  -11.41200 33.32200 43.75000
H  -8.15700 34.20300 39.27700
H  -4.99000 36.51300 42.05200
H  -4.54200 34.84100 41.53400
H  -4.98200 35.24100 43.25600

