158

Mg 49.96300 46.55300 43.33200
C  46.73900 46.95900 42.34200
C  50.00800 43.45900 41.73800
C  53.25600 46.53200 43.67700
C  49.96900 49.99100 44.47600
N  48.58700 45.41800 42.09300
C  47.30300 45.77100 41.89600
C  46.54300 44.75900 41.04000
C  47.55100 43.56600 40.94800
C  48.77700 44.14200 41.66900
C  47.02300 42.22400 41.47200
C  45.98100 45.32700 39.67000
C  44.65900 44.74000 39.29700
H  44.61400 43.72200 38.09400
N  51.41300 45.12500 42.94400
C  51.22900 43.97000 42.24400
C  52.49500 43.26700 42.24300
C  53.47100 44.05700 42.94600
C  52.76200 45.29400 43.25700
C  52.65700 41.91200 41.48800
C  54.93900 43.80800 43.14300
O  55.41500 42.77900 42.72800
C  55.88300 44.69000 44.06700
N  51.44700 48.03400 44.03500
C  52.74400 47.75200 44.08800
C  53.51000 49.01600 44.60700
C  52.49600 50.15400 44.66300
C  51.19700 49.40500 44.38800
C  54.11600 48.71300 46.01200
C  52.77700 51.35900 43.66200
C  53.26100 52.64200 44.35200
N  48.61900 48.15600 43.51500
C  48.76500 49.46900 43.96600
C  47.44000 50.11200 43.93600
C  46.61900 49.15600 43.25900
C  47.43700 48.00700 43.03500
C  47.07600 51.38500 44.46600
C  45.29500 48.90800 42.70500
O  44.24800 49.61100 42.73600
C  45.30300 47.43800 42.17000
C  44.27500 46.69800 42.96600
O  44.15700 46.58400 44.19100
O  43.42100 46.05700 42.07100
C  42.57700 44.97100 42.54500
H  50.07900 42.51600 41.19300
H  54.34000 46.59800 43.78600
H  49.89900 51.05800 44.69900
H  45.65300 44.39800 41.55400
H  47.71600 43.40200 39.88300
H  46.06100 42.33300 41.97300
H  47.77300 41.74400 42.10100
H  46.89200 41.48700 40.68000
H  46.74500 45.10800 38.92400
H  45.99000 46.41700 39.69400
H  43.93800 45.55100 39.19400
H  44.21400 44.13300 40.08500
H  53.11700 42.12100 40.52200
H  51.72300 41.35100 41.46100
H  53.37700 41.27300 42.00000
H  56.50400 43.92800 44.53900
H  55.28500 45.14400 44.85800
H  56.48200 45.34900 43.44000
H  54.35000 49.21000 43.94000
H  52.45400 50.56500 45.67200
H  54.44100 49.59500 46.56500
H  54.94100 48.04000 45.77700
H  53.30700 48.23700 46.56500
H  51.80900 51.60900 43.22800
H  53.44800 51.03000 42.86800
H  54.34200 52.77900 44.32200
H  52.98000 52.54200 45.40000
H  52.82900 53.55400 43.94000
H  47.44200 52.21500 43.86100
H  47.39600 51.51800 45.49900
H  46.00000 51.53200 44.37600
H  45.00500 47.47900 41.12200
H  42.13700 45.08500 43.53600
H  43.14200 44.03900 42.54300
H  41.75000 44.83700 41.84700
Mg -10.38400 17.83500 40.85200
C  -6.90600 17.20000 40.86700
C  -9.68200 21.17800 40.11100
C  -13.60900 18.34800 40.25700
C  -10.98600 14.42200 41.40300
N  -8.49600 18.97000 40.32500
C  -7.23000 18.54100 40.45600
C  -6.25200 19.73000 40.15800
C  -7.16200 21.00200 40.35500
C  -8.53800 20.34700 40.25600
C  -6.96900 21.71000 41.74900
C  -5.81900 19.60400 38.67300
C  -4.29800 19.49400 38.48300
H  -3.80200 18.10800 37.96200
N  -11.49900 19.56900 40.28400
C  -11.04000 20.78100 39.91200
C  -12.06300 21.64900 39.48800
C  -13.29900 20.83900 39.67900
C  -12.84100 19.49700 40.12900
C  -11.87700 23.02400 39.01100
C  -14.70800 21.29600 39.28600
O  -14.93200 22.40900 38.92600
C  -15.91200 20.32600 39.40400
N  -11.95600 16.50800 40.71600
C  -13.25900 17.05600 40.58700
C  -14.32700 15.88200 40.49200
C  -13.45900 14.62200 40.78500
C  -12.08500 15.23400 41.04500
C  -15.69600 16.21200 41.16900
C  -13.46000 13.65700 39.57400
C  -14.34300 12.41900 39.74500
N  -9.19900 16.12400 41.06600
C  -9.63700 14.81600 41.34300
C  -8.41500 13.97100 41.45100
C  -7.35600 14.91100 41.38200
C  -7.84100 16.17700 41.08400
C  -8.43700 12.56200 41.85000
C  -5.90100 15.02400 41.44700
O  -4.95500 14.23100 41.68000
C  -5.55300 16.51200 41.07500
C  -4.81800 17.13700 42.21700
O  -5.38600 17.76900 43.10900
O  -3.44300 17.05600 42.05600
C  -2.62700 17.84100 43.00700
H  -9.52600 22.25900 40.10700
H  -14.67200 18.29000 40.01700
H  -11.13800 13.34900 41.54000
H  -5.42700 19.63800 40.86400
H  -7.11400 21.69400 39.51400
H  -6.08900 21.29000 42.23600
H  -7.80700 21.60100 42.43700
H  -6.90400 22.76300 41.47500
H  -6.06200 20.51300 38.12200
H  -6.29200 18.75400 38.18200
H  -3.77400 19.57800 39.43500
H  -3.88300 20.26100 37.82900
H  -11.00900 23.11500 38.35800
H  -11.72000 23.62700 39.90600
H  -12.67200 23.51500 38.44900
H  -15.81500 19.60500 38.59200
H  -16.86500 20.85500 39.39800
H  -15.97100 19.73100 40.31600
H  -14.54900 15.92900 39.42600
H  -13.93400 14.21300 41.67700
H  -16.47000 16.28800 40.40400
H  -15.61100 17.16700 41.68700
H  -15.87400 15.44500 41.92300
H  -12.45300 13.25900 39.45100
H  -13.78000 14.18600 38.67600
H  -13.80300 11.47500 39.81100
H  -14.94000 12.39800 38.83300
H  -14.94100 12.47800 40.65500
H  -7.52600 12.27800 42.37600
H  -8.70200 11.94500 40.99100
H  -9.28100 12.56400 42.54000
H  -4.95400 16.49600 40.16400
H  -1.66000 17.34400 43.08400
H  -3.03000 17.86300 44.01900
H  -2.39600 18.86800 42.72300

