158

Mg 0.40500 7.09400 26.31300
C  1.13600 8.99000 29.05100
C  0.57000 4.28400 28.26000
C  -0.28200 5.25800 23.53100
C  0.72900 9.89800 24.30300
N  0.91200 6.71000 28.42100
C  0.91100 7.60400 29.36200
C  0.67400 7.09700 30.72200
C  0.82000 5.62000 30.49100
C  0.77300 5.46900 28.99500
C  2.16900 5.07500 31.05200
C  -0.62500 7.60200 31.38000
C  -0.63200 8.15800 32.80700
H  0.50800 7.65900 33.71100
N  0.08300 5.06300 25.93500
C  0.13900 4.12100 26.89100
C  -0.29200 2.85800 26.35000
C  -0.53000 3.10700 24.99500
C  -0.23100 4.52100 24.77500
C  -0.40200 1.61000 27.08500
C  -1.06500 2.13500 24.00600
O  -1.13600 2.40600 22.81700
C  -1.42100 0.66100 24.33600
N  0.38000 7.41600 24.19400
C  0.01900 6.53600 23.25700
C  -0.15000 7.18900 21.80500
C  -0.04500 8.68900 22.15600
C  0.40600 8.69000 23.62100
C  0.88500 6.61400 20.79500
C  -1.44700 9.46300 22.06100
C  -1.49000 10.86200 21.50300
N  0.94800 9.09700 26.61800
C  0.96200 10.09000 25.69100
C  1.34200 11.25500 26.33900
C  1.43900 10.92900 27.71400
C  1.14700 9.54000 27.78800
C  1.57500 12.61400 25.67100
C  1.77700 11.47700 29.00300
O  2.24500 12.58700 29.27900
C  1.30600 10.24500 29.97300
C  2.29300 10.13000 31.04000
O  3.25100 9.36100 31.09100
O  1.87200 11.02100 32.00400
C  2.72500 11.09100 33.21900
H  0.63800 3.37400 28.85900
H  -0.81200 4.71500 22.74500
H  0.77700 10.73000 23.59700
H  1.55900 7.44900 31.25100
H  -0.02000 5.06600 30.91100
H  1.93700 4.36900 31.84900
H  2.88700 5.79000 31.45400
H  2.72600 4.62900 30.22800
H  -1.42400 6.87700 31.22800
H  -0.86400 8.42200 30.70200
H  -1.62700 7.97900 33.21500
H  -0.60800 9.24600 32.74300
H  -0.20500 1.76200 28.14700
H  0.24700 0.86200 26.63100
H  -1.42900 1.24600 27.12300
H  -2.19100 0.43200 25.07300
H  -0.49700 0.08500 24.36800
H  -1.88600 0.26700 23.43200
H  -1.14500 6.85700 21.50900
H  0.76400 9.13900 21.58000
H  1.59900 7.41400 20.60300
H  0.28000 6.42600 19.90700
H  1.36200 5.72100 21.20000
H  -1.91400 9.44400 23.04500
H  -2.19300 8.86400 21.53800
H  -2.53600 11.15400 21.41000
H  -0.96800 10.91400 20.54800
H  -1.02900 11.45100 22.29700
H  2.05600 13.36600 26.29600
H  0.63600 12.91000 25.20200
H  2.20600 12.40400 24.80800
H  0.35100 10.62200 30.33800
H  3.57600 10.41100 33.22300
H  2.02200 10.59000 33.88500
H  3.12900 12.05500 33.53100
Mg 26.45900 50.16700 26.55400
C  24.35100 51.02900 29.15300
C  29.04200 49.46400 28.79000
C  28.81200 50.00100 23.98700
C  24.17400 51.52100 24.21800
N  26.62100 50.17100 28.72200
C  25.55700 50.43900 29.61400
C  26.06600 50.37100 31.13900
C  27.53400 49.83100 30.90100
C  27.78900 49.84200 29.38200
C  28.65000 50.54600 31.67900
C  25.19500 49.45700 32.10900
C  24.88600 50.14000 33.52000
H  24.88100 49.16200 34.76700
N  28.63000 49.76200 26.42200
C  29.42300 49.44200 27.47100
C  30.71000 49.05600 27.02800
C  30.74600 49.32500 25.62000
C  29.39500 49.74900 25.25600
C  31.88000 48.52700 27.88900
C  31.86800 49.16700 24.55500
O  31.70800 49.31400 23.35800
C  33.17100 48.52300 24.90200
N  26.43400 50.55200 24.47200
C  27.50400 50.34300 23.56600
C  27.10300 50.63500 22.11600
C  25.59400 51.02400 22.23200
C  25.36700 51.00700 23.77500
C  28.06200 51.72100 21.55800
C  24.56500 50.05500 21.54600
C  23.63900 50.65200 20.48000
N  24.63700 51.05600 26.60700
C  23.84400 51.56600 25.58700
C  22.67400 52.21100 26.16500
C  22.88400 52.10100 27.60400
C  24.01200 51.33400 27.77000
C  21.61600 53.02800 25.50400
C  22.25600 52.33100 28.94400
O  21.20500 52.89500 29.15300
C  23.27400 51.65700 29.92600
C  23.69100 52.76800 30.82800
O  24.52700 53.58300 30.53000
O  22.90100 52.82300 31.96200
C  23.27200 53.73600 33.01000
H  29.81900 49.18200 29.50300
H  29.48300 49.95300 23.12700
H  23.53800 52.00900 23.47700
H  26.10900 51.37700 31.55600
H  27.71700 48.78400 31.14100
H  29.15400 49.80200 32.29600
H  28.25600 51.37500 32.26700
H  29.46600 51.00700 31.12300
H  25.81300 48.59100 32.34600
H  24.21900 49.35200 31.63500
H  23.97600 50.73400 33.44100
H  25.61200 50.94700 33.61200
H  31.57600 48.47600 28.93400
H  32.67400 49.25500 27.71700
H  32.14200 47.54600 27.49200
H  32.88900 47.48800 25.09700
H  33.59000 48.98100 25.79800
H  33.80900 48.58400 24.02100
H  27.20100 49.78900 21.43600
H  25.47200 52.06200 21.92200
H  28.91600 51.90700 22.21100
H  27.56800 52.68100 21.41000
H  28.49900 51.39700 20.61300
H  23.97500 49.53600 22.30100
H  25.19300 49.26400 21.13700
H  23.78800 50.05100 19.58300
H  23.80700 51.67300 20.13600
H  22.60900 50.41100 20.74000
H  20.77000 52.92000 26.18300
H  21.28700 52.59100 24.56100
H  21.97300 54.05200 25.39100
H  22.77500 50.85800 30.47400
H  23.64100 54.70900 32.68700
H  24.09700 53.21500 33.49800
H  22.63500 53.86700 33.88500

