158

Mg -3.13500 16.94200 26.85400
C  -3.79800 14.73300 29.38400
C  -3.65700 19.59300 29.07200
C  -2.76900 19.22000 24.36300
C  -3.19200 14.40400 24.51600
N  -3.67800 17.09400 28.94900
C  -3.79600 16.05500 29.79300
C  -3.92600 16.56300 31.29100
C  -4.01300 18.14400 31.14100
C  -3.72000 18.34800 29.60500
C  -5.41400 18.75600 31.57900
C  -2.65300 16.16600 32.15000
C  -2.07400 17.01100 33.29400
H  -1.57600 16.19100 34.49000
N  -3.02700 19.06100 26.73600
C  -3.29900 19.94600 27.78700
C  -3.09300 21.32300 27.30500
C  -2.55700 21.21200 26.00400
C  -2.78500 19.78100 25.60600
C  -3.27000 22.51700 28.23400
C  -1.99300 22.26400 25.04300
O  -1.73900 22.06400 23.88200
C  -1.69600 23.57100 25.63900
N  -3.01100 16.75500 24.73400
C  -2.78200 17.86500 23.94000
C  -2.76900 17.47700 22.46100
C  -2.73500 15.91300 22.54900
C  -2.95200 15.63000 24.02200
C  -3.89900 18.15100 21.68300
C  -1.44700 15.14300 22.12100
C  -0.19600 15.54700 22.91700
N  -3.52100 15.02500 26.87300
C  -3.54400 14.08300 25.87000
C  -3.88800 12.80300 26.41500
C  -4.00300 13.00500 27.83100
C  -3.79000 14.38900 28.02500
C  -4.17700 11.56100 25.70000
C  -4.08200 12.29800 29.08200
O  -4.10200 11.12100 29.31800
C  -3.98600 13.45300 30.17700
C  -2.82200 13.09500 31.01400
O  -1.61700 13.11200 30.78900
O  -3.37700 12.52500 32.15100
C  -2.42100 11.94300 33.10400
H  -3.78000 20.39800 29.79900
H  -2.56800 19.86600 23.50600
H  -3.29200 13.56000 23.83100
H  -4.78000 16.01100 31.68400
H  -3.30600 18.75300 31.70300
H  -5.40900 19.64600 32.20900
H  -6.15000 17.99200 31.83000
H  -5.91600 19.26000 30.75200
H  -1.75000 16.02400 31.55500
H  -2.99700 15.22200 32.57300
H  -2.77400 17.77200 33.64000
H  -1.18200 17.51800 32.92600
H  -2.35400 22.70600 28.79400
H  -4.07700 22.41000 28.96000
H  -3.49300 23.38800 27.61700
H  -1.22400 23.35500 26.59800
H  -2.53300 24.26400 25.72200
H  -1.02800 24.21300 25.06500
H  -1.83600 17.90500 22.09400
H  -3.63400 15.56100 22.04200
H  -4.11800 19.10200 22.16800
H  -4.73800 17.46300 21.78500
H  -3.54900 18.22900 20.65400
H  -1.28200 15.38200 21.07100
H  -1.72200 14.08900 22.12000
H  0.38100 16.35400 22.46400
H  0.31800 14.60100 22.75000
H  -0.41000 15.85300 23.94100
H  -3.25900 10.99000 25.55700
H  -4.53400 11.67300 24.67600
H  -4.90300 11.02300 26.30900
H  -4.84400 13.64500 30.82100
H  -1.65800 11.36600 32.58100
H  -2.97500 11.18500 33.65900
H  -1.92700 12.59500 33.82300
Mg -11.77400 38.40000 42.27900
C  -9.57400 35.93300 41.05400
C  -9.85700 40.72100 40.53200
C  -14.27700 40.54300 42.58200
C  -13.98400 35.79600 43.47400
N  -10.05600 38.27300 40.81500
C  -9.19600 37.19100 40.61700
C  -7.84900 37.53300 39.92200
C  -8.02200 39.04400 39.74400
C  -9.41300 39.39100 40.35800
C  -6.89100 39.89300 40.30500
C  -7.63400 36.82300 38.55500
C  -6.31600 36.03800 38.35900
H  -5.47100 36.31600 37.11300
N  -11.94800 40.41300 41.79000
C  -11.04500 41.14200 41.09400
C  -11.56600 42.46700 41.00000
C  -12.83300 42.48100 41.54500
C  -13.07000 41.11000 42.04500
C  -10.74200 43.66100 40.42800
C  -13.78500 43.67800 41.54800
O  -13.46000 44.74700 41.05800
C  -15.18200 43.57800 42.06800
N  -13.93500 38.18100 42.97200
C  -14.66600 39.27700 42.99200
C  -16.06700 38.95400 43.54700
C  -15.94000 37.35300 43.84700
C  -14.50900 37.09700 43.45900
C  -16.67600 39.84400 44.72600
C  -16.94500 36.46300 43.11900
C  -18.17400 36.01600 43.86300
N  -11.84100 36.25500 42.23500
C  -12.75300 35.40700 42.82600
C  -12.10800 34.07000 42.83700
C  -10.86400 34.23600 42.20100
C  -10.78200 35.57200 41.79100
C  -12.60900 32.79200 43.44600
C  -9.58400 33.58000 41.83100
O  -9.15500 32.44900 42.13000
C  -8.73000 34.56600 41.00800
C  -7.39500 34.58600 41.63000
O  -6.46700 33.80800 41.32100
O  -7.28000 35.48900 42.68600
C  -6.04700 35.24200 43.53500
H  -9.14200 41.43100 40.11100
H  -15.07500 41.28500 42.64300
H  -14.65200 35.09100 43.97300
H  -7.03900 37.27400 40.60400
H  -8.09600 39.36100 38.70400
H  -7.09500 40.07300 41.36100
H  -6.70700 40.82100 39.76300
H  -5.97300 39.31500 40.19900
H  -7.68300 37.51100 37.71100
H  -8.51000 36.20600 38.35400
H  -6.63400 34.99600 38.32800
H  -5.78500 36.24600 39.28800
H  -10.80000 43.75200 39.34400
H  -9.71700 43.42000 40.70900
H  -11.00600 44.58800 40.93800
H  -15.74200 44.47800 41.81700
H  -15.06700 43.38900 43.13500
H  -15.73600 42.77500 41.58100
H  -16.76000 39.14500 42.72800
H  -16.07100 37.17100 44.91400
H  -15.75300 40.33200 45.04000
H  -17.07700 39.31000 45.58800
H  -17.34200 40.59600 44.30200
H  -16.48000 35.55000 42.74800
H  -17.20200 36.95300 42.17900
H  -18.79800 35.66900 43.03900
H  -18.66800 36.77400 44.47200
H  -17.97200 35.11900 44.44800
H  -12.84100 32.07800 42.65600
H  -13.48800 33.00700 44.05400
H  -11.80500 32.42700 44.08400
H  -8.63600 34.37400 39.93900
H  -6.16400 35.80800 44.45900
H  -5.11500 35.51600 43.04000
H  -6.00000 34.20800 43.87700

