158

Mg 2.34600 -2.34300 45.16700
C  5.65900 -1.62000 44.57900
C  1.43900 -0.21200 42.65300
C  -0.86800 -3.68800 45.37500
C  3.49000 -5.22000 47.04400
N  3.47400 -1.12900 43.71200
C  4.81100 -0.83700 43.77500
C  5.24400 0.19300 42.74800
C  3.84200 0.80400 42.31900
C  2.83600 -0.29700 42.83300
C  3.47400 2.13200 43.08400
C  6.07400 -0.41300 41.59800
C  7.29000 0.39800 41.09200
H  7.48000 0.56500 39.58900
N  0.50500 -1.87700 44.23200
C  0.35400 -1.01400 43.18700
C  -1.11300 -0.85600 42.91700
C  -1.76800 -1.76000 43.83100
C  -0.69700 -2.51600 44.54400
C  -1.59100 0.01700 41.78300
C  -3.21900 -1.87700 43.93000
O  -3.97100 -1.20000 43.26400
C  -3.88100 -2.65700 45.04000
N  1.42800 -4.10700 46.16500
C  0.12900 -4.42200 46.04600
C  -0.19100 -5.77400 46.79200
C  1.15500 -6.19800 47.33600
C  2.08900 -5.10300 46.88900
C  -1.36600 -5.72300 47.87500
C  1.50700 -7.64900 46.90000
C  2.62800 -8.44400 47.66900
N  4.20400 -3.20200 45.83600
C  4.52600 -4.35600 46.61800
C  5.95700 -4.41400 46.75600
C  6.40500 -3.28000 46.08700
C  5.29300 -2.64000 45.45500
C  6.68700 -5.49300 47.61600
C  7.58700 -2.54100 45.71000
O  8.76300 -2.75600 46.03100
C  7.13200 -1.42600 44.73200
C  7.44600 -0.14900 45.41300
O  6.88400 0.32700 46.35700
O  8.45300 0.47800 44.71400
C  8.56600 1.91200 45.21100
H  1.27800 0.47400 41.81900
H  -1.82000 -4.21400 45.28200
H  3.78100 -6.16500 47.50700
H  5.81700 0.96700 43.26000
H  3.70400 0.86000 41.23900
H  2.52100 2.09700 43.61300
H  3.37800 2.86800 42.28500
H  4.19800 2.36000 43.86600
H  5.37700 -0.50900 40.76600
H  6.41400 -1.41600 41.85800
H  8.20800 -0.03500 41.49100
H  7.25300 1.35900 41.60400
H  -1.91800 -0.59700 40.94400
H  -0.75400 0.64800 41.48400
H  -2.41200 0.63200 42.15200
H  -3.82400 -3.69700 44.72100
H  -4.92100 -2.33500 45.10900
H  -3.31700 -2.47200 45.95400
H  -0.50800 -6.53700 46.08200
H  1.01000 -6.23000 48.41500
H  -1.83000 -4.74900 47.71900
H  -0.92000 -5.79000 48.86700
H  -2.13900 -6.46800 47.69100
H  1.82200 -7.65500 45.85700
H  0.66000 -8.33300 46.95900
H  2.93900 -7.85800 48.53300
H  3.50000 -8.61300 47.03800
H  2.17300 -9.40100 47.92800
H  7.74700 -5.47400 47.36000
H  6.22900 -6.43200 47.30400
H  6.50700 -5.14900 48.63400
H  7.62000 -1.48700 43.76000
H  9.20900 2.43100 44.50000
H  9.06300 1.93400 46.18100
H  7.64400 2.49200 45.21900
Mg 47.10600 15.90100 28.60200
C  44.80500 15.77300 31.31500
C  49.12600 17.81500 30.74100
C  48.92800 16.71000 25.89700
C  44.53600 14.72000 26.52800
N  46.83700 16.89100 30.71600
C  45.95900 16.49300 31.66500
C  46.38600 16.85600 33.11900
C  47.58700 17.82300 32.75900
C  47.93600 17.46900 31.30100
C  47.36300 19.36500 32.86300
C  46.86400 15.55300 33.83200
C  46.63600 15.59800 35.36000
H  46.37900 16.98100 35.96700
N  48.87100 16.95700 28.38100
C  49.54700 17.72100 29.33500
C  50.77200 18.20700 28.79100
C  50.75900 17.88200 27.38000
C  49.56100 17.05200 27.13500
C  51.69900 19.13600 29.65500
C  51.67500 18.30600 26.28800
O  51.76100 17.76000 25.19900
C  52.80000 19.24400 26.63200
N  46.81200 15.59900 26.47300
C  47.69700 16.15400 25.58500
C  47.12400 15.97200 24.09400
C  45.79000 15.29700 24.30100
C  45.70200 15.09400 25.86600
C  47.04000 17.34300 23.46300
C  45.61900 14.00200 23.51100
C  46.20400 12.69300 23.98400
N  45.20100 15.15700 28.89200
C  44.29900 14.73200 27.91400
C  43.02900 14.39500 28.59800
C  43.21500 14.71500 29.94300
C  44.54500 15.22300 30.10400
C  41.74500 13.94700 28.02500
C  42.54100 14.84400 31.32900
O  41.39500 14.62800 31.65300
C  43.61500 15.49500 32.23200
C  43.06300 16.69500 32.92100
O  42.74700 17.76900 32.43200
O  42.96600 16.27500 34.31100
C  42.43600 17.33000 35.16000
H  49.82200 18.26000 31.45600
H  49.51400 16.96100 25.01000
H  43.67800 14.59500 25.86400
H  45.47700 17.25300 33.57200
H  48.46300 17.62500 33.37600
H  48.16500 19.95000 33.31200
H  46.42700 19.69300 33.31600
H  47.28200 19.75100 31.84700
H  47.94100 15.58200 33.67200
H  46.41000 14.63400 33.46200
H  47.54700 15.24500 35.84200
H  45.83600 14.92600 35.67200
H  52.64100 18.67200 29.94900
H  51.23800 19.25100 30.63600
H  51.95400 20.09900 29.21400
H  53.27900 19.07500 27.59600
H  52.39600 20.24800 26.50700
H  53.57300 18.93200 25.92900
H  47.87500 15.33300 23.62900
H  44.97500 15.99400 24.10800
H  45.99700 17.41000 23.15200
H  47.60900 17.44400 22.53900
H  47.40800 18.12900 24.12200
H  46.17900 14.16400 22.59000
H  44.61500 13.91700 23.09600
H  46.45900 12.01400 23.17100
H  45.42800 12.17100 24.54400
H  47.04300 12.86600 24.65900
H  41.72700 14.11000 26.94700
H  40.93300 14.46700 28.53200
H  41.68600 12.86700 28.15700
H  43.84200 14.65200 32.88500
H  42.92200 18.30200 35.07600
H  42.39100 16.93300 36.17400
H  41.42500 17.44300 34.76900

