158

Mg -1.48300 17.78400 27.24500
C  -1.86900 15.32100 29.72700
C  -2.06500 20.16800 29.48100
C  -1.36900 19.89400 24.67200
C  -1.58300 15.03400 24.73900
N  -1.91200 17.66400 29.41200
C  -1.96500 16.62800 30.26100
C  -2.31400 17.17900 31.65700
C  -2.60900 18.67600 31.40500
C  -2.18700 18.87400 29.96300
C  -4.02500 19.09500 31.74500
C  -1.16900 16.84800 32.69000
C  -1.59000 16.06300 33.94800
H  -0.44200 15.98700 34.99000
N  -1.61400 19.76500 27.04800
C  -1.70100 20.58400 28.16600
C  -1.57200 21.92900 27.73800
C  -1.38200 21.91000 26.38200
C  -1.37400 20.53100 25.97700
C  -1.82200 23.15300 28.62300
C  -1.13200 22.99800 25.38600
O  -1.03300 22.84200 24.18800
C  -1.02000 24.41200 25.85300
N  -1.45100 17.46600 25.05100
C  -1.46600 18.57400 24.25100
C  -1.83300 18.16600 22.78700
C  -1.67500 16.63600 22.80100
C  -1.54500 16.40600 24.28100
C  -3.22900 18.51300 22.31400
C  -0.47600 15.98900 22.03100
C  0.99400 16.28800 22.56100
N  -1.56800 15.64700 27.19000
C  -1.54800 14.72600 26.14100
C  -1.76900 13.38700 26.70400
C  -1.90400 13.58700 28.08900
C  -1.74300 14.98100 28.32100
C  -2.09100 12.20700 25.92200
C  -2.17900 12.90700 29.29400
O  -2.30100 11.68600 29.51100
C  -2.22200 13.98900 30.43200
C  -1.11500 13.58500 31.42000
O  0.04800 13.97100 31.34000
O  -1.55200 12.93000 32.52900
C  -0.62300 12.55000 33.64500
H  -2.15500 21.02000 30.15800
H  -1.52500 20.50300 23.77900
H  -1.66000 14.21000 24.02800
H  -3.20700 16.70700 32.06700
H  -1.99300 19.39900 31.94100
H  -4.55900 18.49000 32.47800
H  -4.52000 19.19900 30.78000
H  -3.96600 20.12100 32.11000
H  -0.79500 17.82900 32.98200
H  -0.37900 16.35400 32.12400
H  -1.82700 15.04400 33.63900
H  -2.40600 16.63500 34.39000
H  -2.67400 23.75700 28.31000
H  -0.89300 23.69800 28.78600
H  -2.18400 22.99600 29.63900
H  -1.93700 24.70100 26.36600
H  -0.86900 25.03000 24.96800
H  -0.29000 24.41000 26.66300
H  -1.12200 18.64900 22.11600
H  -2.56700 16.12700 22.43800
H  -3.59800 18.96200 23.23700
H  -3.85000 17.63400 22.14500
H  -3.22300 19.17100 21.44500
H  -0.57200 16.34100 21.00400
H  -0.53500 14.90100 21.99700
H  1.02500 16.75500 23.54500
H  1.49200 16.92000 21.82500
H  1.60700 15.39900 22.71000
H  -2.22800 11.46700 26.71000
H  -1.34300 11.84700 25.21600
H  -3.05400 12.41700 25.45700
H  -3.22400 13.93200 30.85600
H  -0.01100 11.68700 33.38400
H  -1.14400 12.35800 34.58400
H  0.06500 13.39000 33.73600
Mg -10.31900 16.90100 41.65900
C  -6.90600 16.08200 41.40500
C  -9.65200 20.09200 41.13500
C  -13.61900 17.27500 40.99100
C  -11.01200 13.24200 41.58400
N  -8.44600 17.98100 41.45500
C  -7.19500 17.47600 41.33300
C  -6.20800 18.72500 41.03800
C  -7.15500 19.91200 41.65400
C  -8.50900 19.33700 41.46900
C  -6.96800 20.47500 43.09500
C  -5.99700 18.91000 39.51200
C  -4.52100 18.60600 38.98300
H  -4.38400 17.71900 37.74400
N  -11.46700 18.48100 41.11900
C  -10.98800 19.73500 40.91700
C  -11.99200 20.48600 40.43200
C  -13.23100 19.73500 40.39900
C  -12.85500 18.41900 40.84900
C  -11.87900 21.92600 40.14700
C  -14.64100 20.23900 40.00900
O  -14.76900 21.47400 39.88000
C  -15.97000 19.37800 39.96000
N  -12.06800 15.40000 41.48300
C  -13.25700 15.90600 41.22100
C  -14.33200 14.83000 41.35800
C  -13.55400 13.47000 41.28800
C  -12.12900 14.01500 41.43900
C  -15.25300 14.93600 42.60500
C  -13.77700 12.61000 40.04800
C  -13.82500 11.10500 40.24300
N  -9.26900 15.07000 41.74400
C  -9.67400 13.73200 41.68200
C  -8.49200 12.90100 41.79500
C  -7.39400 13.78400 41.64900
C  -7.91800 15.07000 41.59400
C  -8.50700 11.40100 42.01800
C  -5.91900 13.78900 41.51600
O  -5.07700 12.93300 41.55100
C  -5.60200 15.39400 41.39500
C  -4.69400 15.66900 42.47500
O  -3.47000 15.44600 42.33600
O  -5.24800 16.35300 43.55200
C  -4.38200 17.02700 44.49900
H  -9.52200 21.17000 41.02100
H  -14.69900 17.43300 40.95200
H  -11.17200 12.17600 41.41100
H  -5.31700 18.63100 41.66000
H  -6.90200 20.74000 40.99200
H  -5.94900 20.36300 43.46500
H  -7.61700 19.93200 43.78200
H  -7.31100 21.50600 43.00600
H  -6.10900 19.95600 39.22800
H  -6.64000 18.32800 38.85200
H  -3.86700 18.25700 39.78200
H  -4.08100 19.56400 38.70700
H  -12.70300 22.49600 40.57700
H  -11.98000 22.00500 39.06500
H  -11.01800 22.50800 40.47700
H  -15.82300 18.76900 39.06700
H  -16.86700 19.96400 39.76200
H  -16.30000 18.92400 40.89400
H  -14.97500 14.87400 40.47900
H  -13.77900 12.87000 42.16900
H  -14.65100 14.76900 43.49800
H  -15.93300 14.08500 42.59100
H  -15.80700 15.84900 42.82500
H  -12.99300 12.77400 39.30900
H  -14.66900 12.89200 39.48800
H  -13.12400 10.60500 39.57400
H  -14.84800 10.77300 40.06600
H  -13.53500 10.77500 41.24000
H  -9.45800 10.93700 42.28000
H  -7.73000 11.10300 42.72100
H  -8.16900 10.98700 41.06800
H  -4.95400 15.50700 40.52600
H  -4.70600 16.78600 45.51100
H  -4.44700 18.09600 44.29400
H  -3.30900 16.83800 44.48500

