158

Mg 1.56200 -0.59400 43.81700
C  4.96700 -0.11200 43.26600
C  0.82200 2.42800 42.15600
C  -1.73500 -1.42100 43.71900
C  2.28900 -3.93500 44.92200
N  2.71400 1.00100 42.89100
C  4.07900 0.95500 42.82200
C  4.63000 2.25500 42.23200
C  3.34200 3.18500 42.16300
C  2.21900 2.19900 42.40400
C  3.42500 4.48300 43.04000
C  5.43300 2.01500 40.86700
C  6.50400 3.07100 40.47100
H  6.63500 3.34200 39.05700
N  -0.22400 0.42800 43.13600
C  -0.35100 1.62200 42.43300
C  -1.70700 1.90800 42.15700
C  -2.45500 0.83300 42.76800
C  -1.47100 -0.14100 43.28600
C  -2.09500 3.21600 41.62400
C  -3.97100 0.78100 42.86400
O  -4.56500 1.75300 42.32500
C  -4.82400 -0.23800 43.55400
N  0.41800 -2.49300 44.24300
C  -0.98100 -2.48200 44.20500
C  -1.54500 -3.88100 44.57800
C  -0.25200 -4.41200 45.33000
C  0.90900 -3.63500 44.83700
C  -2.89200 -3.88100 45.43000
C  -0.15900 -5.96500 45.19300
C  0.01300 -6.75900 46.49500
N  3.29900 -1.75100 44.19900
C  3.41400 -3.07100 44.60100
C  4.87300 -3.30100 44.82900
C  5.56300 -2.13200 44.36000
C  4.52500 -1.26300 43.88800
C  5.45000 -4.54400 45.36600
C  6.75500 -1.51500 44.06900
O  7.87500 -1.85200 44.40000
C  6.53400 -0.20500 43.37900
C  7.12200 0.86200 44.30000
O  6.61100 1.36900 45.32600
O  8.26000 1.40100 43.73400
C  8.95600 2.49500 44.48400
H  0.75800 3.46100 41.80700
H  -2.79100 -1.68100 43.61400
H  2.53600 -4.85600 45.45400
H  5.28200 2.62100 43.02500
H  3.26200 3.57900 41.15000
H  4.43700 4.88700 43.04400
H  3.11700 4.46600 44.08600
H  2.86100 5.27800 42.55100
H  4.68800 1.87900 40.08200
H  5.81700 0.99500 40.85300
H  7.38600 2.89900 41.08800
H  6.03200 3.94900 40.91200
H  -2.59600 3.00900 40.67800
H  -1.32300 3.89100 41.25400
H  -2.82100 3.67800 42.29300
H  -5.83800 0.07400 43.80600
H  -4.51500 -0.33000 44.59600
H  -4.91200 -1.24600 43.15100
H  -1.66700 -4.42900 43.64400
H  -0.24400 -4.16500 46.39200
H  -3.59000 -4.54300 44.91900
H  -3.37000 -2.91100 45.57400
H  -2.70400 -4.34800 46.39700
H  0.70800 -6.20800 44.57900
H  -0.98700 -6.38000 44.61900
H  0.99800 -7.22200 46.54400
H  -0.85300 -7.41600 46.56800
H  0.11500 -6.08900 47.34900
H  5.23900 -5.42700 44.76200
H  5.03800 -4.82000 46.33700
H  6.53600 -4.52100 45.45800
H  7.04000 -0.19400 42.41300
H  8.45700 3.45900 44.38400
H  9.85700 2.79700 43.94900
H  9.17900 2.20900 45.51200
Mg -5.87800 25.83600 26.28300
C  -4.27200 26.99600 29.16200
C  -7.61800 23.60000 28.41700
C  -6.86500 24.01700 23.80100
C  -3.56900 27.42900 24.41200
N  -5.96000 25.39100 28.54800
C  -5.36200 26.11000 29.48900
C  -5.82500 25.67800 30.92500
C  -6.76900 24.44800 30.63000
C  -6.75000 24.43600 29.09200
C  -6.65600 23.13400 31.45000
C  -6.67200 26.81500 31.51100
C  -6.51600 26.99800 32.99900
H  -5.91500 25.90400 33.91600
N  -7.15900 24.08000 26.09800
C  -7.82700 23.39000 27.05900
C  -8.76800 22.48900 26.45200
C  -8.57000 22.56200 25.05300
C  -7.51400 23.61900 24.88900
C  -9.67300 21.60600 27.30400
C  -9.17200 21.77600 23.93600
O  -8.99100 22.12200 22.79100
C  -10.06200 20.51400 24.14300
N  -5.28300 25.80600 24.40100
C  -5.81600 24.92900 23.51100
C  -5.41100 25.13500 22.04400
C  -4.37500 26.35600 22.24900
C  -4.40100 26.58900 23.76900
C  -4.76800 23.83400 21.42900
C  -4.69800 27.65800 21.49200
C  -3.48800 28.52800 21.10900
N  -4.30500 27.08200 26.64300
C  -3.50000 27.73100 25.76700
C  -2.59700 28.63000 26.48200
C  -2.84900 28.27100 27.82700
C  -3.88500 27.38600 27.84200
C  -1.66200 29.63000 25.94500
C  -2.41000 28.60200 29.13000
O  -1.48800 29.22700 29.60900
C  -3.35800 27.75800 30.07500
C  -2.49500 26.88200 31.01400
O  -1.96700 25.81900 30.71000
O  -2.29600 27.48200 32.25300
C  -1.52200 26.54300 33.12400
H  -8.22500 22.92700 29.02600
H  -7.15000 23.52000 22.87200
H  -2.92900 28.05000 23.78300
H  -5.05700 25.23900 31.56200
H  -7.78500 24.78800 30.82900
H  -6.21600 22.43500 30.73900
H  -7.69400 23.01000 31.75800
H  -5.98100 23.12200 32.30600
H  -7.71100 26.70600 31.20000
H  -6.21600 27.71600 31.10100
H  -7.47100 27.33000 33.40600
H  -5.89900 27.88800 33.12500
H  -10.49000 21.18100 26.72000
H  -10.12900 22.17600 28.11400
H  -9.08000 20.81300 27.75900
H  -9.68900 19.98500 25.02000
H  -9.98300 19.83500 23.29400
H  -11.05700 20.94500 24.25400
H  -6.30600 25.42800 21.49500
H  -3.39700 25.97200 21.95800
H  -3.74100 24.07700 21.15500
H  -5.24400 23.47000 20.51800
H  -4.72000 22.99300 22.12000
H  -5.33400 28.40100 21.97200
H  -5.19400 27.31200 20.58400
H  -3.34700 29.33500 21.82800
H  -3.58000 28.82800 20.06500
H  -2.64100 27.85800 21.24800
H  -0.67100 29.66600 26.39700
H  -2.13500 30.59800 26.11000
H  -1.52100 29.60100 24.86500
H  -3.90600 28.42000 30.74500
H  -0.51900 26.41500 32.71700
H  -2.14500 25.65100 33.18800
H  -1.27700 27.09800 34.03000

