158

Mg 46.90700 16.79400 28.37600
C  44.88000 16.25400 31.16600
C  49.06200 18.50800 30.29700
C  48.58000 17.59200 25.58400
C  44.54600 15.08900 26.43900
N  46.94800 17.34800 30.46100
C  46.09600 16.90200 31.45100
C  46.52900 17.43100 32.81200
C  47.83900 18.13400 32.43300
C  47.97500 17.96400 30.99000
C  48.05800 19.57700 32.90100
C  46.71200 16.25200 33.85700
C  46.24800 16.63900 35.25600
H  46.09300 18.14600 35.67900
N  48.56000 17.93100 27.91100
C  49.36500 18.47200 28.91800
C  50.50900 19.14200 28.27000
C  50.40500 18.90900 26.88700
C  49.13000 18.13800 26.71300
C  51.57700 19.92700 29.05800
C  51.19400 19.41100 25.68700
O  50.85200 19.39400 24.49400
C  52.47600 20.17900 25.99500
N  46.49500 16.55500 26.31100
C  47.39600 16.91000 25.36600
C  46.97100 16.30000 23.93700
C  45.50700 15.70300 24.31300
C  45.57700 15.67400 25.81600
C  46.82900 17.38600 22.84700
C  45.31800 14.23700 23.66500
C  46.14800 13.01200 24.23200
N  45.13900 15.76900 28.69700
C  44.23400 15.20800 27.78300
C  43.09400 14.78200 28.56200
C  43.32400 15.10200 29.88600
C  44.52900 15.79600 29.89900
C  41.89400 14.10600 27.97800
C  42.74300 15.13800 31.18800
O  41.62100 14.90900 31.53000
C  43.77200 15.88300 32.11900
C  43.07400 17.03000 32.76000
O  42.91900 18.13800 32.31200
O  42.46400 16.61700 33.91700
C  41.66100 17.64400 34.67400
H  49.83200 18.95800 30.92700
H  49.16100 17.76900 24.67600
H  43.78900 14.57900 25.84000
H  45.73500 18.13800 33.05700
H  48.75300 17.69400 32.83200
H  48.00000 20.22400 32.02600
H  48.98200 19.74100 33.45600
H  47.19200 19.82600 33.51500
H  47.78500 16.08700 33.94500
H  46.38600 15.24800 33.58500
H  46.89400 16.25000 36.04300
H  45.23600 16.25700 35.39000
H  51.61100 20.99800 28.85600
H  52.52300 19.49400 28.73200
H  51.54100 19.84800 30.14500
H  52.23700 21.17900 26.35800
H  52.94500 20.38300 25.03300
H  53.12500 19.52600 26.57800
H  47.67500 15.49500 23.72700
H  44.63200 16.32200 24.11700
H  47.57100 18.16600 23.01600
H  45.84400 17.82900 22.69700
H  47.14300 17.06500 21.85400
H  45.68800 14.33300 22.64500
H  44.27100 13.96600 23.52800
H  46.85300 13.34000 24.99600
H  46.73400 12.70200 23.36700
H  45.50700 12.19300 24.55900
H  41.94200 14.42100 26.93500
H  41.01500 14.55900 28.43600
H  41.86900 13.02300 28.09900
H  44.14700 15.15000 32.83300
H  40.77100 17.90300 34.10100
H  42.19200 18.58600 34.80900
H  41.42700 17.23000 35.65500
Mg 47.38700 25.71300 29.49500
C  48.41100 28.17000 31.97400
C  46.15200 23.74600 31.92800
C  47.29800 23.33500 27.23200
C  49.21200 27.73100 27.19300
N  47.14700 26.08400 31.63500
C  47.66700 27.07800 32.40300
C  47.14900 26.89000 33.81900
C  46.57300 25.41600 33.83600
C  46.55700 25.07300 32.33800
C  47.60100 24.50800 34.59100
C  46.09900 27.96900 34.13700
C  46.15800 28.77400 35.50700
H  46.85900 27.91700 36.65800
N  46.64900 23.76700 29.63100
C  46.19100 23.16000 30.67200
C  45.63500 21.92600 30.32600
C  45.97200 21.76200 28.90700
C  46.69800 22.97800 28.51100
C  44.79300 21.04500 31.27600
C  45.58900 20.62300 27.97500
O  45.86400 20.67900 26.78800
C  44.81300 19.47900 28.39800
N  48.09500 25.58900 27.47900
C  47.78900 24.50300 26.75100
C  48.21800 24.71100 25.26100
C  48.66200 26.20600 25.24600
C  48.60600 26.59600 26.69800
C  49.13400 23.65700 24.66900
C  47.80900 27.05300 24.32500
C  48.57500 27.69100 23.15800
N  48.55400 27.67600 29.48400
C  49.28900 28.25500 28.50700
C  49.89600 29.50000 28.94400
C  49.53100 29.54800 30.34300
C  48.77600 28.37800 30.59900
C  50.74100 30.49000 28.08100
C  49.70500 30.23700 31.53100
O  50.25500 31.27200 31.81800
C  49.05000 29.30900 32.71200
C  50.08900 28.95000 33.67600
O  51.15900 28.44800 33.34000
O  49.72600 29.44400 34.91400
C  50.63200 29.17000 36.03600
H  45.70200 23.20200 32.76000
H  47.19700 22.63300 26.40200
H  49.64100 28.25700 26.33800
H  48.08500 27.01300 34.36400
H  45.59100 25.35100 34.30400
H  48.54300 25.02200 34.78200
H  47.92300 23.73900 33.89000
H  47.24900 23.96000 35.46500
H  45.12500 27.48700 34.06100
H  45.99900 28.77300 33.40700
H  45.19400 29.08200 35.91100
H  46.73200 29.70100 35.51100
H  43.87800 20.69400 30.80000
H  44.49300 21.45500 32.24000
H  45.36400 20.22000 31.70200
H  43.74600 19.69500 28.35600
H  45.09400 19.13800 29.39500
H  44.97900 18.66500 27.69200
H  47.32100 24.58300 24.65500
H  49.67800 26.14600 24.85800
H  49.89000 23.45600 25.42800
H  49.54600 24.09700 23.76100
H  48.45800 22.84400 24.40100
H  47.26500 27.77800 24.93000
H  46.96900 26.55700 23.83900
H  48.05500 27.54500 22.21100
H  49.59400 27.31600 23.06700
H  48.43700 28.76900 23.24700
H  50.99400 30.06800 27.10900
H  51.67100 30.53400 28.64900
H  50.16000 31.40700 27.99100
H  48.26600 29.85700 33.23500
H  51.53800 29.67300 35.69700
H  50.80500 28.09500 36.07900
H  50.26700 29.52800 36.99900

