158

Mg 49.64800 34.45100 26.63200
C  47.42600 33.70900 29.35600
C  50.40900 37.33800 28.14900
C  51.25400 35.23900 23.94600
C  48.28400 31.52500 25.06900
N  48.94300 35.34000 28.60200
C  48.19700 34.83400 29.58600
C  48.14300 35.77900 30.82500
C  48.96600 37.03100 30.29600
C  49.42900 36.55100 28.92700
C  48.21500 38.35900 30.21000
C  48.70900 35.26200 32.22700
C  47.77000 35.37900 33.41600
H  48.18500 36.49100 34.40300
N  50.65400 36.15000 26.08100
C  50.92100 37.21000 26.83900
C  51.74900 38.16100 26.07900
C  52.09600 37.45700 24.84700
C  51.29400 36.22600 24.89700
C  52.26500 39.49200 26.64600
C  53.12700 37.83400 23.69400
O  53.18000 37.11700 22.67600
C  53.98800 39.14700 23.83800
N  49.80200 33.42000 24.85500
C  50.65500 33.97200 23.91900
C  50.65600 33.15500 22.58300
C  49.89300 31.85100 23.04800
C  49.32400 32.23200 24.45000
C  50.10700 33.97100 21.37500
C  50.90500 30.61300 23.27400
C  50.71400 29.35900 22.39300
N  48.21000 32.87000 27.06800
C  47.76400 31.79200 26.35000
C  46.71600 31.07000 27.13800
C  46.49600 31.91100 28.23100
C  47.45700 32.86800 28.21500
C  46.09000 29.78300 26.73100
C  45.72500 31.95000 29.47300
O  44.75900 31.29300 29.81500
C  46.36500 33.09900 30.31600
C  46.79600 32.40000 31.58500
O  47.79200 31.75600 31.78800
O  45.83200 32.71900 32.50300
C  45.89700 31.92800 33.73700
H  50.65500 38.20800 28.76100
H  51.86000 35.37300 23.04700
H  47.91800 30.62800 24.56600
H  47.12100 36.13100 30.96500
H  49.87300 37.11300 30.89500
H  48.80200 39.08600 30.76900
H  47.28500 38.39400 30.77700
H  48.04000 38.67900 29.18300
H  49.60300 35.85000 32.43100
H  49.10800 34.24800 32.19400
H  47.90100 34.44700 33.96400
H  46.72900 35.55000 33.13800
H  53.33900 39.51200 26.82900
H  51.80000 39.73000 27.60300
H  52.03100 40.36900 26.04200
H  53.47200 40.10700 23.84300
H  54.69400 39.05200 23.01400
H  54.42900 38.97600 24.82000
H  51.65700 32.79100 22.35100
H  49.10600 31.52200 22.36900
H  49.21500 33.43600 21.04800
H  50.86300 33.99000 20.59100
H  49.86400 34.99600 21.65600
H  50.75000 30.25600 24.29300
H  51.97100 30.82400 23.19200
H  51.64900 28.91200 22.05600
H  50.15200 29.55700 21.48000
H  50.16700 28.61600 22.97300
H  46.89000 29.04300 26.72500
H  45.52100 29.80300 25.80200
H  45.43900 29.46200 27.54300
H  45.59200 33.82000 30.58100
H  46.60900 31.10800 33.82700
H  44.93000 31.50000 33.99900
H  46.17200 32.65600 34.50100
Mg 28.23500 55.84800 39.98900
C  25.95500 53.33200 39.24600
C  30.69400 53.61900 39.02300
C  30.41900 58.34700 39.84700
C  25.61600 58.03300 40.19200
N  28.31300 53.72400 39.19500
C  27.25600 52.88000 39.03100
C  27.66700 51.46100 38.69500
C  29.24800 51.54100 38.90500
C  29.45200 53.02900 39.12700
C  29.90100 50.74000 40.11700
C  27.19300 51.10700 37.29300
C  27.92500 51.68800 36.11000
H  27.10300 52.33000 34.91200
N  30.29500 55.94500 39.68600
C  31.13300 54.89200 39.37200
C  32.47500 55.31700 39.41700
C  32.45900 56.69100 39.70000
C  31.06100 57.06300 39.71900
C  33.70600 54.41300 39.20600
C  33.60400 57.56000 39.88500
O  34.79000 57.17100 39.71400
C  33.50000 59.09000 40.20600
N  28.05100 57.94300 39.86700
C  29.06700 58.76600 40.03000
C  28.58800 60.24600 40.18400
C  27.06300 60.10900 40.48400
C  26.84600 58.64100 40.07700
C  29.39200 61.15100 41.15000
C  26.17100 61.11300 39.70900
C  25.27300 62.06500 40.53900
N  26.21600 55.77900 39.87900
C  25.28300 56.78100 39.88700
C  23.95100 56.22100 39.86100
C  24.15800 54.88000 39.62700
C  25.58200 54.68300 39.46100
C  22.64200 56.98100 40.22600
C  23.54500 53.58900 39.50100
O  22.36900 53.22000 39.60000
C  24.68100 52.52600 39.23100
C  24.65200 51.50900 40.27300
O  24.13900 50.39500 40.08200
O  25.51500 51.79200 41.34000
C  25.92300 50.68000 42.19000
H  31.49700 52.91400 38.79600
H  31.16500 59.14100 39.92300
H  24.79200 58.70900 40.42700
H  27.16200 50.82800 39.42400
H  29.62300 51.12800 37.96900
H  29.14700 49.95400 40.15100
H  29.80500 51.38500 40.99000
H  30.91100 50.42500 39.85500
H  26.11700 51.13000 37.12200
H  27.49300 50.06300 37.21400
H  28.55600 50.86500 35.77400
H  28.57200 52.51300 36.40600
H  33.90700 54.39600 38.13500
H  33.41900 53.45600 39.64300
H  34.47400 54.78500 39.88400
H  32.81000 59.36500 41.00300
H  33.24900 59.69000 39.33100
H  34.50600 59.37700 40.51500
H  28.66300 60.60600 39.15800
H  26.98100 60.20400 41.56700
H  30.27000 60.64600 41.55300
H  28.81300 61.55700 41.98000
H  29.71700 62.04400 40.61600
H  25.55300 60.58200 38.98400
H  26.86200 61.65100 39.06000
H  25.93100 62.74800 41.07700
H  24.64800 61.52700 41.25100
H  24.68700 62.62500 39.81000
H  22.33000 57.59600 39.38200
H  22.91700 57.59000 41.08700
H  21.84100 56.30000 40.51500
H  24.46100 52.15800 38.22900
H  27.00400 50.67700 42.32400
H  25.73600 49.65900 41.86000
H  25.48900 50.69800 43.19000

