158

Mg 42.36500 42.20200 26.31700
C  41.54300 44.46300 28.89300
C  43.46900 39.96900 28.71900
C  43.64400 40.30400 23.77500
C  41.91500 44.83900 24.04200
N  42.64500 42.27800 28.56800
C  42.06700 43.24700 29.36900
C  42.06400 42.75200 30.83500
C  42.86500 41.40100 30.77800
C  42.92600 41.13400 29.26300
C  44.21900 41.41700 31.58400
C  40.59000 42.65100 31.23400
C  40.23600 42.77600 32.73000
H  41.18500 43.12400 33.88300
N  43.26400 40.26200 26.25800
C  43.69600 39.55400 27.36100
C  44.20200 38.29700 26.86700
C  44.08300 38.22700 25.40400
C  43.60900 39.64700 25.06200
C  44.75400 37.22800 27.79700
C  44.38200 37.18100 24.43000
O  44.04200 37.23800 23.24700
C  45.08000 35.90900 24.90000
N  42.93400 42.57600 24.28100
C  43.34700 41.57300 23.42000
C  43.23700 41.96400 21.95800
C  42.41500 43.30000 22.02400
C  42.43900 43.68500 23.49200
C  44.59000 41.92900 21.13700
C  41.02500 43.19600 21.45700
C  40.02600 42.31500 22.28400
N  41.85800 44.23600 26.35500
C  41.76500 45.20900 25.36800
C  41.23200 46.48700 25.92900
C  41.08700 46.18100 27.24400
C  41.52700 44.86600 27.47900
C  40.87300 47.64100 25.05700
C  40.68000 46.71600 28.51400
O  40.17400 47.79800 28.76600
C  41.01700 45.61500 29.61000
C  41.89000 46.12300 30.72900
O  42.97600 46.63600 30.54200
O  41.40600 45.86800 32.05400
C  42.20700 46.46600 33.11800
H  43.68100 39.20000 29.46500
H  43.90800 39.60800 22.97600
H  41.85100 45.50200 23.17600
H  42.58800 43.42200 31.51600
H  42.22700 40.57500 31.09400
H  44.92700 40.68400 31.19500
H  44.01200 41.12600 32.61400
H  44.64000 42.42000 31.64700
H  40.34400 41.60000 31.08200
H  39.97900 43.32800 30.63700
H  39.62900 41.90200 32.96400
H  39.61300 43.67000 32.68100
H  45.74900 36.86900 27.53600
H  44.17600 36.30400 27.79600
H  44.93000 37.61900 28.80000
H  44.45800 35.34100 25.59200
H  45.97500 36.14300 25.47700
H  45.42500 35.31100 24.05600
H  42.63700 41.20300 21.46100
H  42.98000 44.12200 21.58600
H  45.39200 41.46100 21.70700
H  44.95800 42.90500 20.82200
H  44.47500 41.30400 20.25100
H  41.03900 42.78700 20.44700
H  40.53500 44.16400 21.35400
H  39.52600 42.98700 22.98200
H  40.54500 41.55900 22.87200
H  39.27500 41.79000 21.69400
H  40.38400 48.36700 25.70700
H  40.26100 47.30300 24.22100
H  41.81900 48.11800 24.80000
H  40.06900 45.44500 30.12000
H  42.48200 47.47700 32.81900
H  43.12500 45.95600 33.41000
H  41.63900 46.48000 34.04800
Mg 26.86000 50.43500 26.74600
C  24.76700 51.37900 29.32300
C  29.24100 49.80700 29.13700
C  29.01900 49.45700 24.23100
C  24.61800 51.38200 24.42500
N  26.96900 50.48900 28.94500
C  25.97800 50.96200 29.81300
C  26.42800 50.83600 31.27500
C  27.90000 50.59900 31.12200
C  28.07400 50.32100 29.62600
C  28.85100 51.79900 31.58000
C  25.60200 49.71000 32.10600
C  24.87400 50.24700 33.30900
H  24.78500 49.37900 34.54600
N  28.80800 49.66000 26.64300
C  29.64900 49.51900 27.76300
C  31.00000 49.04700 27.34700
C  30.90900 49.09600 25.90200
C  29.56000 49.37800 25.53700
C  31.97300 48.60100 28.34900
C  32.08000 48.95800 24.89600
O  32.01400 49.10300 23.67400
C  33.40600 48.74300 25.48400
N  26.82900 50.18200 24.62000
C  27.80300 49.83000 23.78700
C  27.26200 49.81200 22.31300
C  25.80100 50.37300 22.45000
C  25.72900 50.71700 23.93100
C  28.05900 50.50600 21.25600
C  24.65500 49.36300 21.96500
C  23.80300 49.80700 20.75900
N  25.09000 51.25300 26.82800
C  24.27000 51.61800 25.77400
C  23.14600 52.34100 26.38100
C  23.18700 52.18100 27.75000
C  24.43300 51.51300 27.93000
C  22.00400 53.01900 25.52300
C  22.52400 52.48200 29.04800
O  21.43900 53.05600 29.21500
C  23.58500 51.91200 30.13300
C  23.93800 53.13500 30.86000
O  24.65800 54.04600 30.45700
O  23.31800 53.03900 32.09600
C  23.76600 53.96700 33.16200
H  29.91100 49.59400 29.97300
H  29.66300 48.98600 23.48600
H  23.83900 51.58200 23.68700
H  26.23300 51.82000 31.70100
H  28.13900 49.79600 31.81900
H  29.28700 51.59800 32.55800
H  28.34600 52.75800 31.70200
H  29.67800 51.93000 30.88300
H  26.18800 48.88500 32.50900
H  24.87400 49.32300 31.39200
H  23.85800 50.44400 32.96500
H  25.32300 51.16900 33.67700
H  32.93300 49.11100 28.28300
H  32.21500 47.53800 28.34500
H  31.65600 48.82500 29.36800
H  33.84200 49.57000 26.04500
H  34.02600 48.45000 24.63700
H  33.30900 47.86300 26.12000
H  27.30300 48.75400 22.05200
H  25.62000 51.32100 21.94500
H  28.93900 50.92500 21.74500
H  27.50100 51.36800 20.89100
H  28.31200 49.83200 20.43700
H  24.10700 49.11900 22.87600
H  25.05700 48.42200 21.58900
H  24.04600 50.85300 20.57000
H  22.73700 49.80000 20.98500
H  24.06300 49.19700 19.89400
H  22.20200 52.79500 24.47500
H  22.06400 54.05300 25.86200
H  21.00700 52.66900 25.79200
H  23.05600 51.21500 30.78300
H  24.69700 53.69600 33.65900
H  23.03000 54.30100 33.89300
H  24.01300 54.97800 32.83800

