158

Mg 45.31400 3.35900 48.49700
C  43.06300 5.98700 47.54500
C  42.63500 1.17000 47.67500
C  47.43100 0.83800 48.35100
C  47.89000 5.66200 47.98700
N  43.08500 3.59000 47.76900
C  42.41100 4.75000 47.45900
C  40.97500 4.51000 47.04800
C  40.91100 2.94300 47.15800
C  42.25400 2.50500 47.56300
C  39.64000 2.47100 48.01000
C  40.65500 4.98800 45.61400
C  39.45800 5.89200 45.54500
H  38.78600 5.86900 44.16800
N  45.06000 1.21500 48.21400
C  43.88800 0.60800 47.90800
C  44.10900 -0.82900 47.92400
C  45.52600 -1.02200 48.05000
C  46.09800 0.36100 48.12800
C  42.96600 -1.79800 47.69800
C  46.22400 -2.42400 48.05800
O  45.60700 -3.45500 48.03300
C  47.74900 -2.47300 48.17300
N  47.36900 3.27100 48.16200
C  48.02100 2.08100 48.38900
C  49.51200 2.25500 48.55700
C  49.70700 3.80300 48.36300
C  48.26500 4.27000 48.12100
C  50.20300 1.65800 49.83600
C  50.64700 4.21700 47.24100
C  52.00400 4.93500 47.57900
N  45.47500 5.44600 48.04300
C  46.58600 6.30100 47.86900
C  46.12900 7.65900 47.72300
C  44.73300 7.59900 47.65600
C  44.41300 6.20500 47.79900
C  47.08100 8.87300 47.53700
C  43.50800 8.34000 47.54900
O  43.41800 9.55500 47.51400
C  42.34300 7.35600 47.45700
C  41.43600 7.66400 48.69400
O  41.73200 7.43200 49.87700
O  40.28100 8.34900 48.30700
C  39.42900 8.74200 49.38900
H  41.90200 0.41300 47.38800
H  48.15100 0.03400 48.51700
H  48.79100 6.27800 47.95000
H  40.39500 4.93500 47.86700
H  40.73200 2.59400 46.14100
H  38.86700 3.23600 48.08500
H  40.00700 2.18700 48.99600
H  39.24600 1.55500 47.56800
H  40.43700 4.19700 44.89700
H  41.47100 5.54900 45.15800
H  39.84300 6.91100 45.55400
H  38.76700 5.75500 46.37700
H  43.25900 -2.84800 47.70400
H  42.48100 -1.68500 46.72900
H  42.11300 -1.69100 48.36800
H  48.16200 -1.91800 47.33000
H  48.00200 -3.53200 48.12700
H  48.09900 -2.01100 49.09600
H  49.92800 1.70600 47.71100
H  50.20000 4.21600 49.24300
H  50.85200 0.83900 49.52400
H  49.36100 1.42500 50.48800
H  50.81900 2.40100 50.34100
H  50.05900 4.99400 46.75300
H  50.85400 3.42400 46.52200
H  52.04400 5.90900 47.09200
H  52.87800 4.37600 47.24500
H  52.26900 5.03000 48.63200
H  47.55400 9.13100 48.48400
H  46.57400 9.68000 47.00800
H  47.95400 8.64100 46.92700
H  41.75600 7.50400 46.55000
H  38.90900 9.62400 49.01500
H  39.97300 9.03600 50.28700
H  38.78800 7.91100 49.68500
Mg 41.59000 8.93100 29.66000
C  43.49100 10.09800 32.18200
C  39.46200 7.30500 31.94800
C  39.85700 7.82900 27.04800
C  44.11600 10.15500 27.36000
N  41.38800 8.75300 31.73900
C  42.32200 9.33900 32.58800
C  41.95000 9.12900 34.07900
C  40.82400 8.05800 33.99800
C  40.50900 8.04300 32.48300
C  41.32100 6.64500 34.37700
C  41.45800 10.51800 34.62400
C  40.82400 10.52100 36.12600
H  41.56000 11.31000 37.22900
N  39.90300 7.80200 29.54600
C  39.21600 7.15100 30.57300
C  38.03600 6.44100 30.01000
C  38.01700 6.78300 28.59300
C  39.34100 7.44400 28.33000
C  36.99200 5.66900 30.80500
C  37.04200 6.48700 27.60900
O  37.23100 6.76200 26.41200
C  35.70300 5.90200 27.90900
N  42.13100 8.75100 27.54700
C  41.11000 8.43700 26.73100
C  41.42300 8.62400 25.18200
C  42.81400 9.28000 25.29800
C  43.08400 9.41700 26.85300
C  41.42900 7.33000 24.33000
C  43.12500 10.53900 24.45900
C  42.66200 11.91900 24.84100
N  43.42100 9.96500 29.70500
C  44.27500 10.47100 28.74200
C  45.32400 11.26200 29.35700
C  45.02200 11.22900 30.73700
C  43.95200 10.33500 30.86900
C  46.45400 11.96600 28.62700
C  45.40700 11.69300 32.04600
O  46.26000 12.53100 32.30700
C  44.48100 10.97000 33.04200
C  45.14100 10.10100 34.07600
O  45.88000 9.15200 33.83900
O  44.83300 10.48100 35.39800
C  45.23100 9.58100 36.50000
H  38.84200 6.71200 32.62300
H  39.30300 7.67200 26.12000
H  44.89700 10.53200 26.69700
H  42.82500 8.74400 34.60200
H  39.99400 8.25700 34.67600
H  41.00600 5.89000 33.65700
H  40.71400 6.41600 35.25200
H  42.40000 6.56700 34.50800
H  40.75100 11.01500 33.95900
H  42.34400 11.14000 34.74600
H  40.82300 9.50700 36.52600
H  39.78600 10.85100 36.09100
H  37.18000 5.57400 31.87400
H  36.82900 4.65900 30.42900
H  35.99800 6.11600 30.82300
H  35.11300 6.60300 28.50000
H  35.73900 4.99700 28.51400
H  35.34100 5.65500 26.91100
H  40.75900 9.33900 24.69700
H  43.57800 8.53300 25.08000
H  40.64400 7.31600 23.57400
H  41.14400 6.52600 25.00800
H  42.42800 7.14900 23.93300
H  42.63300 10.36100 23.50200
H  44.21200 10.45500 24.45800
H  43.54000 12.56600 24.83900
H  42.21100 11.91600 25.83300
H  42.00800 12.50000 24.19000
H  47.33300 11.40400 28.31100
H  46.83900 12.78700 29.23200
H  46.17100 12.36800 27.65400
H  43.94000 11.76500 33.55400
H  46.31900 9.64600 36.52100
H  44.96600 8.54800 36.27600
H  44.70600 9.83100 37.42200

