158

Mg 35.94500 49.47800 25.17100
C  36.39200 47.78400 28.30900
C  34.15600 51.79400 26.86600
C  35.20400 50.73600 22.22000
C  37.39400 46.72000 23.58500
N  35.24400 49.66900 27.31300
C  35.73700 48.98600 28.42200
C  35.42100 49.71700 29.70500
C  34.59200 50.97400 29.23600
C  34.67200 50.82000 27.72300
C  33.08600 50.98000 29.83500
C  36.73000 50.10200 30.39900
C  36.80400 49.84600 31.90600
H  35.52300 49.95400 32.78400
N  34.77100 50.96400 24.60700
C  34.11400 51.92400 25.48200
C  33.40300 52.88300 24.73400
C  33.67700 52.57100 23.35700
C  34.60500 51.40200 23.33900
C  32.35800 53.75200 25.32000
C  33.08400 53.14700 22.07600
O  33.43000 52.74000 20.94500
C  32.25000 54.42900 22.09600
N  36.14600 48.72100 23.18300
C  35.91500 49.48800 22.18000
C  36.38500 48.94500 20.82300
C  37.34500 47.78000 21.27000
C  36.89900 47.69300 22.74600
C  35.11800 48.50400 19.98700
C  38.81100 48.10700 20.96500
C  39.61300 47.07100 20.15000
N  36.61200 47.57900 25.74500
C  37.21900 46.60400 24.93500
C  37.70400 45.52800 25.78400
C  37.34500 45.92900 27.12500
C  36.72400 47.23400 27.02300
C  38.32000 44.24100 25.30700
C  37.50700 45.58400 28.52300
O  37.97900 44.61400 29.07600
C  36.87900 46.76000 29.29300
C  35.74200 46.19000 30.18000
O  34.62800 45.92100 29.82400
O  36.17900 46.07500 31.46500
C  35.06300 45.82400 32.39000
H  33.79700 52.63100 27.46900
H  35.01500 51.11800 21.21500
H  37.92200 45.87300 23.14300
H  34.74400 49.09200 30.28700
H  35.00900 51.95800 29.44600
H  32.43600 50.25100 29.35200
H  32.64200 51.97400 29.79000
H  33.12700 50.65000 30.87300
H  37.00400 51.15500 30.34100
H  37.58200 49.54700 30.00700
H  37.43900 50.66000 32.25700
H  37.22700 48.87700 32.17000
H  32.33800 54.73500 24.85100
H  32.59000 53.91300 26.37300
H  31.38100 53.30800 25.13000
H  32.71100 55.21100 22.70000
H  31.23700 54.19500 22.42400
H  32.14000 54.81200 21.08200
H  36.90900 49.62500 20.15200
H  37.09400 46.85800 20.74600
H  34.20600 48.63300 20.57000
H  35.15500 47.48600 19.59800
H  35.12600 49.02900 19.03300
H  39.35900 48.22900 21.90000
H  38.84200 49.12800 20.58300
H  39.06600 46.12800 20.17300
H  40.63600 46.95800 20.50800
H  39.57100 47.41200 19.11600
H  38.67600 44.31300 24.27900
H  37.55000 43.47200 25.35800
H  39.12200 43.95600 25.98800
H  37.55900 47.27300 29.97300
H  34.47300 44.94800 32.12100
H  34.27100 46.56000 32.25200
H  35.27200 45.63200 33.44300
Mg -1.14800 34.25000 27.37100
C  -3.01000 32.20500 29.44700
C  0.16700 35.76000 30.08900
C  0.50500 36.25400 25.25600
C  -2.61600 32.60800 24.52500
N  -1.46000 34.13000 29.50100
C  -2.20000 33.12800 30.11800
C  -2.09200 33.21600 31.63000
C  -1.13600 34.51100 31.83800
C  -0.82800 34.84200 30.40600
C  -1.70500 35.76700 32.58500
C  -1.50100 31.91000 32.32400
C  -2.40300 31.27100 33.36600
H  -1.73500 31.28300 34.77700
N  0.14500 35.82000 27.68100
C  0.60600 36.25900 28.88200
C  1.60200 37.31100 28.61000
C  1.66200 37.56400 27.22400
C  0.76300 36.47300 26.69400
C  2.28800 37.98200 29.76500
C  2.49600 38.48000 26.46100
O  2.47400 38.58500 25.23600
C  3.37900 39.48100 27.20700
N  -1.07600 34.46500 25.21100
C  -0.27800 35.37600 24.58100
C  -0.53600 35.45900 23.03500
C  -1.34200 34.15000 22.79000
C  -1.71200 33.66500 24.24400
C  -1.23600 36.72800 22.63100
C  -0.62900 33.04300 21.97000
C  -1.53000 32.39400 20.91000
N  -2.62500 32.70400 26.99000
C  -3.11400 32.20200 25.83100
C  -4.06000 31.18200 26.20500
C  -3.99500 31.10000 27.63000
C  -3.16400 32.10800 28.06200
C  -4.71600 30.30300 25.28400
C  -4.38900 30.34600 28.79300
O  -5.12300 29.31900 28.86500
C  -3.84400 31.07100 30.02900
C  -5.04800 31.60900 30.82000
O  -5.87200 32.44000 30.40900
O  -5.15100 30.87000 31.96300
C  -6.32000 31.07400 32.85400
H  0.50600 36.08000 31.07600
H  0.96800 37.04700 24.66400
H  -3.15700 32.13100 23.70500
H  -3.04000 33.50100 32.08600
H  -0.22300 34.15100 32.31200
H  -1.89200 36.60700 31.91600
H  -1.03400 36.04900 33.39700
H  -2.62000 35.46900 33.09700
H  -0.52200 32.15200 32.73800
H  -1.30100 31.17800 31.54100
H  -2.40800 30.23800 33.01700
H  -3.40200 31.68500 33.22500
H  1.87700 37.70600 30.73600
H  2.05600 39.04200 29.66500
H  3.37200 37.88000 29.71300
H  3.72800 40.13300 26.40600
H  4.24300 38.96200 27.62200
H  2.75600 40.05900 27.88800
H  0.46400 35.40700 22.60300
H  -2.30600 34.37800 22.33600
H  -0.53700 37.51000 22.92800
H  -2.03600 36.93000 23.34300
H  -1.45300 36.61700 21.56800
H  -0.25700 32.33200 22.70900
H  0.24100 33.41200 21.42700
H  -1.00000 32.53500 19.96800
H  -2.56400 32.73500 20.94700
H  -1.59400 31.30800 20.97900
H  -4.09100 30.33500 24.39100
H  -5.68200 30.61800 24.89000
H  -4.79300 29.32100 25.75100
H  -3.24700 30.37900 30.62200
H  -7.03900 31.84300 32.56900
H  -5.87100 31.52100 33.74100
H  -6.67500 30.10300 33.19800

