158

Mg 47.34200 44.37700 43.13000
C  43.92700 43.58000 43.09300
C  47.95700 41.12400 42.68000
C  50.48100 45.32400 42.65700
C  46.34000 47.86100 42.95200
N  46.12300 42.57800 42.70100
C  44.79500 42.46400 42.80000
C  44.24400 41.06300 42.65100
C  45.55200 40.29100 43.05600
C  46.63900 41.37100 42.72200
C  45.45400 39.64300 44.50000
C  43.62100 40.70200 41.32400
C  43.81400 41.55700 40.06200
H  43.65300 40.89800 38.69500
N  49.09400 43.30200 42.70500
C  49.09700 41.98200 42.56700
C  50.52100 41.63900 42.25900
C  51.27100 42.86700 42.18100
C  50.33600 43.93000 42.43400
C  50.98700 40.17800 41.96900
C  52.75000 42.99800 41.93600
O  53.45600 42.00700 41.96700
C  53.35900 44.35500 41.98100
N  48.25100 46.31700 42.69000
C  49.57700 46.43800 42.79900
C  49.99500 47.93500 42.84500
C  48.70600 48.67100 42.85900
C  47.68400 47.52400 42.89600
C  50.88700 48.40200 44.00500
C  48.49500 49.77500 41.74900
C  48.30200 51.14900 42.41000
N  45.54300 45.55500 43.11700
C  45.31700 46.92100 43.03300
C  43.89900 47.11700 42.81800
C  43.35400 45.83500 43.05500
C  44.37400 44.90800 43.05300
C  43.12200 48.42700 42.48600
C  42.09400 45.16400 43.13600
O  40.99300 45.72800 43.26700
C  42.39100 43.62400 43.04800
C  41.81400 43.10900 44.25200
O  42.19300 43.38300 45.35300
O  40.69200 42.36200 43.99200
C  39.78300 42.04200 45.11400
H  48.18100 40.07800 42.90200
H  51.48300 45.75800 42.63900
H  46.04500 48.90800 42.85500
H  43.43900 40.87800 43.36100
H  45.85000 39.49600 42.37200
H  44.45400 39.49200 44.90600
H  46.08100 40.09500 45.26900
H  45.78500 38.62100 44.31300
H  42.55800 40.52600 41.48500
H  44.08800 39.75700 41.04400
H  44.69900 42.19200 40.11700
H  43.00100 42.28200 40.10100
H  51.19400 40.24400 40.90100
H  50.10700 39.56500 42.16200
H  51.88100 39.88500 42.51800
H  52.82800 44.98000 41.26300
H  54.43500 44.34300 41.80200
H  53.36000 44.74400 43.00000
H  50.44700 48.07500 41.86300
H  48.46100 49.03200 43.85900
H  50.63500 49.27200 44.61100
H  51.92100 48.53700 43.68900
H  50.84400 47.55500 44.69000
H  47.65700 49.54600 41.09100
H  49.31600 49.81900 41.03400
H  48.59800 51.08200 43.45700
H  47.29100 51.52200 42.24700
H  48.93100 51.89400 41.92100
H  42.76900 48.42000 41.45500
H  43.77800 49.29500 42.54700
H  42.28200 48.48600 43.17700
H  41.93700 43.30200 42.11100
H  40.13400 41.09900 45.53400
H  38.74100 42.03100 44.79600
H  39.85000 42.79800 45.89700
Mg 35.99500 49.02500 24.91200
C  36.21200 47.53400 28.07700
C  34.63800 51.85300 26.25000
C  35.47900 50.06900 21.77700
C  36.94100 45.93300 23.49000
N  35.59500 49.57200 26.92700
C  35.77200 48.82300 28.11100
C  35.40200 49.66100 29.30200
C  34.75200 50.97500 28.69800
C  35.01200 50.81500 27.18200
C  33.31200 51.35300 29.01500
C  36.63600 49.87400 30.20200
C  36.39700 49.75700 31.74600
H  35.50800 50.80400 32.42500
N  35.14400 50.71900 24.08600
C  34.68000 51.80300 24.83400
C  34.24100 52.85700 23.91400
C  34.34900 52.27800 22.58000
C  35.03000 50.93600 22.76000
C  33.74700 54.18500 24.35000
C  33.94200 52.82800 21.24800
O  34.09200 52.26400 20.15900
C  33.25600 54.14200 21.25200
N  36.38300 48.20100 22.90000
C  36.05900 48.83500 21.74700
C  36.39300 47.97200 20.49700
C  37.00900 46.71600 21.15700
C  36.79500 46.94200 22.63600
C  35.14500 47.73100 19.58100
C  38.53600 46.54800 20.77200
C  39.58400 47.60400 21.10700
N  36.45200 47.13600 25.57900
C  36.79400 46.00600 24.91300
C  37.01700 44.86800 25.85600
C  36.74100 45.41700 27.06300
C  36.50200 46.77900 26.86600
C  37.56900 43.48600 25.53000
C  36.56100 45.11700 28.41900
O  36.68700 44.07800 29.02300
C  36.28400 46.50300 29.18200
C  34.98900 46.28900 29.74100
O  33.92500 46.24700 29.12100
O  35.09000 45.99200 31.13200
C  33.84100 45.69700 31.84300
H  34.26300 52.74400 26.75800
H  35.33300 50.50900 20.78900
H  37.19000 44.93500 23.12200
H  34.64600 49.16600 29.91200
H  35.39600 51.79900 29.00300
H  33.23900 52.35000 29.44900
H  32.94000 50.63800 29.74800
H  32.72400 51.37200 28.09800
H  37.00700 50.88200 30.01800
H  37.47400 49.22100 29.95800
H  37.30000 49.56000 32.32500
H  35.74000 48.88800 31.77700
H  33.92000 54.32300 25.41700
H  32.72300 54.23900 23.97900
H  34.30300 55.02200 23.92700
H  33.94700 54.89600 21.62800
H  32.34000 54.09600 21.84000
H  32.96700 54.29100 20.21100
H  37.06300 48.61100 19.92300
H  36.30700 45.90600 20.95700
H  34.97000 48.69300 19.09900
H  34.24400 47.58700 20.17700
H  35.27000 46.97100 18.80900
H  38.55000 46.54500 19.68200
H  38.92800 45.60600 21.15600
H  39.09800 48.29400 21.79800
H  39.88700 48.19300 20.24100
H  40.44500 47.24300 21.66900
H  37.98300 43.41800 24.52400
H  36.81500 42.72100 25.71600
H  38.45700 43.30900 26.13700
H  37.00300 46.74300 29.96500
H  32.95500 46.17600 31.42500
H  33.90000 45.93300 32.90600
H  33.69300 44.62200 31.74400

