158

Mg 10.20300 47.51500 26.05000
C  8.17200 47.80000 28.89400
C  12.82000 48.77300 27.84400
C  12.02600 47.22100 23.28000
C  7.29500 46.55900 24.26400
N  10.46500 48.16100 28.09400
C  9.52700 48.12200 29.12200
C  10.18900 48.44400 30.47100
C  11.40000 49.28700 29.95400
C  11.63400 48.79600 28.58200
C  11.17600 50.88800 30.02200
C  10.61400 47.17000 31.26900
C  10.73400 47.28800 32.74500
H  10.46300 46.12700 33.74200
N  12.23500 47.94600 25.59700
C  13.16400 48.44000 26.48900
C  14.50800 48.35900 25.85700
C  14.22100 47.91800 24.51500
C  12.79200 47.65100 24.37100
C  15.71600 48.76500 26.63800
C  15.20100 47.78900 23.31300
O  14.87000 47.60800 22.12300
C  16.73600 47.94500 23.63600
N  9.70600 47.16400 23.94400
C  10.67100 46.97600 23.06200
C  10.01200 46.68700 21.64600
C  8.56200 46.31600 22.01800
C  8.50900 46.66700 23.47500
C  10.08500 47.93600 20.75300
C  8.10800 44.85100 21.70800
C  8.20600 43.67900 22.77900
N  8.09100 47.30000 26.45600
C  7.02300 46.89600 25.59900
C  5.81200 46.97800 26.36700
C  6.21500 47.19200 27.68200
C  7.59600 47.48100 27.69600
C  4.35400 46.58700 26.01900
C  5.77400 47.31900 29.06600
O  4.69600 47.06300 29.61400
C  7.07500 47.65700 29.97000
C  7.23400 46.42300 30.75100
O  7.34000 45.27800 30.30500
O  7.25800 46.76800 32.08900
C  7.20000 45.58400 33.02600
H  13.59900 49.18900 28.48600
H  12.48500 47.16500 22.29100
H  6.41000 46.30000 23.68000
H  9.43900 49.04700 30.98400
H  12.37800 49.19100 30.42400
H  12.12600 51.32300 30.33300
H  10.47900 51.14100 30.82100
H  10.85200 51.28600 29.06100
H  11.63000 46.93400 30.95500
H  9.98100 46.29200 31.13900
H  10.18500 48.08200 33.25100
H  11.75300 47.65000 32.88200
H  15.51200 48.53200 27.68300
H  16.01000 49.80300 26.48400
H  16.50500 48.06500 26.36400
H  16.91200 47.32700 24.51600
H  16.84300 48.93200 24.08600
H  17.34900 47.77200 22.75100
H  10.65100 45.87000 21.30900
H  7.80200 46.92700 21.53100
H  9.10300 48.13500 20.32300
H  10.83200 47.80400 19.97000
H  10.24900 48.89500 21.24400
H  8.66000 44.47500 20.84700
H  7.06500 44.89100 21.39400
H  8.38500 43.82700 23.84400
H  8.94400 42.90200 22.57800
H  7.26800 43.14500 22.63000
H  4.38100 45.60100 25.55400
H  4.02400 47.32900 25.29200
H  3.67200 46.61100 26.86800
H  6.89500 48.53500 30.59100
H  6.46700 44.80900 32.80600
H  6.99700 45.98900 34.01700
H  8.12200 45.00400 33.07100
Mg -1.95600 33.80900 26.96300
C  -3.76500 32.06200 29.45500
C  -0.73300 35.90000 29.31700
C  -0.67500 35.54700 24.47100
C  -3.93700 31.97800 24.62000
N  -2.42000 34.12600 29.17400
C  -2.90100 33.11400 29.92300
C  -2.70500 33.45000 31.43500
C  -1.98900 34.79700 31.39200
C  -1.65600 34.95700 29.88200
C  -2.82700 35.92100 31.97900
C  -1.87000 32.28400 32.18300
C  -2.52600 31.89500 33.60600
H  -1.49700 31.95200 34.77700
N  -0.76400 35.37100 26.92700
C  -0.31700 36.07400 27.96200
C  0.69500 37.02100 27.49700
C  0.69200 36.97300 26.10100
C  -0.27400 35.87800 25.75500
C  1.46600 37.91200 28.48600
C  1.47100 37.78600 25.09100
O  1.47800 37.51800 23.92700
C  2.29700 39.04000 25.52300
N  -2.25000 33.72600 24.80100
C  -1.56200 34.52300 23.99500
C  -2.13600 34.44200 22.57100
C  -2.99800 33.13500 22.62200
C  -3.09700 32.89100 24.10500
C  -2.96600 35.66900 22.13700
C  -2.30000 31.99300 21.79800
C  -1.27200 31.04900 22.50200
N  -3.49400 32.36600 26.97600
C  -4.09600 31.64400 25.95900
C  -4.87700 30.53600 26.46600
C  -4.77200 30.63600 27.90800
C  -3.93500 31.76100 28.09600
C  -5.49000 29.42900 25.59400
C  -5.26500 30.18700 29.23200
O  -6.11200 29.37500 29.51300
C  -4.44200 31.00600 30.27100
C  -5.39500 31.54200 31.19300
O  -6.16300 32.45700 30.98900
O  -5.46800 30.74100 32.34100
C  -6.47700 30.90200 33.40000
H  -0.23500 36.55300 30.03700
H  -0.33600 36.28900 23.74400
H  -4.50600 31.57100 23.78200
H  -3.70100 33.63900 31.83300
H  -1.04300 34.89900 31.92500
H  -3.65800 35.57900 32.59500
H  -3.32500 36.41200 31.14300
H  -2.16300 36.60200 32.51100
H  -0.83900 32.63400 32.24900
H  -1.75500 31.36300 31.61100
H  -2.78300 30.83800 33.68300
H  -3.34800 32.57200 33.84000
H  1.31900 38.96600 28.25100
H  2.51600 37.62100 28.46500
H  1.13800 37.70700 29.50500
H  2.89000 39.41800 24.69000
H  2.96000 38.62000 26.28000
H  1.71000 39.83100 25.98800
H  -1.28100 34.32800 21.90400
H  -4.04100 33.31600 22.36300
H  -2.59300 36.12900 21.22300
H  -3.08200 36.47700 22.86000
H  -4.01000 35.45800 21.90200
H  -1.95000 32.42200 20.85900
H  -3.10300 31.38000 21.38800
H  -1.62500 30.82500 23.50800
H  -0.26800 31.47500 22.48600
H  -1.39700 30.09000 21.99900
H  -4.76500 29.23100 24.80400
H  -6.37700 29.86100 25.13000
H  -5.65800 28.47300 26.09100
H  -3.74800 30.31900 30.75500
H  -7.19000 31.71900 33.29200
H  -5.97400 31.12000 34.34200
H  -6.98200 29.96100 33.62200

