158

Mg 34.58800 2.91500 29.95800
C  32.46300 3.63800 32.52800
C  37.18400 3.03400 32.28400
C  36.71300 2.70300 27.49400
C  32.08700 3.55700 27.62100
N  34.76300 3.10100 32.16200
C  33.73400 3.41500 33.02300
C  34.16000 3.42800 34.51000
C  35.66800 3.17500 34.44100
C  35.95600 3.11200 32.85300
C  36.56300 4.16800 35.26100
C  33.30000 2.47700 35.39200
C  32.77600 3.12200 36.68200
H  33.77700 4.02900 37.40600
N  36.61700 2.78000 29.86400
C  37.52500 2.84100 30.93700
C  38.88100 2.75300 30.44800
C  38.78000 2.46300 29.01400
C  37.34300 2.59000 28.75600
C  40.10800 3.05100 31.20600
C  39.91500 2.14700 27.96800
O  39.64500 1.92400 26.78400
C  41.35500 2.16100 28.40200
N  34.37900 2.90900 27.88400
C  35.38700 2.75900 27.06100
C  35.02700 2.68400 25.46500
C  33.48000 2.92900 25.55400
C  33.33800 3.18100 27.08600
C  35.89300 3.74900 24.60100
C  32.45400 1.82300 25.05500
C  31.38100 2.37200 24.05100
N  32.64500 3.48000 29.99400
C  31.73900 3.71800 28.97400
C  30.44000 4.02400 29.58300
C  30.68200 4.08500 30.97300
C  32.05000 3.65300 31.13600
C  29.22300 4.29300 28.90700
C  30.09600 4.28300 32.30500
O  28.95400 4.57800 32.57600
C  31.22300 4.15600 33.34900
C  31.37900 5.54700 33.95200
O  32.13800 6.40000 33.53800
O  30.73500 5.69000 35.17400
C  31.17200 6.79100 35.97600
H  38.03500 3.05500 32.96700
H  37.49000 2.67400 26.72800
H  31.28400 3.52600 26.88000
H  33.98700 4.44000 34.87500
H  35.83800 2.12600 34.68300
H  36.96300 3.53900 36.05700
H  36.01400 5.00800 35.68600
H  37.37200 4.51800 34.62000
H  33.92000 1.68500 35.81200
H  32.51900 2.08000 34.74300
H  32.45500 2.29200 37.31100
H  31.79100 3.51600 36.42900
H  39.88600 3.55900 32.14400
H  40.77400 3.63100 30.56700
H  40.69400 2.15600 31.41400
H  41.56800 1.64300 29.33700
H  41.70500 3.18900 28.50100
H  41.90500 1.69700 27.58300
H  35.27200 1.66100 25.18200
H  33.21800 3.91200 25.16500
H  36.44600 4.35300 25.32100
H  35.31900 4.38000 23.92300
H  36.50700 3.13800 23.93900
H  31.95200 1.36800 25.90900
H  33.02100 0.96200 24.70200
H  31.51800 3.40600 23.73700
H  30.38900 2.33900 24.50300
H  31.27700 1.74400 23.16600
H  29.16500 4.79700 27.94200
H  28.72200 4.97000 29.59900
H  28.62300 3.38400 28.87500
H  30.87800 3.45500 34.11000
H  30.67300 6.96500 36.92900
H  30.93000 7.71100 35.44400
H  32.24800 6.81300 36.14800
Mg 17.87300 51.34900 25.87700
C  19.58000 49.94900 28.67700
C  15.26200 52.08400 28.12100
C  15.90400 52.15900 23.30400
C  20.00500 49.77200 23.79900
N  17.56300 51.22400 28.22000
C  18.33500 50.55600 29.04400
C  17.80400 50.65100 30.56200
C  16.34100 51.07700 30.22600
C  16.42000 51.55100 28.73900
C  15.22600 49.99300 30.53800
C  18.63000 51.56100 31.50000
C  18.61900 51.26400 33.01200
H  17.48800 50.30700 33.57900
N  15.96700 52.19700 25.74100
C  15.03900 52.30600 26.76800
C  13.77800 52.83800 26.25800
C  14.03200 53.06900 24.83900
C  15.38700 52.54000 24.60100
C  12.63600 53.25400 27.05800
C  13.14400 53.74200 23.79400
O  13.41500 53.73900 22.61300
C  11.73400 54.33400 24.23800
N  17.82000 50.81500 23.71000
C  17.04300 51.42900 22.88600
C  17.41300 51.21800 21.42300
C  18.80400 50.36100 21.53900
C  18.88500 50.27300 23.06300
C  16.35000 50.65000 20.52100
C  20.04900 51.08200 20.97900
C  20.90800 50.20100 20.07300
N  19.44600 50.23400 26.08900
C  20.28700 49.60800 25.16800
C  21.32800 48.82500 25.81200
C  21.12300 48.99000 27.21200
C  19.96500 49.88600 27.31100
C  22.36300 48.03000 25.18400
C  21.68100 48.64900 28.52000
O  22.63100 47.95100 28.85300
C  20.65400 49.32100 29.56400
C  20.11200 48.21300 30.33500
O  19.23600 47.45000 29.96300
O  20.72000 48.13800 31.57300
C  20.31800 47.06500 32.40600
H  14.48100 52.14500 28.88200
H  15.28200 52.32400 22.42100
H  20.73100 49.44900 23.05000
H  17.91200 49.63800 30.95000
H  16.15400 52.00600 30.76500
H  14.72200 49.55500 29.67600
H  14.50000 50.42400 31.22600
H  15.60200 49.16300 31.13600
H  18.23800 52.55800 31.29900
H  19.64700 51.36300 31.16200
H  18.58100 52.23000 33.51700
H  19.52100 50.74000 33.32700
H  12.79000 54.18300 27.60700
H  12.52500 52.42600 27.75800
H  11.73600 53.41400 26.46400
H  11.86700 55.07000 25.03100
H  11.02200 53.56700 24.54300
H  11.26000 54.83000 23.39100
H  17.63900 52.22300 21.06800
H  18.70700 49.40300 21.02800
H  15.38000 50.58300 21.01400
H  16.62200 49.65100 20.18100
H  16.13500 51.22100 19.61800
H  20.71600 51.40000 21.78000
H  19.62200 51.95100 20.47900
H  21.01000 49.17100 20.41400
H  21.91500 50.59700 19.94300
H  20.31600 50.20600 19.15800
H  22.84600 48.62600 24.40900
H  21.94400 47.10000 24.79900
H  22.99800 47.77400 26.03100
H  21.22100 50.03200 30.16500
H  20.52600 46.17400 31.81400
H  19.25400 47.11200 32.63800
H  20.87500 46.98600 33.34000

