158

Mg -2.28900 16.64500 25.66100
C  -2.52300 14.50500 28.39800
C  -4.07500 18.92500 27.49500
C  -2.23600 18.68100 23.03000
C  -1.40700 13.89300 23.57800
N  -3.06300 16.71600 27.76600
C  -2.96500 15.74300 28.75000
C  -3.54500 16.23000 30.11300
C  -4.30700 17.49800 29.70700
C  -3.78100 17.75200 28.23300
C  -5.83200 17.15500 29.54500
C  -2.39900 16.50000 31.14700
C  -2.41400 15.69000 32.46400
H  -2.52500 16.42000 33.80200
N  -2.82600 18.65400 25.42800
C  -3.60000 19.40100 26.24900
C  -3.73100 20.72000 25.70500
C  -3.15400 20.70600 24.35700
C  -2.67700 19.29100 24.23500
C  -4.39600 21.85700 26.46000
C  -3.11000 21.78600 23.35900
O  -2.55500 21.62300 22.26100
C  -3.65200 23.29800 23.58300
N  -1.88600 16.26800 23.57900
C  -1.84900 17.36900 22.73400
C  -1.28000 16.98900 21.35600
C  -1.00000 15.45600 21.53600
C  -1.35700 15.15400 23.03900
C  -2.27700 17.11100 20.16500
C  0.43900 15.22800 21.15600
C  1.49600 15.71200 22.28500
N  -2.07700 14.60700 25.87200
C  -1.81000 13.57900 24.91900
C  -1.94700 12.29300 25.57200
C  -2.12500 12.59700 26.94500
C  -2.26100 13.99900 27.06900
C  -1.88200 10.96100 24.95000
C  -2.30000 12.06700 28.30700
O  -2.31400 10.91800 28.65900
C  -2.49800 13.28700 29.26600
C  -1.38700 13.23300 30.17000
O  -0.30400 13.77000 30.05300
O  -1.71600 12.38900 31.16200
C  -0.84000 12.21000 32.32500
H  -4.80200 19.49900 28.07400
H  -2.14800 19.39200 22.20600
H  -1.21500 13.11300 22.83900
H  -4.30800 15.52200 30.43800
H  -4.20300 18.36100 30.36500
H  -6.01200 16.46100 28.72400
H  -6.42100 18.06100 29.40800
H  -6.24300 16.91200 30.52500
H  -2.42000 17.55000 31.43900
H  -1.37800 16.30700 30.81800
H  -1.45200 15.19000 32.57400
H  -3.18900 14.92800 32.54200
H  -5.48600 21.85200 26.42800
H  -4.03100 22.88200 26.38500
H  -4.06500 21.78700 27.49600
H  -3.44700 24.04400 22.81500
H  -3.09100 23.68600 24.43300
H  -4.71000 23.43800 23.80200
H  -0.40000 17.62500 21.25400
H  -1.67900 14.84800 20.93700
H  -3.23500 17.36600 20.62000
H  -2.42900 16.25300 19.51000
H  -1.84000 17.96100 19.64100
H  0.82700 15.76600 20.29200
H  0.44700 14.16600 20.91100
H  0.98400 15.91500 23.22500
H  1.99000 16.60600 21.90400
H  2.27200 14.95900 22.41900
H  -0.82700 10.71300 24.83300
H  -2.33500 11.03300 23.96100
H  -2.29500 10.30700 25.71700
H  -3.39800 13.26300 29.88000
H  0.02800 11.60500 32.06400
H  -1.26400 11.69600 33.18800
H  -0.47400 13.20200 32.58900
Mg 52.69200 23.23700 44.84500
C  49.86500 25.02800 44.00800
C  51.43200 20.53000 43.41000
C  55.84800 21.93100 44.96700
C  54.23100 26.39400 45.81400
N  50.84900 22.85800 43.79100
C  49.75500 23.65800 43.55000
C  48.60900 22.90800 42.91800
C  49.03100 21.48100 43.26200
C  50.54900 21.57700 43.52100
C  48.15500 20.64400 44.33800
C  48.59400 23.28300 41.33200
C  47.33200 22.74300 40.56800
H  47.28800 23.23700 39.07900
N  53.45700 21.43600 44.39400
C  52.79200 20.40600 43.74000
C  53.67800 19.23500 43.66600
C  54.96100 19.62300 44.15000
C  54.79700 21.03900 44.54700
C  53.31800 17.80600 43.13100
C  56.21000 18.72800 44.25700
O  56.19300 17.59000 43.82400
C  57.48600 19.19900 45.00400
N  54.79000 23.98600 45.42100
C  55.80800 23.20900 45.47800
C  57.05100 23.97700 46.04700
C  56.55900 25.37200 46.14700
C  55.08100 25.31400 45.74600
C  57.57100 23.42100 47.36600
C  57.34700 26.39900 45.33700
C  57.59900 27.76500 46.06600
N  52.14100 25.35700 45.06600
C  52.83700 26.42600 45.52700
C  51.95400 27.52800 45.60500
C  50.79600 27.10100 44.97800
C  50.97300 25.72400 44.58100
C  52.17700 28.81400 46.33300
C  49.48700 27.43900 44.55500
O  48.82900 28.48300 44.58800
C  48.80900 26.09800 43.81500
C  48.42900 26.48500 42.41000
O  49.12900 26.63000 41.38900
O  47.14200 26.94800 42.44800
C  46.61900 27.74900 41.30600
H  50.95100 19.65700 42.96300
H  56.86700 21.54500 44.89800
H  54.67300 27.30700 46.22000
H  47.66800 23.15500 43.40900
H  49.02200 20.74000 42.46300
H  47.34000 20.19400 43.77200
H  47.51400 21.27400 44.95500
H  48.72200 19.97600 44.98700
H  49.45100 22.79700 40.86700
H  48.81800 24.31800 41.07700
H  46.43300 23.12700 41.04900
H  47.21900 21.65900 40.60600
H  53.52000 17.10000 43.93700
H  53.97500 17.68900 42.26900
H  52.33500 17.67800 42.67800
H  58.10400 18.32400 45.20800
H  57.25300 19.66700 45.96100
H  58.03000 19.87900 44.34900
H  57.79000 23.82000 45.26100
H  56.66400 25.71300 47.17700
H  56.98000 23.84600 48.17800
H  58.57900 23.77800 47.57400
H  57.52200 22.33900 47.49200
H  56.74500 26.64200 44.46100
H  58.33500 26.01800 45.07900
H  58.65200 27.98300 46.24600
H  57.01700 27.80300 46.98600
H  57.20700 28.55500 45.42500
H  52.47300 29.52900 45.56600
H  53.01500 28.73400 47.02600
H  51.27400 29.08000 46.88300
H  47.99300 25.76300 44.45400
H  46.73300 27.37800 40.28800
H  47.26400 28.61900 41.18700
H  45.64700 28.14200 41.60200

