158

Mg 25.63400 0.44900 29.16400
C  27.82500 0.04500 31.82300
C  23.10900 0.78000 31.25900
C  23.74100 0.78100 26.50300
C  28.38900 -0.35100 26.97200
N  25.55000 0.41000 31.33400
C  26.53800 0.42600 32.26400
C  25.96400 0.67000 33.68800
C  24.42200 0.53800 33.45300
C  24.32300 0.54800 31.92500
C  23.74200 -0.69100 34.13500
C  26.46300 2.01900 34.38000
C  27.24400 1.79400 35.75900
H  26.93600 2.83900 36.91800
N  23.72900 0.79700 28.92600
C  22.79200 0.93600 29.91100
C  21.43100 1.19900 29.37800
C  21.67700 1.09500 27.99000
C  23.08600 0.92000 27.75600
C  20.16300 1.48100 30.17500
C  20.64700 1.17000 26.90100
O  20.90400 1.16000 25.71100
C  19.13200 1.06500 27.28400
N  26.01700 0.37900 27.08200
C  25.03900 0.57100 26.20000
C  25.57100 0.65400 24.80800
C  27.10400 0.32600 24.97600
C  27.17600 0.09200 26.44100
C  24.84500 -0.30400 23.80300
C  27.94800 1.49000 24.31700
C  27.99500 2.81300 25.09800
N  27.69000 -0.14800 29.28400
C  28.67800 -0.40000 28.38400
C  29.94200 -0.66900 29.05200
C  29.65400 -0.60500 30.41600
C  28.22800 -0.26200 30.49600
C  31.25800 -1.06100 28.41800
C  30.22600 -0.58200 31.75000
O  31.38900 -0.80900 32.09700
C  29.06600 -0.17700 32.70000
C  28.89200 -1.26200 33.67000
O  28.32800 -2.34100 33.48800
O  29.49400 -0.91600 34.86400
C  29.23400 -1.75600 36.01300
H  22.26400 0.82700 31.95000
H  23.10100 0.82800 25.61900
H  29.17700 -0.50000 26.23100
H  26.31700 -0.13600 34.33200
H  24.06900 1.48700 33.85600
H  24.54800 -1.26300 34.59500
H  23.22700 -1.33400 33.42100
H  22.98600 -0.46100 34.88600
H  25.60300 2.67700 34.50900
H  27.05700 2.54600 33.63400
H  28.32500 1.76400 35.62000
H  26.95100 0.79200 36.07300
H  19.75600 2.47900 30.01300
H  20.27300 1.32700 31.24800
H  19.35900 0.80800 29.87500
H  18.52100 1.21400 26.39300
H  18.92100 1.84900 28.01100
H  18.92000 0.14100 27.82300
H  25.32300 1.66200 24.47400
H  27.56200 -0.57200 24.56100
H  24.09700 -0.88300 24.34500
H  25.54200 -0.94300 23.26000
H  24.29700 0.31300 23.09000
H  27.52300 1.80600 23.36400
H  28.91400 1.03200 24.10300
H  28.97500 2.68600 25.55800
H  27.32800 2.79800 25.96000
H  27.94300 3.78600 24.60900
H  31.37800 -1.05000 27.33500
H  31.50300 -2.07800 28.72300
H  31.92100 -0.35000 28.91000
H  29.24700 0.68500 33.34300
H  28.17800 -2.02400 36.01100
H  29.29600 -1.17500 36.93400
H  29.92000 -2.60300 35.98800
Mg -10.60800 39.51700 42.35200
C  -9.21000 36.56200 41.37300
C  -8.03200 41.17800 40.91900
C  -12.19000 42.50100 42.85800
C  -13.69800 37.79000 43.01300
N  -8.79000 38.95700 41.24800
C  -8.41600 37.64200 41.01600
C  -7.13100 37.59400 40.22300
C  -6.59400 39.10800 40.25500
C  -7.86900 39.75900 40.82300
C  -5.28000 39.37400 41.05400
C  -7.37300 36.96500 38.83000
C  -6.39100 35.89500 38.34800
H  -5.52800 36.17800 37.17700
N  -10.10400 41.58600 42.02200
C  -9.03800 42.09000 41.38200
C  -9.01800 43.48700 41.49000
C  -10.16900 43.91300 42.18100
C  -10.86800 42.63300 42.43700
C  -7.80400 44.25000 41.05900
C  -10.51400 45.31100 42.57000
O  -9.76500 46.23400 42.23100
C  -11.69700 45.66000 43.46300
N  -12.72200 40.01100 42.78700
C  -12.92400 41.34400 43.18400
C  -14.40000 41.45000 43.71000
C  -14.93100 39.95500 43.65800
C  -13.72400 39.17500 43.07400
C  -14.44000 42.12000 45.12400
C  -16.26700 39.67100 42.98800
C  -17.40400 39.91300 43.91200
N  -11.30300 37.57600 42.34900
C  -12.50500 36.97100 42.67200
C  -12.43200 35.54700 42.52800
C  -11.15400 35.35300 41.98900
C  -10.49100 36.61600 41.92000
C  -13.53600 34.51300 42.72400
C  -10.29800 34.31600 41.46300
O  -10.56000 33.13500 41.28600
C  -8.88800 35.03600 41.14100
C  -7.85500 34.55600 42.08500
O  -7.65200 34.94100 43.22900
O  -6.97700 33.69600 41.45500
C  -5.88000 33.01700 42.10100
H  -7.15300 41.64200 40.46600
H  -12.78300 43.38300 43.10900
H  -14.61400 37.24800 43.26000
H  -6.37500 37.06600 40.80300
H  -6.26600 39.47300 39.28200
H  -4.66100 40.08300 40.50500
H  -4.71700 38.45100 40.91800
H  -5.47700 39.58200 42.10600
H  -7.28300 37.76100 38.09000
H  -8.37500 36.54800 38.72700
H  -6.99700 35.02000 38.11400
H  -5.70200 35.69300 39.16800
H  -7.96100 44.66100 40.06200
H  -6.92000 43.61800 41.13900
H  -7.59000 45.00700 41.81400
H  -11.69600 46.69600 43.80300
H  -11.65200 45.19500 44.44800
H  -12.61300 45.47100 42.90400
H  -14.94600 42.05100 42.98200
H  -15.04100 39.59200 44.68000
H  -13.50800 42.67400 45.23000
H  -14.45100 41.35400 45.89900
H  -15.25200 42.83200 45.27000
H  -16.25900 38.65300 42.60000
H  -16.27400 40.33600 42.12400
H  -17.15900 40.09600 44.95900
H  -17.93600 38.96400 43.98100
H  -18.12000 40.68100 43.62000
H  -13.65500 34.36000 43.79700
H  -13.19900 33.53800 42.37200
H  -14.51600 34.75600 42.31100
H  -8.59400 34.81700 40.11500
H  -6.13300 32.03600 42.50300
H  -5.39400 33.63300 42.85700
H  -5.07900 32.86800 41.37600

