158

Mg 35.52000 3.21200 30.62000
C  32.93900 4.14300 32.87700
C  37.79800 3.86700 33.16700
C  37.98100 3.04400 28.38400
C  33.19000 3.09700 28.11100
N  35.33500 3.88800 32.73700
C  34.23000 4.15800 33.47600
C  34.53300 4.24800 34.99600
C  36.12300 4.44900 34.92500
C  36.47900 4.03900 33.52500
C  36.87500 5.71300 35.45900
C  33.76400 3.10900 35.80600
C  34.51900 2.58800 37.02900
H  34.95100 3.55200 38.14900
N  37.62200 3.17300 30.78500
C  38.42200 3.30700 31.95800
C  39.80800 3.00300 31.59900
C  39.88700 2.82200 30.21000
C  38.45000 3.06200 29.71800
C  40.81500 2.82700 32.72300
C  41.08900 2.35300 29.34500
O  40.99600 2.18400 28.10500
C  42.35000 2.08400 29.95600
N  35.53800 3.14200 28.54800
C  36.67000 3.04400 27.83800
C  36.47200 2.73000 26.41100
C  34.84800 2.66700 26.30600
C  34.45400 2.95300 27.71000
C  37.20300 3.51500 25.23900
C  34.26900 1.28300 25.77600
C  33.10300 1.28700 24.82800
N  33.49500 3.58800 30.41600
C  32.64900 3.53800 29.36400
C  31.23700 3.85000 29.71900
C  31.31500 4.00100 31.08200
C  32.67200 3.90300 31.45100
C  30.01200 3.99600 28.83900
C  30.59300 4.34700 32.22200
O  29.41300 4.59300 32.29400
C  31.55500 4.27300 33.47000
C  31.41500 5.52700 34.30300
O  31.59600 6.66400 33.88100
O  31.13900 5.18400 35.63800
C  31.25400 6.30700 36.59200
H  38.56800 4.05800 33.91700
H  38.76900 3.06000 27.62800
H  32.54900 2.82000 27.27100
H  34.16100 5.22200 35.31500
H  36.50700 3.57200 35.44400
H  37.53700 5.31700 36.22900
H  36.11600 6.32900 35.94100
H  37.50800 6.27000 34.76800
H  33.59400 2.23800 35.17300
H  32.74900 3.44200 36.02100
H  35.39400 2.04100 36.67800
H  34.02700 1.76800 37.55100
H  41.53800 3.64300 32.69700
H  41.26600 1.85100 32.54300
H  40.36100 2.82400 33.71400
H  43.05100 1.93700 29.13400
H  42.24300 1.17100 30.54100
H  42.53800 2.96100 30.57500
H  36.79200 1.68900 26.36300
H  34.42100 3.45000 25.67800
H  37.01600 2.93900 24.33200
H  38.28100 3.43300 25.37000
H  36.87900 4.55100 25.13800
H  33.78000 0.89400 26.66900
H  35.05500 0.53800 25.65500
H  32.15800 0.86400 25.16700
H  33.31600 0.84400 23.85500
H  32.92700 2.32500 24.54600
H  30.33000 4.77000 28.14100
H  29.19900 4.35400 29.47000
H  29.60700 3.12500 28.32400
H  31.41100 3.48600 34.21000
H  30.85000 7.21800 36.15000
H  32.25800 6.39100 37.00800
H  30.62100 6.09600 37.45400
Mg 49.09800 34.02500 26.15000
C  46.96900 33.11900 28.78700
C  49.39900 37.13600 27.56800
C  50.83400 35.10200 23.42200
C  48.20500 31.13000 24.44000
N  48.06600 35.06700 27.95700
C  47.57400 34.39900 29.05200
C  47.43300 35.28000 30.26600
C  48.02500 36.66000 29.76500
C  48.53000 36.29000 28.31100
C  47.12000 37.83300 30.00300
C  48.08300 34.79700 31.59300
C  47.18700 35.02400 32.84400
H  47.54500 36.17100 33.82200
N  50.00500 35.87700 25.60700
C  50.03700 37.01500 26.32400
C  50.82000 37.96100 25.76400
C  51.27700 37.42300 24.50600
C  50.66200 36.06400 24.44500
C  51.17400 39.27300 26.38400
C  52.15700 38.09100 23.48300
O  52.43200 37.56100 22.45400
C  52.94600 39.34600 23.74200
N  49.47800 33.16700 24.16000
C  50.30200 33.79000 23.29200
C  50.68700 32.90100 22.12400
C  49.63400 31.70000 22.27700
C  49.06700 31.93300 23.68100
C  50.44800 33.52200 20.68900
C  50.17500 30.22200 22.03400
C  50.97900 29.93500 20.78000
N  47.88800 32.38200 26.57100
C  47.59400 31.30600 25.75600
C  46.68000 30.38800 26.45300
C  46.44800 31.07900 27.67800
C  47.12900 32.30600 27.69200
C  46.25700 28.93100 25.95000
C  45.75400 30.97100 28.91000
O  45.05200 30.05400 29.35900
C  45.98900 32.32100 29.60100
C  46.22900 31.98000 31.05100
O  47.29700 31.71900 31.52900
O  45.09100 31.98900 31.77400
C  45.19900 31.67400 33.25700
H  49.72100 37.96800 28.19800
H  51.45500 35.47300 22.60400
H  48.00000 30.16600 23.97000
H  46.35400 35.36400 30.38900
H  48.90500 37.05100 30.27600
H  46.16900 37.45300 30.37800
H  46.97100 38.26300 29.01200
H  47.55200 38.59000 30.65700
H  48.78500 35.61600 31.75100
H  48.48900 33.79300 31.46800
H  47.01800 34.09900 33.39400
H  46.18000 35.31900 32.54900
H  50.75300 39.53800 27.35400
H  50.91500 40.16600 25.81700
H  52.24900 39.19800 26.54900
H  53.47400 39.26600 24.69200
H  52.23500 40.14300 23.95900
H  53.64700 39.63000 22.95800
H  51.72300 32.57800 22.23500
H  48.78100 31.84400 21.61300
H  50.05400 32.79900 19.97600
H  51.42200 33.70000 20.23400
H  49.84100 34.42700 20.64600
H  49.23300 29.68800 21.90900
H  50.56300 29.72800 22.92500
H  50.54800 29.20900 20.09100
H  51.96700 29.55400 21.03800
H  51.16800 30.88200 20.27400
H  46.81300 28.22400 26.56700
H  46.29500 28.73900 24.87800
H  45.24100 28.75300 26.30300
H  44.98300 32.71600 29.46000
H  45.52300 32.64200 33.64000
H  46.01300 31.00900 33.54400
H  44.26500 31.32100 33.69400

