158

Mg -2.08500 16.62400 25.63100
C  -2.48700 14.41100 28.51000
C  -2.86800 19.24500 27.73300
C  -1.83100 18.53200 23.00200
C  -1.58500 13.71900 23.76800
N  -2.60100 16.74000 27.86600
C  -2.58100 15.78000 28.83600
C  -2.86200 16.34000 30.25400
C  -3.04800 17.87000 29.93700
C  -2.93000 18.00200 28.42600
C  -4.33900 18.52900 30.58100
C  -1.70400 16.06100 31.30600
C  -1.77600 16.98500 32.58800
H  -1.73700 16.22700 33.91300
N  -2.17500 18.57600 25.42600
C  -2.52400 19.49500 26.37800
C  -2.52400 20.84600 25.71700
C  -2.18800 20.62300 24.39000
C  -2.07900 19.17900 24.20200
C  -2.73000 22.19500 26.54100
C  -2.03600 21.73500 23.29400
O  -1.90600 21.42500 22.12700
C  -2.10500 23.11300 23.60500
N  -2.09900 16.15900 23.61500
C  -1.87800 17.16200 22.71800
C  -1.75500 16.63000 21.26000
C  -1.39000 15.08100 21.57400
C  -1.69100 14.94700 23.08800
C  -2.93800 16.83700 20.33300
C  0.10500 14.67600 21.28900
C  0.66100 14.72200 19.76500
N  -2.14300 14.51700 26.02200
C  -1.85100 13.50900 25.11400
C  -2.02100 12.19700 25.77700
C  -2.26700 12.57600 27.09700
C  -2.29200 14.00200 27.17100
C  -2.15400 10.77200 25.13500
C  -2.27900 12.00900 28.43800
O  -2.00800 10.85700 28.78800
C  -2.46200 13.19600 29.46600
C  -1.24500 13.16200 30.34500
O  -0.08100 13.52900 30.05800
O  -1.58100 12.53800 31.58100
C  -0.47300 12.48900 32.55300
H  -2.90900 20.08300 28.43200
H  -1.90100 19.12000 22.08500
H  -1.18200 12.85000 23.24500
H  -3.75500 15.90000 30.69900
H  -2.20000 18.36400 30.41200
H  -4.86000 17.79600 31.19700
H  -4.94000 18.79200 29.71100
H  -4.07300 19.42500 31.14300
H  -0.71100 16.15600 30.86600
H  -1.96800 15.07000 31.67400
H  -2.64400 17.62900 32.73200
H  -0.91800 17.65400 32.52500
H  -1.82600 22.79600 26.64000
H  -2.90700 21.98000 27.59500
H  -3.50900 22.83700 26.13100
H  -1.25800 23.47900 24.18500
H  -3.02400 23.32600 24.15000
H  -2.32400 23.64000 22.67600
H  -0.85100 17.14100 20.92800
H  -2.06700 14.35800 21.11900
H  -3.66100 17.48000 20.83600
H  -3.38800 15.90100 20.00400
H  -2.50600 17.37700 19.49000
H  0.27100 13.66600 21.66400
H  0.81900 15.32100 21.80100
H  0.19200 15.53500 19.21100
H  0.39800 13.83400 19.19000
H  1.73600 14.90000 19.76000
H  -2.25300 10.95300 24.06400
H  -3.05000 10.29100 25.52600
H  -1.25200 10.24000 25.43600
H  -3.26900 13.15300 30.19800
H  0.03800 13.45200 32.56500
H  0.20500 11.64200 32.44700
H  -0.94700 12.32500 33.52100
Mg -10.60100 16.17600 42.94100
C  -7.16000 16.89100 43.10700
C  -11.20500 19.38500 42.22000
C  -13.78500 15.30700 42.61500
C  -9.69100 12.77200 43.16100
N  -9.21900 17.95300 42.41700
C  -7.89000 18.03100 42.69800
C  -7.38400 19.46500 42.75000
C  -8.75800 20.26500 42.42300
C  -9.82000 19.17100 42.38400
C  -9.06500 21.48100 43.39600
C  -6.11100 19.68200 41.77400
C  -5.81300 21.09300 41.31200
H  -6.01100 21.50300 39.86800
N  -12.24600 17.15400 42.22300
C  -12.30700 18.50500 42.04100
C  -13.64000 18.84200 41.66600
C  -14.42500 17.67700 41.57900
C  -13.50400 16.66000 42.20800
C  -14.06300 20.33900 41.48100
C  -15.86200 17.53200 41.04900
O  -16.46800 18.40700 40.47300
C  -16.47000 16.14900 41.09400
N  -11.61800 14.22900 42.73800
C  -12.98100 14.17900 42.93500
C  -13.47400 12.79400 43.36800
C  -12.17500 12.01800 43.46600
C  -11.06500 13.05400 43.13200
C  -14.35200 12.75900 44.64600
C  -12.12400 10.72600 42.58000
C  -12.59500 9.50200 43.28800
N  -8.81900 15.03400 43.17000
C  -8.63800 13.68300 43.19500
C  -7.28200 13.33600 43.41600
C  -6.67400 14.56700 43.41200
C  -7.63200 15.58400 43.22400
C  -6.72400 12.00800 43.68900
C  -5.34500 15.22000 43.70800
O  -4.30500 14.70300 43.94400
C  -5.67500 16.76800 43.57000
C  -5.34700 17.37900 44.88200
O  -5.82100 17.11800 45.90800
O  -4.42500 18.44200 44.68100
C  -3.91600 19.10200 45.88900
H  -11.28700 20.45600 42.01900
H  -14.84900 15.07700 42.53200
H  -9.34200 11.76300 43.39100
H  -7.11600 19.73700 43.77100
H  -8.60500 20.65500 41.41600
H  -8.14400 21.83500 43.86000
H  -9.74100 21.21400 44.20800
H  -9.61000 22.23100 42.82300
H  -6.46400 19.09600 40.92600
H  -5.17100 19.33500 42.20300
H  -4.81100 21.45900 41.53800
H  -6.46400 21.82700 41.78500
H  -13.87500 20.78100 40.50300
H  -13.54600 21.02500 42.15100
H  -15.09200 20.45300 41.82400
H  -15.93300 15.33400 40.60900
H  -17.31500 16.32400 40.42800
H  -16.99300 15.91600 42.02200
H  -14.11200 12.47700 42.54300
H  -12.03100 11.77000 44.51700
H  -13.90100 12.12600 45.41100
H  -15.37000 12.53600 44.32900
H  -14.25100 13.80100 44.94800
H  -11.15300 10.48000 42.15000
H  -12.77300 10.90800 41.72400
H  -12.83900 9.76600 44.31800
H  -11.87900 8.68100 43.28900
H  -13.53500 9.17900 42.84200
H  -7.05500 11.32000 42.91100
H  -6.97900 11.63900 44.68200
H  -5.63900 11.97100 43.59600
H  -4.94900 17.18600 42.87400
H  -2.83700 19.24500 45.82100
H  -4.13200 18.57800 46.82000
H  -4.28000 20.12800 45.93200

