158

Mg -1.82600 17.71100 26.99600
C  -2.88300 15.53200 29.49800
C  -2.83600 20.30400 28.81900
C  -1.15700 19.59900 24.32800
C  -1.93500 14.82600 24.67900
N  -2.71500 17.83900 28.99900
C  -2.88500 16.86400 29.92200
C  -3.19200 17.48000 31.34100
C  -3.47500 18.97600 30.99100
C  -2.96600 19.07600 29.50300
C  -4.90300 19.51600 31.32400
C  -2.06900 17.37800 32.31000
C  -2.41000 16.71100 33.61500
H  -1.46500 16.78200 34.79100
N  -2.00100 19.72800 26.66300
C  -2.32900 20.64100 27.57300
C  -2.02500 21.93500 27.01400
C  -1.39900 21.74500 25.79000
C  -1.49000 20.32700 25.48600
C  -2.32000 23.28000 27.77200
C  -0.79400 22.78400 24.96000
O  -0.25600 22.52800 23.84200
C  -0.59300 24.13500 25.41400
N  -1.73700 17.23400 24.77600
C  -1.25800 18.26800 23.92900
C  -1.03700 17.72100 22.57900
C  -1.10200 16.18400 22.68500
C  -1.73500 16.08500 24.12900
C  -1.88500 18.28500 21.35200
C  0.22700 15.58800 22.46400
C  1.35000 15.91900 23.46100
N  -2.29100 15.59400 27.05500
C  -2.22700 14.63000 26.07900
C  -2.54700 13.32600 26.72700
C  -2.79700 13.62100 28.07100
C  -2.70300 15.07300 28.19900
C  -2.26500 12.00800 26.21300
C  -3.04400 12.98400 29.36500
O  -3.24000 11.77300 29.66700
C  -2.93700 14.27600 30.38800
C  -1.71100 14.17500 31.33100
O  -0.53000 14.50100 31.16800
O  -2.18100 13.39200 32.36900
C  -1.13700 13.17200 33.45100
H  -3.00000 21.18800 29.43900
H  -0.75800 20.31600 23.60800
H  -1.95000 13.96000 24.01400
H  -4.11400 17.00600 31.67700
H  -2.79200 19.68200 31.46400
H  -4.88000 20.34200 32.03500
H  -5.63500 18.79300 31.68200
H  -5.29500 19.90700 30.38500
H  -1.61000 18.32300 32.60100
H  -1.27300 16.80700 31.83200
H  -2.64100 15.66600 33.40800
H  -3.33500 17.20000 33.92100
H  -3.04300 23.21900 28.58600
H  -2.70400 23.87300 26.94200
H  -1.37900 23.74100 28.07300
H  -0.04800 24.12400 26.35700
H  -1.54800 24.64600 25.53600
H  0.00900 24.72600 24.72400
H  -0.01000 17.88000 22.25200
H  -1.85800 15.72100 22.05100
H  -1.14900 18.37100 20.55300
H  -2.39000 19.21800 21.60400
H  -2.62900 17.60300 20.94100
H  0.58900 16.02800 21.53500
H  0.17400 14.51100 22.30900
H  0.92900 16.23700 24.41500
H  2.11200 16.61400 23.10900
H  1.92900 15.00600 23.59800
H  -1.26300 11.92500 25.79300
H  -2.85600 11.69000 25.35500
H  -2.34600 11.31400 27.05000
H  -3.82900 14.47200 30.98300
H  -1.06700 12.11600 33.19400
H  -1.58700 13.32700 34.43200
H  -0.22200 13.72500 33.24200
Mg -11.03900 16.81600 40.93700
C  -7.44400 16.81200 40.93900
C  -10.74900 20.26300 40.35100
C  -14.37900 16.99600 40.69800
C  -11.12800 13.44500 41.15500
N  -9.23000 18.38200 40.45100
C  -7.89100 18.09600 40.58500
C  -7.01400 19.39000 40.30200
C  -8.12000 20.49200 40.61700
C  -9.43800 19.70300 40.46000
C  -8.04200 21.19000 41.99600
C  -6.39300 19.41500 38.84900
C  -4.82200 19.03500 38.77200
H  -4.38800 17.98100 37.66200
N  -12.36800 18.38200 40.53700
C  -12.06300 19.66300 40.29500
C  -13.30000 20.39400 40.07300
C  -14.37900 19.48700 40.09600
C  -13.73700 18.21800 40.47200
C  -13.28400 21.83300 39.52900
C  -15.84600 19.73900 39.64800
O  -16.12200 20.78400 39.20800
C  -16.91000 18.73700 39.90000
N  -12.48700 15.43400 40.82300
C  -13.80500 15.72100 40.90400
C  -14.63300 14.45200 40.92200
C  -13.62100 13.36600 41.19800
C  -12.31800 14.11600 41.09100
C  -15.90000 14.36300 41.94700
C  -13.73500 12.18500 40.19200
C  -13.48700 10.79000 40.77200
N  -9.63400 15.37500 40.97100
C  -9.80700 14.02500 41.10200
C  -8.53800 13.39100 41.25100
C  -7.58300 14.49000 41.12900
C  -8.31000 15.65000 41.01900
C  -8.26900 11.88300 41.45500
C  -6.14600 14.69000 41.21200
O  -5.17900 13.91600 41.33300
C  -5.96900 16.24900 41.10200
C  -5.26700 16.75000 42.29300
O  -4.03600 16.99000 42.26700
O  -6.13300 16.88300 43.38900
C  -5.41400 17.32600 44.62100
H  -10.62300 21.34800 40.34300
H  -15.45500 16.97000 40.88600
H  -11.09200 12.37700 41.38200
H  -6.23100 19.54700 41.04400
H  -8.05300 21.24100 39.82900
H  -8.84300 20.87600 42.66500
H  -8.13200 22.26600 41.85100
H  -7.04200 21.14300 42.42800
H  -6.60700 20.42800 38.51100
H  -6.85300 18.66100 38.20900
H  -4.60100 18.63700 39.76300
H  -4.37600 20.02300 38.66200
H  -13.13500 21.71300 38.45600
H  -12.47700 22.43000 39.95400
H  -14.22400 22.32800 39.77000
H  -17.91800 19.11200 39.72400
H  -16.72200 18.57600 40.96100
H  -16.63800 17.83600 39.35000
H  -14.91200 14.37200 39.87200
H  -13.57500 13.07300 42.24600
H  -16.78200 14.23500 41.31900
H  -15.97800 15.33700 42.43100
H  -15.84700 13.58000 42.70300
H  -13.02000 12.44100 39.41100
H  -14.73900 12.14300 39.77000
H  -14.44100 10.38600 41.10800
H  -12.75200 10.73800 41.57600
H  -13.11300 10.16200 39.96300
H  -7.38900 11.77400 42.09100
H  -8.24200 11.43200 40.46300
H  -9.09400 11.51400 42.06500
H  -5.27200 16.52500 40.31100
H  -4.57100 16.64700 44.74900
H  -5.98000 17.27200 45.55100
H  -5.08200 18.35800 44.50300

