158

Mg 40.75900 8.37200 28.96800
C  42.73700 9.42400 31.67900
C  38.51300 7.06600 31.16100
C  39.12900 7.26900 26.33200
C  43.37200 9.50300 26.83700
N  40.70100 8.24900 31.13200
C  41.54000 8.78800 32.05600
C  40.99500 8.56800 33.47900
C  39.75200 7.55800 33.25700
C  39.61700 7.65600 31.75700
C  40.06500 6.10200 33.70000
C  40.67500 9.88500 34.19900
C  40.04900 9.77700 35.51100
H  40.84600 10.01900 36.81800
N  39.02800 7.48400 28.78400
C  38.23000 6.97600 29.79500
C  37.06300 6.33900 29.18800
C  37.21200 6.34900 27.79500
C  38.52300 6.97200 27.58400
C  35.90700 5.75300 30.01800
C  36.37200 5.70300 26.76700
O  36.58100 5.76600 25.55900
C  35.07400 5.05600 27.23700
N  41.17900 8.45400 26.91200
C  40.36100 7.89700 26.02700
C  40.98900 7.84000 24.57100
C  42.17300 8.86400 24.74700
C  42.26400 8.96700 26.27500
C  41.42200 6.42500 24.12800
C  42.08200 10.23800 24.09300
C  40.95200 11.26200 24.51200
N  42.75500 9.11100 29.14800
C  43.63100 9.64900 28.18200
C  44.77700 10.18400 28.82800
C  44.46700 10.08100 30.19800
C  43.17100 9.54800 30.37300
C  45.85500 10.78900 28.18200
C  45.03200 10.39900 31.49300
O  46.08500 10.92700 31.77300
C  43.91700 9.99500 32.53900
C  44.54200 8.95900 33.37400
O  44.60300 7.77000 33.07300
O  44.97000 9.44600 34.56500
C  44.77200 8.47800 35.66600
H  37.76900 6.54000 31.76200
H  38.70200 6.70600 25.49900
H  43.99600 10.05900 26.13400
H  41.75200 7.99500 34.01400
H  38.80800 7.82800 33.72900
H  41.10800 6.06700 34.01600
H  39.97600 5.45900 32.82500
H  39.35300 5.74100 34.44200
H  40.25000 10.62300 33.51700
H  41.68900 10.25900 34.34200
H  39.57800 8.79400 35.49600
H  39.16000 10.40100 35.60400
H  34.95000 6.15500 29.68600
H  36.00500 5.78900 31.10200
H  35.84500 4.68100 29.82900
H  34.48800 4.85600 26.34000
H  34.60000 5.91900 27.70400
H  35.09200 4.17700 27.88300
H  40.29400 8.28200 23.85600
H  43.17100 8.50300 24.49600
H  40.66400 6.00900 23.46500
H  41.62700 5.81400 25.00700
H  42.35100 6.53000 23.56700
H  41.80800 9.97600 23.07100
H  43.03700 10.76400 24.09100
H  40.51200 11.71400 23.62300
H  41.41500 12.05800 25.09500
H  40.10500 10.72600 24.94200
H  45.51600 11.53200 27.46000
H  46.68900 10.15600 27.88000
H  46.21100 11.47100 28.95300
H  43.60700 10.85100 33.13900
H  43.70100 8.27400 35.63800
H  45.02000 8.80400 36.67600
H  45.25700 7.51200 35.52600
Mg 36.00100 49.33500 25.69600
C  36.10000 47.60300 28.75100
C  35.01100 52.12400 27.24900
C  35.84300 50.76700 22.73100
C  36.90600 46.17000 24.04900
N  35.61200 49.71600 27.75800
C  35.76300 48.92100 28.89000
C  35.55400 49.72300 30.16000
C  34.99900 51.10700 29.65900
C  35.28400 50.99500 28.14400
C  33.53900 51.46700 30.09600
C  36.75400 49.73100 31.24400
C  36.42800 49.61000 32.73800
H  34.98400 49.45100 33.14200
N  35.53400 51.27400 25.07800
C  35.11100 52.26000 25.87900
C  34.87600 53.48900 25.08300
C  35.07500 53.05600 23.66900
C  35.54300 51.64200 23.77300
C  34.66400 54.90200 25.68800
C  34.86400 53.88300 22.41100
O  35.21700 53.35300 21.33600
C  34.19300 55.24100 22.36000
N  36.40400 48.56900 23.64400
C  36.21900 49.39900 22.57200
C  36.43100 48.64500 21.24800
C  37.06900 47.31300 21.76800
C  36.77100 47.33200 23.27000
C  35.16300 48.54200 20.31100
C  38.52900 47.14000 21.41300
C  39.22300 45.76400 21.23900
N  36.44100 47.29100 26.23300
C  36.91700 46.18600 25.46200
C  37.13800 45.13200 26.40800
C  36.84600 45.63100 27.71700
C  36.35400 46.90600 27.53200
C  37.53200 43.77000 26.01100
C  36.77700 45.29000 29.08200
O  36.95400 44.17700 29.61800
C  36.38200 46.55100 29.83500
C  35.17700 46.19200 30.59900
O  34.05300 46.44800 30.28800
O  35.63900 45.55400 31.71500
C  34.70900 45.00500 32.68800
H  34.98900 53.07400 27.78700
H  35.50000 51.00300 21.72200
H  37.32700 45.26700 23.60200
H  34.68800 49.29000 30.66000
H  35.72500 51.85000 29.99100
H  33.20000 50.89000 30.95600
H  32.87800 51.36900 29.23500
H  33.42700 52.51500 30.37200
H  37.29100 50.66500 31.07500
H  37.53200 49.05600 30.88700
H  36.85400 50.51700 33.16600
H  36.99800 48.75600 33.10300
H  33.73000 55.25200 25.24900
H  35.30400 55.70000 25.31300
H  34.72900 54.95400 26.77500
H  34.04400 55.48500 21.30800
H  34.82500 55.84300 23.01300
H  33.22200 55.07100 22.82400
H  37.23400 49.13300 20.69500
H  36.45400 46.51300 21.35500
H  34.27800 48.67000 20.93300
H  35.15100 47.51600 19.94300
H  35.24300 49.16800 19.42200
H  39.01300 47.57500 22.28800
H  38.71800 47.69100 20.49200
H  38.58100 44.91700 21.47800
H  40.09500 45.72800 21.89200
H  39.58600 45.44500 20.26200
H  38.50000 43.69600 25.51500
H  36.85700 43.28300 25.30700
H  37.62200 43.22300 26.94900
H  37.22900 46.81000 30.47000
H  34.59700 45.76900 33.45700
H  34.92000 44.03100 33.12900
H  33.70600 44.89100 32.27700

