158

Mg 26.27100 0.49400 29.81500
C  28.17500 0.08800 32.69100
C  23.66100 1.22000 31.63200
C  24.53200 0.10600 26.99800
C  29.19900 -0.58700 28.05600
N  25.95900 0.34900 32.07000
C  26.91000 0.58300 32.97900
C  26.31000 0.99900 34.30800
C  24.83300 1.47900 33.91100
C  24.77300 1.00500 32.41400
C  23.62200 0.88200 34.64000
C  27.05600 2.12500 35.16600
C  27.54700 1.67800 36.52400
H  27.42200 2.67300 37.65700
N  24.28400 0.54600 29.35400
C  23.32600 0.93000 30.28000
C  22.06500 0.98200 29.62800
C  22.27700 0.59600 28.28400
C  23.74300 0.36300 28.12900
C  20.82900 1.50600 30.20100
C  21.31600 0.44800 27.08000
O  21.69800 0.08800 25.98900
C  19.85400 0.76100 27.26700
N  26.83400 -0.20800 27.76500
C  25.91600 -0.09900 26.82300
C  26.61500 -0.37500 25.43900
C  28.08600 -0.25500 25.74500
C  28.08100 -0.29400 27.29800
C  26.17500 -1.74400 24.83800
C  28.96900 0.88000 25.22700
C  29.30200 0.77100 23.75700
N  28.25000 -0.21100 30.22400
C  29.28500 -0.61700 29.42900
C  30.46600 -0.92300 30.22900
C  30.07300 -0.59500 31.49100
C  28.69900 -0.21900 31.43300
C  31.84000 -1.43000 29.78100
C  30.50500 -0.65700 32.84200
O  31.51900 -1.06500 33.42000
C  29.27200 -0.13200 33.67100
C  29.03000 -1.21100 34.69300
O  28.45200 -2.22800 34.52000
O  29.69300 -0.88100 35.84000
C  29.77200 -1.99500 36.81700
H  22.78700 1.55400 32.19500
H  24.00900 -0.03800 26.05100
H  30.12500 -0.85000 27.54100
H  26.35800 0.11500 34.94400
H  24.71700 2.56200 33.95500
H  24.00000 0.61200 35.62600
H  23.14600 0.02000 34.17300
H  22.83100 1.62700 34.72700
H  26.39200 2.96900 35.35200
H  27.93800 2.50000 34.64500
H  28.62300 1.64100 36.35200
H  27.17800 0.70600 36.85000
H  20.44600 2.33000 29.59900
H  21.03200 2.03000 31.13500
H  20.04800 0.76300 30.36400
H  19.38200 0.02800 27.92200
H  19.39300 0.71200 26.28000
H  19.85300 1.77400 27.66900
H  26.30000 0.31600 24.65800
H  28.57000 -1.15400 25.36300
H  25.98900 -2.48800 25.61200
H  26.97900 -2.27000 24.32300
H  25.30400 -1.66200 24.18700
H  29.82800 1.02400 25.88200
H  28.36000 1.77700 25.33600
H  30.35400 1.05800 23.74500
H  28.78500 1.40100 23.03300
H  29.30300 -0.24600 23.36600
H  32.50800 -1.36600 30.64000
H  32.17200 -0.84800 28.92200
H  31.63100 -2.40300 29.33600
H  29.62800 0.74900 34.20500
H  30.61100 -1.75300 37.46900
H  30.13700 -2.91200 36.35600
H  28.83100 -2.10500 37.35600
Mg 29.91100 57.21600 41.11100
C  27.05000 55.82300 39.65600
C  31.83000 55.04400 39.29900
C  32.61900 59.23500 41.72300
C  27.86100 59.89500 42.31600
N  29.41400 55.66500 39.53800
C  28.22200 55.15300 39.24500
C  28.32800 53.81700 38.45600
C  29.88200 53.61800 38.35300
C  30.43500 54.82700 39.14200
C  30.45200 52.21700 38.86200
C  27.51500 53.81600 37.12100
C  27.29100 55.09400 36.33300
H  27.76000 55.08100 34.82700
N  31.90200 57.00700 40.79700
C  32.49500 56.03400 40.04400
C  33.94500 56.24400 39.99500
C  34.25700 57.47300 40.71600
C  32.88300 57.99500 41.10800
C  34.85300 55.28500 39.39800
C  35.62300 58.03400 40.86400
O  36.62600 57.47500 40.45700
C  35.84200 59.37100 41.43700
N  30.14500 59.25500 41.90700
C  31.38300 59.84900 42.06000
C  31.32100 61.36300 42.49200
C  29.88400 61.40900 43.02400
C  29.20700 60.15000 42.36400
C  32.53900 61.78900 43.42700
C  29.21800 62.72300 42.75200
C  28.63300 63.42300 43.90700
N  27.88000 57.69800 41.11400
C  27.21800 58.77200 41.68500
C  25.81100 58.53500 41.55500
C  25.66900 57.38500 40.79800
C  26.93600 56.96600 40.47000
C  24.69300 59.39400 42.10100
C  24.74100 56.51900 40.13400
O  23.51200 56.49800 40.05800
C  25.62500 55.41300 39.36200
C  25.34100 54.04400 39.95200
O  25.79000 53.53200 40.99300
O  24.33900 53.51000 39.24800
C  23.94400 52.16800 39.70400
H  32.44700 54.39500 38.67400
H  33.43000 59.95800 41.83500
H  27.27900 60.69600 42.77700
H  27.96400 52.99000 39.06500
H  30.18800 53.62400 37.30700
H  31.11900 52.27400 39.72300
H  31.07100 51.73000 38.10900
H  29.63300 51.56000 39.15400
H  26.53100 53.41800 37.36900
H  27.87700 52.98500 36.51600
H  27.74900 55.92400 36.87200
H  26.22000 55.27800 36.25000
H  35.80400 55.74700 39.13200
H  34.45800 54.92000 38.45000
H  35.03400 54.43700 40.05800
H  35.39200 60.10700 40.77100
H  36.91300 59.52700 41.56700
H  35.35800 59.55300 42.39700
H  31.43600 61.98800 41.60700
H  29.93300 61.27900 44.10500
H  33.26800 62.41000 42.90500
H  33.06100 60.91200 43.80900
H  32.13200 62.32600 44.28400
H  28.47500 62.52400 41.97900
H  29.87000 63.43300 42.24500
H  27.61100 63.69300 43.63900
H  29.28400 64.26100 44.15400
H  28.56800 62.84200 44.82700
H  24.24200 60.01100 41.32400
H  25.04400 60.01600 42.92400
H  23.89400 58.81700 42.56600
H  25.25600 55.47500 38.33800
H  23.24500 51.79300 38.95700
H  23.48500 52.21800 40.69200
H  24.84600 51.55800 39.75000

