158

Mg -1.61700 17.07000 27.27000
C  -2.16600 14.79600 29.86700
C  -1.95100 19.61400 29.26400
C  -1.63300 19.09300 24.50800
C  -1.36600 14.31400 25.00100
N  -2.08700 17.15600 29.25100
C  -2.31500 16.14100 30.25200
C  -2.61200 16.75000 31.63600
C  -2.47200 18.28100 31.35000
C  -2.08600 18.37800 29.84800
C  -3.70700 19.08500 31.88400
C  -1.59100 16.32900 32.81400
C  -1.63200 17.12500 34.18400
H  -1.54200 16.19600 35.44600
N  -1.67400 19.03600 26.96100
C  -1.78500 19.95600 27.92900
C  -1.77000 21.32200 27.35400
C  -1.72300 21.14700 25.93300
C  -1.66600 19.69600 25.71900
C  -1.87000 22.61800 28.23000
C  -1.82200 22.23400 24.83800
O  -1.77900 21.94700 23.62000
C  -1.82500 23.71100 25.22000
N  -1.48000 16.71300 25.07700
C  -1.54200 17.74300 24.16000
C  -1.41700 17.25400 22.69600
C  -1.14000 15.74800 22.90500
C  -1.31000 15.57900 24.42700
C  -2.53300 17.62100 21.69700
C  0.15700 15.28800 22.26100
C  1.42700 16.05200 22.85300
N  -1.71000 14.99600 27.35700
C  -1.57900 13.98900 26.39400
C  -1.84000 12.73700 26.92800
C  -1.95800 12.96800 28.36700
C  -1.89100 14.34400 28.55400
C  -1.77400 11.40600 26.27600
C  -2.20500 12.29600 29.63800
O  -2.31300 11.10000 29.94500
C  -2.26500 13.46500 30.66200
C  -1.03500 13.34900 31.39500
O  0.02400 13.78000 31.10100
O  -1.28500 12.80300 32.62900
C  -0.17000 12.76500 33.60700
H  -2.04100 20.33700 30.07800
H  -1.61300 19.67200 23.58200
H  -1.10700 13.43800 24.40300
H  -3.55900 16.39100 32.04000
H  -1.58200 18.67500 31.84100
H  -4.13600 18.50600 32.70200
H  -4.47900 19.45700 31.21000
H  -3.16900 19.89900 32.37000
H  -0.55600 16.18800 32.50000
H  -1.87800 15.32600 33.13100
H  -2.49400 17.78200 34.29200
H  -0.76200 17.77800 34.24200
H  -2.88100 22.98500 28.05200
H  -1.24300 23.47100 27.97200
H  -1.83100 22.27700 29.26500
H  -0.86100 23.91300 25.68700
H  -2.59500 24.01600 25.92900
H  -1.95100 24.38300 24.37100
H  -0.55600 17.72900 22.22700
H  -2.01800 15.29500 22.44500
H  -3.13200 18.42200 22.12900
H  -3.28900 16.87800 21.44100
H  -2.13700 17.90300 20.72100
H  0.14000 15.30100 21.17100
H  0.36100 14.28800 22.64300
H  1.14200 16.83800 23.55300
H  2.08300 16.47200 22.09000
H  2.00900 15.36800 23.47000
H  -1.08900 10.78600 26.85400
H  -1.49100 11.50600 25.22800
H  -2.77000 10.96500 26.27600
H  -3.06100 13.41200 31.40500
H  0.30500 13.74400 33.56000
H  0.60600 12.01100 33.47400
H  -0.63900 12.66700 34.58600
Mg -10.75600 38.78800 43.08300
C  -9.43500 35.70900 41.72400
C  -8.10400 40.38800 41.48300
C  -12.33600 41.62700 43.39000
C  -13.67900 36.92300 43.96200
N  -9.06300 38.06300 41.61700
C  -8.69900 36.82400 41.34000
C  -7.36000 36.81200 40.54800
C  -6.79100 38.23400 40.83500
C  -8.01600 38.95400 41.43500
C  -5.50400 38.24300 41.67200
C  -7.46200 36.43700 38.97400
C  -6.29100 35.72400 38.43900
H  -5.49300 36.38400 37.33300
N  -10.28800 40.80800 42.51500
C  -9.18500 41.20500 41.89800
C  -9.16600 42.66500 41.74600
C  -10.35700 43.13400 42.30700
C  -11.05300 41.89400 42.84800
C  -8.04200 43.39500 40.98400
C  -10.86400 44.58300 42.23500
O  -10.18500 45.41200 41.67400
C  -12.20200 45.07500 42.76000
N  -12.81300 39.17600 43.33500
C  -13.14700 40.43100 43.60700
C  -14.63400 40.55400 44.09400
C  -14.99200 39.02000 44.31000
C  -13.77900 38.31600 43.87000
C  -14.80400 41.52700 45.36400
C  -16.33200 38.53600 43.66500
C  -16.22900 37.90500 42.24500
N  -11.31300 36.75300 43.14400
C  -12.54900 36.17200 43.48700
C  -12.37800 34.72800 43.42300
C  -11.17100 34.48300 42.74400
C  -10.62900 35.74000 42.45300
C  -13.32200 33.61100 43.87500
C  -10.30700 33.48600 42.15400
O  -10.47500 32.25900 42.08100
C  -9.14200 34.27200 41.43500
C  -7.85200 33.84200 41.82300
O  -7.05100 33.19900 41.10100
O  -7.62100 34.11400 43.12900
C  -6.36700 33.56700 43.68600
H  -7.34100 40.95000 40.94000
H  -12.89200 42.49800 43.74300
H  -14.50800 36.35100 44.38200
H  -6.78400 36.04600 41.07000
H  -6.65500 38.89200 39.97700
H  -5.64600 38.53600 42.71200
H  -4.85600 39.01000 41.24800
H  -5.01200 37.27600 41.56600
H  -7.83000 37.24700 38.34400
H  -8.31100 35.75400 38.96100
H  -6.56200 34.76700 37.99400
H  -5.65600 35.53900 39.30500
H  -8.23200 44.45700 40.83400
H  -7.92500 42.82500 40.06200
H  -7.11100 43.24300 41.53100
H  -13.02400 44.44600 42.41800
H  -12.48500 46.11500 42.59400
H  -12.15700 44.91600 43.83700
H  -15.24900 40.88000 43.25600
H  -15.20700 38.92100 45.37500
H  -15.57000 41.08700 46.00400
H  -15.20200 42.45400 44.95100
H  -13.86800 41.64000 45.91000
H  -16.94400 39.43200 43.55700
H  -16.89200 37.75600 44.17900
H  -16.65600 36.90700 42.34600
H  -15.20800 37.71600 41.91600
H  -16.76800 38.60400 41.60500
H  -14.14500 33.58800 43.16100
H  -13.80400 33.92900 44.79900
H  -12.93300 32.59300 43.87700
H  -9.11800 34.11800 40.35600
H  -6.14800 33.68800 44.74700
H  -5.60600 34.07200 43.09000
H  -6.33700 32.48200 43.58800

