158

Mg 52.81000 23.57200 44.73400
C  50.22500 25.84000 43.78600
C  50.94700 21.12500 43.68900
C  55.60500 21.62600 44.79200
C  54.80600 26.37800 45.52500
N  50.79000 23.61300 43.79500
C  49.95700 24.57900 43.37600
C  48.75000 23.95800 42.66300
C  48.84800 22.43800 43.09200
C  50.26600 22.35500 43.54000
C  47.94500 22.09000 44.36500
C  48.59600 24.14900 41.12000
C  49.97700 24.26200 40.40500
H  49.89800 24.48200 38.88300
N  53.15400 21.63500 44.42800
C  52.22700 20.75400 43.99300
C  52.81600 19.45700 43.90300
C  54.16300 19.52900 44.33200
C  54.35700 21.01700 44.49100
C  52.00400 18.26200 43.54700
C  55.11100 18.36300 44.62800
O  54.87800 17.27600 44.12000
C  56.43700 18.50500 45.32000
N  55.03400 24.00400 44.81000
C  55.90100 23.03300 44.95200
C  57.29100 23.61200 45.36200
C  56.92500 24.99200 45.88300
C  55.52700 25.17500 45.36600
C  58.05200 22.75400 46.36000
C  57.95900 26.04300 45.44400
C  58.46600 27.08000 46.51800
N  52.62400 25.68600 44.68000
C  53.42300 26.66700 45.21400
C  52.62300 27.91700 45.41500
C  51.37800 27.62300 44.86000
C  51.39400 26.24700 44.44800
C  53.05400 29.14900 46.09800
C  50.03600 28.15600 44.56000
O  49.67300 29.30600 44.66500
C  49.25500 27.03000 43.81400
C  48.89000 27.48000 42.53400
O  49.65400 27.41900 41.59400
O  47.55300 27.94900 42.48200
C  47.20100 28.32800 41.20500
H  50.30000 20.31500 43.34600
H  56.41800 20.91500 44.95700
H  55.27100 27.16100 46.12700
H  47.88700 24.47600 43.08100
H  48.58500 21.85700 42.20800
H  48.53700 21.63500 45.15900
H  47.19300 21.37000 44.04300
H  47.50100 23.01300 44.73700
H  47.89900 24.98300 41.04000
H  48.00800 23.29500 40.78400
H  50.69000 23.46700 40.62400
H  50.41300 25.19400 40.76400
H  52.32800 18.03700 42.53100
H  50.95200 18.44200 43.77100
H  52.31900 17.37900 44.10300
H  56.38500 19.22200 46.14000
H  57.31600 18.85600 44.77900
H  56.72200 17.50000 45.63200
H  57.90900 23.78200 44.48000
H  56.75000 25.02300 46.95900
H  58.75500 23.27800 47.00800
H  58.71300 22.03000 45.88300
H  57.31400 22.24500 46.98000
H  57.62300 26.45700 44.49300
H  58.78100 25.37400 45.18900
H  59.43300 26.74800 46.89500
H  57.67600 27.03600 47.26700
H  58.65800 28.08100 46.13000
H  54.04400 29.44400 45.74900
H  53.05500 28.98800 47.17600
H  52.32800 29.92400 45.85600
H  48.28400 26.88400 44.28700
H  47.32700 29.41100 41.23200
H  46.19100 27.91900 41.20500
H  47.81000 27.86000 40.43200
Mg 48.10700 34.08800 26.86500
C  46.06600 32.90500 29.41100
C  48.75100 36.89200 28.78000
C  49.59600 35.59600 24.17100
C  47.26100 31.34600 24.87300
N  47.54000 34.75200 28.85300
C  46.75200 34.08600 29.75300
C  47.01400 34.76900 31.19500
C  47.35700 36.20400 30.74400
C  47.96100 35.95300 29.39400
C  46.31400 37.42600 30.84600
C  48.13100 34.06400 32.13000
C  47.99200 33.98800 33.67600
H  47.08700 35.00700 34.48200
N  49.07600 35.95900 26.51800
C  49.23500 36.90700 27.47200
C  50.08000 37.94400 26.93400
C  50.32500 37.62600 25.56400
C  49.67500 36.33900 25.33600
C  50.55700 39.19600 27.71800
C  50.97200 38.56300 24.54500
O  51.02100 38.26100 23.37700
C  51.66300 39.84600 24.90000
N  48.28800 33.59300 24.85800
C  48.92300 34.40500 23.93100
C  48.88100 33.70500 22.57200
C  48.65000 32.16700 22.90600
C  48.07100 32.30600 24.31000
C  47.79700 34.36400 21.61000
C  49.97800 31.32900 22.89300
C  50.91500 31.54800 24.08800
N  46.90900 32.42300 27.02500
C  46.70800 31.38400 26.18700
C  45.85600 30.43100 26.81000
C  45.64700 30.94800 28.12800
C  46.31000 32.17000 28.17700
C  45.40300 29.14900 26.15900
C  44.95400 30.71900 29.42500
O  44.31200 29.75800 29.86600
C  45.13700 32.13100 30.23300
C  45.51200 31.82000 31.58000
O  46.39100 31.03700 31.88200
O  44.68400 32.49500 32.42000
C  44.77800 32.02100 33.81800
H  48.96900 37.81800 29.31600
H  50.12300 36.07900 23.34600
H  47.22800 30.39300 24.34200
H  46.14900 34.76700 31.85800
H  48.19300 36.64100 31.29000
H  46.49600 38.02800 31.73600
H  45.29700 37.03500 30.79600
H  46.44200 37.98900 29.92200
H  49.08400 34.56300 31.95000
H  48.16700 33.06500 31.69700
H  48.97800 33.97800 34.13900
H  47.68200 32.96500 33.89100
H  51.62500 38.98000 27.69700
H  50.24300 39.12800 28.75900
H  50.24600 40.16700 27.33300
H  52.25100 39.66900 25.80000
H  50.87600 40.60000 24.91200
H  52.38200 40.02300 24.10000
H  49.90800 33.89800 22.26400
H  47.95600 31.63600 22.25400
H  47.27200 35.21000 22.05400
H  47.13300 33.60000 21.20600
H  48.30500 34.75400 20.72800
H  50.44700 31.58300 21.94200
H  49.71200 30.27300 22.91100
H  50.61600 31.10000 25.03600
H  51.15000 32.59900 24.25700
H  51.91600 31.16900 23.87900
H  46.02500 28.88600 25.30300
H  44.37200 29.14400 25.80600
H  45.58600 28.35700 26.88600
H  44.10500 32.47600 30.28100
H  45.76200 32.13900 34.27200
H  44.43900 30.99500 33.96200
H  44.15800 32.70000 34.40300

