158

Mg -1.09400 18.10700 26.81000
C  -1.64200 15.76000 29.52500
C  -1.44000 20.62400 29.25800
C  -0.59100 20.19000 24.41800
C  -0.96300 15.29000 24.75900
N  -1.39600 18.12700 29.19600
C  -1.58700 17.10400 30.03500
C  -1.77400 17.62800 31.43400
C  -1.93800 19.16100 31.19200
C  -1.46200 19.38000 29.79800
C  -3.40900 19.58500 31.50400
C  -0.64100 17.30800 32.45200
C  -1.18500 16.99000 33.85300
H  -0.07100 16.72500 34.92300
N  -0.92100 20.12600 26.87500
C  -1.11100 20.95300 27.93900
C  -0.98200 22.33800 27.38300
C  -0.66700 22.23000 25.98000
C  -0.79400 20.80100 25.68100
C  -0.93200 23.57400 28.25400
C  -0.50800 23.26900 24.89100
O  -0.33200 23.08000 23.69200
C  -0.44100 24.66800 25.41600
N  -0.72800 17.77900 24.84500
C  -0.59600 18.83700 24.01300
C  -0.58600 18.40200 22.49900
C  -0.49500 16.82000 22.64500
C  -0.74500 16.56300 24.13500
C  -1.84800 18.93400 21.72500
C  0.78000 16.22700 22.03200
C  1.94600 15.85200 22.96400
N  -1.30900 16.01300 27.04500
C  -1.25100 15.02800 26.05200
C  -1.58800 13.77500 26.60400
C  -1.75400 14.01600 27.93900
C  -1.54300 15.38100 28.17200
C  -1.92500 12.56600 25.74100
C  -2.04300 13.34900 29.21600
O  -2.27200 12.21300 29.45100
C  -1.95400 14.48600 30.32900
C  -0.95100 14.09500 31.45800
O  0.28300 14.11900 31.42700
O  -1.60300 13.75400 32.67600
C  -0.75200 13.25000 33.68300
H  -1.75500 21.48600 29.84900
H  -0.49600 20.82700 23.53700
H  -0.89200 14.53300 23.97500
H  -2.65200 17.22100 31.93400
H  -1.29700 19.67600 31.90700
H  -3.83800 20.25400 30.75800
H  -3.41200 20.17500 32.42000
H  -4.16400 18.83000 31.72500
H  0.09600 18.09100 32.63100
H  -0.01700 16.49500 32.08300
H  -1.83100 16.12600 33.70000
H  -1.77500 17.83100 34.21700
H  0.06300 23.99800 28.38800
H  -1.33900 23.37500 29.24500
H  -1.61600 24.29200 27.79900
H  -1.36300 25.08800 25.81700
H  -0.23000 25.33900 24.58300
H  0.34100 24.73700 26.17200
H  0.34400 18.78000 22.07400
H  -1.30700 16.33300 22.10500
H  -2.34000 18.24600 21.03700
H  -1.45500 19.76200 21.13500
H  -2.64900 19.32900 22.34900
H  1.20100 16.86000 21.25100
H  0.49200 15.29200 21.55300
H  1.92100 16.52800 23.81900
H  2.85300 16.13000 22.42700
H  2.09900 14.80300 23.21800
H  -2.69000 12.78500 24.99700
H  -2.41900 11.85000 26.39800
H  -1.08700 12.05500 25.26700
H  -2.91600 14.63800 30.81800
H  -0.42500 14.13600 34.22800
H  0.14500 12.71800 33.36600
H  -1.19500 12.52500 34.36500
Mg 1.16600 -2.04600 42.88000
C  4.48800 -1.61700 41.89700
C  0.37800 0.87900 41.15300
C  -2.00800 -2.86500 43.09600
C  2.08900 -5.20200 44.11800
N  2.28600 -0.60400 41.55300
C  3.61600 -0.63000 41.35800
C  4.13000 0.65400 40.67100
C  2.72200 1.43200 40.46600
C  1.76100 0.52600 41.15500
C  2.71500 2.84200 41.12700
C  4.96100 0.39100 39.32800
C  4.46000 -0.79800 38.50700
H  5.18600 -1.06800 37.13600
N  -0.56800 -1.10200 42.42300
C  -0.68800 0.11000 41.67600
C  -2.08600 0.40800 41.51300
C  -2.84900 -0.60900 42.03400
C  -1.81800 -1.59300 42.56400
C  -2.64400 1.68300 40.81900
C  -4.37200 -0.63300 42.09700
O  -5.03400 0.17200 41.51100
C  -5.08600 -1.71400 42.85100
N  0.20500 -3.85700 43.44600
C  -1.12600 -3.91900 43.43900
C  -1.62500 -5.30800 43.97000
C  -0.36200 -5.92100 44.58500
C  0.77000 -4.96100 44.09500
C  -2.88900 -5.30800 44.81700
C  -0.08500 -7.36400 44.13900
C  0.39100 -8.34900 45.23800
N  2.95800 -3.15600 43.12500
C  3.14600 -4.35500 43.68200
C  4.56300 -4.60600 43.80900
C  5.18400 -3.53800 43.12700
C  4.10300 -2.75000 42.65700
C  5.20200 -5.72400 44.49700
C  6.42700 -2.94500 42.67800
O  7.58900 -3.28200 42.86900
C  6.07900 -1.64100 41.94600
C  6.76700 -0.46000 42.56400
O  7.64200 0.20400 42.10200
O  6.26400 -0.35000 43.80900
C  6.58800 0.84000 44.65100
H  0.14600 1.81700 40.64300
H  -3.03100 -3.23700 43.18800
H  2.31600 -6.22600 44.42100
H  4.72800 1.15600 41.43200
H  2.36100 1.50600 39.44000
H  3.65100 3.16100 41.58500
H  1.94700 2.86000 41.90000
H  2.21500 3.46700 40.38600
H  6.01200 0.23800 39.57300
H  4.88100 1.27500 38.69500
H  3.39500 -0.61100 38.37100
H  4.66000 -1.70200 39.08200
H  -3.13700 1.46600 39.87200
H  -1.76700 2.29400 40.60400
H  -3.33800 2.21700 41.46800
H  -6.07800 -1.41900 43.19300
H  -4.52300 -1.91300 43.76300
H  -5.22400 -2.55800 42.17500
H  -1.89300 -5.88900 43.08800
H  -0.36300 -5.83400 45.67200
H  -3.79000 -5.66900 44.32100
H  -3.13400 -4.32300 45.21400
H  -2.64700 -6.05900 45.57000
H  0.72800 -7.28100 43.41700
H  -1.00300 -7.70200 43.66000
H  1.27000 -8.89400 44.89300
H  -0.48500 -8.96900 45.43200
H  0.59500 -7.89600 46.20900
H  4.75600 -6.01800 45.44700
H  6.24000 -5.41800 44.62600
H  5.05100 -6.50600 43.75300
H  6.57000 -1.63100 40.97300
H  6.10600 0.96600 45.62100
H  6.36200 1.70800 44.03200
H  7.65000 0.73600 44.87200

