158

Mg 35.59800 2.61300 30.31900
C  33.44500 3.86700 32.80700
C  38.12000 2.65800 32.62300
C  37.72000 1.77100 27.88500
C  33.05400 3.19300 27.97800
N  35.77000 3.31500 32.45400
C  34.73700 3.63800 33.34600
C  35.20500 3.75500 34.79200
C  36.77700 3.56000 34.57100
C  36.87200 3.04900 33.11200
C  37.64200 4.87600 34.64800
C  34.59700 2.67500 35.72200
C  34.35100 3.19200 37.12100
H  35.34400 4.28400 37.64800
N  37.58100 2.14400 30.29400
C  38.45000 2.21000 31.36100
C  39.77700 1.78200 30.93800
C  39.74400 1.62200 29.50300
C  38.35800 1.87500 29.16100
C  41.01600 1.68500 31.78600
C  40.82700 1.34200 28.47600
O  40.61600 1.10800 27.31600
C  42.23300 1.15900 28.91500
N  35.50100 2.69300 28.31100
C  36.44300 2.18200 27.52100
C  36.00400 2.16500 26.04200
C  34.45400 2.19300 26.17100
C  34.32700 2.81000 27.59500
C  36.61800 3.37100 25.19200
C  33.75000 0.70600 26.02900
C  32.47500 0.69800 25.18800
N  33.64100 3.29200 30.33300
C  32.72000 3.51400 29.28900
C  31.44000 3.86400 29.89700
C  31.66400 4.10700 31.26000
C  33.04800 3.73100 31.45100
C  30.09800 4.05900 29.17800
C  31.04000 4.51300 32.45500
O  29.90300 4.90600 32.66100
C  32.24600 4.34300 33.56500
C  32.47400 5.65000 34.32400
O  32.91700 6.66000 33.80100
O  32.01100 5.67500 35.59700
C  32.09900 6.95900 36.25700
H  38.97400 2.54800 33.29400
H  38.31200 1.43100 27.03200
H  32.33400 3.19000 27.15700
H  35.10100 4.80100 35.07900
H  37.16000 2.83700 35.29100
H  37.79400 5.23100 33.62900
H  38.61200 4.84800 35.14400
H  37.01700 5.71500 34.95600
H  35.16100 1.74100 35.72600
H  33.64600 2.35700 35.29400
H  34.35100 2.35900 37.82400
H  33.32500 3.55600 37.07500
H  41.52900 0.80700 31.39500
H  40.73100 1.57800 32.83300
H  41.72300 2.51100 31.70500
H  42.30300 0.24800 29.50900
H  42.46800 2.05800 29.48500
H  42.89300 1.06600 28.05200
H  36.36000 1.19200 25.70200
H  34.17200 2.92800 25.41600
H  35.83700 3.98800 24.74900
H  37.21100 3.02000 24.34700
H  37.37900 3.90100 25.76400
H  33.54700 0.25300 27.00000
H  34.56800 0.10200 25.63700
H  32.68900 0.25200 24.21700
H  32.19300 1.74400 25.07200
H  31.75900 0.09200 25.74300
H  30.19200 4.99100 28.62100
H  29.23200 4.32700 29.78200
H  29.94300 3.16400 28.57400
H  31.99300 3.57400 34.29500
H  32.28900 6.73100 37.30600
H  31.15200 7.46800 36.07700
H  33.00100 7.54900 36.09200
Mg 30.50400 56.88400 39.78100
C  27.96800 54.86800 38.83800
C  32.78000 54.45900 38.88900
C  32.92000 59.26000 39.66600
C  28.06000 59.37000 40.52300
N  30.32700 54.88900 39.01600
C  29.16600 54.24600 38.82600
C  29.47100 52.79500 38.42100
C  30.94400 52.65300 38.66400
C  31.39700 54.08600 39.01600
C  31.27200 51.50200 39.62900
C  28.98000 52.37800 37.06000
C  29.36100 53.28100 35.77600
H  28.24300 53.67300 34.76900
N  32.59300 56.85100 39.34300
C  33.31700 55.74200 39.05300
C  34.69500 56.17300 38.84700
C  34.72900 57.60100 38.94200
C  33.41500 57.95800 39.39100
C  35.78200 55.27800 38.29900
C  35.82700 58.53300 38.56200
O  36.90400 58.06400 38.31400
C  35.69800 60.05600 38.52900
N  30.52900 58.97300 40.20000
C  31.65200 59.75400 40.09000
C  31.27900 61.26000 40.11200
C  29.91700 61.23500 40.75900
C  29.41800 59.79700 40.48800
C  32.39600 62.05200 40.84900
C  28.97000 62.35400 40.14000
C  28.09200 63.11800 41.23100
N  28.39800 57.14000 39.81600
C  27.54200 58.15900 40.17000
C  26.20900 57.75000 40.02800
C  26.30500 56.46700 39.48300
C  27.67300 56.16300 39.34500
C  24.90700 58.43700 40.36000
C  25.57100 55.40800 38.95000
O  24.35600 55.22500 38.89000
C  26.61300 54.24300 38.52000
C  26.21300 53.03200 39.30800
O  26.43000 52.86700 40.50200
O  25.46000 52.19700 38.51300
C  24.68100 51.23500 39.22800
H  33.35100 53.58400 38.57200
H  33.61500 60.08700 39.50500
H  27.36500 60.20600 40.61900
H  28.90100 52.23600 39.16300
H  31.44000 52.53000 37.70100
H  30.37800 51.09000 40.09900
H  31.92700 51.86100 40.42300
H  31.99200 50.80800 39.19500
H  27.90300 52.21100 37.09400
H  29.52500 51.43600 37.00300
H  29.99800 52.64700 35.15800
H  29.83000 54.22700 36.04700
H  36.71200 55.22600 38.86400
H  36.17200 55.56600 37.32200
H  35.43700 54.24800 38.19900
H  36.60000 60.51200 38.12000
H  35.46300 60.61600 39.43400
H  34.85700 60.21100 37.85300
H  31.22700 61.57700 39.07100
H  29.91600 61.24800 41.84900
H  33.01600 62.50900 40.07800
H  33.09300 61.45000 41.43200
H  31.92700 62.81900 41.46500
H  28.30000 61.89800 39.41100
H  29.40900 63.10500 39.48200
H  27.02700 62.97500 41.04700
H  28.21300 64.20200 41.25000
H  28.33100 62.80200 42.24600
H  24.27800 57.71700 40.88400
H  24.38700 58.73400 39.45000
H  25.17700 59.24400 41.04100
H  26.52600 54.12400 37.44000
H  25.35000 50.50900 39.68900
H  24.02700 50.77000 38.49000
H  24.17700 51.87300 39.95500

