158

Mg 24.27200 -6.59100 46.18000
C  26.72900 -4.32000 45.04400
C  22.03500 -5.10500 43.96100
C  22.20200 -9.35900 46.44700
C  26.69900 -8.23400 47.87300
N  24.44600 -5.03400 44.64400
C  25.51400 -4.12300 44.47300
C  25.10600 -3.02100 43.47400
C  23.54300 -3.12000 43.52400
C  23.32200 -4.53200 44.07800
C  22.90500 -2.01600 44.45500
C  25.77400 -3.37300 42.08700
C  26.27500 -2.22800 41.13300
H  25.53100 -2.11000 39.73700
N  22.34000 -7.13800 45.42700
C  21.54500 -6.29800 44.62400
C  20.20200 -6.77900 44.57500
C  20.23000 -8.06400 45.21800
C  21.65600 -8.27200 45.72500
C  19.11100 -6.10800 43.70500
C  19.04200 -9.06700 45.15500
O  17.95600 -8.68400 44.70800
C  19.19400 -10.46700 45.57600
N  24.48900 -8.55700 46.83300
C  23.48600 -9.49200 46.89900
C  24.02000 -10.77300 47.62500
C  25.25400 -10.23100 48.44500
C  25.53000 -8.96000 47.62500
C  23.09900 -11.61200 48.50100
C  26.40600 -11.28600 48.52500
C  26.69900 -11.83700 49.88100
N  26.36100 -6.32200 46.59100
C  27.16000 -7.07600 47.26800
C  28.52900 -6.49600 47.29800
C  28.37800 -5.36100 46.43600
C  27.05000 -5.36100 46.02800
C  29.70200 -7.12300 47.91800
C  29.07500 -4.24200 45.77800
O  30.19700 -3.82400 45.80900
C  28.04000 -3.57300 44.79400
C  27.99100 -2.10300 44.91100
O  28.51900 -1.33000 44.10700
O  27.37300 -1.71800 46.09300
C  27.22600 -0.29100 46.22400
H  21.34500 -4.49800 43.36900
H  21.48800 -10.16500 46.62700
H  27.42800 -8.73900 48.51000
H  25.38300 -1.99700 43.72200
H  23.08700 -2.92900 42.55300
H  23.70100 -1.44500 44.93300
H  22.52300 -2.45600 45.37600
H  22.35700 -1.28400 43.86100
H  25.04100 -4.03100 41.62200
H  26.62400 -4.02200 42.30000
H  27.34100 -2.28900 40.91500
H  25.97100 -1.35300 41.70800
H  18.80400 -5.12900 44.07400
H  18.18200 -6.60200 43.42100
H  19.52100 -5.83100 42.73300
H  19.39400 -10.70800 46.62000
H  20.00000 -10.82300 44.93400
H  18.31100 -10.99400 45.21400
H  24.40300 -11.40200 46.82100
H  24.95500 -9.80100 49.40100
H  22.39800 -10.86800 48.87900
H  23.55200 -12.15400 49.33100
H  22.45300 -12.25200 47.90000
H  27.36300 -10.79500 48.34700
H  26.24500 -12.07700 47.79200
H  25.78900 -12.06200 50.43700
H  27.44700 -11.19600 50.34600
H  27.08800 -12.84300 49.72700
H  29.80200 -8.10700 47.46000
H  29.68100 -7.22600 49.00300
H  30.56300 -6.48300 47.72800
H  28.29100 -3.73000 43.74500
H  26.37800 0.06100 45.63700
H  28.09900 0.31200 45.97400
H  26.91900 0.00600 47.22700
Mg 46.89700 16.31900 28.25400
C  45.03100 15.85200 31.16800
C  49.23800 17.99200 30.02200
C  48.30600 17.26500 25.30400
C  44.37900 14.69300 26.58200
N  46.99400 16.94400 30.34300
C  46.24800 16.51500 31.38700
C  46.89900 16.82900 32.76100
C  48.18200 17.71600 32.33700
C  48.14100 17.48800 30.82300
C  48.02400 19.18900 32.74500
C  47.15100 15.52600 33.60900
C  46.75300 15.53200 35.16900
H  46.34300 16.84600 35.85300
N  48.51100 17.48500 27.71500
C  49.43600 18.01400 28.62800
C  50.56300 18.59800 27.92800
C  50.30700 18.47900 26.58500
C  48.98200 17.73800 26.46900
C  51.61100 19.38000 28.72900
C  51.23100 18.88300 25.38700
O  50.92900 18.61400 24.20700
C  52.60100 19.52900 25.59200
N  46.39200 16.10100 26.26600
C  47.16000 16.53300 25.17600
C  46.64700 15.91200 23.86000
C  45.29500 15.34800 24.30900
C  45.38900 15.32200 25.82800
C  46.61100 16.92300 22.66400
C  44.96100 13.97500 23.75100
C  45.65100 12.72400 24.22100
N  45.09100 15.34200 28.71900
C  44.19000 14.68400 27.92800
C  43.04900 14.27500 28.70400
C  43.39900 14.64800 30.00500
C  44.59800 15.33400 29.96300
C  41.93400 13.60200 28.24900
C  42.93300 14.64800 31.36200
O  41.82500 14.22400 31.72900
C  43.98600 15.41300 32.13100
C  43.36600 16.54500 32.85900
O  43.36700 17.69100 32.46000
O  42.95100 16.14100 34.09800
C  42.29900 17.16500 34.96700
H  50.11700 18.26700 30.60900
H  48.76700 17.33400 24.31600
H  43.61500 14.17900 25.99500
H  46.12900 17.44800 33.22100
H  49.10700 17.35300 32.78600
H  46.99800 19.42000 33.03500
H  48.32700 19.93900 32.01400
H  48.70000 19.35000 33.58500
H  48.21300 15.29100 33.54400
H  46.65000 14.70700 33.09200
H  47.57400 15.05400 35.70300
H  45.86400 14.92500 35.34000
H  52.36600 19.85500 28.10200
H  52.08800 18.71300 29.44700
H  51.08300 20.19400 29.22600
H  53.28200 18.88200 26.14500
H  52.62800 20.40000 26.24700
H  53.02000 19.71000 24.60200
H  47.30000 15.09400 23.55300
H  44.50300 16.05500 24.06100
H  47.48600 16.67600 22.06300
H  46.69400 17.97500 22.93700
H  45.66600 16.75900 22.14600
H  45.03400 14.02800 22.66500
H  43.90300 13.85600 23.98300
H  45.35300 12.44600 25.23200
H  46.72600 12.90100 24.23600
H  45.46300 11.95700 23.46900
H  41.84700 13.79000 27.17900
H  41.07700 14.08400 28.71900
H  41.97000 12.57100 28.60100
H  44.37400 14.70500 32.86300
H  42.78000 18.14200 34.92100
H  42.04300 16.75400 35.94300
H  41.36300 17.31600 34.42900

