158

Mg 55.28700 24.43200 44.49300
C  52.62700 26.62600 43.67200
C  53.48300 21.78200 43.21000
C  58.09900 22.64100 44.77400
C  57.04700 27.40400 45.54400
N  53.30000 24.30400 43.70200
C  52.40400 25.27100 43.44600
C  51.02900 24.60000 43.03200
C  51.28400 23.06800 43.28100
C  52.85100 23.02400 43.25500
C  50.71900 22.50400 44.60400
C  50.65600 24.82200 41.51900
C  51.76100 25.10800 40.51900
H  52.37200 23.81200 40.02200
N  55.73100 22.44700 44.08800
C  54.84700 21.52900 43.57500
C  55.50500 20.27000 43.62300
C  56.85400 20.49300 44.00700
C  56.96800 21.90500 44.33300
C  54.82900 18.97100 43.31500
C  57.88000 19.35000 44.07900
O  57.59100 18.19600 43.69100
C  59.27700 19.67700 44.48400
N  57.31500 25.03200 44.87600
C  58.28100 24.05000 44.99000
C  59.63700 24.73700 45.16900
C  59.21400 26.15500 45.69000
C  57.74500 26.24500 45.27800
C  60.65300 24.11700 46.09800
C  60.05400 27.32400 45.01000
C  60.80100 28.10700 46.09600
N  54.98800 26.66500 44.66800
C  55.79800 27.65900 45.12800
C  54.96300 28.85300 45.16700
C  53.71500 28.52100 44.57600
C  53.80800 27.17900 44.28400
C  55.39200 30.14800 45.91100
C  52.39500 29.04700 44.28300
O  51.84000 30.11100 44.42100
C  51.66200 27.88400 43.51000
C  51.46800 28.37700 42.15500
O  52.41300 28.77500 41.49000
O  50.12800 28.38900 41.80200
C  49.69500 28.81000 40.49000
H  52.83200 20.93800 42.97000
H  58.99400 22.06900 45.02900
H  57.60200 28.25700 45.94000
H  50.20800 25.01300 43.61800
H  50.87700 22.39000 42.53000
H  51.52300 21.96200 45.10200
H  50.07700 21.64100 44.42900
H  50.24700 23.23000 45.26700
H  50.01300 25.70200 41.51700
H  49.96600 24.04600 41.18900
H  52.48300 25.76900 40.99900
H  51.31600 25.65800 39.68900
H  55.24400 18.49800 42.42500
H  53.78200 19.19600 43.11400
H  54.94800 18.32800 44.18800
H  59.63200 20.45200 43.80400
H  59.89600 18.78500 44.39000
H  59.24200 20.03600 45.51200
H  59.93200 24.84500 44.12500
H  59.21600 26.13900 46.78000
H  60.24300 23.43200 46.84000
H  61.20000 24.93100 46.57300
H  61.46100 23.62700 45.55400
H  59.47600 28.00900 44.39100
H  60.82300 26.94300 44.33700
H  61.76000 28.46300 45.72000
H  61.03600 27.48600 46.96000
H  60.27700 29.01200 46.40500
H  56.46200 30.33900 45.99200
H  54.87500 30.34700 46.84900
H  55.07100 30.98100 45.28500
H  50.69100 27.85600 44.00400
H  49.09800 29.72200 40.50400
H  49.07200 28.00600 40.10000
H  50.50100 28.90200 39.76100
Mg 42.32200 42.02200 26.25900
C  41.52000 44.25300 28.80700
C  43.79100 39.93900 28.83700
C  43.44300 39.94700 23.86700
C  41.63200 44.45900 23.91100
N  42.72300 42.17500 28.57600
C  42.14400 43.11200 29.36300
C  42.12000 42.66600 30.83300
C  43.17400 41.45400 30.78600
C  43.22200 41.14900 29.31500
C  44.59500 41.75900 31.33500
C  40.57300 42.40600 31.20500
C  40.02900 43.06200 32.49700
H  40.93500 43.37500 33.71100
N  43.42500 40.25700 26.34600
C  43.97100 39.54700 27.39500
C  44.52700 38.33000 26.89800
C  44.37400 38.22300 25.52200
C  43.68300 39.51200 25.17400
C  45.10200 37.31300 27.89200
C  44.57600 36.99900 24.66000
O  44.29600 37.12900 23.44600
C  45.10900 35.71400 25.13900
N  42.67100 42.25600 24.11600
C  42.93900 41.18600 23.37100
C  42.91300 41.55900 21.90900
C  42.02900 42.82600 21.93200
C  42.16600 43.31600 23.34600
C  44.35500 41.80300 21.31500
C  40.58600 42.60000 21.44600
C  39.69300 41.77000 22.32700
N  41.69600 43.93000 26.24600
C  41.43300 44.82200 25.26500
C  40.94200 46.07600 25.82900
C  40.94900 45.86600 27.22400
C  41.38300 44.57100 27.39900
C  40.33900 47.24000 25.10900
C  40.47000 46.46900 28.45300
O  39.79700 47.49400 28.77000
C  40.77000 45.39900 29.55800
C  41.51100 46.12100 30.61100
O  42.69100 46.42900 30.60000
O  40.64000 46.48700 31.63500
C  41.26900 47.30300 32.67900
H  44.26400 39.26800 29.55700
H  43.41700 39.23000 23.04300
H  41.13800 45.16100 23.23600
H  42.53600 43.47700 31.43200
H  42.60000 40.75200 31.39100
H  44.63900 41.29400 32.32000
H  44.67200 42.83300 31.50900
H  45.37200 41.40100 30.66000
H  40.55300 41.31700 31.23000
H  39.88900 42.68800 30.40400
H  39.30800 42.30100 32.79600
H  39.45000 43.97400 32.35300
H  46.02500 36.83800 27.55900
H  44.41500 36.48600 28.07000
H  45.19400 37.73000 28.89500
H  46.06300 35.90200 25.63200
H  45.22000 35.17700 24.19800
H  44.40000 35.09800 25.69200
H  42.41000 40.73400 21.40400
H  42.43400 43.55600 21.23100
H  45.14500 41.26500 21.83900
H  44.58700 42.86400 21.40400
H  44.29800 41.66700 20.23500
H  40.64100 42.10600 20.47600
H  40.09900 43.54300 21.20100
H  40.23000 41.59200 23.25800
H  39.53900 40.83200 21.79300
H  38.73300 42.20700 22.60400
H  39.30100 47.39900 25.40100
H  40.27600 47.01400 24.04400
H  40.91500 48.14000 25.32700
H  39.96400 44.88600 30.08300
H  41.57400 48.25100 32.23600
H  41.99500 46.79900 33.31800
H  40.42300 47.38000 33.36100

