158

Mg 0.97600 8.47500 26.94500
C  1.54400 10.96700 29.43400
C  1.35500 6.10100 29.25400
C  0.68500 6.25500 24.49200
C  1.28400 11.06100 24.57900
N  1.32600 8.55600 29.13100
C  1.34800 9.67900 29.94900
C  1.19500 9.30000 31.42200
C  1.46800 7.73500 31.34000
C  1.36500 7.44600 29.83000
C  2.76200 7.15900 31.95600
C  -0.20600 9.66400 31.89600
C  -0.59000 9.25600 33.34100
H  0.53600 8.82900 34.36100
N  0.87900 6.52500 26.92500
C  0.94600 5.69100 27.96700
C  0.69000 4.30000 27.56600
C  0.69500 4.30600 26.18100
C  0.77700 5.77600 25.77200
C  0.57700 3.24900 28.61100
C  0.63500 3.07900 25.28100
O  0.59700 3.20900 24.03000
C  0.62500 1.66200 25.95000
N  1.09400 8.63800 24.85400
C  0.80800 7.58900 24.04000
C  0.79600 7.98500 22.56900
C  0.61700 9.50300 22.61100
C  1.13400 9.74700 24.08700
C  2.03800 7.39900 21.84400
C  -0.75700 10.05900 22.32200
C  -0.86200 11.32300 21.41900
N  1.36100 10.59200 26.94400
C  1.48100 11.47700 25.89200
C  1.78300 12.79400 26.37700
C  1.75600 12.68900 27.75000
C  1.51900 11.32000 28.03300
C  1.96300 14.01300 25.60800
C  1.84400 13.43000 29.07300
O  1.99000 14.61800 29.24700
C  1.61800 12.26600 30.25200
C  2.79400 12.22200 31.15400
O  3.89100 11.70100 30.98500
O  2.43200 12.79600 32.38000
C  3.35100 12.69100 33.50300
H  1.46600 5.40400 30.08700
H  0.58600 5.52300 23.68900
H  1.26300 11.84500 23.81900
H  2.04400 9.72600 31.95700
H  0.58700 7.24900 31.76100
H  3.15000 6.35400 31.33200
H  2.50600 6.72700 32.92400
H  3.50500 7.92100 32.18900
H  -0.88000 9.08700 31.26300
H  -0.41700 10.72500 31.76200
H  -1.23600 8.37800 33.34000
H  -1.07600 10.13900 33.75500
H  1.23000 2.39100 28.45600
H  -0.42700 2.87900 28.81800
H  1.05800 3.50500 29.55500
H  1.55000 1.49000 26.50000
H  0.46400 0.98400 25.11200
H  -0.29300 1.61400 26.53500
H  -0.02600 7.50300 22.04000
H  1.32200 10.12300 22.05700
H  2.55100 6.68600 22.49000
H  2.78600 8.14400 21.57200
H  1.73400 6.93900 20.90400
H  -1.17400 10.42600 23.26000
H  -1.43700 9.30500 21.92500
H  0.12800 11.50200 20.99800
H  -1.18700 12.20800 21.96500
H  -1.58700 11.22300 20.61200
H  2.81300 13.80000 24.96000
H  2.30500 14.82100 26.25600
H  1.05800 14.28700 25.06500
H  0.77300 12.56200 30.87300
H  4.09000 11.90300 33.36000
H  2.76400 12.35200 34.35700
H  3.85200 13.64000 33.69100
Mg 47.57400 25.13500 28.14600
C  48.62700 27.38100 30.69200
C  47.12400 22.74900 30.51700
C  46.96800 22.96300 25.63900
C  48.60700 27.49900 25.76300
N  47.92900 25.08500 30.32700
C  48.20800 26.10800 31.14100
C  47.81300 25.79400 32.56600
C  47.42300 24.25800 32.53800
C  47.46700 23.99600 31.03200
C  48.41600 23.23500 33.24200
C  46.84800 26.85700 33.32100
C  46.29300 26.39300 34.64600
H  46.12100 27.34000 35.78700
N  47.04900 23.18400 28.09900
C  46.90300 22.39500 29.19400
C  46.42500 21.15400 28.77600
C  46.37900 21.14100 27.31000
C  46.82300 22.48100 26.94400
C  45.98900 19.98900 29.73600
C  45.89300 20.04800 26.36700
O  45.97100 20.26400 25.14000
C  45.46800 18.70200 26.81400
N  47.76100 25.20200 26.03600
C  47.48700 24.17200 25.23600
C  47.68300 24.48500 23.78300
C  47.92400 25.99400 23.83000
C  48.13400 26.23700 25.32700
C  48.81900 23.71500 23.06300
C  46.69800 26.81900 23.37200
C  46.88600 28.08800 22.44600
N  48.57300 26.97000 28.17100
C  48.89200 27.79600 27.09000
C  49.45200 29.04700 27.60000
C  49.29000 28.92100 29.01900
C  48.78300 27.63700 29.31700
C  50.09500 30.21200 26.89800
C  49.35100 29.63700 30.25900
O  49.72800 30.77400 30.52400
C  48.85800 28.65800 31.40500
C  49.94000 28.74900 32.43900
O  51.17000 28.51800 32.30400
O  49.37100 29.19400 33.57000
C  50.10600 29.19500 34.86600
H  46.86300 22.14300 31.38700
H  47.02900 22.29300 24.77900
H  48.99900 28.05000 24.90600
H  48.77900 25.81100 33.07200
H  46.46500 24.27000 33.05800
H  49.03000 22.65900 32.54900
H  47.69700 22.73800 33.89300
H  49.10100 23.77400 33.89700
H  46.13000 27.20400 32.57800
H  47.45400 27.70900 33.62700
H  47.00100 25.63700 34.98400
H  45.36500 25.83400 34.52100
H  45.13900 19.48700 29.27400
H  45.69200 20.53200 30.63300
H  46.83800 19.32900 29.90800
H  44.55000 18.87700 27.37400
H  46.32500 18.42900 27.43100
H  45.39300 18.09100 25.91500
H  46.80900 24.31200 23.15500
H  48.85000 26.27800 23.32900
H  48.43300 23.53000 22.06100
H  49.12700 22.85000 23.65100
H  49.76800 24.24400 22.97900
H  46.09200 27.14200 24.21800
H  46.05600 26.13900 22.81300
H  46.55600 27.85600 21.43300
H  47.89800 28.48000 22.34800
H  46.33100 28.94100 22.83500
H  50.59300 29.83300 26.00600
H  50.86200 30.64000 27.54300
H  49.38300 30.99300 26.63600
H  47.92300 28.96900 31.87100
H  49.66700 28.45200 35.53300
H  50.00300 30.18100 35.31900
H  51.15400 28.95000 34.69200

