158

Mg 2.98300 -1.16300 44.52500
C  6.45700 -0.70500 44.24600
C  2.61100 1.43400 42.15600
C  -0.17200 -2.16000 43.84200
C  3.50600 -4.12300 46.24200
N  4.35900 0.18400 43.33100
C  5.77200 0.14700 43.39300
C  6.35400 1.22000 42.33700
C  5.11500 2.15300 42.02600
C  3.97500 1.22300 42.54400
C  5.18700 3.49300 42.69500
C  7.02300 0.46300 41.16400
C  8.53700 0.67300 40.93800
H  8.98300 1.22200 39.54800
N  1.46100 -0.40500 43.34900
C  1.47700 0.69600 42.54400
C  0.09600 0.97500 42.06500
C  -0.75400 -0.08900 42.54500
C  0.21200 -0.98200 43.28800
C  -0.22700 2.20900 41.28100
C  -2.31800 -0.19200 42.34400
O  -2.94300 0.68700 41.69700
C  -3.19500 -1.23300 42.96900
N  1.85600 -3.11100 44.69700
C  0.59100 -3.09700 44.55300
C  -0.05900 -4.21800 45.36800
C  1.15100 -4.96000 46.07300
C  2.28700 -4.03200 45.63700
C  -1.17400 -3.67000 46.26800
C  1.41700 -6.41700 45.61600
C  1.50900 -7.50500 46.67400
N  4.62200 -2.16700 45.19900
C  4.67800 -3.35200 45.92800
C  6.04700 -3.71000 46.27900
C  6.81300 -2.59100 45.69900
C  5.84100 -1.78700 44.97500
C  6.44900 -4.90200 47.16900
C  8.08400 -1.96600 45.50100
O  9.17500 -2.25900 45.83500
C  7.87500 -0.68500 44.66800
C  8.16500 0.58400 45.33500
O  7.47700 1.26000 46.11500
O  9.35900 1.06800 44.81600
C  9.41400 2.53900 44.94600
H  2.51300 2.21300 41.39600
H  -1.22200 -2.45800 43.82100
H  3.66900 -5.04500 46.80400
H  7.05000 1.85100 42.88900
H  4.94300 2.27000 40.95600
H  6.23400 3.79600 42.70300
H  4.63100 3.46800 43.63300
H  4.69200 4.27900 42.12400
H  6.54100 0.82800 40.25700
H  6.86900 -0.61300 41.07900
H  9.08900 -0.26500 40.99900
H  8.88200 1.34800 41.72100
H  0.39800 2.31900 40.39500
H  0.06600 3.06900 41.88300
H  -1.28200 2.42500 41.10900
H  -4.24600 -1.00800 42.79100
H  -2.85400 -1.19300 44.00400
H  -2.95800 -2.22400 42.58300
H  -0.52000 -4.90000 44.65300
H  1.11700 -4.95400 47.16200
H  -1.31600 -2.59200 46.18900
H  -1.08200 -4.02600 47.29400
H  -2.07900 -4.08100 45.82100
H  2.41300 -6.45300 45.17500
H  0.72100 -6.92300 44.94700
H  2.43900 -8.06500 46.57700
H  0.65100 -8.11800 46.39500
H  1.32200 -7.21200 47.70700
H  5.83300 -5.13800 48.03600
H  7.44600 -4.63400 47.51900
H  6.53300 -5.82900 46.60100
H  8.52500 -0.84700 43.80700
H  8.48000 2.98600 44.60400
H  10.16400 2.87100 44.22900
H  9.78800 2.88800 45.90800
Mg 18.01000 -0.94400 27.90400
C  17.02300 1.07400 30.82000
C  19.77000 -2.86100 30.05200
C  18.63000 -2.74500 25.28300
C  16.01600 1.36500 25.98100
N  18.26000 -0.96400 30.12400
C  17.88800 -0.05500 31.07100
C  18.25800 -0.52000 32.52500
C  19.14800 -1.76000 32.27200
C  19.09500 -1.84600 30.71000
C  20.58600 -1.90300 32.80200
C  16.95200 -0.80200 33.39300
C  16.81500 -0.01800 34.71300
H  18.14500 0.55100 35.33500
N  19.21300 -2.45000 27.61000
C  19.87600 -3.16100 28.61400
C  20.65200 -4.20300 27.96700
C  20.27100 -4.19000 26.58700
C  19.24400 -3.11900 26.43100
C  21.44700 -5.19200 28.69300
C  20.76000 -5.11600 25.43400
O  20.45700 -4.98400 24.26000
C  21.75000 -6.17200 25.70500
N  17.54500 -0.64500 25.91600
C  17.81300 -1.64000 25.04100
C  17.23800 -1.33900 23.63400
C  16.37400 -0.05800 23.93800
C  16.68000 0.24800 25.33800
C  18.24400 -1.07600 22.45100
C  14.87600 -0.28500 23.66200
C  14.04300 -1.06300 24.68300
N  16.74300 0.81800 28.29700
C  15.96500 1.62400 27.34500
C  15.39500 2.74300 28.03300
C  15.74900 2.54500 29.34900
C  16.60600 1.46400 29.49000
C  14.48500 3.68500 27.44500
C  15.60700 3.10500 30.63700
O  14.98100 4.02900 31.05600
C  16.29600 2.07700 31.65400
C  17.27700 2.89000 32.48800
O  18.51100 3.04200 32.32600
O  16.50400 3.41700 33.50700
C  17.18500 4.49500 34.23000
H  20.43600 -3.43500 30.70000
H  18.67500 -3.45500 24.45400
H  15.36100 1.93700 25.32000
H  18.87400 0.28600 32.92400
H  18.65300 -2.63300 32.69700
H  20.60400 -1.40500 33.77100
H  21.19100 -1.36900 32.07000
H  20.97100 -2.92300 32.83800
H  16.80000 -1.84500 33.67100
H  16.21900 -0.45100 32.66800
H  16.31600 -0.66600 35.43400
H  16.23500 0.89200 34.55900
H  21.49200 -4.99400 29.76400
H  22.48100 -5.04700 28.38100
H  21.05500 -6.19000 28.49400
H  22.67400 -5.76200 26.11300
H  22.00900 -6.55400 24.71800
H  21.43500 -7.03400 26.29400
H  16.56300 -2.17500 23.45000
H  16.62900 0.83200 23.36100
H  18.56100 -1.89800 21.80900
H  19.16000 -0.65600 22.86700
H  17.90100 -0.21600 21.87700
H  14.76900 -0.80800 22.71200
H  14.38300 0.67900 23.53600
H  13.30700 -0.32300 25.00100
H  14.59500 -1.47400 25.52800
H  13.35000 -1.81600 24.30900
H  14.03800 3.25400 26.54900
H  14.98900 4.60400 27.14600
H  13.67300 4.02900 28.08500
H  15.43900 1.65900 32.18000
H  18.26500 4.34800 34.21800
H  16.76000 4.55100 35.23200
H  16.86200 5.41400 33.73900

