158

Mg 29.91800 58.17600 41.21600
C  26.97200 56.63900 39.89700
C  31.73000 55.45600 39.80300
C  32.62500 59.91400 41.69500
C  27.94400 61.01800 42.01300
N  29.42600 56.20600 40.04000
C  28.13600 55.90300 39.63200
C  28.16700 54.55400 38.78700
C  29.62200 54.01100 39.17300
C  30.35500 55.33900 39.70400
C  29.55800 52.87200 40.26500
C  28.04500 54.85000 37.28100
C  27.35200 53.82100 36.36800
H  27.92500 53.57200 34.95300
N  31.88300 57.66200 40.98400
C  32.43500 56.56300 40.33300
C  33.89100 56.77900 40.31700
C  34.17600 58.03800 40.84300
C  32.85800 58.56300 41.23500
C  34.89100 55.66100 39.98400
C  35.61700 58.54200 41.14600
O  36.61300 57.88400 40.94700
C  35.87300 59.92700 41.75100
N  30.13400 60.23100 41.71200
C  31.41300 60.63500 41.90700
C  31.56800 62.11800 42.22800
C  30.02900 62.46300 42.32600
C  29.30400 61.14900 42.10100
C  32.45800 62.46300 43.47700
C  29.57700 63.64700 41.43400
C  29.10000 64.90300 42.22000
N  27.83400 58.73500 41.06900
C  27.25600 59.85200 41.57400
C  25.79600 59.70700 41.39300
C  25.66800 58.53700 40.63700
C  26.95400 57.91600 40.56100
C  24.76500 60.70800 41.92500
C  24.67700 57.59500 40.16000
O  23.46100 57.72600 40.20200
C  25.50000 56.37100 39.48500
C  24.95300 55.12000 40.13800
O  25.32500 54.70400 41.24900
O  24.09100 54.37700 39.33400
C  23.50600 53.21300 40.00700
H  32.34000 54.57600 39.59000
H  33.53800 60.50100 41.81800
H  27.45600 61.95900 42.27300
H  27.32000 53.92700 39.06500
H  30.15700 53.64600 38.29600
H  28.52700 52.85000 40.61500
H  30.25500 53.12900 41.06300
H  29.83600 51.88100 39.90500
H  29.07700 55.05800 36.99900
H  27.53300 55.81200 37.24900
H  26.36800 54.18000 36.06700
H  27.13500 52.89300 36.89800
H  35.75100 55.92100 39.36700
H  34.41600 54.86700 39.40700
H  35.18100 55.27200 40.95900
H  36.95300 60.05900 41.68900
H  35.45000 59.95200 42.75500
H  35.42400 60.62400 41.04300
H  32.00500 62.56700 41.33600
H  29.84500 62.54500 43.39700
H  32.57500 61.59500 44.12600
H  31.88400 63.22700 44.00300
H  33.38700 62.84200 43.05200
H  28.85300 63.27600 40.70900
H  30.31900 64.16200 40.82400
H  29.37000 65.87500 41.80600
H  29.39700 64.83200 43.26600
H  28.01100 64.86500 42.24300
H  24.74400 61.57200 41.26200
H  25.14500 61.04200 42.89100
H  23.80400 60.25800 42.17500
H  25.44500 56.31500 38.39800
H  24.26300 52.56300 40.44600
H  22.88000 52.59100 39.36700
H  22.95700 53.63600 40.84800
Mg 26.85400 50.91600 26.23100
C  25.25300 52.19700 29.01900
C  29.01800 49.25300 28.29500
C  28.58700 50.04700 23.47800
C  24.66100 52.55400 24.21800
N  27.01600 50.64400 28.44100
C  26.31300 51.32300 29.37700
C  26.81500 51.00400 30.79000
C  28.19700 50.37700 30.44800
C  28.00700 49.93600 28.95100
C  29.41600 51.33600 30.64400
C  25.77300 49.94800 31.50300
C  24.82500 50.47400 32.62000
H  24.96500 49.77600 33.95400
N  28.53500 49.69600 25.94000
C  29.27100 48.99600 26.87600
C  30.30500 48.21500 26.24900
C  30.26800 48.52800 24.80300
C  29.12100 49.51900 24.69800
C  31.16300 47.22800 27.07800
C  30.98200 47.79500 23.62800
O  30.86400 48.15100 22.44900
C  31.82400 46.61700 23.87300
N  26.81800 51.56600 24.17600
C  27.53500 50.90700 23.23000
C  27.21500 51.26400 21.75800
C  25.81000 51.94400 22.00300
C  25.72700 51.99500 23.56600
C  28.20600 52.26400 21.20900
C  24.72700 51.22600 21.20500
C  23.50500 52.11500 20.76800
N  25.37000 52.22300 26.46700
C  24.48500 52.77100 25.58500
C  23.48900 53.60800 26.30100
C  23.75700 53.33800 27.61200
C  24.87500 52.47600 27.67500
C  22.36100 54.21600 25.57400
C  23.35000 53.56300 28.97200
O  22.43100 54.20500 29.39200
C  24.32300 52.88900 29.91900
C  24.86300 53.90900 30.83900
O  25.81600 54.64800 30.72500
O  24.05200 53.93900 31.99900
C  24.36800 54.95300 33.11800
H  29.67500 48.69700 28.96700
H  29.11800 49.65600 22.60700
H  23.92400 52.95200 23.51800
H  26.84600 51.98500 31.26300
H  28.46100 49.53500 31.08800
H  29.71600 51.64100 29.64100
H  30.16900 50.68400 31.08700
H  29.11700 52.16000 31.29100
H  26.41900 49.14200 31.85100
H  25.00000 49.56800 30.83400
H  23.80900 50.37900 32.23900
H  25.11300 51.51400 32.77200
H  31.21800 47.45000 28.14400
H  32.12200 47.33300 26.57100
H  30.79100 46.23800 26.81200
H  32.69200 46.93600 24.45100
H  32.00100 46.04100 22.96400
H  31.14900 45.99000 24.45500
H  27.27800 50.40600 21.08900
H  25.72400 52.95900 21.61600
H  27.81400 53.08700 20.61200
H  28.93000 51.70600 20.61600
H  28.69500 52.68900 22.08600
H  24.31000 50.47000 21.87100
H  25.20200 50.73800 20.35400
H  22.75800 51.89200 21.53000
H  23.06000 51.85000 19.80900
H  23.78900 53.16700 20.75800
H  22.76300 54.88000 24.80900
H  21.82900 54.72000 26.38100
H  21.61900 53.55300 25.13000
H  23.73200 52.20800 30.53200
H  23.38300 55.04200 33.57600
H  24.67900 55.90600 32.68900
H  25.11400 54.55100 33.80400

