158

Mg 17.20500 -2.00300 27.66100
C  16.33600 -0.17300 30.68900
C  19.00400 -4.16100 29.61800
C  17.96800 -3.53000 24.95100
C  15.67400 0.66500 25.85500
N  17.58200 -2.12000 29.96100
C  17.10000 -1.31100 30.98200
C  17.64600 -1.76800 32.35800
C  18.35500 -3.11300 31.93200
C  18.26400 -3.17400 30.40400
C  19.82700 -3.27600 32.53500
C  16.58900 -1.89400 33.55000
C  16.92900 -1.25800 34.93000
H  18.33600 -0.67600 35.27000
N  18.42700 -3.65700 27.33200
C  18.99600 -4.51800 28.23600
C  19.68200 -5.54100 27.57200
C  19.39400 -5.34900 26.13700
C  18.57900 -4.12600 26.03400
C  20.48700 -6.54800 28.21100
C  19.81800 -6.21700 24.97800
O  19.54300 -5.95900 23.81200
C  20.65800 -7.47800 25.12700
N  16.87800 -1.46000 25.71900
C  17.34000 -2.26800 24.74100
C  17.14100 -1.65400 23.28800
C  16.31400 -0.36700 23.55600
C  16.22200 -0.39500 25.11900
C  18.55300 -1.31900 22.71400
C  15.00100 -0.40400 22.70600
C  13.75200 -1.01400 23.44900
N  16.11400 -0.15100 28.10300
C  15.63500 0.80600 27.29600
C  14.98000 1.78600 28.04000
C  15.15100 1.39400 29.38100
C  15.91400 0.26300 29.38000
C  14.12600 2.87200 27.45800
C  14.95200 1.84400 30.73100
O  14.45400 2.93500 31.06500
C  15.75000 0.84100 31.63900
C  16.78800 1.54200 32.52500
O  17.94000 1.82100 32.12800
O  16.22400 2.09800 33.67300
C  17.05200 3.05600 34.34900
H  19.52300 -4.89400 30.23800
H  18.13700 -4.16400 24.07800
H  15.18300 1.36700 25.17800
H  18.40100 -1.00200 32.53200
H  17.79700 -3.99400 32.25100
H  20.05700 -4.33800 32.62800
H  19.97900 -2.72500 33.46400
H  20.62400 -2.90500 31.89100
H  16.47600 -2.96900 33.69300
H  15.63800 -1.48200 33.21200
H  16.75600 -2.05300 35.65500
H  16.10000 -0.61500 35.22300
H  20.50300 -6.45700 29.29700
H  21.48600 -6.33500 27.83200
H  20.14700 -7.56500 28.01500
H  21.52000 -7.30700 25.77000
H  20.95400 -7.66300 24.09400
H  20.01500 -8.23000 25.58500
H  16.75500 -2.44600 22.64600
H  16.84300 0.53300 23.24200
H  18.90200 -0.33900 23.03800
H  18.48200 -1.32100 21.62600
H  19.21700 -2.12400 23.02900
H  15.19800 -0.97400 21.79800
H  14.66100 0.61200 22.50300
H  13.26700 -0.21500 24.01100
H  14.10600 -1.71200 24.20700
H  13.02000 -1.47700 22.78700
H  13.14700 2.40900 27.32900
H  14.38500 3.25700 26.47200
H  14.14700 3.58800 28.27900
H  14.98600 0.40700 32.28500
H  16.69000 4.02100 33.99600
H  18.13100 2.94400 34.23900
H  16.74000 2.87100 35.37700
Mg 52.72500 24.27100 45.77500
C  50.29300 26.13700 44.41500
C  51.93700 21.60500 43.82700
C  55.88100 22.89500 46.34600
C  54.15300 27.37500 46.95100
N  51.26900 23.94500 44.36300
C  50.41900 24.80800 43.88200
C  49.58300 24.25700 42.71500
C  49.90700 22.77900 42.71600
C  51.12300 22.75300 43.65300
C  48.65000 21.82800 43.17600
C  49.98100 25.01500 41.42400
C  48.97800 25.04300 40.28800
H  49.39900 24.28000 38.89700
N  53.64000 22.39700 45.31400
C  53.09700 21.38200 44.55200
C  53.91000 20.24000 44.66300
C  55.09200 20.57800 45.38700
C  54.93700 22.03200 45.73800
C  53.39900 18.92400 44.12200
C  56.16300 19.58300 45.82000
O  56.05200 18.39300 45.48300
C  57.14100 19.92400 46.82000
N  54.74900 25.07800 46.56600
C  55.78500 24.28300 46.68300
C  56.91600 25.07900 47.49900
C  56.52100 26.55200 47.45500
C  55.04300 26.35700 47.00400
C  57.00900 24.47500 48.89100
C  57.32400 27.42700 46.45600
C  58.37000 28.29800 47.13100
N  52.19800 26.21400 46.03500
C  52.79800 27.33900 46.59300
C  51.90600 28.53800 46.46800
C  50.92100 28.00100 45.65700
C  51.14300 26.65600 45.39400
C  52.11900 29.97600 47.00600
C  49.79100 28.49200 44.94100
O  49.22300 29.57200 44.81600
C  49.28700 27.29600 44.10100
C  49.21900 27.88100 42.67600
O  50.17200 28.21600 42.02200
O  47.89300 27.99500 42.38800
C  47.34400 28.48100 41.08500
H  51.54800 20.75300 43.26600
H  56.87900 22.49700 46.54100
H  54.63500 28.31900 47.21700
H  48.51100 24.40600 42.84100
H  50.32900 22.45100 41.76600
H  48.76700 20.87100 42.66600
H  47.71400 22.26800 42.83200
H  48.63100 21.60500 44.24300
H  50.83100 24.48000 41.00000
H  50.41200 25.97200 41.72100
H  48.78400 26.11100 40.19000
H  48.06300 24.49400 40.51000
H  54.02600 18.60900 43.28800
H  52.32900 18.90100 43.91500
H  53.45000 18.05100 44.77300
H  58.08200 20.18100 46.33300
H  57.32800 19.08300 47.48900
H  56.90000 20.76700 47.46800
H  57.75900 24.77400 46.87900
H  56.58400 26.96900 48.46000
H  58.00400 24.76000 49.23300
H  56.94700 23.38800 48.84100
H  56.19800 24.83400 49.52500
H  56.61400 28.04800 45.90900
H  57.92700 26.77000 45.82900
H  58.45300 29.28400 46.67500
H  59.35700 27.83400 47.15300
H  58.02200 28.49700 48.14500
H  52.59700 30.65000 46.29500
H  52.94300 30.00600 47.71900
H  51.31100 30.38000 47.61600
H  48.30400 27.05600 44.50500
H  47.51700 28.00600 40.11900
H  47.91200 29.39100 40.89200
H  46.26000 28.54600 41.17800

