158

Mg 44.98600 4.55300 48.28100
C  42.85600 7.21100 47.45900
C  42.49400 2.40300 47.86000
C  47.29000 2.14800 48.45500
C  47.70100 6.95900 48.24800
N  42.89600 4.80100 47.73900
C  42.20800 5.89000 47.42400
C  40.69300 5.58000 47.14500
C  40.51900 4.06000 47.38700
C  42.05800 3.72300 47.71400
C  39.54000 3.75600 48.49500
C  40.21000 6.08600 45.75700
C  38.99300 6.93700 45.68500
H  38.23300 6.80700 44.33400
N  44.93700 2.46600 48.34500
C  43.75600 1.85800 48.16400
C  44.01500 0.41200 48.12100
C  45.39400 0.24700 48.31000
C  45.96300 1.65100 48.38100
C  42.79800 -0.64100 48.03600
C  46.07500 -1.13800 48.41200
O  45.48100 -2.15700 48.33300
C  47.63900 -1.28300 48.60200
N  47.18700 4.52500 48.19500
C  47.83600 3.38500 48.48900
C  49.36900 3.59800 48.82300
C  49.59900 5.17200 48.55800
C  48.09100 5.61400 48.31600
C  49.82200 3.04600 50.18200
C  50.53300 5.52700 47.40300
C  51.96200 5.13300 47.57200
N  45.21700 6.59700 47.98900
C  46.35200 7.39500 48.05900
C  45.96800 8.79100 47.99800
C  44.60500 8.76400 47.74500
C  44.19400 7.41100 47.76100
C  46.83800 9.98900 47.93900
C  43.50900 9.58700 47.39100
O  43.37000 10.79300 47.45700
C  42.28500 8.63600 47.21400
C  41.19900 8.99400 48.14800
O  41.11800 8.58100 49.26800
O  40.21100 9.84300 47.56600
C  39.11000 10.20100 48.42100
H  41.68800 1.66700 47.84300
H  47.98200 1.37000 48.78200
H  48.52300 7.67900 48.24800
H  40.20900 6.17100 47.92200
H  40.26800 3.51100 46.47900
H  40.00800 3.31400 49.37400
H  38.76300 3.06800 48.16400
H  38.93300 4.55900 48.91200
H  40.09400 5.25700 45.05900
H  41.09300 6.65000 45.45600
H  39.16700 7.99400 45.88400
H  38.39400 6.62600 46.54100
H  43.08800 -1.52700 47.47200
H  41.92500 -0.33700 47.45700
H  42.49200 -0.84600 49.06200
H  48.00500 -2.31000 48.61500
H  47.85500 -0.84900 49.57800
H  48.21000 -0.78800 47.81700
H  49.94100 3.20200 47.98300
H  49.96400 5.67400 49.45400
H  49.00200 2.77000 50.84500
H  50.50800 3.74100 50.66600
H  50.32100 2.10500 49.95000
H  50.53100 6.61700 47.40700
H  50.14000 5.02000 46.52200
H  52.15200 4.66900 48.54000
H  52.51400 6.06000 47.41500
H  52.26400 4.48800 46.74600
H  47.59400 9.65400 47.22900
H  47.30800 10.20000 48.89900
H  46.25000 10.86900 47.67700
H  41.94700 8.63000 46.17800
H  39.22500 9.89900 49.46200
H  38.27600 9.65300 47.98200
H  38.81700 11.25100 48.39200
Mg -10.13500 17.14500 40.74600
C  -6.74800 15.94300 40.68100
C  -8.98200 20.15700 39.71300
C  -13.26400 17.95000 40.02800
C  -11.00700 13.65800 40.69200
N  -8.11700 17.85100 40.28600
C  -6.89100 17.28700 40.37100
C  -5.70200 18.26400 39.91300
C  -6.49100 19.63500 40.15500
C  -7.97100 19.20700 39.97900
C  -6.12400 20.43300 41.53900
C  -5.31100 17.94800 38.44200
C  -3.79300 17.61800 38.21600
H  -3.49400 16.31600 37.45600
N  -10.99600 18.82800 40.04100
C  -10.37500 19.96200 39.62600
C  -11.36000 20.99700 39.32900
C  -12.62800 20.40600 39.67500
C  -12.33100 19.00200 40.01300
C  -10.93300 22.36900 38.94000
C  -13.98200 21.12600 39.69400
O  -14.07100 22.26000 39.28100
C  -15.29000 20.55300 40.26400
N  -11.95300 15.96800 40.33400
C  -13.14700 16.57500 40.16500
C  -14.23400 15.57400 40.13600
C  -13.50800 14.20700 40.22100
C  -12.05500 14.59900 40.40500
C  -15.27100 15.65300 41.32800
C  -13.71700 13.26200 38.93400
C  -13.29300 13.76900 37.59600
N  -9.06200 15.28200 40.96700
C  -9.63000 13.99200 40.91200
C  -8.59000 13.00700 41.13100
C  -7.38600 13.72300 40.98100
C  -7.74500 15.08700 40.87000
C  -8.65300 11.48400 41.30300
C  -5.93000 13.65600 40.94300
O  -5.16800 12.72200 41.06200
C  -5.44600 15.09300 40.73500
C  -4.66100 15.55900 41.93800
O  -3.84700 16.48300 41.99900
O  -4.92700 14.78100 43.07000
C  -4.01100 14.79900 44.23200
H  -8.63100 21.13500 39.38000
H  -14.29300 18.24100 39.80700
H  -11.24500 12.59500 40.61300
H  -4.87100 18.23900 40.61900
H  -6.26400 20.24100 39.27800
H  -7.03900 20.50700 42.12700
H  -5.67400 21.37900 41.23800
H  -5.41900 19.87700 42.15700
H  -5.64600 18.66000 37.68900
H  -5.90400 17.06000 38.22300
H  -3.38800 17.58700 39.22800
H  -3.36000 18.46600 37.68400
H  -10.75900 22.87300 39.89000
H  -11.76900 22.84100 38.42300
H  -9.96800 22.46000 38.44100
H  -15.16800 19.96300 41.17200
H  -15.72700 19.97700 39.44800
H  -16.05300 21.30400 40.47100
H  -14.90400 15.71300 39.28800
H  -13.78100 13.68800 41.14000
H  -15.26600 14.73300 41.91300
H  -16.25900 15.67600 40.86700
H  -15.14900 16.41700 42.09600
H  -14.80400 13.18800 38.91300
H  -13.18600 12.33900 39.17000
H  -14.01300 13.67400 36.78300
H  -12.46100 13.15800 37.24500
H  -13.05800 14.83300 37.58800
H  -8.05500 10.97000 40.55100
H  -9.63300 11.00700 41.32200
H  -8.28500 11.38200 42.32400
H  -4.86600 15.04000 39.81400
H  -3.10200 14.25800 43.97100
H  -4.48900 14.49200 45.16300
H  -3.68700 15.81200 44.46900

