158

Mg 41.22300 8.62500 29.79900
C  42.99600 9.98000 32.42900
C  38.95100 7.39100 32.06100
C  39.54800 7.33900 27.21400
C  43.88800 9.48100 27.73900
N  41.16500 8.56400 31.98700
C  41.91200 9.24200 32.87200
C  41.30300 9.21500 34.29900
C  40.10900 8.16200 34.11500
C  40.07100 8.00100 32.62000
C  40.23200 6.79700 34.86600
C  40.81700 10.64000 34.84300
C  40.13300 10.69000 36.20000
H  40.67500 11.69300 37.21500
N  39.48200 7.65300 29.66100
C  38.55500 7.28900 30.66400
C  37.32200 6.93400 30.12100
C  37.47700 7.17800 28.72400
C  38.92100 7.42400 28.43700
C  36.06900 6.55400 30.89600
C  36.45700 7.17200 27.62800
O  36.65000 7.35700 26.41500
C  35.09700 6.87900 28.03300
N  41.66400 8.28000 27.73500
C  40.84700 7.73100 26.84800
C  41.54500 7.64600 25.38900
C  43.00700 8.23300 25.73100
C  42.90300 8.69700 27.17800
C  41.44400 6.12700 24.97800
C  43.47200 9.20800 24.63400
C  44.82800 8.90600 23.99700
N  43.03400 9.65800 29.93700
C  43.99400 9.93600 29.01300
C  45.05000 10.67900 29.60500
C  44.65000 10.86700 30.96100
C  43.48000 10.13600 31.13200
C  46.30300 11.02500 29.00700
C  45.07200 11.40300 32.27000
O  46.01700 12.11900 32.52400
C  43.88100 10.99700 33.22300
C  44.45700 10.44400 34.42300
O  44.77200 9.32400 34.58900
O  44.66200 11.47400 35.36400
C  45.14200 11.01000 36.70000
H  38.20000 6.89800 32.68300
H  38.97800 6.88800 26.40000
H  44.73200 9.73100 27.09300
H  42.05300 8.72600 34.92100
H  39.17100 8.62100 34.42800
H  40.20500 5.94200 34.19000
H  39.52800 6.69200 35.69200
H  41.20800 6.74500 35.34900
H  40.17000 11.24600 34.20800
H  41.64400 11.32100 35.04400
H  40.04500 9.71800 36.68500
H  39.09000 10.95600 36.02800
H  36.33500 6.42800 31.94500
H  35.86900 5.54300 30.53900
H  35.16500 7.15500 30.79600
H  34.91900 7.69700 28.73100
H  34.97400 5.88000 28.45300
H  34.35300 6.88900 27.23600
H  40.95300 8.31900 24.77000
H  43.74900 7.43900 25.82500
H  42.40300 5.86100 24.53300
H  40.68600 6.06000 24.19800
H  41.14000 5.40900 25.73900
H  43.55000 10.18000 25.12200
H  42.65300 9.39700 23.94000
H  44.81800 8.94200 22.90800
H  45.41600 8.08800 24.41400
H  45.46000 9.72200 24.34800
H  46.94600 10.15900 28.84800
H  46.94200 11.67000 29.61100
H  46.34800 11.39700 27.98300
H  43.23000 11.79500 33.58000
H  46.15100 10.60700 36.61700
H  44.56000 10.25800 37.23300
H  45.26100 11.86400 37.36600
Mg 47.17100 24.53500 28.05000
C  48.31100 26.79200 30.45700
C  46.79600 22.08600 30.49300
C  46.41900 22.36200 25.66300
C  47.99500 26.92100 25.59800
N  47.46200 24.44600 30.24100
C  47.84400 25.54900 31.00300
C  47.86700 25.15100 32.47100
C  47.38400 23.65400 32.51700
C  47.26400 23.34700 30.99900
C  48.39300 22.72400 33.34000
C  47.05700 26.15700 33.40700
C  46.57000 25.55700 34.70100
H  46.99900 26.29200 36.00900
N  46.58800 22.49800 28.02400
C  46.48100 21.67400 29.17200
C  46.07500 20.32300 28.68400
C  45.93200 20.38600 27.31000
C  46.32200 21.76100 26.92500
C  45.84000 19.19600 29.67000
C  45.60900 19.32200 26.33100
O  45.49300 19.54900 25.16100
C  45.34700 17.91900 26.74300
N  47.14200 24.62900 25.87300
C  46.79800 23.58300 25.12200
C  47.19100 23.84300 23.64100
C  47.31500 25.40900 23.70800
C  47.49200 25.69700 25.13700
C  48.48500 23.09400 23.21300
C  46.06800 26.14500 23.22800
C  46.25400 26.95700 21.93800
N  48.06900 26.41300 27.96000
C  48.30100 27.25800 26.90500
C  48.95300 28.53900 27.35800
C  48.90400 28.40100 28.77300
C  48.39700 27.07800 29.05400
C  49.43600 29.67700 26.56800
C  49.28000 28.99900 30.07800
O  49.78800 30.07700 30.32300
C  48.81200 27.98200 31.16000
C  49.94800 27.71000 32.09300
O  50.96700 27.09400 31.81800
O  49.67100 28.28900 33.30500
C  50.77600 28.38000 34.28000
H  46.63000 21.42400 31.34500
H  46.48000 21.70100 24.79600
H  48.22400 27.62400 24.79400
H  48.91000 25.27400 32.76200
H  46.39700 23.50700 32.95500
H  49.29300 23.12200 33.80700
H  48.69300 21.82900 32.79500
H  47.79400 22.42700 34.20100
H  46.34900 26.61200 32.71400
H  47.78200 26.90800 33.72100
H  46.77400 24.49700 34.85000
H  45.48100 25.55800 34.64400
H  46.67500 19.15500 30.37000
H  45.72100 18.22100 29.19800
H  44.90100 19.45200 30.16100
H  44.97900 17.29800 25.92600
H  44.46700 18.09500 27.36100
H  46.16800 17.47700 27.30800
H  46.34200 23.64100 22.98800
H  48.20100 25.69200 23.14000
H  49.37400 23.72200 23.25800
H  48.30400 22.65900 22.23000
H  48.59900 22.26800 23.91600
H  45.72400 26.91000 23.92400
H  45.20400 25.52000 23.00100
H  47.01900 26.59000 21.25300
H  46.54700 27.93500 22.31900
H  45.30400 27.16300 21.44500
H  49.26500 29.56900 25.49700
H  50.52200 29.75700 26.60900
H  49.02500 30.61900 26.93300
H  48.01900 28.56500 31.62700
H  50.69100 27.64100 35.07600
H  50.70400 29.34200 34.78700
H  51.75500 28.29100 33.80700

