158

Mg 1.68300 -1.46100 44.39900
C  5.03700 -0.70000 44.02300
C  0.93800 1.43900 42.73900
C  -1.57700 -2.62700 43.99300
C  2.56800 -4.64900 45.62900
N  2.85500 0.04900 43.28300
C  4.20000 0.26300 43.44000
C  4.63400 1.63600 42.97200
C  3.31800 2.34100 42.69800
C  2.24400 1.20900 43.00200
C  3.02800 3.61100 43.61100
C  5.68900 1.79400 41.79100
C  5.38600 0.94800 40.55300
H  6.21200 1.30700 39.29200
N  -0.15800 -0.59000 43.58600
C  -0.20000 0.61900 43.00100
C  -1.63700 0.88400 42.70500
C  -2.34700 -0.33900 43.01800
C  -1.35400 -1.31800 43.59700
C  -2.06100 2.14500 42.03000
C  -3.93700 -0.53300 42.86900
O  -4.67600 0.27400 42.26500
C  -4.59800 -1.76000 43.43800
N  0.57800 -3.37500 44.93200
C  -0.73700 -3.59300 44.67800
C  -1.12000 -5.04500 44.98600
C  0.27600 -5.71000 45.39600
C  1.20600 -4.45800 45.40500
C  -2.13900 -5.24800 46.08900
C  0.75100 -6.86900 44.53400
C  1.69900 -6.68500 43.33800
N  3.40600 -2.49100 44.78200
C  3.66300 -3.78000 45.36200
C  5.08600 -4.00800 45.41300
C  5.69500 -2.82100 44.95300
C  4.63100 -1.95800 44.52000
C  5.78700 -5.21800 45.94400
C  6.93100 -2.03300 44.76900
O  8.10000 -2.27900 45.03200
C  6.51200 -0.61900 44.28700
C  6.87300 0.45300 45.22700
O  6.36600 0.68300 46.29300
O  7.93400 1.14300 44.67800
C  8.50600 2.23300 45.52200
H  0.71600 2.46900 42.45400
H  -2.57300 -3.00200 43.74900
H  2.68600 -5.64000 46.07100
H  5.12500 2.07700 43.83900
H  3.28000 2.51100 41.62200
H  3.89300 3.81100 44.24300
H  2.16600 3.57800 44.27700
H  2.73900 4.41800 42.93800
H  6.69000 1.68600 42.20900
H  5.61300 2.85900 41.57000
H  4.35100 0.87800 40.21800
H  5.53300 -0.09400 40.83700
H  -2.78700 1.92100 41.24900
H  -1.23200 2.54400 41.44700
H  -2.36800 2.92800 42.72400
H  -5.68600 -1.70000 43.43300
H  -4.30500 -1.96400 44.46800
H  -4.56700 -2.60900 42.75400
H  -1.49100 -5.49600 44.06500
H  0.35900 -5.95500 46.45500
H  -1.78200 -5.94400 46.84800
H  -3.06200 -5.56600 45.60500
H  -2.47400 -4.31600 46.54400
H  -0.08700 -7.48800 44.21200
H  1.29000 -7.45700 45.27600
H  1.63100 -5.69800 42.88100
H  1.53500 -7.57200 42.72500
H  2.73200 -6.80500 43.66500
H  5.91300 -5.97600 45.17100
H  5.20600 -5.62300 46.77200
H  6.68700 -4.96800 46.50600
H  7.08700 -0.37300 43.39500
H  7.75400 2.93300 45.88500
H  9.30600 2.70900 44.95400
H  8.85300 1.70300 46.40900
Mg -11.65500 37.46300 41.77400
C  -9.24000 35.07900 40.71500
C  -9.69200 39.82000 40.20300
C  -14.15500 39.50300 42.10900
C  -13.58000 34.74100 42.83500
N  -9.64700 37.41400 40.49100
C  -8.92000 36.36900 40.25800
C  -7.64700 36.74400 39.50900
C  -7.59800 38.27300 39.56700
C  -8.99800 38.55200 40.19700
C  -6.37300 38.88600 40.35000
C  -7.39800 36.11700 38.10600
C  -5.96200 35.75800 37.62800
H  -5.25100 36.73700 36.67000
N  -11.90600 39.44300 41.28300
C  -10.99800 40.24200 40.66800
C  -11.58800 41.54200 40.51600
C  -12.86200 41.52500 41.13100
C  -13.01000 40.11500 41.56300
C  -10.95800 42.69100 39.87400
C  -13.73500 42.67800 41.41900
O  -13.42900 43.77300 40.88400
C  -14.95500 42.74100 42.29800
N  -13.63900 37.14500 42.30700
C  -14.43100 38.20200 42.53800
C  -15.82400 37.77200 42.92000
C  -15.71600 36.18500 43.08800
C  -14.19400 35.99700 42.66900
C  -16.39200 38.44000 44.16000
C  -16.65800 35.35200 42.11000
C  -18.06300 35.18800 42.72700
N  -11.43700 35.37400 41.88700
C  -12.31400 34.38000 42.42900
C  -11.67500 33.07600 42.38700
C  -10.46300 33.28700 41.68900
C  -10.38000 34.65000 41.37100
C  -12.13500 31.88200 42.98600
C  -9.21200 32.67000 41.22000
O  -8.82900 31.51700 41.33200
C  -8.33900 33.81300 40.71000
C  -7.01000 33.90600 41.49800
O  -5.97600 33.28800 41.21800
O  -7.04400 34.86600 42.51300
C  -5.75700 35.23400 43.16300
H  -9.13000 40.66700 39.80300
H  -15.02900 40.15300 42.19700
H  -14.22000 33.94100 43.21100
H  -6.86200 36.47900 40.21700
H  -7.48600 38.73300 38.58500
H  -5.56000 39.08400 39.65100
H  -6.02400 38.32500 41.21700
H  -6.76600 39.83600 40.71300
H  -7.74200 36.67900 37.23700
H  -7.90700 35.15600 38.03900
H  -5.92400 34.76300 37.18500
H  -5.30600 35.68300 38.49500
H  -9.98300 42.44500 39.45400
H  -10.80200 43.46300 40.62700
H  -11.60800 43.06000 39.08000
H  -14.89500 42.11400 43.18700
H  -15.78600 42.39400 41.68400
H  -15.20400 43.77400 42.54100
H  -16.51900 38.09800 42.14600
H  -15.85500 35.90500 44.13200
H  -16.86900 39.40000 43.96300
H  -15.50300 38.55100 44.78100
H  -17.15700 37.89400 44.71200
H  -16.35900 34.34200 41.82800
H  -16.69300 35.89400 41.16500
H  -18.12500 35.74800 43.66000
H  -18.27300 34.15000 42.98400
H  -18.79400 35.48500 41.97500
H  -12.25300 32.06100 44.05500
H  -11.58000 30.95400 42.84700
H  -13.10200 31.68300 42.52300
H  -8.00600 33.65900 39.68400
H  -5.00000 35.56300 42.45000
H  -5.44800 34.34500 43.71300
H  -5.89100 36.02600 43.89900

