158

Mg 44.09600 5.27200 47.05300
C  42.07500 8.17200 46.73900
C  41.33600 3.31400 46.45600
C  45.99400 2.57300 46.54000
C  46.83600 7.34400 46.95100
N  41.91600 5.73400 46.75600
C  41.34700 6.91400 46.51300
C  39.90900 6.74700 45.98500
C  39.62200 5.19300 46.34200
C  41.00900 4.67900 46.49900
C  38.60100 4.86900 47.56100
C  39.71200 7.04500 44.41200
C  39.08500 8.40300 44.00300
H  39.70500 9.19800 42.87300
N  43.69200 3.19300 46.60400
C  42.50000 2.57000 46.43700
C  42.63400 1.19800 46.16900
C  44.02200 0.91100 46.20000
C  44.67400 2.23100 46.45400
C  41.48300 0.29400 45.87000
C  44.65800 -0.53400 46.01300
O  43.93000 -1.53000 45.77400
C  46.10500 -0.71800 45.77400
N  46.09400 4.98200 46.95500
C  46.65800 3.79400 46.79000
C  48.17500 3.84200 46.71100
C  48.53100 5.34200 46.66000
C  47.09200 5.95400 46.92200
C  48.80400 2.96300 47.84200
C  49.03200 5.92100 45.28100
C  50.29400 5.31900 44.66100
N  44.45800 7.35000 46.99000
C  45.63800 8.01300 46.97500
C  45.36100 9.42400 46.95300
C  43.96200 9.54900 46.91000
C  43.45100 8.24400 46.92800
C  46.36400 10.57600 46.88800
C  42.84200 10.49000 46.84300
O  42.80700 11.71100 46.81000
C  41.58800 9.60900 46.66400
C  40.61500 9.94400 47.72800
O  40.65500 9.46600 48.86000
O  39.67000 10.86300 47.30700
C  38.58600 11.17500 48.13900
H  40.44400 2.69000 46.37500
H  46.68200 1.82200 46.14600
H  47.66400 8.05600 46.97600
H  39.24600 7.45200 46.48600
H  39.20100 4.74300 45.44300
H  38.16900 3.91800 47.25200
H  37.76800 5.51400 47.84200
H  39.21800 4.86700 48.46000
H  39.15500 6.18700 44.03600
H  40.67900 6.95500 43.91700
H  39.04900 8.99200 44.92000
H  38.01600 8.22400 43.89200
H  40.48300 0.70200 46.01900
H  41.63800 -0.56500 46.52200
H  41.73200 -0.13900 44.90100
H  46.38000 0.08100 45.08600
H  46.30000 -1.73500 45.43400
H  46.65600 -0.69700 46.71400
H  48.49600 3.36500 45.78600
H  49.11400 5.56200 47.55400
H  49.54300 3.53700 48.40200
H  49.23600 2.00100 47.56600
H  48.10200 2.78500 48.65600
H  49.37300 6.93700 45.48100
H  48.16700 5.86600 44.62000
H  50.28400 4.91700 43.64800
H  50.64600 4.57400 45.37500
H  51.16100 5.98000 44.66200
H  46.38800 11.05800 45.91000
H  47.33600 10.22800 47.23800
H  45.90700 11.24200 47.61900
H  41.20000 9.72000 45.65200
H  37.67100 10.91700 47.60600
H  38.46500 12.23400 48.36900
H  38.43100 10.47800 48.96200
Mg 0.95700 42.20800 25.71600
C  1.82900 42.33400 29.15300
C  -2.13000 41.13500 26.56900
C  0.45500 41.65200 22.51100
C  4.32900 43.07900 24.96800
N  -0.02900 41.83200 27.64500
C  0.48300 41.95300 28.91500
C  -0.74600 41.88300 29.93500
C  -1.83000 41.07900 29.06100
C  -1.31100 41.39700 27.69900
C  -1.81800 39.52200 29.30700
C  -1.24200 43.25800 30.37100
C  -1.28000 43.35600 31.95100
H  -2.24000 42.35100 32.65900
N  -0.69800 41.62900 24.67300
C  -1.89400 41.18400 25.19200
C  -2.79200 40.82100 24.17300
C  -2.12600 40.83800 22.95500
C  -0.65900 41.38200 23.35800
C  -4.25000 40.36400 24.47500
C  -2.49500 40.43600 21.57600
O  -1.85500 40.68200 20.61500
C  -3.89700 39.87300 21.30100
N  2.22600 42.48100 23.94900
C  1.78800 42.07100 22.76100
C  2.93700 42.20100 21.71100
C  3.98400 43.03000 22.44800
C  3.48200 42.91700 23.86200
C  3.45600 40.85300 21.21200
C  4.15300 44.54800 22.02900
C  2.88900 45.38300 21.95700
N  2.72600 42.59700 26.77400
C  3.98400 42.90600 26.29100
C  4.90600 43.09000 27.45900
C  4.02200 42.80800 28.51900
C  2.77200 42.54100 28.11000
C  6.33700 43.52400 27.39900
C  4.03700 42.85400 29.99200
O  4.96500 43.25500 30.75600
C  2.55400 42.48300 30.43100
C  2.59200 41.25300 31.23900
O  3.34000 40.31500 31.08500
O  1.54900 41.25700 32.10000
C  1.36600 40.03900 32.86200
H  -3.10800 40.76200 26.88100
H  0.23800 41.25100 21.51900
H  5.33800 43.47400 24.82700
H  -0.58300 41.27500 30.82500
H  -2.83900 41.48300 29.14600
H  -1.02100 39.03600 28.74500
H  -2.76100 39.38200 28.78000
H  -1.92500 39.26200 30.36000
H  -2.27200 43.36300 30.02900
H  -0.63600 44.00800 29.86300
H  -1.63700 44.34500 32.23800
H  -0.37500 43.27400 32.55200
H  -4.32800 39.29900 24.25800
H  -4.91600 40.92700 23.82200
H  -4.61300 40.49400 25.49400
H  -4.17100 39.09800 22.01600
H  -3.83000 39.53400 20.26700
H  -4.57300 40.71300 21.46000
H  2.55000 42.84900 20.92400
H  4.93900 42.50600 22.44000
H  3.13900 40.06100 21.89000
H  4.54400 40.87300 21.15600
H  3.06400 40.56200 20.23700
H  4.71200 44.51000 21.09300
H  4.75800 45.08100 22.76200
H  2.94900 46.20800 22.66600
H  1.91100 44.93800 22.14200
H  2.88300 45.84000 20.96700
H  6.85900 42.81600 28.04300
H  6.31300 44.50600 27.87200
H  6.76500 43.51600 26.39600
H  2.10400 43.29900 30.99700
H  0.43100 40.00700 33.42100
H  2.15900 39.91400 33.60000
H  1.30500 39.12800 32.26700

