158

Mg 1.55800 -3.08700 44.03900
C  4.70400 -1.89200 43.44800
C  0.24200 -0.36300 42.06200
C  -1.40300 -4.66700 43.88700
C  3.04200 -5.89700 45.61200
N  2.32900 -1.37300 42.78200
C  3.71200 -1.08300 42.80400
C  4.01600 0.29600 42.11700
C  2.56300 0.93800 41.99200
C  1.60700 -0.26500 42.37300
C  2.27800 2.31000 42.67700
C  4.78900 0.06200 40.74500
C  5.92000 1.09400 40.51300
H  5.61100 1.94800 39.26900
N  -0.28800 -2.72700 42.95000
C  -0.63000 -1.52200 42.33500
C  -2.00400 -1.54300 41.93500
C  -2.59000 -2.73000 42.51200
C  -1.41000 -3.42900 43.12900
C  -2.69500 -0.44600 41.14900
C  -4.03600 -3.13200 42.52800
O  -4.94000 -2.58500 41.90900
C  -4.45000 -4.34000 43.24200
N  1.03400 -5.07900 44.54500
C  -0.30600 -5.39200 44.54300
C  -0.61400 -6.66700 45.35100
C  0.80200 -7.20400 45.59500
C  1.70600 -5.98500 45.25600
C  -1.50400 -6.49100 46.55000
C  1.13300 -8.41200 44.72400
C  0.54300 -9.68200 45.33800
N  3.45600 -3.71500 44.63500
C  3.93900 -4.86000 45.24000
C  5.38800 -4.73800 45.50800
C  5.69700 -3.61200 44.82600
C  4.56300 -3.04700 44.23200
C  6.28100 -5.69900 46.41100
C  6.78100 -2.70100 44.55600
O  7.92600 -2.67900 45.04400
C  6.25600 -1.66100 43.49200
C  6.68800 -0.30200 44.04300
O  6.00500 0.29600 44.81800
O  7.87300 0.13400 43.44300
C  8.15800 1.54900 43.55600
H  -0.21400 0.49000 41.55500
H  -2.29300 -5.29300 43.98000
H  3.37000 -6.74900 46.21200
H  4.62300 0.83100 42.84700
H  2.28600 1.01200 40.94000
H  1.99700 3.10500 41.98700
H  3.19200 2.70000 43.12500
H  1.47400 2.27000 43.41100
H  4.01700 0.11900 39.97800
H  5.18800 -0.95000 40.68600
H  6.93600 0.70900 40.42200
H  5.96700 1.85000 41.29700
H  -2.01300 0.11200 40.50800
H  -3.31400 0.28300 41.67200
H  -3.45400 -0.86100 40.48700
H  -4.08800 -5.22100 42.71000
H  -5.52900 -4.27400 43.37900
H  -3.96100 -4.15400 44.19800
H  -1.04600 -7.32400 44.59500
H  0.95700 -7.42700 46.65100
H  -2.29800 -7.23800 46.52600
H  -2.05100 -5.54900 46.49700
H  -1.11600 -6.65900 47.55500
H  2.21600 -8.53400 44.70300
H  0.84900 -8.30400 43.67700
H  0.30400 -9.46400 46.37900
H  1.26300 -10.49300 45.44500
H  -0.37700 -10.03600 44.87400
H  6.85100 -5.13300 47.14700
H  7.05700 -6.19100 45.82400
H  5.70200 -6.43900 46.96300
H  6.73000 -1.79500 42.52000
H  7.32900 2.23400 43.37300
H  9.04200 1.75500 42.95400
H  8.45600 1.65000 44.60000
Mg 47.08500 16.83700 28.88000
C  45.13300 16.85400 31.86100
C  49.39700 18.53300 30.41900
C  48.58200 17.21600 25.82400
C  44.49600 15.19700 27.18300
N  47.28700 17.45700 30.98700
C  46.38200 17.39100 32.01000
C  46.94100 18.07700 33.30300
C  48.32500 18.64300 32.83400
C  48.34000 18.21900 31.33800
C  48.38600 20.15100 32.98100
C  47.00700 17.07600 34.51100
C  47.46600 17.66700 35.85800
H  47.28700 19.19900 36.21700
N  48.82000 17.56100 28.25500
C  49.68600 18.24100 29.03300
C  50.88200 18.53400 28.32100
C  50.66900 18.12900 26.97900
C  49.29000 17.60200 26.98400
C  52.12500 19.14600 28.95300
C  51.65100 18.28000 25.74100
O  51.33100 17.94400 24.57100
C  53.02600 18.95100 25.90900
N  46.53400 16.28100 26.82800
C  47.31300 16.54200 25.75400
C  46.83500 16.02400 24.41600
C  45.59000 15.25600 24.87300
C  45.47300 15.62800 26.38600
C  46.56900 17.08600 23.33700
C  45.59400 13.76000 24.50200
C  44.99200 13.41300 23.14500
N  45.22400 16.11600 29.43800
C  44.26600 15.48700 28.58600
C  43.07400 15.20700 29.35000
C  43.36300 15.70200 30.64100
C  44.70800 16.26800 30.61100
C  41.84000 14.57900 28.79800
C  42.78600 15.87600 32.01500
O  41.66800 15.52500 32.43900
C  43.91200 16.60600 32.84900
C  43.39900 17.83500 33.59100
O  42.94300 18.81900 33.01200
O  43.39200 17.71700 34.92900
C  42.44600 18.51300 35.66300
H  50.14800 19.13700 30.93300
H  49.17500 17.34600 24.91600
H  43.75300 14.61800 26.63100
H  46.20800 18.84600 33.54900
H  49.15800 18.10300 33.28200
H  47.53600 20.52900 33.55100
H  48.24200 20.61700 32.00700
H  49.26600 20.66400 33.36900
H  47.65600 16.22500 34.30500
H  46.07100 16.55000 34.69700
H  48.50000 17.32300 35.80800
H  46.98300 17.17700 36.70300
H  52.89900 18.37900 28.92900
H  51.83000 19.46200 29.95300
H  52.41200 20.00600 28.34700
H  53.54700 18.46800 26.73500
H  52.82900 19.98100 26.20400
H  53.68400 18.90700 25.04200
H  47.58900 15.29000 24.13100
H  44.64600 15.61100 24.45800
H  46.46500 18.06700 23.80100
H  45.75300 16.81200 22.66900
H  47.54200 17.13900 22.84900
H  45.15400 13.16100 25.30000
H  46.65000 13.49500 24.46800
H  43.97300 13.07000 23.32100
H  45.53000 12.58200 22.68900
H  44.93900 14.17400 22.36600
H  41.69000 14.88400 27.76300
H  40.99500 14.88900 29.41200
H  41.92100 13.50500 28.96700
H  44.34700 16.05400 33.68200
H  42.66600 19.57200 35.53300
H  42.57400 18.25100 36.71400
H  41.42900 18.19300 35.43700

