158

Mg 47.31200 14.39400 28.18600
C  45.14700 14.41000 30.84200
C  49.40900 16.43900 29.87300
C  49.13500 14.77500 25.32900
C  44.97800 12.39200 26.30600
N  47.24600 15.36600 30.17100
C  46.35500 15.11600 31.16600
C  46.83900 15.70200 32.48400
C  48.06400 16.61800 32.08100
C  48.29400 16.09000 30.63700
C  47.86600 18.20400 32.24800
C  47.09000 14.58400 33.54800
C  47.04000 15.09000 35.02500
H  48.34300 15.06400 35.86200
N  49.17900 15.31700 27.74600
C  49.86800 16.06200 28.59100
C  51.14400 16.43500 27.95900
C  51.01800 16.05600 26.61400
C  49.77100 15.33600 26.46800
C  52.21800 17.19800 28.72400
C  51.92000 16.21400 25.43300
O  51.65700 15.82500 24.29100
C  53.23000 16.88300 25.69900
N  47.17400 13.59400 26.20100
C  47.92400 14.07000 25.20100
C  47.55000 13.42000 23.80100
C  46.34900 12.53500 24.10500
C  46.16800 12.74800 25.67600
C  47.32600 14.38100 22.61000
C  46.51400 11.06000 23.70500
C  47.04300 10.03100 24.76300
N  45.47200 13.54700 28.45600
C  44.61300 12.79300 27.64900
C  43.41800 12.46700 28.29400
C  43.58800 13.06000 29.55800
C  44.86800 13.65700 29.64400
C  42.24700 11.52400 27.86000
C  42.98000 13.23800 30.81300
O  41.94000 12.82000 31.24200
C  43.98100 14.09400 31.76000
C  43.36400 15.29500 32.09900
O  43.06400 16.12900 31.25200
O  43.13800 15.33600 33.48100
C  42.84300 16.66900 33.97900
H  50.11800 17.08300 30.39600
H  49.49400 14.97300 24.31700
H  44.21600 11.92900 25.67400
H  45.99800 16.31800 32.80200
H  48.82900 16.21700 32.74700
H  48.56500 18.79400 31.65400
H  48.12100 18.34000 33.29900
H  46.85500 18.55100 32.03700
H  48.07100 14.15000 33.35300
H  46.31200 13.82400 33.48700
H  46.31100 14.42000 35.48100
H  46.55700 16.06700 34.99700
H  53.20900 16.81400 28.48300
H  52.10500 17.10700 29.80400
H  52.22400 18.22900 28.37200
H  52.99600 17.85400 26.13400
H  53.74300 17.10200 24.76300
H  53.85300 16.45700 26.48600
H  48.34800 12.74700 23.48600
H  45.50800 12.94500 23.54400
H  46.35800 14.37200 22.11000
H  48.05200 14.16500 21.82600
H  47.43100 15.43600 22.86100
H  47.06400 10.91100 22.77500
H  45.46600 10.81900 23.52900
H  47.18100 10.50500 25.73500
H  47.92800 9.54800 24.34900
H  46.32700 9.21700 24.86800
H  41.82800 11.59700 26.85700
H  41.52400 11.82200 28.61900
H  42.55600 10.48500 27.98100
H  44.26200 13.59300 32.68600
H  43.73800 17.25300 34.19200
H  42.33300 16.52300 34.93100
H  42.17600 17.16900 33.27800
Mg 15.92300 52.92300 25.82700
C  17.79500 52.18100 28.82500
C  13.46300 54.27500 27.78900
C  14.08500 53.42400 23.01600
C  18.27900 51.24100 24.05600
N  15.63700 53.08200 28.05900
C  16.50000 52.77400 29.12600
C  15.83700 53.10000 30.47500
C  14.42500 53.70100 30.08600
C  14.47200 53.60800 28.53400
C  13.17400 52.95500 30.63800
C  16.78900 54.04400 31.38500
C  17.15100 53.42600 32.75000
H  16.10900 52.53900 33.43800
N  14.06900 53.88800 25.44600
C  13.21700 54.31800 26.40200
C  12.01200 54.88900 25.76700
C  12.28600 54.77900 24.36200
C  13.52900 54.04800 24.23200
C  10.86600 55.49700 26.46100
C  11.35000 55.15500 23.20300
O  11.71000 55.03500 22.05100
C  10.03000 55.79800 23.38900
N  16.17100 52.40200 23.83200
C  15.21400 52.61600 22.88900
C  15.64000 52.00500 21.54300
C  17.12300 51.52100 21.87200
C  17.26300 51.77100 23.28800
C  14.71000 50.88100 20.94100
C  18.22600 52.29100 21.16600
C  19.39100 51.44400 20.61600
N  17.72400 51.89300 26.28700
C  18.64900 51.25900 25.42600
C  19.69200 50.66300 26.16800
C  19.39400 51.01800 27.52000
C  18.16300 51.76600 27.54300
C  20.85200 49.98300 25.65100
C  19.85100 50.87100 28.86900
O  20.79700 50.27600 29.36300
C  18.75500 51.67300 29.86000
C  18.23700 50.59000 30.78400
O  17.14400 50.05900 30.70400
O  19.20900 50.37200 31.69600
C  18.90000 49.23200 32.60300
H  12.75400 54.71900 28.49100
H  13.61300 53.57300 22.04300
H  18.98800 50.70700 23.42000
H  15.77700 52.16100 31.02500
H  14.31100 54.74700 30.37000
H  12.40500 53.68600 30.89000
H  13.45200 52.16700 31.33800
H  12.73300 52.40900 29.80500
H  16.44500 55.07800 31.42900
H  17.75800 53.90500 30.90500
H  17.39300 54.19700 33.48100
H  18.11500 52.92000 32.78500
H  11.03600 56.57300 26.48800
H  10.78700 55.20500 27.50800
H  9.89900 55.21100 26.05000
H  10.19800 56.83400 23.68100
H  9.38500 55.19200 24.02600
H  9.59600 55.79000 22.39000
H  15.63800 52.73200 20.73000
H  17.13000 50.45400 21.65000
H  13.81500 50.92900 21.56100
H  15.05600 49.84800 20.91800
H  14.36900 51.13200 19.93600
H  18.68800 53.07300 21.76800
H  17.73400 52.87100 20.38500
H  19.23200 50.37200 20.73800
H  20.30600 51.68900 21.15400
H  19.42300 51.66200 19.54800
H  21.19200 49.33400 26.45900
H  21.76300 50.56800 25.52200
H  20.54700 49.44200 24.75500
H  19.21400 52.49800 30.40500
H  19.85900 48.94400 33.03300
H  18.74100 48.33800 32.00000
H  18.02800 49.29300 33.25400

