158

Mg 47.51700 34.73100 27.15400
C  45.48400 33.46500 29.57500
C  47.99200 37.57300 29.05600
C  48.84400 36.24600 24.56000
C  46.55400 32.10900 25.01000
N  46.91000 35.37200 29.11000
C  46.16400 34.63000 29.98000
C  46.15700 35.24100 31.38400
C  46.65600 36.72800 31.14000
C  47.23800 36.56900 29.73200
C  45.54200 37.82900 31.19900
C  47.16400 34.52100 32.31500
C  46.84300 34.38900 33.81000
H  47.72900 34.96200 34.77200
N  48.49300 36.60600 26.91400
C  48.55200 37.61300 27.76300
C  49.26500 38.77700 27.20700
C  49.66800 38.31500 25.90600
C  49.01100 37.00000 25.75200
C  49.59400 39.96600 27.95000
C  50.48600 39.00900 24.84100
O  50.63800 38.49800 23.76500
C  51.11400 40.39100 25.15600
N  47.74400 34.23900 25.13500
C  48.41400 35.02500 24.30800
C  48.48500 34.32300 22.92100
C  47.72400 33.02800 23.04000
C  47.32100 33.10800 24.49200
C  48.22600 35.21600 21.69400
C  48.49300 31.68300 22.66100
C  47.89300 30.80800 21.55000
N  46.29400 33.07400 27.25300
C  46.07200 32.05600 26.33100
C  45.21100 31.07700 26.97300
C  44.97700 31.60000 28.27100
C  45.60300 32.82000 28.37300
C  44.79800 29.73600 26.44400
C  44.38700 31.26400 29.47000
O  43.82100 30.30100 29.78600
C  44.47000 32.54300 30.35700
C  44.67400 32.26000 31.81000
O  45.53700 31.59800 32.33400
O  43.71500 32.95300 32.56400
C  43.41900 32.54100 33.93700
H  48.22300 38.39300 29.73900
H  49.16000 36.73500 23.63600
H  46.37400 31.26100 24.34600
H  45.15400 35.28900 31.80700
H  47.49400 36.95200 31.80100
H  45.44200 38.29200 30.21700
H  45.69700 38.52100 32.02700
H  44.53900 37.42600 31.33500
H  48.12800 35.03000 32.32600
H  47.31400 33.56300 31.81800
H  46.82000 33.34400 34.12100
H  45.84700 34.65800 34.16200
H  50.67700 40.01200 27.84000
H  49.41900 39.81800 29.01500
H  49.09900 40.80100 27.45400
H  50.32300 40.97800 25.62300
H  51.34400 40.83800 24.18800
H  51.96100 40.17600 25.80800
H  49.53200 34.08900 22.72600
H  46.78600 33.10200 22.49000
H  47.55200 34.72500 20.99100
H  49.08500 35.47000 21.07400
H  47.68100 36.10100 22.02200
H  48.51100 31.07700 23.56800
H  49.49600 31.97100 22.34800
H  48.71000 30.70200 20.83600
H  47.02300 31.32700 21.14800
H  47.60600 29.84000 21.96100
H  45.19000 29.00500 27.15100
H  45.45000 29.67000 25.57400
H  43.73500 29.51900 26.33800
H  43.50500 33.04500 30.28400
H  43.45300 31.45400 34.00700
H  42.39900 32.87700 34.12600
H  44.12900 32.98100 34.63800
Mg 28.86100 58.21600 41.02700
C  26.14900 56.24300 40.19700
C  30.96700 55.85400 39.37200
C  31.44500 60.42400 41.18100
C  26.70600 60.75100 42.24700
N  28.62000 56.29800 40.02800
C  27.39100 55.69700 39.77600
C  27.54600 54.49100 38.80400
C  29.09400 54.18600 38.94400
C  29.61800 55.56700 39.53200
C  29.46400 53.04600 39.87700
C  27.18700 54.98100 37.40400
C  26.10900 54.19800 36.52800
H  26.26100 54.19300 34.97500
N  31.04000 58.09100 40.50100
C  31.66700 57.08200 39.82500
C  33.02600 57.47200 39.63900
C  33.27600 58.75800 40.32400
C  31.89000 59.17100 40.70200
C  34.10300 56.52200 39.08000
C  34.60800 59.49500 40.53100
O  35.63400 59.10100 40.06100
C  34.74500 60.78500 41.36300
N  29.01200 60.31400 41.67100
C  30.20000 60.96300 41.74800
C  29.94200 62.43600 42.09900
C  28.67600 62.30200 42.99100
C  28.03100 61.07800 42.26800
C  31.13900 63.14100 42.82000
C  27.73500 63.62700 43.01000
C  27.31100 64.14900 44.36200
N  26.86500 58.50400 41.17000
C  26.16000 59.54300 41.70700
C  24.79800 59.14700 41.79300
C  24.71100 57.91300 41.08900
C  25.98600 57.59900 40.71700
C  23.68000 59.87100 42.56500
C  23.82400 56.81800 40.71200
O  22.64300 56.68300 40.90900
C  24.74200 55.71200 40.05400
C  24.51200 54.40500 40.72100
O  24.40700 54.25900 41.94000
O  24.43400 53.34600 39.83300
C  24.29400 51.93800 40.29800
H  31.56500 55.13900 38.80300
H  32.15000 61.24400 41.03100
H  25.99300 61.39400 42.76700
H  27.01700 53.56200 39.01800
H  29.59300 54.08700 37.98000
H  30.11300 53.50800 40.62100
H  30.16000 52.34900 39.40900
H  28.61500 52.56000 40.35800
H  28.06600 55.02800 36.76100
H  26.80000 55.99900 37.39900
H  25.05100 54.35000 36.74300
H  26.17600 53.16100 36.85500
H  34.98800 56.94800 38.60700
H  33.60000 55.88100 38.35600
H  34.40500 55.92000 39.93600
H  35.74200 61.02900 41.72900
H  34.04800 60.78600 42.20100
H  34.56300 61.63100 40.70000
H  29.75100 62.99800 41.18500
H  28.94700 62.05600 44.01800
H  31.58200 63.99300 42.30300
H  31.83400 62.33500 43.05500
H  30.71200 63.54600 43.73700
H  26.85400 63.45700 42.39200
H  28.28600 64.39100 42.46100
H  27.83500 63.55200 45.10900
H  26.23300 64.06400 44.50000
H  27.63800 65.15800 44.61100
H  24.09600 60.52800 43.32900
H  22.89200 59.23000 42.96000
H  23.15100 60.48500 41.83600
H  24.52300 55.63300 38.98900
H  23.65000 51.30000 39.69300
H  24.02800 51.81500 41.34800
H  25.33600 51.64700 40.15900

