158

Mg 42.18300 41.27600 26.36900
C  41.32700 43.69200 28.67200
C  43.43800 39.33800 28.81000
C  43.08200 39.14500 23.94400
C  41.44700 43.67300 23.73400
N  42.17100 41.50600 28.55800
C  41.79400 42.52400 29.35700
C  41.89500 42.26500 30.89700
C  42.68100 40.92300 30.79300
C  42.86100 40.57900 29.27800
C  43.98600 40.66800 31.63700
C  40.53400 42.20500 31.63000
C  40.28900 43.03900 32.86900
H  39.41600 42.52700 33.93400
N  43.02600 39.47800 26.39800
C  43.53600 38.87100 27.49000
C  44.04200 37.62500 27.09600
C  43.60000 37.41000 25.74300
C  43.21700 38.72500 25.32200
C  44.76600 36.73800 28.09300
C  43.65200 36.10000 24.99000
O  43.24500 36.04300 23.82400
C  44.08600 34.83800 25.63800
N  42.36100 41.46000 24.05700
C  42.71500 40.34700 23.31600
C  42.64800 40.62800 21.85400
C  42.24300 42.10400 21.80800
C  41.86700 42.41400 23.33300
C  43.88700 40.12300 21.00800
C  41.04900 42.47100 20.88600
C  41.08800 43.84700 20.05000
N  41.58400 43.18700 26.16000
C  41.30000 44.03600 25.07600
C  40.78200 45.28400 25.53400
C  40.79700 45.25300 26.90300
C  41.31000 43.91100 27.27000
C  40.41700 46.38700 24.54800
C  40.53800 45.98400 28.13000
O  40.19200 47.15400 28.30800
C  40.77100 44.90800 29.25900
C  41.54700 45.51600 30.41900
O  42.78300 45.64500 30.56500
O  40.58800 45.80000 31.32900
C  41.09100 46.34600 32.65600
H  43.65200 38.61200 29.59800
H  43.39800 38.38300 23.22800
H  41.25000 44.45000 22.99300
H  42.43400 42.99900 31.49600
H  42.02500 40.11900 31.12500
H  44.00000 39.89300 32.40400
H  44.29700 41.65600 31.97700
H  44.79100 40.29900 31.00000
H  40.26800 41.19700 31.94900
H  39.73600 42.49300 30.94500
H  39.74100 43.90400 32.49400
H  41.27800 43.34400 33.21000
H  45.07400 37.46100 28.84800
H  45.61900 36.23000 27.64400
H  44.16800 35.93100 28.51700
H  45.15600 34.85900 25.84400
H  43.72400 33.94300 25.13100
H  43.57700 34.79100 26.60100
H  41.84200 39.98700 21.49600
H  43.06700 42.76400 21.53700
H  44.45200 40.97300 20.62400
H  43.57200 39.45600 20.20600
H  44.55200 39.59000 21.68700
H  40.18000 42.50900 21.54400
H  40.96800 41.69500 20.12500
H  40.25500 44.47600 20.36500
H  41.03300 43.62200 18.98500
H  42.01700 44.39700 20.20000
H  39.77200 45.98600 23.76600
H  41.38800 46.73900 24.19900
H  39.83000 47.18800 24.99600
H  39.79000 44.52700 29.54500
H  41.55500 47.32700 32.56100
H  41.82600 45.79000 33.23700
H  40.25300 46.39900 33.35100
Mg 9.34400 48.13000 26.55800
C  7.49000 48.29300 29.62100
C  12.03600 49.53700 28.33200
C  11.11100 48.24600 23.76300
C  6.37400 47.64800 24.91600
N  9.64600 48.78400 28.72700
C  8.76100 48.72300 29.78900
C  9.54600 49.27600 31.11300
C  10.78500 50.04200 30.51800
C  10.83400 49.40100 29.08400
C  10.59600 51.64600 30.56700
C  9.92900 48.08900 32.00900
C  9.71600 48.07900 33.56700
H  9.82800 46.84900 34.44500
N  11.37200 48.61000 26.15300
C  12.35800 49.11000 26.97200
C  13.60500 49.05200 26.37800
C  13.34000 48.58300 25.04000
C  11.88800 48.52100 24.90300
C  14.84300 49.31300 27.08600
C  14.37900 48.16100 23.93100
O  14.00300 47.96100 22.75400
C  15.80500 48.09300 24.31400
N  8.83000 48.10900 24.66200
C  9.73600 48.19700 23.61600
C  9.09200 48.01200 22.23000
C  7.65900 47.55900 22.59900
C  7.60900 47.80000 24.14400
C  9.12700 49.32200 21.41300
C  7.43600 46.08700 22.25100
C  7.71300 44.99300 23.30600
N  7.29800 47.99100 27.12800
C  6.23900 47.77400 26.29900
C  5.04000 47.75400 27.09100
C  5.49100 47.82500 28.42500
C  6.88100 47.98900 28.42100
C  3.67000 47.35200 26.70600
C  5.15900 47.82200 29.76300
O  4.06700 47.93900 30.29100
C  6.47700 47.99300 30.63000
C  6.58400 46.74400 31.38700
O  6.97200 45.68000 30.93500
O  6.28600 46.96300 32.69300
C  6.20800 45.72300 33.55700
H  12.89200 49.95900 28.86200
H  11.62800 48.18400 22.80300
H  5.55700 47.47300 24.21200
H  8.82600 49.92300 31.61300
H  11.70000 49.70600 31.00600
H  9.77600 52.05200 31.16000
H  10.27700 51.81100 29.53800
H  11.41600 52.17700 31.05000
H  11.00500 47.91800 32.04600
H  9.47500 47.18300 31.60600
H  8.65700 48.33700 33.56700
H  10.37400 48.83400 33.99800
H  15.54300 48.51600 26.83600
H  14.89600 49.42800 28.16800
H  15.26400 50.24300 26.70300
H  16.29200 47.56500 23.49400
H  15.84000 47.35000 25.11100
H  16.15700 49.06200 24.66700
H  9.63000 47.26100 21.65200
H  6.96300 48.20500 22.06300
H  10.13500 49.43800 21.01300
H  8.76500 50.23400 21.88800
H  8.60700 49.19700 20.46300
H  7.90300 45.79400 21.31100
H  6.39400 45.99800 21.94600
H  6.83200 44.88900 23.93900
H  8.52400 45.32400 23.95400
H  7.98700 44.03100 22.87500
H  3.46600 47.33200 25.63500
H  2.88400 47.88000 27.24700
H  3.63300 46.31700 27.04400
H  6.44600 48.84300 31.31100
H  5.81600 45.95000 34.54900
H  7.19900 45.31300 33.75400
H  5.59500 44.98300 33.04200

