158

Mg 24.86300 1.20600 29.97700
C  26.99900 1.32400 32.65500
C  22.21200 1.49300 32.10600
C  23.12200 1.28900 27.30700
C  27.75400 0.47800 27.93000
N  24.62800 1.58300 32.11300
C  25.64800 1.63100 33.00400
C  25.11500 1.89600 34.44000
C  23.60400 1.84200 34.19600
C  23.41900 1.57600 32.76700
C  22.81000 0.97200 35.26600
C  25.67700 3.15500 35.17500
C  26.30500 2.87200 36.54100
H  26.00000 3.82700 37.71300
N  22.88900 1.04100 29.77700
C  21.91800 1.31500 30.71800
C  20.58400 1.38500 30.09500
C  20.88100 1.26900 28.65700
C  22.37000 1.22400 28.50600
C  19.33400 1.66800 30.84300
C  19.92200 1.21900 27.52100
O  20.22800 1.18600 26.33900
C  18.48600 1.44400 27.89100
N  25.39800 0.70400 27.83800
C  24.47800 1.05400 27.01600
C  25.01200 1.20500 25.56300
C  26.52800 0.70400 25.67300
C  26.59600 0.52400 27.22400
C  24.15100 0.36100 24.49000
C  27.68100 1.63700 25.09200
C  28.40100 1.02700 23.85200
N  26.92500 0.85300 30.21900
C  27.91600 0.54800 29.29100
C  29.19700 0.42000 29.98800
C  28.89000 0.68400 31.28100
C  27.49300 1.00900 31.39000
C  30.50800 -0.00100 29.51100
C  29.44300 0.83200 32.62600
O  30.58100 0.72800 33.01700
C  28.23000 1.21100 33.53500
C  27.98000 0.21600 34.60500
O  27.44100 -0.85300 34.38500
O  28.53500 0.65700 35.78900
C  28.45400 -0.33400 36.85900
H  21.34700 1.67100 32.74800
H  22.64800 1.62700 26.38300
H  28.69600 0.41500 27.38300
H  25.34900 0.97200 34.96900
H  23.24300 2.86200 34.33100
H  23.43500 0.85300 36.15100
H  22.75500 -0.01900 34.81400
H  21.78300 1.28100 35.45900
H  25.00900 4.01500 35.21700
H  26.45900 3.42700 34.46600
H  27.37900 2.78400 36.37600
H  25.92600 1.91200 36.89300
H  19.46300 1.96200 31.88500
H  18.68200 0.79400 30.86900
H  18.81400 2.52900 30.42300
H  18.11100 0.67400 28.56500
H  17.91000 1.58700 26.97600
H  18.54800 2.34300 28.50400
H  24.95500 2.26700 25.32400
H  26.56500 -0.34500 25.37800
H  23.46300 -0.31400 24.99900
H  24.86700 -0.18300 23.87400
H  23.60000 1.08600 23.89200
H  28.39500 1.92300 25.86400
H  27.12500 2.54000 24.83900
H  29.45800 0.86200 24.05900
H  28.33500 1.72600 23.01800
H  28.02000 0.05100 23.55100
H  31.25200 0.60400 30.03000
H  30.62000 0.12400 28.43400
H  30.70200 -1.05500 29.70800
H  28.33000 2.12900 34.11400
H  29.32000 -0.40500 37.51600
H  28.47200 -1.35700 36.48300
H  27.55100 -0.28800 37.46800
Mg 47.19400 25.92000 27.62200
C  48.50500 27.84200 30.09300
C  46.50400 23.50000 29.87000
C  46.12100 23.97700 25.09500
C  48.31000 28.24700 25.17600
N  47.46400 25.70800 29.71800
C  47.96500 26.64100 30.56400
C  47.75200 26.24600 32.05000
C  47.11300 24.90900 31.98100
C  46.98800 24.65700 30.42500
C  47.85200 23.80200 32.66600
C  46.91300 27.30500 32.85600
C  47.32800 27.41200 34.41400
H  46.16000 27.62700 35.39200
N  46.26900 24.05100 27.53700
C  46.18700 23.17700 28.53900
C  45.59700 21.92700 28.09400
C  45.34900 22.11600 26.70700
C  45.93900 23.44600 26.35900
C  45.33200 20.72600 28.98400
C  44.63100 21.19000 25.71000
O  44.70700 21.25800 24.49800
C  43.91600 20.01800 26.17300
N  47.33400 26.07500 25.41800
C  46.70300 25.11100 24.56500
C  46.70400 25.54700 23.16200
C  47.24800 27.04900 23.25500
C  47.66000 27.17200 24.67100
C  47.52800 24.59800 22.30700
C  46.31600 28.20500 22.81700
C  46.90200 29.11800 21.69400
N  48.32100 27.59600 27.59100
C  48.60000 28.43700 26.50600
C  49.34700 29.54000 27.06700
C  49.27200 29.43500 28.47700
C  48.66600 28.22100 28.72500
C  49.91700 30.58700 26.22200
C  49.69300 30.02200 29.76800
O  50.19700 31.11700 30.04600
C  49.16400 28.91400 30.86300
C  50.23800 28.52300 31.78700
O  51.07800 27.64500 31.59000
O  49.99400 29.10300 33.05900
C  50.82700 28.54700 34.16400
H  46.26800 22.77100 30.64900
H  45.55700 23.35700 24.39500
H  48.59700 29.02700 24.46700
H  48.72600 26.25400 32.54000
H  46.12100 24.87100 32.43100
H  48.64000 24.31700 33.21400
H  48.18600 23.04000 31.96100
H  47.20600 23.23500 33.33700
H  45.83200 27.17400 32.81800
H  46.92100 28.32500 32.47200
H  47.74600 28.41400 34.32000
H  48.04800 26.70200 34.82100
H  44.28300 20.43000 28.98800
H  45.67900 20.84100 30.01000
H  45.89700 19.87900 28.59200
H  44.64700 19.23600 26.37800
H  43.27000 19.50400 25.46100
H  43.21700 20.32900 26.94900
H  45.66200 25.46900 22.85100
H  48.16500 27.02300 22.66600
H  47.79600 23.69300 22.85100
H  48.40000 25.00100 21.79100
H  46.81500 24.26900 21.55100
H  46.13700 28.80000 23.71300
H  45.34800 27.87200 22.44400
H  46.07700 29.18800 20.98500
H  47.67000 28.57100 21.14700
H  47.04800 30.17400 21.92100
H  49.28300 30.79800 25.36000
H  50.86600 30.17300 25.88200
H  50.17400 31.33700 26.97000
H  48.39400 29.36200 31.49100
H  50.24300 28.16000 34.99900
H  51.33300 29.42300 34.57000
H  51.58800 27.81300 33.89900

