158

Mg 41.11400 41.02300 26.43500
C  40.19200 43.18100 29.09300
C  42.50500 39.00600 28.83000
C  42.01700 38.94200 23.95800
C  40.36200 43.56700 24.16500
N  41.50400 41.21000 28.80300
C  40.76700 42.02400 29.62900
C  40.83600 41.59900 31.08200
C  41.89400 40.45200 30.88200
C  41.99500 40.15400 29.40900
C  43.22700 40.58800 31.67400
C  39.38600 41.23800 31.61200
C  38.93100 41.94900 32.92500
H  38.50800 41.05900 34.12900
N  41.90900 39.14300 26.41800
C  42.44600 38.47100 27.49000
C  42.82900 37.12300 27.03600
C  42.51700 37.06400 25.60200
C  42.16900 38.42000 25.26600
C  43.28100 36.01800 27.91400
C  42.63100 35.92000 24.53500
O  42.31300 36.01300 23.41800
C  43.20800 34.63300 24.98100
N  41.13500 41.23800 24.36800
C  41.50400 40.16400 23.59800
C  41.37300 40.52300 22.09900
C  40.62000 41.90600 22.16500
C  40.71000 42.29200 23.64400
C  42.64500 40.33200 21.21500
C  39.01800 41.92600 21.85200
C  38.09600 41.01200 22.75900
N  40.43000 42.87800 26.61300
C  40.19600 43.87200 25.53900
C  39.61100 45.07200 26.15700
C  39.59300 44.74600 27.55400
C  40.07900 43.46000 27.75200
C  39.05200 46.33500 25.52400
C  39.26300 45.36100 28.79200
O  38.99700 46.55400 29.04900
C  39.47100 44.23500 29.86500
C  40.15100 44.88000 30.92400
O  41.32400 45.26500 30.86500
O  39.32200 45.05100 32.00700
C  39.88700 45.65200 33.23800
H  43.06600 38.27800 29.41900
H  42.24300 38.32200 23.08800
H  39.91400 44.21400 23.40800
H  41.34700 42.41900 31.58800
H  41.64400 39.52700 31.40100
H  43.31500 41.59400 32.08500
H  44.11800 40.41100 31.07100
H  43.19300 39.81900 32.44500
H  39.35900 40.15500 31.73400
H  38.72500 41.49500 30.78400
H  38.00200 42.38900 32.56300
H  39.58500 42.74200 33.28700
H  42.49900 35.25900 27.88300
H  43.53500 36.30400 28.93400
H  44.13000 35.50900 27.45600
H  44.27900 34.80500 25.09300
H  43.05900 33.79100 24.30500
H  42.68700 34.45100 25.92100
H  40.61100 39.83400 21.73500
H  41.04100 42.78900 21.68400
H  42.68600 41.24500 20.62100
H  42.52000 39.51900 20.50000
H  43.47500 40.24400 21.91600
H  38.86300 41.61100 20.82000
H  38.67000 42.95900 21.83500
H  37.94400 41.67000 23.61500
H  38.77500 40.23900 23.12000
H  37.30700 40.66700 22.09100
H  38.43900 46.82700 26.27900
H  38.53100 46.15400 24.58400
H  39.88500 46.99100 25.27100
H  38.50000 43.84700 30.17000
H  40.22900 44.87000 33.91600
H  39.16200 46.31900 33.70400
H  40.75600 46.22800 32.91700
Mg -10.53000 17.06900 40.59700
C  -7.12300 16.56300 40.49000
C  -10.14700 20.32000 39.93000
C  -13.80300 17.13700 39.94100
C  -10.79400 13.42500 40.71700
N  -8.80100 18.27700 39.97500
C  -7.48600 17.92200 40.15800
C  -6.57800 19.07500 39.92300
C  -7.52000 20.28700 40.12700
C  -8.89500 19.62600 39.94200
C  -7.42500 20.94700 41.54500
C  -5.94100 19.06600 38.50800
C  -4.42000 18.74100 38.49000
H  -3.93200 17.89400 37.30800
N  -11.81400 18.57000 39.98000
C  -11.48900 19.87300 39.88200
C  -12.64200 20.67800 39.76000
C  -13.70100 19.79600 39.68000
C  -13.13900 18.41800 39.88600
C  -12.62100 22.16700 39.75300
C  -15.20200 20.20600 39.61800
O  -15.47200 21.37400 39.40300
C  -16.32400 19.18000 39.76900
N  -12.06400 15.55500 40.35200
C  -13.30900 15.89200 40.08500
C  -14.34200 14.62500 40.18300
C  -13.28900 13.49700 40.24500
C  -11.99600 14.19200 40.52300
C  -15.36100 14.67100 41.43500
C  -13.22800 12.62900 38.99700
C  -13.05800 11.08000 39.17500
N  -9.24800 15.29400 40.71200
C  -9.48100 13.92500 40.75400
C  -8.24200 13.22900 40.94900
C  -7.24600 14.22000 40.89800
C  -7.89300 15.44200 40.60200
C  -8.01400 11.71700 41.21700
C  -5.88300 14.39600 40.91800
O  -4.93300 13.61000 41.16300
C  -5.72800 16.01600 40.76400
C  -5.01200 16.61400 41.91500
O  -3.99800 17.28600 41.79800
O  -5.53600 16.11300 43.06400
C  -4.84000 16.51600 44.31400
H  -10.06900 21.40800 39.88900
H  -14.89300 17.16700 39.87900
H  -10.82300 12.34100 40.84200
H  -5.76100 19.12500 40.64300
H  -7.41300 20.96900 39.28400
H  -6.37000 20.83300 41.79300
H  -8.08900 20.35500 42.17500
H  -7.76600 21.95000 41.28800
H  -6.03900 20.09400 38.16000
H  -6.47000 18.31600 37.91900
H  -4.18900 18.35800 39.48400
H  -3.92800 19.70400 38.35500
H  -13.38900 22.64300 40.36200
H  -12.69900 22.55700 38.73800
H  -11.73800 22.66300 40.15600
H  -16.26800 18.58600 38.85600
H  -17.22400 19.78200 39.89400
H  -16.27000 18.51000 40.62700
H  -14.80100 14.54300 39.19800
H  -13.51300 12.85200 41.09400
H  -15.68400 13.68400 41.76500
H  -16.30200 15.18400 41.23300
H  -14.82600 15.26000 42.18000
H  -12.47500 13.03300 38.32000
H  -14.19000 12.78900 38.51100
H  -13.91800 10.63400 39.67400
H  -12.20200 10.90400 39.82800
H  -12.80900 10.48300 38.29800
H  -6.97700 11.64300 41.54300
H  -8.15300 11.10000 40.32900
H  -8.65900 11.28900 41.98500
H  -5.12200 16.31500 39.90900
H  -3.79900 16.20000 44.25300
H  -5.35000 16.22400 45.23200
H  -4.88300 17.60500 44.30100

