158

Mg 39.82300 10.17100 30.42200
C  41.86800 11.34600 33.02600
C  37.77800 8.77000 32.80900
C  38.19100 8.65400 28.00700
C  42.34400 11.12500 28.16700
N  39.72900 10.16600 32.64500
C  40.65900 10.76100 33.45200
C  40.20400 10.60500 34.88800
C  39.02900 9.58100 34.86100
C  38.85200 9.49900 33.35100
C  39.32000 8.17000 35.54500
C  39.85200 11.95200 35.53300
C  40.49800 12.51700 36.76000
H  39.61700 12.64800 37.96800
N  38.14700 8.91100 30.40600
C  37.48600 8.48300 31.44400
C  36.36900 7.67200 30.96000
C  36.42400 7.57800 29.53900
C  37.60000 8.40300 29.25900
C  35.44700 7.05400 31.95300
C  35.52300 6.86000 28.55100
O  35.60000 6.96100 27.31200
C  34.38200 6.09800 29.07500
N  40.33500 9.79200 28.41400
C  39.40600 9.22100 27.59700
C  39.75800 9.26600 26.07700
C  41.21000 9.93800 26.17400
C  41.33900 10.34200 27.64500
C  39.73000 7.92600 25.26500
C  41.28100 11.10900 25.20000
C  41.12900 12.58600 25.76800
N  41.68300 11.10900 30.50000
C  42.52900 11.50900 29.51000
C  43.50300 12.33300 30.06300
C  43.29700 12.33900 31.44000
C  42.17500 11.50200 31.68700
C  44.69700 12.99800 29.46400
C  43.85600 12.76400 32.75100
O  44.84600 13.36600 32.95700
C  42.86800 12.12700 33.83400
C  43.59700 11.27500 34.88300
O  43.65200 10.06600 34.91300
O  44.07500 12.17000 35.81000
C  44.92000 11.63000 36.92300
H  37.20100 8.26200 33.58500
H  37.51900 8.24100 27.25100
H  43.04200 11.50400 27.41800
H  40.96500 10.21700 35.56500
H  38.11700 9.79500 35.41900
H  40.34400 7.93300 35.83400
H  38.88000 7.31800 35.02600
H  38.74700 8.31700 36.46000
H  38.81000 11.81700 35.82500
H  39.76400 12.76100 34.80900
H  40.86500 13.53000 36.59400
H  41.32300 11.86200 37.03800
H  34.52600 7.63700 31.93600
H  35.75800 6.85700 32.97900
H  35.17700 6.06200 31.59000
H  33.84300 5.77800 28.18400
H  33.83700 6.76900 29.73900
H  34.73300 5.23200 29.63700
H  39.06800 9.98100 25.62800
H  41.95100 9.15000 26.04000
H  39.75100 7.10300 25.98000
H  40.59800 7.75400 24.63000
H  38.85600 7.91600 24.61400
H  40.76100 10.97900 24.25100
H  42.30900 11.06800 24.83900
H  42.06900 13.12600 25.65300
H  40.66800 12.66200 26.75300
H  40.40000 13.12900 25.16700
H  44.84500 13.88800 30.07700
H  44.37000 13.29000 28.46600
H  45.65700 12.48200 29.46400
H  42.44800 12.98700 34.35700
H  44.30800 11.67100 37.82400
H  45.83900 12.19800 37.06900
H  45.17100 10.58600 36.73400
Mg 6.90200 53.59700 41.75600
C  6.57100 50.06600 41.25700
C  10.08100 53.41600 40.49200
C  7.06400 56.94100 41.76300
C  3.60500 53.65900 43.07600
N  8.09900 51.96900 40.83700
C  7.77300 50.64800 40.63600
C  8.97800 49.89700 39.94100
C  10.19600 50.88400 40.18200
C  9.44400 52.22300 40.51500
C  11.11200 50.38600 41.39300
C  8.82300 49.37900 38.42900
C  7.81900 50.15200 37.58500
H  7.04000 49.32500 36.43200
N  8.34500 55.04500 41.12200
C  9.62300 54.74500 40.72700
C  10.36500 55.99000 40.60000
C  9.44500 57.03600 40.77600
C  8.20400 56.33800 41.22000
C  11.79300 56.12700 40.17200
C  9.63900 58.53800 40.53200
O  10.70000 58.94200 40.05700
C  8.49700 59.53800 40.68700
N  5.44900 55.09400 42.27500
C  5.81000 56.39900 42.30900
C  4.76700 57.23500 43.00500
C  3.58800 56.20900 43.21700
C  4.22900 54.88300 42.85900
C  5.04700 57.97100 44.28200
C  2.26600 56.40900 42.46700
C  1.48300 57.65000 43.02900
N  5.33000 52.21200 42.20000
C  4.09400 52.38400 42.73800
C  3.56700 51.04100 42.94500
C  4.51200 50.12000 42.41600
C  5.56800 50.89800 41.93600
C  2.32400 50.72100 43.62200
C  4.75300 48.70600 42.28200
O  4.08400 47.79800 42.66300
C  6.13200 48.61800 41.45300
C  5.77300 47.94700 40.21800
O  4.97800 48.46300 39.45700
O  6.39600 46.78700 40.00800
C  5.89900 46.16400 38.78600
H  11.13400 53.33600 40.21400
H  7.00300 58.02800 41.85600
H  2.66200 53.63100 43.62500
H  9.09800 48.95700 40.48100
H  10.78700 51.03400 39.27800
H  11.24600 51.15900 42.15000
H  12.08900 50.04500 41.05100
H  10.67400 49.50400 41.85900
H  8.61300 48.31400 38.53000
H  9.76100 49.51000 37.88800
H  8.47300 50.89300 37.12700
H  7.10000 50.70300 38.19000
H  11.90300 56.21600 39.09200
H  12.39000 55.26300 40.46800
H  12.35400 56.94400 40.62600
H  8.28500 59.79700 41.72500
H  7.63000 59.16400 40.14300
H  8.63000 60.51900 40.23000
H  4.34600 57.88000 42.23300
H  3.24500 56.05000 44.23900
H  6.11000 57.84200 44.48300
H  4.67000 57.53100 45.20500
H  4.80300 59.02800 44.38000
H  1.61000 55.54200 42.55100
H  2.52900 56.60400 41.42800
H  1.85900 58.21300 43.88300
H  0.49700 57.38000 43.40500
H  1.28200 58.43000 42.29500
H  1.80500 50.00400 42.98600
H  1.76800 51.65800 43.65800
H  2.31900 50.36700 44.65300
H  6.73000 47.91900 42.03800
H  6.21100 46.73900 37.91500
H  4.84000 45.90800 38.82000
H  6.43500 45.21500 38.76400

