158

Mg 17.28000 -1.74200 29.52700
C  15.82400 0.75500 31.45500
C  18.83600 -3.05400 32.24900
C  18.66500 -4.13700 27.52900
C  15.71700 -0.19100 26.77300
N  17.28900 -1.21300 31.55600
C  16.60600 -0.19700 32.15100
C  16.77300 -0.25000 33.71700
C  17.96800 -1.22200 33.92100
C  18.08200 -1.88400 32.52900
C  19.28700 -0.45600 34.38100
C  15.46300 -0.83400 34.35700
C  15.32300 -0.62800 35.94000
H  16.49400 0.07300 36.75100
N  18.49300 -3.37800 29.88300
C  19.02300 -3.76100 31.09700
C  19.83400 -4.96000 30.94500
C  19.81000 -5.27200 29.55300
C  19.03500 -4.25900 28.93000
C  20.54400 -5.66000 32.22500
C  20.41400 -6.47900 28.87800
O  20.29300 -6.76500 27.69100
C  21.23100 -7.40400 29.73300
N  17.15600 -2.11100 27.45400
C  17.79500 -3.24700 26.86500
C  17.50100 -3.29200 25.38400
C  16.36100 -2.17100 25.26900
C  16.47800 -1.40200 26.58000
C  18.74000 -3.12700 24.43800
C  14.99600 -2.64400 24.96000
C  14.30800 -1.69700 23.91300
N  16.05300 -0.02900 29.09400
C  15.52900 0.49200 27.97500
C  14.70700 1.62700 28.19400
C  14.82300 1.81600 29.60200
C  15.63000 0.76400 30.07800
C  13.97100 2.48000 27.22400
C  14.37700 2.58300 30.71300
O  13.69500 3.60400 30.80000
C  14.95500 1.82700 31.98800
C  15.75000 2.91000 32.75000
O  16.62900 3.54800 32.25200
O  15.26800 3.07300 34.00100
C  15.90600 4.06300 34.90100
H  19.08800 -3.47500 33.22500
H  19.13200 -4.82000 26.81700
H  15.37800 0.20400 25.81300
H  17.06900 0.73900 34.06800
H  17.60100 -1.95900 34.63600
H  19.12200 0.62200 34.36300
H  20.07400 -0.72600 33.67700
H  19.51900 -0.83100 35.37800
H  15.50000 -1.90700 34.16700
H  14.52600 -0.39500 34.01400
H  15.15500 -1.63000 36.33700
H  14.51100 0.07200 36.13600
H  20.27000 -6.71300 32.28700
H  20.28400 -5.20400 33.18100
H  21.60900 -5.43400 32.17000
H  22.08200 -6.94700 30.23900
H  21.73500 -8.10000 29.06300
H  20.65100 -7.95200 30.47500
H  17.00100 -4.24600 25.21100
H  16.76700 -1.49900 24.51200
H  19.57700 -3.14000 25.13500
H  18.70300 -2.17400 23.91100
H  18.73700 -3.91500 23.68500
H  14.30400 -2.71900 25.79800
H  14.95000 -3.64100 24.52100
H  13.67900 -0.91600 24.34100
H  13.68500 -2.20200 23.17500
H  15.10300 -1.16100 23.39400
H  13.75100 1.92200 26.31400
H  14.63400 3.34300 27.15400
H  13.05400 2.78900 27.72400
H  14.14100 1.40100 32.57400
H  15.47400 5.06300 34.93900
H  16.99200 4.10800 34.83000
H  15.69800 3.70700 35.91000
Mg 36.76300 49.21400 24.89900
C  37.12900 47.30100 27.88900
C  35.19900 51.54200 26.75100
C  36.32500 50.89100 22.15400
C  37.55300 46.28000 23.06600
N  36.15200 49.37500 27.08600
C  36.52000 48.53800 28.14000
C  36.18800 49.20000 29.47600
C  35.33600 50.43400 29.05600
C  35.51800 50.48100 27.55900
C  33.88000 50.45900 29.57500
C  37.50500 49.51600 30.25200
C  37.45700 49.48600 31.76800
H  36.07800 49.49400 32.50100
N  35.99800 50.99700 24.56300
C  35.52600 51.88600 25.41800
C  35.32400 53.16000 24.78000
C  35.41800 52.95600 23.40700
C  35.90700 51.51900 23.30200
C  34.79900 54.36700 25.49800
C  35.23400 53.89200 22.15400
O  35.29100 53.40100 20.98500
C  34.90000 55.31500 22.30000
N  36.79500 48.65400 22.88700
C  36.78400 49.59000 21.90200
C  37.03200 49.06300 20.57000
C  37.48400 47.57500 20.90800
C  37.26600 47.46000 22.39700
C  35.72800 49.10800 19.67400
C  38.85800 47.32500 20.30800
C  40.01400 47.72100 21.27800
N  37.23900 47.18800 25.29600
C  37.54800 46.09700 24.46000
C  37.89200 44.96700 25.21800
C  37.82600 45.43600 26.60600
C  37.30100 46.72100 26.59100
C  38.41300 43.66100 24.66500
C  37.98000 44.99200 27.94900
O  38.28500 43.87800 28.40300
C  37.58600 46.17900 28.80800
C  36.42200 45.63400 29.60400
O  35.34700 45.26300 29.13800
O  36.73300 45.68700 30.91900
C  35.81000 45.06900 31.87800
H  34.56100 52.22300 27.31900
H  36.18400 51.40800 21.20200
H  37.71000 45.41000 22.42500
H  35.59200 48.47100 30.02500
H  35.70100 51.42300 29.33300
H  33.29000 50.67300 28.68400
H  33.78800 51.31200 30.24800
H  33.69100 49.51700 30.08900
H  37.85000 50.52500 30.02900
H  38.30100 48.80400 30.03300
H  37.97500 50.35100 32.18100
H  38.05800 48.64800 32.12200
H  34.57400 54.22800 26.55600
H  33.78600 54.52700 25.13000
H  35.40900 55.26300 25.37900
H  33.93800 55.31800 22.81200
H  34.92500 55.73300 21.29300
H  35.65900 55.83000 22.88900
H  37.83000 49.65600 20.12300
H  36.83400 46.86000 20.40400
H  34.84300 49.19600 20.30400
H  35.71500 48.28700 18.95700
H  35.77600 49.96100 18.99600
H  39.08600 47.90800 19.41500
H  39.11000 46.30700 20.01000
H  40.17500 46.95400 22.03500
H  39.73700 48.62100 21.82800
H  40.98800 47.76500 20.79200
H  37.88600 43.57000 23.71500
H  38.05600 42.78000 25.19900
H  39.49100 43.56500 24.54100
H  38.44900 46.50300 29.39100
H  35.11900 45.86900 32.14100
H  36.32500 44.61900 32.72700
H  35.15400 44.35300 31.38200

