158

Mg 1.03600 8.18300 26.33500
C  1.60300 9.96000 29.36200
C  0.94700 5.32800 28.33900
C  0.71900 6.30700 23.56200
C  1.31300 11.06300 24.60900
N  1.24800 7.75000 28.58900
C  1.31500 8.61900 29.64200
C  1.19200 7.95700 30.94800
C  1.39700 6.48700 30.57600
C  1.14400 6.50100 29.07800
C  2.69100 5.78000 30.90100
C  -0.09400 8.41100 31.69200
C  0.01700 8.51800 33.22800
H  1.25400 7.93600 33.95300
N  0.83900 6.07500 26.02400
C  0.85100 5.11900 26.94400
C  0.55300 3.84500 26.28500
C  0.68300 4.11900 24.92500
C  0.74800 5.53800 24.77800
C  0.35400 2.52600 26.99600
C  0.60200 3.12400 23.66900
O  0.60100 3.53000 22.51200
C  0.57200 1.60900 23.86500
N  0.94000 8.60400 24.43000
C  0.82300 7.71300 23.41600
C  0.76300 8.45100 22.01500
C  0.83400 9.96000 22.39500
C  0.99700 9.85900 23.92100
C  1.71400 7.97000 20.87300
C  -0.46500 10.77400 21.91300
C  -1.73400 10.51600 22.74700
N  1.37700 10.10400 26.78600
C  1.51000 11.17100 25.96400
C  1.81800 12.37600 26.77200
C  1.83100 11.89000 28.06100
C  1.55800 10.53600 28.05200
C  2.04400 13.81900 26.21300
C  2.20000 12.28800 29.39000
O  2.57200 13.39800 29.84200
C  1.93400 11.01300 30.31900
C  3.15600 10.67200 31.07900
O  4.09000 9.87100 30.83900
O  3.17900 11.52100 32.18300
C  4.40600 11.54600 33.08100
H  0.82600 4.38700 28.88000
H  0.66400 5.89700 22.55100
H  1.22200 11.95700 23.98800
H  2.11800 8.15800 31.48600
H  0.60200 5.87500 31.00200
H  2.48100 5.07300 31.70300
H  3.45000 6.39800 31.38100
H  3.09700 5.17400 30.09100
H  -0.91200 7.72200 31.47700
H  -0.42800 9.37800 31.31800
H  -0.88000 8.07900 33.66400
H  0.08700 9.59800 33.35700
H  1.34400 2.08400 26.88100
H  -0.43600 1.95200 26.51200
H  0.01800 2.67100 28.02300
H  1.56500 1.18800 24.02300
H  0.31300 1.15500 22.90900
H  -0.13100 1.24800 24.61600
H  -0.26000 8.16900 21.76500
H  1.77900 10.39400 22.06700
H  2.42300 7.22000 21.22700
H  2.27900 8.88100 20.67800
H  1.23000 7.44200 20.05200
H  -0.54800 10.57000 20.84500
H  -0.27700 11.84200 22.02000
H  -1.58400 9.99900 23.69500
H  -2.40200 9.80800 22.25700
H  -2.18500 11.48900 22.94100
H  2.47100 13.72900 25.21400
H  2.76700 14.29800 26.87200
H  1.14300 14.42200 26.09400
H  1.08000 11.19900 30.96900
H  5.29300 11.02000 32.72900
H  4.13100 11.15700 34.06200
H  4.75800 12.57000 33.20800
Mg 35.59200 2.20900 29.75100
C  33.64200 3.45800 32.35400
C  38.39900 2.31900 31.78300
C  37.36400 1.18400 27.13500
C  32.91500 2.81700 27.55000
N  35.98800 3.05200 31.74000
C  34.99300 3.22300 32.72200
C  35.65600 3.37100 34.13600
C  37.17900 3.14100 33.87700
C  37.22000 2.89200 32.37100
C  38.18100 4.17800 34.33300
C  34.92400 2.33900 35.06900
C  34.69800 2.73300 36.56200
H  35.49800 4.02000 37.04600
N  37.59900 1.71400 29.50100
C  38.60900 1.81300 30.46600
C  39.89400 1.17500 30.02900
C  39.56300 0.99500 28.61000
C  38.14100 1.34500 28.35900
C  41.07200 0.91500 30.98800
C  40.50000 0.42200 27.60400
O  40.15200 0.24300 26.43000
C  41.89900 -0.00600 27.93000
N  35.25300 2.12600 27.62000
C  36.10000 1.63100 26.78100
C  35.56100 1.54900 25.30900
C  34.07400 1.91900 25.58900
C  34.05200 2.31600 27.00000
C  36.24400 2.53400 24.39300
C  33.19000 0.62500 25.38200
C  32.29200 0.66300 24.22600
N  33.69900 2.94100 29.86700
C  32.72000 3.12300 28.91100
C  31.52700 3.58300 29.56400
C  31.81500 3.69000 30.88200
C  33.16500 3.33800 31.01600
C  30.16900 3.94300 28.99800
C  31.26000 4.04900 32.13900
O  30.09600 4.40000 32.39000
C  32.48000 3.87900 33.15200
C  32.66100 5.16400 33.85800
O  32.94900 6.22100 33.32400
O  32.41800 4.97800 35.21400
C  32.42000 6.14200 36.07200
H  39.27800 2.26200 32.42900
H  37.98100 0.80200 26.31900
H  31.97500 2.90500 27.00200
H  35.52900 4.39900 34.47500
H  37.42100 2.19300 34.35800
H  37.62000 4.98600 34.80300
H  38.66200 4.54700 33.42700
H  38.88600 3.78700 35.06600
H  35.46900 1.39500 35.05200
H  34.00000 1.94900 34.64400
H  35.15500 1.89900 37.09500
H  33.65000 2.82400 36.85000
H  41.70800 0.11900 30.59900
H  40.51600 0.63500 31.88200
H  41.61000 1.85500 31.11400
H  42.50800 0.87300 28.13900
H  42.32900 -0.42200 27.01900
H  41.76300 -0.77600 28.68900
H  35.70600 0.51400 24.99900
H  33.62400 2.73500 25.02300
H  36.65400 3.38200 24.94200
H  35.72900 2.84000 23.48200
H  37.17800 2.02500 24.15600
H  32.65300 0.40000 26.30300
H  33.80300 -0.27100 25.28000
H  32.47100 -0.19500 23.57800
H  32.06300 1.63700 23.79200
H  31.39400 0.26900 24.70000
H  29.60400 3.07700 28.65100
H  30.22400 4.64100 28.16300
H  29.52400 4.37900 29.76100
H  32.18500 3.11900 33.87600
H  32.62700 5.85300 37.10200
H  31.36200 6.40700 36.08900
H  33.16600 6.86500 35.74400

