158

Mg 50.34600 45.17900 42.70800
C  47.19400 46.05100 41.58800
C  50.02800 42.10100 41.70200
C  53.74800 44.90100 42.94200
C  50.85200 48.78100 43.16600
N  48.86400 44.28000 41.66900
C  47.55200 44.74200 41.37900
C  46.65500 43.67300 40.77600
C  47.64600 42.39800 40.81600
C  48.92000 42.92700 41.46100
C  47.04200 41.18300 41.64900
C  46.27000 44.03200 39.28400
C  47.31900 44.65600 38.35500
H  47.82300 43.86100 37.16100
N  51.71400 43.66900 42.48500
C  51.34400 42.38100 42.09300
C  52.50000 41.48300 41.98800
C  53.61000 42.31600 42.39200
C  53.03500 43.67800 42.67200
C  52.33200 40.02000 41.62600
C  55.04000 41.72200 42.55800
O  55.25800 40.60500 42.19800
C  56.09600 42.47500 43.34800
N  51.99300 46.69400 43.01300
C  53.29900 46.21300 43.20900
C  54.22000 47.48200 43.37600
C  53.28600 48.68100 43.65700
C  51.98300 48.02700 43.17800
C  55.33500 47.46500 44.48900
C  53.65100 50.16300 43.17700
C  53.93400 51.09000 44.33400
N  49.29900 47.11800 42.36500
C  49.57600 48.45800 42.72000
C  48.33200 49.24100 42.67300
C  47.36400 48.28400 42.26900
C  47.96700 47.05700 42.06200
C  48.18200 50.63500 43.24800
C  45.95900 48.16100 41.84700
O  45.09500 48.97300 41.63700
C  45.73500 46.66900 41.54900
C  44.76900 46.07300 42.48800
O  43.56300 45.93600 42.23400
O  45.34300 45.63700 43.68000
C  44.39000 45.07400 44.62300
H  49.82300 41.10500 41.30500
H  54.83000 44.76000 42.89700
H  50.86100 49.85600 43.36100
H  45.78400 43.45800 41.39500
H  47.84900 41.95500 39.84100
H  46.21000 41.54500 42.25200
H  47.74600 40.94100 42.44600
H  46.94900 40.38100 40.91700
H  45.48500 44.77200 39.43900
H  45.81900 43.09500 38.95600
H  48.28800 44.71700 38.85200
H  47.00300 45.61000 37.93300
H  52.95000 39.71600 40.78100
H  51.28400 39.83100 41.39300
H  52.58400 39.49200 42.54500
H  56.61900 43.20900 42.73600
H  56.82500 41.74600 43.70100
H  55.61200 42.92800 44.21400
H  54.74700 47.46600 42.42100
H  53.10000 48.72300 44.73000
H  56.22900 47.12000 43.96900
H  55.08100 46.66700 45.18800
H  55.53200 48.45300 44.90600
H  52.86900 50.55200 42.52600
H  54.54500 50.15700 42.55200
H  54.55700 50.54600 45.04400
H  52.94800 51.29700 44.75100
H  54.46300 51.93000 43.88300
H  48.75000 51.19500 42.50500
H  48.61800 50.77300 44.23700
H  47.14200 50.96100 43.29600
H  45.30600 46.52100 40.55800
H  44.97300 44.55600 45.38500
H  43.63200 44.40300 44.21700
H  43.85700 45.85300 45.16900
Mg -1.37900 33.58700 26.50300
C  -3.19000 31.98200 29.10500
C  -0.22700 35.81500 29.01400
C  0.04700 35.50500 24.18800
C  -3.29400 31.91800 24.17700
N  -1.62600 33.76000 28.80300
C  -2.34700 32.96600 29.67900
C  -2.28200 33.42100 31.06800
C  -1.42900 34.74200 30.98900
C  -1.09000 34.81000 29.50000
C  -2.20500 35.95500 31.52700
C  -1.63700 32.37800 32.08700
C  -2.33600 32.39300 33.54400
H  -1.37200 32.17800 34.72400
N  -0.21000 35.35100 26.61000
C  0.20100 36.09500 27.65800
C  1.14400 37.09200 27.25100
C  1.17100 37.10900 25.84100
C  0.30000 35.97700 25.49500
C  1.81300 38.06300 28.23300
C  1.86100 38.12000 24.92100
O  1.77100 38.10400 23.73400
C  2.73400 39.13200 25.56000
N  -1.72800 33.82000 24.49500
C  -0.86700 34.53600 23.73900
C  -1.12000 34.28900 22.23600
C  -2.03700 32.95700 22.26000
C  -2.36000 32.91400 23.70100
C  -1.85900 35.47500 21.55400
C  -1.42000 31.64900 21.68400
C  -0.95400 30.47700 22.65000
N  -2.82800 32.12200 26.53000
C  -3.60300 31.58300 25.53900
C  -4.50200 30.58100 26.13100
C  -4.33800 30.68600 27.50800
C  -3.38700 31.61800 27.72700
C  -5.50500 29.90700 25.40200
C  -4.84300 30.18000 28.73900
O  -5.71800 29.39500 29.08700
C  -3.99200 30.93500 29.86600
C  -5.00900 31.50300 30.72600
O  -5.55000 32.58200 30.74700
O  -5.18600 30.59000 31.73400
C  -5.96900 30.95700 32.97800
H  0.14300 36.51200 29.76900
H  0.59100 36.03700 23.40500
H  -3.69200 31.26500 23.39800
H  -3.30200 33.67300 31.35800
H  -0.44600 34.68900 31.45700
H  -1.58300 36.48000 32.25200
H  -3.08500 35.64800 32.09300
H  -2.52800 36.68800 30.78900
H  -0.64300 32.71200 32.38400
H  -1.52700 31.38400 31.65400
H  -3.08800 31.60500 33.50900
H  -2.90300 33.31300 33.68400
H  1.98200 37.56000 29.18500
H  1.18400 38.94700 28.34100
H  2.84800 38.35700 28.05900
H  3.64900 38.72300 25.98800
H  2.20700 39.73000 26.30300
H  3.18400 39.76700 24.79700
H  -0.16300 34.21800 21.71800
H  -3.02400 33.04200 21.80600
H  -1.47500 35.74200 20.56900
H  -2.00000 36.32800 22.21800
H  -2.86300 35.07300 21.42600
H  -0.42200 31.86000 21.29900
H  -1.99200 31.33500 20.81100
H  -0.61700 30.88300 23.60400
H  -0.00400 30.11800 22.25400
H  -1.63400 29.63300 22.76300
H  -5.04600 28.98600 25.04200
H  -5.79200 30.54000 24.56400
H  -6.38800 29.69500 26.00400
H  -3.41500 30.21400 30.44400
H  -6.93500 31.30500 32.61100
H  -5.49500 31.78600 33.50400
H  -6.21900 30.10800 33.61400

