158

Mg 2.05900 -1.16300 43.67400
C  5.52100 -0.33600 43.04500
C  1.19700 1.74700 42.13400
C  -1.04200 -2.37000 43.41600
C  3.24300 -4.20500 44.83300
N  3.23000 0.51400 42.77000
C  4.57600 0.64000 42.55800
C  5.02600 1.96300 41.91300
C  3.63700 2.71500 41.93800
C  2.57900 1.55800 42.25600
C  3.52100 3.93100 42.92100
C  5.66500 1.87400 40.46100
C  6.91100 2.68700 40.11900
H  6.93100 3.61000 38.94400
N  0.27900 -0.35100 43.02000
C  0.11300 0.86300 42.40500
C  -1.23200 1.01400 42.05100
C  -1.94000 -0.10200 42.49800
C  -0.92900 -1.06500 43.01600
C  -1.81800 2.17300 41.43600
C  -3.46200 -0.30000 42.44700
O  -4.20400 0.49700 41.91200
C  -4.18200 -1.45100 43.06700
N  1.26200 -3.08000 43.96800
C  -0.04600 -3.29700 43.93800
C  -0.42400 -4.74600 44.43200
C  0.98600 -5.26000 44.96300
C  1.91500 -4.17400 44.48100
C  -1.67200 -4.83500 45.32800
C  1.34300 -6.64400 44.23400
C  2.00900 -7.70400 45.21600
N  4.00300 -2.12100 43.97900
C  4.28700 -3.28300 44.57900
C  5.69400 -3.34100 44.82500
C  6.23100 -2.25500 44.21600
C  5.16600 -1.55300 43.71500
C  6.45300 -4.36500 45.64600
C  7.48700 -1.53900 43.96100
O  8.65200 -1.72200 44.30500
C  7.03800 -0.42700 43.02100
C  7.75200 0.85300 43.34800
O  8.45400 1.42700 42.53500
O  7.48100 1.35100 44.57100
C  7.93000 2.72900 44.82900
H  0.94900 2.75200 41.78700
H  -2.10900 -2.60400 43.40400
H  3.49800 -5.15200 45.31300
H  5.61000 2.42400 42.71000
H  3.22300 3.06100 40.99100
H  4.51200 4.19000 43.29400
H  2.81900 3.71200 43.72600
H  3.18100 4.79700 42.35500
H  4.94500 2.14700 39.69000
H  5.92400 0.82200 40.34600
H  7.69700 1.96700 39.89400
H  7.11300 3.32600 40.97900
H  -2.53000 1.88800 40.66200
H  -1.14600 2.84600 40.90400
H  -2.22100 2.73700 42.27600
H  -5.21900 -1.16700 43.24500
H  -3.79400 -1.71000 44.05200
H  -4.04700 -2.28100 42.37400
H  -0.56700 -5.21900 43.46000
H  1.08700 -5.24400 46.04800
H  -1.38100 -5.43400 46.19100
H  -2.56100 -5.26000 44.86400
H  -1.92200 -3.85000 45.72100
H  2.04100 -6.45100 43.41900
H  0.48700 -7.08000 43.72000
H  1.45800 -8.64400 45.17900
H  2.15400 -7.34300 46.23400
H  2.98400 -7.95900 44.80200
H  5.95100 -5.32200 45.50700
H  6.31100 -3.98900 46.65900
H  7.52500 -4.45700 45.47100
H  7.41600 -0.71900 42.04000
H  7.36400 3.37600 44.16000
H  8.98100 2.87800 44.58000
H  7.65600 3.08400 45.82300
Mg -4.94900 25.89700 26.48300
C  -3.79100 27.49000 29.44900
C  -6.66400 23.62600 28.52900
C  -5.78400 24.12100 23.75600
C  -2.87600 27.92900 24.66500
N  -5.28500 25.72000 28.70900
C  -4.71800 26.49100 29.72500
C  -5.24600 26.12300 31.12900
C  -5.78600 24.64100 30.78200
C  -5.92700 24.61600 29.23800
C  -4.86000 23.53000 31.30800
C  -6.43800 27.06600 31.59400
C  -6.76500 26.94800 33.10500
H  -6.21400 25.72100 33.88400
N  -6.11300 24.14000 26.16700
C  -6.73800 23.41600 27.14300
C  -7.64500 22.48300 26.45500
C  -7.39600 22.63100 25.09000
C  -6.43600 23.67500 24.91800
C  -8.74500 21.63000 27.22100
C  -8.14900 22.04800 23.92700
O  -7.81900 22.23400 22.77000
C  -9.34200 21.12200 24.14500
N  -4.49600 26.10100 24.49800
C  -4.86900 25.19600 23.51300
C  -4.16900 25.54800 22.20000
C  -3.53800 26.87600 22.49200
C  -3.60500 26.97000 23.98500
C  -3.26400 24.36500 21.68500
C  -4.37800 28.02400 21.87700
C  -3.73400 28.68600 20.63900
N  -3.61700 27.36100 26.88800
C  -2.88500 28.14100 26.06200
C  -2.18100 29.21900 26.70400
C  -2.49800 28.93800 28.04700
C  -3.37500 27.85200 28.14500
C  -1.29800 30.30000 26.14100
C  -2.23700 29.40000 29.38100
O  -1.48900 30.29100 29.74400
C  -3.12400 28.57200 30.38900
C  -2.31300 28.04900 31.45300
O  -1.28700 27.40300 31.30900
O  -2.94600 28.38800 32.71700
C  -2.47400 27.81600 33.99600
H  -7.16600 22.85200 29.11400
H  -5.91100 23.53700 22.84200
H  -2.28300 28.69500 24.16200
H  -4.48100 26.22700 31.89900
H  -6.74900 24.55800 31.28700
H  -4.02200 23.86600 31.92000
H  -4.55000 23.05500 30.37800
H  -5.34700 22.72500 31.85800
H  -7.35200 26.84600 31.04200
H  -6.12000 28.08300 31.36400
H  -7.85200 26.95900 33.18700
H  -6.41000 27.91900 33.44900
H  -9.53000 22.33900 27.48300
H  -8.37500 21.18200 28.14400
H  -9.27700 20.89300 26.61900
H  -10.12100 21.56300 24.76600
H  -8.98900 20.25800 24.70700
H  -9.63800 20.80000 23.14600
H  -4.95900 25.60000 21.45100
H  -2.47700 27.00200 22.27500
H  -3.19600 23.54200 22.39600
H  -2.22300 24.66600 21.57000
H  -3.71300 24.15400 20.71500
H  -4.55200 28.77800 22.64500
H  -5.40800 27.68300 21.77000
H  -3.17700 29.56300 20.96900
H  -4.52100 28.97900 19.94300
H  -3.06000 28.02300 20.09700
H  -0.72400 29.74400 25.39900
H  -0.61800 30.75200 26.86200
H  -1.95900 31.01400 25.65100
H  -3.99900 29.11900 30.74000
H  -2.91400 26.84300 34.21400
H  -2.70300 28.56500 34.75400
H  -1.39900 27.66300 33.90000

