158

Mg 9.13100 3.84700 27.70500
C  10.33200 2.15500 30.45700
C  7.28900 5.86900 29.85000
C  7.94100 5.47200 24.97600
C  10.64300 1.36300 25.65500
N  8.69600 3.88300 29.92500
C  9.52200 3.22300 30.85000
C  9.24900 3.72800 32.23300
C  8.14700 4.84000 32.01800
C  7.96800 4.87300 30.53100
C  6.83500 4.70000 32.74900
C  10.63800 4.08700 32.88700
C  10.63100 5.11400 34.01200
H  11.32300 4.74200 35.29800
N  7.85100 5.45400 27.47500
C  7.24600 6.17500 28.43700
C  6.45500 7.24100 27.85700
C  6.67600 7.15800 26.46300
C  7.48500 5.98800 26.25900
C  5.43300 8.04200 28.69100
C  6.08400 8.04200 25.41300
O  6.05300 7.80900 24.21700
C  5.24900 9.15500 25.83400
N  9.18000 3.44100 25.61900
C  8.64700 4.31200 24.72200
C  8.84400 3.77100 23.32300
C  9.68600 2.53900 23.55900
C  9.96100 2.43900 24.96700
C  7.54400 3.65600 22.47800
C  10.97200 2.35600 22.66000
C  11.14100 1.01900 22.01900
N  10.29500 2.05400 27.92900
C  10.80900 1.17200 27.04900
C  11.61700 0.19400 27.68800
C  11.54100 0.54700 29.08200
C  10.67100 1.65800 29.14900
C  12.34300 -0.97100 27.09200
C  11.96200 0.24700 30.44500
O  12.75500 -0.55600 30.89500
C  11.22900 1.31900 31.35300
C  10.50500 0.62400 32.49300
O  9.32500 0.25500 32.46200
O  11.35700 0.56300 33.54400
C  10.88700 0.23600 34.91600
H  6.83100 6.65700 30.45100
H  7.45000 5.97600 24.14100
H  11.04700 0.57700 25.01300
H  8.81000 2.91100 32.80500
H  8.58600 5.77800 32.35800
H  6.46700 5.72100 32.85300
H  7.00400 4.21400 33.71000
H  6.01300 4.11000 32.34500
H  11.18400 4.56800 32.07600
H  11.24400 3.32000 33.37000
H  9.60500 5.41100 34.22800
H  11.18700 5.96200 33.61400
H  4.46400 7.72700 28.30300
H  5.58500 9.10200 28.49100
H  5.51100 7.83800 29.75900
H  4.38000 8.87500 26.42900
H  4.88700 9.52500 24.87400
H  5.78200 9.97800 26.31100
H  9.52200 4.51800 22.91100
H  9.14400 1.61700 23.34700
H  6.73900 3.75100 23.20800
H  7.32000 2.70400 21.99900
H  7.38800 4.44200 21.73900
H  11.85800 2.41900 23.29200
H  11.07300 3.19300 21.96900
H  11.45100 1.17800 20.98600
H  10.23200 0.41900 21.97500
H  11.87500 0.39000 22.52200
H  12.80800 -1.57100 27.87400
H  13.10600 -0.50300 26.46900
H  11.79100 -1.57300 26.37100
H  12.06400 1.89000 31.76000
H  9.90300 0.68700 35.04800
H  11.52700 0.54100 35.74400
H  10.63600 -0.82200 34.98900
Mg 0.65500 43.73600 26.02200
C  2.89200 43.25400 28.53200
C  -1.92800 43.41300 28.29400
C  -1.45700 43.66900 23.39400
C  3.36300 43.69400 23.74100
N  0.49500 43.65000 28.19200
C  1.61000 43.48800 28.94900
C  1.16800 43.51900 30.49000
C  -0.40900 43.31800 30.33600
C  -0.66700 43.57700 28.86500
C  -1.12700 41.95800 30.81400
C  1.71900 44.79900 31.32200
C  1.33600 44.90300 32.82100
H  0.95400 43.61500 33.59400
N  -1.47000 43.45700 25.89100
C  -2.37500 43.38700 26.94000
C  -3.69400 43.41700 26.36800
C  -3.55100 43.48800 24.92300
C  -2.10600 43.60400 24.68000
C  -4.95000 43.56700 27.20300
C  -4.55600 43.34700 23.83000
O  -4.29300 43.31000 22.59900
C  -6.00900 43.10500 24.23000
N  0.90000 43.67000 23.89800
C  -0.12600 43.64400 23.05300
C  0.33900 43.68700 21.60100
C  1.87800 43.83500 21.68500
C  2.09700 43.66800 23.17800
C  -0.29400 42.65200 20.64100
C  2.48000 45.11700 21.07700
C  2.04500 45.47400 19.66000
N  2.71200 43.67400 26.06500
C  3.70500 43.59400 25.06800
C  4.92300 43.48700 25.70900
C  4.67200 43.24400 26.99600
C  3.32500 43.39200 27.20400
C  6.24800 43.74900 25.02500
C  5.37100 43.01700 28.25700
O  6.54100 42.99300 28.57900
C  4.20800 43.05700 29.26600
C  4.30600 41.86100 30.13200
O  3.74500 40.80700 29.94300
O  5.00600 42.18500 31.29800
C  5.14800 41.15600 32.40500
H  -2.75200 43.17900 28.97100
H  -2.13200 43.81800 22.54900
H  4.13700 43.66400 22.97200
H  1.51800 42.61100 30.98000
H  -0.92700 44.13300 30.84100
H  -0.36400 41.25500 31.14600
H  -1.69600 41.44400 30.03900
H  -1.88800 42.21200 31.55100
H  1.32400 45.63200 30.74000
H  2.79900 44.93400 31.26900
H  0.53600 45.61600 33.02000
H  2.11000 45.29800 33.47800
H  -5.74900 44.07700 26.66500
H  -4.74200 44.16100 28.09400
H  -5.39000 42.61700 27.50700
H  -6.48200 44.05400 24.48100
H  -5.85700 42.42400 25.06800
H  -6.50200 42.75200 23.32500
H  0.02800 44.68300 21.28500
H  2.28600 43.01700 21.09100
H  -0.81200 41.80000 21.08200
H  0.40600 42.21800 19.92700
H  -1.07100 43.16200 20.07300
H  3.56900 45.10600 21.13300
H  2.20100 45.92900 21.74800
H  1.42600 44.66000 19.28300
H  2.97200 45.44300 19.08800
H  1.56000 46.43500 19.49000
H  6.41500 44.81300 24.85700
H  6.40100 43.16300 24.11900
H  7.01000 43.26100 25.63300
H  4.47000 43.89700 29.91000
H  4.73300 41.60200 33.30800
H  6.19000 40.97800 32.67000
H  4.70200 40.17300 32.25300

