158

Mg -0.44500 7.05700 26.94800
C  0.37200 9.05300 29.76700
C  -0.36700 4.36500 28.89300
C  -0.93100 5.31400 24.18700
C  0.24900 9.86800 24.99900
N  0.10500 6.76000 29.02900
C  0.22500 7.70400 30.05200
C  0.22900 7.03900 31.39700
C  0.33100 5.50400 30.98300
C  -0.07400 5.56400 29.52400
C  1.72400 4.93400 31.09200
C  -1.00400 7.49000 32.30100
C  -0.58800 7.57700 33.80100
H  0.67100 6.94900 34.32500
N  -0.79600 5.11800 26.56800
C  -0.74700 4.13900 27.52400
C  -1.11100 2.84200 26.96500
C  -1.12400 3.12400 25.52800
C  -0.91700 4.58600 25.34400
C  -1.22200 1.57700 27.78800
C  -1.32300 2.18300 24.39000
O  -1.38900 2.50800 23.21900
C  -1.50200 0.69600 24.61200
N  -0.49900 7.57500 24.96400
C  -0.70900 6.65300 23.98700
C  -0.40900 7.19900 22.60600
C  -0.45200 8.71700 22.83900
C  -0.19000 8.71600 24.35100
C  0.98000 6.74600 22.06200
C  -1.71900 9.51000 22.47600
C  -3.10400 9.08500 22.96800
N  0.17200 9.07300 27.24800
C  0.42400 10.06500 26.38300
C  0.93700 11.24400 27.07200
C  0.87500 10.92700 28.40100
C  0.33800 9.63800 28.48400
C  1.29700 12.57600 26.39800
C  1.13000 11.39800 29.71100
O  1.58800 12.47900 30.10900
C  0.70900 10.17300 30.70000
C  1.96100 10.02800 31.50800
O  2.94600 9.39600 31.22900
O  1.77200 10.79900 32.69200
C  2.96000 10.86200 33.51000
H  -0.42600 3.54500 29.61200
H  -1.08100 4.87900 23.19600
H  0.58800 10.71100 24.39300
H  1.13800 7.39800 31.88100
H  -0.43700 4.96000 31.53300
H  1.91000 4.45800 32.05500
H  2.48100 5.70000 30.92700
H  1.90900 4.25600 30.25900
H  -1.76500 6.71100 32.26100
H  -1.56400 8.37900 32.00900
H  -1.38600 7.10400 34.37200
H  -0.62400 8.63000 34.08100
H  -1.50300 0.78100 27.09800
H  -2.00200 1.59300 28.54900
H  -0.26300 1.37400 28.26500
H  -0.63900 0.20800 25.06700
H  -1.44200 0.23300 23.62700
H  -2.42900 0.55400 25.16700
H  -1.28400 6.99000 21.99100
H  0.39500 9.12700 22.28800
H  1.14700 7.37300 21.18600
H  0.84800 5.68700 21.83900
H  1.76700 6.79900 22.81500
H  -1.58000 9.39300 21.40100
H  -1.56000 10.54800 22.76700
H  -3.65800 9.92400 23.38900
H  -3.00800 8.26500 23.68100
H  -3.68300 8.60400 22.18000
H  1.90200 13.18700 27.06800
H  0.36200 13.09300 26.18400
H  1.80000 12.51000 25.43300
H  -0.05800 10.44300 31.42600
H  3.30100 9.89200 33.87300
H  2.47400 11.37300 34.34100
H  3.71800 11.44800 32.99100
Mg 36.35100 49.92400 25.19600
C  36.46000 48.21700 28.24900
C  34.64900 52.48500 26.77800
C  35.63300 51.21500 22.08800
C  37.70000 47.08500 23.66300
N  35.67400 50.30000 27.31400
C  35.94000 49.52000 28.37200
C  35.45600 50.11100 29.65800
C  34.71600 51.40700 29.15200
C  35.11100 51.47100 27.67800
C  33.15800 51.23400 29.39900
C  36.54000 50.48200 30.65600
C  36.11000 50.34600 32.09100
H  34.66400 50.25100 32.47400
N  35.34300 51.68900 24.54300
C  34.73700 52.60800 25.32200
C  34.37100 53.69200 24.47000
C  34.47100 53.23900 23.14400
C  35.13600 52.00300 23.20400
C  33.72300 54.92400 24.96700
C  34.17700 54.07600 21.85700
O  34.24800 53.63500 20.66800
C  33.49400 55.42400 21.94100
N  36.45100 49.13900 23.11400
C  36.24400 49.98200 22.04800
C  36.79600 49.26300 20.75200
C  37.75500 48.19700 21.37800
C  37.33400 48.13900 22.83000
C  35.69400 48.61100 19.91300
C  39.24500 48.61600 21.39200
C  40.18000 47.44600 21.16900
N  37.11000 48.05500 25.77700
C  37.44000 46.99500 25.00600
C  37.81200 45.92100 25.99600
C  37.43500 46.38900 27.20900
C  36.98200 47.68200 27.05100
C  38.35500 44.59400 25.68200
C  37.48900 45.96700 28.59100
O  37.96900 45.00600 29.18100
C  36.81600 47.20000 29.33100
C  35.79600 46.66600 30.24800
O  34.62700 46.63800 29.99400
O  36.35800 46.12200 31.33100
C  35.41200 45.61000 32.34700
H  34.10700 53.30700 27.25100
H  35.36900 51.64800 21.12100
H  38.01700 46.15400 23.18700
H  34.67400 49.48700 30.09000
H  35.07800 52.27800 29.69800
H  32.91500 50.48600 30.15300
H  32.70100 51.06500 28.42400
H  32.71700 52.17000 29.74200
H  36.97400 51.47400 30.53500
H  37.42500 49.84800 30.60700
H  36.62300 51.07500 32.71700
H  36.57300 49.39600 32.35600
H  34.24300 55.80800 24.59800
H  33.55900 55.00900 26.04100
H  32.75800 54.99200 24.46400
H  32.53100 55.31800 22.44000
H  33.52200 55.75300 20.90200
H  34.18800 56.17900 22.31100
H  37.36900 50.02300 20.22000
H  37.67600 47.17100 21.01900
H  35.55300 49.33900 19.11400
H  34.82000 48.61900 20.56400
H  35.95700 47.61100 19.56600
H  39.52200 49.04100 22.35700
H  39.46500 49.33100 20.59900
H  40.94900 47.39200 21.93900
H  40.69700 47.67500 20.23700
H  39.62700 46.53800 20.93200
H  38.15800 44.19700 24.68700
H  38.14800 43.88700 26.48500
H  39.43500 44.74200 25.65700
H  37.57700 47.66500 29.95700
H  34.87200 44.77200 31.90600
H  34.66900 46.38000 32.55700
H  36.03900 45.36700 33.20400

