158

Mg -0.31000 7.72500 26.73600
C  0.68600 9.48900 29.74500
C  -0.31600 4.91100 28.76400
C  -0.89100 6.07600 24.05700
C  0.33400 10.57000 24.99300
N  0.14300 7.24700 29.04700
C  0.35300 8.18000 30.04500
C  0.23400 7.51500 31.42600
C  0.17300 5.99200 31.07000
C  -0.02200 6.03600 29.55200
C  1.45900 5.21400 31.43600
C  -1.02000 8.02500 32.25600
C  -0.61700 8.47700 33.63900
H  -0.69900 7.41600 34.75900
N  -0.65900 5.82500 26.47200
C  -0.61200 4.76400 27.37900
C  -0.92100 3.47200 26.71000
C  -1.11600 3.78500 25.34100
C  -0.96200 5.26000 25.22500
C  -0.96700 2.11100 27.59500
C  -1.44700 2.92300 24.17200
O  -1.58300 3.28300 23.01000
C  -1.70300 1.48700 24.52700
N  -0.36300 8.27200 24.84400
C  -0.66600 7.42000 23.86600
C  -0.93600 8.09900 22.49200
C  -0.51100 9.60700 22.84200
C  -0.22200 9.51600 24.29600
C  -0.06200 7.41100 21.30300
C  -1.61200 10.62000 22.48000
C  -1.62200 11.20800 21.01100
N  0.41900 9.65000 27.20500
C  0.62300 10.67500 26.34000
C  1.18500 11.81400 27.01500
C  1.11100 11.46700 28.37000
C  0.73200 10.12000 28.45600
C  1.40500 13.11700 26.47300
C  1.41500 11.82800 29.70100
O  1.83300 12.86100 30.13300
C  1.00500 10.64100 30.67700
C  2.14200 10.43600 31.61300
O  3.08900 9.67700 31.42500
O  2.00500 11.26800 32.72000
C  3.07500 11.42100 33.73700
H  -0.38500 4.00300 29.36700
H  -1.17300 5.52800 23.15600
H  0.46000 11.47200 24.39000
H  1.15100 7.72100 31.97900
H  -0.65700 5.47000 31.54600
H  2.18600 5.90300 31.86600
H  1.87300 4.79400 30.51900
H  1.23400 4.41100 32.13800
H  -1.55000 7.08600 32.41700
H  -1.51700 8.83700 31.72400
H  -1.31900 9.30200 33.75500
H  0.36100 8.95900 33.61000
H  -1.30700 1.18900 27.12300
H  -1.81600 2.16100 28.27600
H  -0.11200 1.91900 28.24400
H  -0.82200 0.93800 24.85900
H  -2.15800 1.01200 23.65800
H  -2.45900 1.41900 25.31000
H  -1.99400 7.90000 22.31900
H  0.46600 9.76400 22.38600
H  0.35000 8.17200 20.64000
H  -0.68900 6.66300 20.81800
H  0.75600 6.92000 21.83100
H  -1.57300 11.35200 23.28700
H  -2.62800 10.23800 22.57500
H  -0.76500 10.85700 20.43500
H  -1.46700 12.25600 21.26900
H  -2.58900 10.91700 20.60300
H  0.71300 13.26800 25.64400
H  2.43300 13.22300 26.12700
H  1.12400 13.77700 27.29400
H  0.16200 11.02100 31.25300
H  3.80600 10.61400 33.68500
H  2.76700 11.37900 34.78200
H  3.67400 12.31000 33.53900
Mg 40.51100 10.15400 29.81900
C  42.51300 11.37900 32.29500
C  38.27100 9.02700 32.17400
C  38.61000 8.80000 27.31400
C  43.10200 10.64100 27.50900
N  40.41200 10.31000 31.94100
C  41.24900 10.97700 32.74900
C  40.69400 11.05200 34.20400
C  39.44100 10.06400 34.22000
C  39.38800 9.73800 32.65700
C  39.67700 8.73700 35.03100
C  40.57600 12.50600 34.65500
C  39.76100 12.74100 35.95200
H  40.64700 13.26000 37.10100
N  38.65800 9.16300 29.73400
C  37.85600 8.83100 30.83100
C  36.66500 8.18500 30.34300
C  36.76100 8.12200 28.92900
C  38.00500 8.75300 28.58600
C  35.62200 7.54900 31.32400
C  35.73800 7.62400 28.01800
O  35.75800 7.74400 26.78600
C  34.55700 6.92500 28.59300
N  40.88300 9.88500 27.65100
C  39.95300 9.17600 26.95000
C  40.46300 9.04300 25.47400
C  41.92800 9.65300 25.54800
C  41.97600 10.07600 26.97100
C  40.35900 7.69000 24.67200
C  42.29500 10.72900 24.55300
C  42.13400 12.17700 24.95000
N  42.43500 10.98600 29.79500
C  43.38500 11.15900 28.82600
C  44.60100 11.66800 29.42800
C  44.29400 11.91200 30.79200
C  42.97900 11.41500 30.97000
C  45.82200 12.12100 28.78200
C  44.77600 12.47000 31.99800
O  45.85800 13.05200 32.27400
C  43.59000 12.22300 33.06400
C  44.17400 11.37500 34.10500
O  44.91700 10.38900 34.00200
O  43.77100 11.79300 35.32100
C  44.21700 10.98000 36.47600
H  37.56300 8.74800 32.95700
H  38.04900 8.32600 26.50600
H  43.95300 10.87300 26.86500
H  41.47200 10.62100 34.83400
H  38.49100 10.55900 34.42200
H  39.80900 7.90000 34.34500
H  38.87700 8.44200 35.70900
H  40.54300 8.71200 35.69300
H  40.09100 13.02800 33.83000
H  41.56400 12.95900 34.74100
H  39.23900 11.87000 36.35000
H  39.02800 13.50500 35.69400
H  35.56900 6.47800 31.13000
H  34.68000 8.07800 31.18100
H  35.85800 7.68400 32.38000
H  33.91100 7.57800 29.17900
H  34.95400 6.04000 29.09000
H  33.82200 6.58500 27.86400
H  39.69900 9.55700 24.89100
H  42.68500 8.87700 25.42700
H  39.62800 7.68100 23.86300
H  40.18600 6.84900 25.34300
H  41.35800 7.58600 24.24900
H  41.66300 10.49000 23.69700
H  43.36400 10.52800 24.47800
H  43.03000 12.59700 25.40800
H  41.26200 12.13700 25.60400
H  41.78800 12.85000 24.16600
H  46.03600 11.61000 27.84400
H  46.63800 11.83300 29.44500
H  45.86500 13.20100 28.63900
H  43.30100 13.19500 33.46300
H  43.59300 11.37600 37.27700
H  45.27000 11.11800 36.72100
H  43.95500 9.93500 36.31000

