158

Mg 30.61100 58.59900 40.22000
C  27.90700 56.70300 38.78600
C  32.80500 56.01500 39.22400
C  33.25700 60.66300 41.00100
C  28.36700 61.32200 40.45300
N  30.25300 56.62900 39.17300
C  29.12700 56.05100 38.69900
C  29.37900 54.63800 38.15500
C  30.77900 54.36900 38.79800
C  31.38200 55.74300 39.08200
C  30.68000 53.52500 40.15800
C  29.38700 54.61500 36.61300
C  28.49700 53.59700 35.89000
H  27.60200 54.10700 34.71600
N  32.70100 58.37400 40.18200
C  33.37500 57.27000 39.65600
C  34.81400 57.49600 39.67900
C  34.97400 58.79500 40.21600
C  33.65100 59.36900 40.48800
C  35.89000 56.49900 39.17600
C  36.31500 59.53000 40.33900
O  37.32000 59.06000 39.79600
C  36.52700 60.76700 41.03700
N  30.78800 60.67100 40.76000
C  31.96700 61.25100 41.12800
C  31.72800 62.80700 41.41700
C  30.18300 62.98400 41.15600
C  29.73600 61.55000 40.71400
C  32.11200 63.26300 42.79700
C  29.78000 64.10800 40.09400
C  28.71400 65.07400 40.55700
N  28.44600 58.88700 39.88700
C  27.72900 60.06800 40.00000
C  26.37200 59.84500 39.55200
C  26.41100 58.52000 39.10900
C  27.69000 57.98300 39.37000
C  25.20800 60.76200 39.50000
C  25.56900 57.41500 38.58000
O  24.39200 57.34400 38.30300
C  26.55500 56.26800 38.39300
C  26.07600 55.04000 39.09700
O  26.42800 54.58200 40.14000
O  25.31500 54.37300 38.23500
C  24.89500 53.00000 38.59500
H  33.43000 55.15700 38.97100
H  33.94800 61.45100 41.31000
H  27.71700 62.17300 40.67000
H  28.63400 53.88200 38.39800
H  31.41400 53.88200 38.05900
H  29.63100 53.43200 40.44100
H  31.38000 53.85700 40.92500
H  30.94900 52.48500 39.97200
H  30.37100 54.53800 36.15000
H  29.15800 55.64200 36.32800
H  27.77200 53.24700 36.62400
H  29.19600 52.78200 35.70500
H  36.69100 57.00400 38.63700
H  35.39000 55.71800 38.60400
H  36.30900 55.93000 40.00600
H  36.03500 61.54700 40.45700
H  37.61000 60.87000 40.97200
H  36.17100 60.73800 42.06700
H  32.37500 63.28100 40.67900
H  29.59300 63.18800 42.05000
H  31.58000 62.58100 43.46100
H  31.75500 64.28700 42.90300
H  33.19000 63.16600 42.92400
H  29.45600 63.55300 39.21400
H  30.67700 64.62600 39.75500
H  28.07800 65.33200 39.71000
H  29.29900 65.89100 40.97700
H  27.96600 64.69500 41.25400
H  25.10000 61.21300 40.48600
H  24.29900 60.19700 39.29900
H  25.32000 61.57900 38.78700
H  26.48700 55.96700 37.34700
H  23.83800 53.08800 38.84500
H  25.28000 52.44800 39.45300
H  24.97500 52.44300 37.66200
Mg -11.81100 17.07900 43.00600
C  -9.04000 15.00500 42.40900
C  -9.90400 19.76600 42.02200
C  -14.70400 18.71700 42.47300
C  -13.61500 14.06600 43.72900
N  -9.78300 17.27200 42.19700
C  -8.78000 16.34300 42.10800
C  -7.46600 16.96900 41.64700
C  -7.74100 18.47000 42.16900
C  -9.25700 18.56300 42.17200
C  -7.15000 18.88600 43.52600
C  -7.15300 16.96100 40.13900
C  -5.65600 16.84400 39.72800
H  -5.27300 15.58100 38.98900
N  -12.26800 18.97300 42.24400
C  -11.29000 19.94600 41.89500
C  -12.00400 21.12100 41.58300
C  -13.42000 20.88200 41.67900
C  -13.54500 19.48000 42.24100
C  -11.17300 22.34600 41.14000
C  -14.48500 22.00300 41.43000
O  -14.20400 23.12300 41.00300
C  -15.95000 21.80200 41.88700
N  -13.85200 16.45800 43.03000
C  -14.85400 17.40100 42.92900
C  -16.20800 16.79000 43.19600
C  -15.76800 15.36300 43.75300
C  -14.29100 15.26400 43.56100
C  -17.24300 17.50500 44.06800
C  -16.56200 14.23500 42.89600
C  -17.77800 13.73000 43.74000
N  -11.48300 14.96200 43.20100
C  -12.28800 13.89100 43.51600
C  -11.51500 12.67700 43.56600
C  -10.18200 13.06400 43.19600
C  -10.26900 14.43900 42.89600
C  -12.12300 11.36800 43.75800
C  -8.88500 12.54500 42.96200
O  -8.44400 11.41300 42.96000
C  -8.16600 13.77400 42.22900
C  -6.89600 13.92500 42.98300
O  -6.87000 14.26900 44.13100
O  -5.74600 13.60200 42.25600
C  -4.58900 14.19600 42.87300
H  -9.34300 20.69700 41.92300
H  -15.61200 19.29400 42.28400
H  -14.24500 13.18100 43.83800
H  -6.65600 16.64600 42.30000
H  -7.35100 19.12300 41.38900
H  -7.03100 18.01700 44.17300
H  -7.72700 19.63100 44.07300
H  -6.11800 19.23100 43.45600
H  -7.57800 17.76700 39.54200
H  -7.68600 16.07400 39.79500
H  -5.08000 16.68900 40.64100
H  -5.27300 17.72700 39.21600
H  -11.64000 23.32300 41.26500
H  -10.73900 22.12300 40.16600
H  -10.35200 22.39700 41.85600
H  -16.02000 21.45000 42.91700
H  -16.54600 21.21700 41.18700
H  -16.50600 22.71100 42.11700
H  -16.68700 16.66500 42.22500
H  -15.82900 15.25800 44.83700
H  -17.46300 16.80200 44.87100
H  -18.14700 17.76600 43.51600
H  -16.86800 18.49100 44.34000
H  -15.95100 13.40600 42.53900
H  -16.94900 14.57200 41.93400
H  -17.71900 12.68300 44.03600
H  -18.70100 13.79800 43.16500
H  -17.91600 14.30100 44.65800
H  -12.52300 10.95800 42.83100
H  -12.92400 11.32300 44.49600
H  -11.29600 10.72700 44.06500
H  -7.97500 13.43700 41.21000
H  -4.23000 13.46100 43.59400
H  -4.69300 15.16600 43.35900
H  -3.81400 14.31500 42.11500

