158

Mg -0.16600 7.97000 26.31000
C  0.60600 9.90200 29.09800
C  0.11300 5.16400 28.32900
C  -0.35800 6.02400 23.63800
C  0.28000 10.78600 24.29500
N  0.29200 7.59700 28.45400
C  0.44300 8.52600 29.40300
C  0.70200 7.97200 30.76600
C  0.57800 6.41700 30.51100
C  0.29800 6.34800 29.01100
C  1.87200 5.57600 30.91400
C  -0.28300 8.49800 31.86500
C  0.20800 8.55300 33.30400
H  -0.68200 7.94200 34.47200
N  -0.25300 5.82700 26.02500
C  -0.22900 4.87700 26.99100
C  -0.49300 3.60900 26.37500
C  -0.56200 3.82700 24.97700
C  -0.34300 5.25500 24.78700
C  -0.63000 2.36900 27.20500
C  -0.67100 2.84000 23.87200
O  -1.01900 3.11000 22.71700
C  -0.48400 1.38600 24.20500
N  -0.21200 8.36500 24.27300
C  -0.32200 7.35900 23.37400
C  -0.43100 7.94400 21.93600
C  -0.35400 9.48100 22.14100
C  -0.04700 9.59400 23.61700
C  0.57200 7.30600 20.84500
C  -1.61500 10.22200 21.74200
C  -2.82800 10.26200 22.74100
N  0.19700 9.98700 26.58400
C  0.44100 10.95500 25.68900
C  0.79500 12.19400 26.38400
C  0.94700 11.79900 27.71700
C  0.56700 10.52200 27.79800
C  1.02100 13.55900 25.78400
C  1.30000 12.31600 29.06100
O  1.64400 13.45800 29.45100
C  0.95600 11.05900 29.96700
C  2.11200 10.83900 30.83800
O  3.27500 10.71800 30.46000
O  1.74300 11.14000 32.11600
C  2.77500 11.41800 33.15700
H  0.22200 4.37500 29.07600
H  -0.33700 5.48000 22.69200
H  0.12700 11.69200 23.70600
H  1.72500 8.30300 30.94800
H  -0.25100 5.96700 31.05700
H  2.29400 5.94000 31.85000
H  2.60100 5.68700 30.11200
H  1.66800 4.54100 31.19100
H  -1.14000 7.82600 31.80800
H  -0.57300 9.48200 31.49800
H  0.18400 9.62400 33.50900
H  1.25000 8.23900 33.26000
H  -1.40300 1.70100 26.82600
H  -0.75600 2.60700 28.26100
H  0.31900 1.83400 27.16400
H  -0.65300 0.79200 23.30600
H  -1.32500 1.09600 24.83600
H  0.53300 1.12500 24.49800
H  -1.45100 7.73700 21.61200
H  0.52400 9.85700 21.61600
H  1.30700 6.61700 21.26000
H  0.95900 8.00900 20.10700
H  -0.05000 6.67400 20.21000
H  -2.11400 9.94800 20.81200
H  -1.23400 11.20900 21.48100
H  -3.61200 10.57900 22.05300
H  -2.73200 11.18100 23.32000
H  -3.01500 9.36200 23.32700
H  0.80100 13.60700 24.71700
H  2.04600 13.91100 25.90200
H  0.30400 14.22900 26.26000
H  0.14300 11.39000 30.61400
H  3.74700 11.22300 32.70500
H  2.63000 10.62500 33.89100
H  2.63600 12.35900 33.68800
Mg -1.45600 33.85000 26.32600
C  -3.46700 32.21100 28.70300
C  -0.27900 35.77800 28.74500
C  0.21000 35.62800 23.93700
C  -2.87600 31.70800 23.86000
N  -1.88700 33.97400 28.45000
C  -2.73400 33.25500 29.29900
C  -2.52700 33.66100 30.76200
C  -1.63500 34.87000 30.66600
C  -1.25400 34.90600 29.20000
C  -2.27100 36.19600 31.08800
C  -1.92900 32.58500 31.64000
C  -2.80200 32.15700 32.83800
H  -2.28700 32.09900 34.24100
N  -0.20900 35.55100 26.32900
C  0.25300 36.07900 27.45100
C  1.19400 37.22300 27.11600
C  1.22200 37.23900 25.66500
C  0.31900 36.10700 25.20800
C  1.79400 38.08200 28.14100
C  2.03300 38.08400 24.80800
O  1.96900 38.13000 23.57300
C  3.16200 38.94600 25.37800
N  -1.41500 33.77600 24.16700
C  -0.48300 34.48300 23.53700
C  -0.56900 34.13400 22.07600
C  -1.54000 32.92500 22.00700
C  -2.02100 32.78800 23.39900
C  -1.05000 35.33100 21.20500
C  -0.96200 31.67600 21.35100
C  0.03000 30.90900 22.15500
N  -2.72100 32.25700 26.29500
C  -3.24100 31.46900 25.21700
C  -4.24900 30.55100 25.70500
C  -4.27900 30.81200 27.06900
C  -3.37500 31.81900 27.38200
C  -5.04500 29.62900 24.89400
C  -5.05200 30.39000 28.26200
O  -5.94600 29.58400 28.38400
C  -4.43000 31.34600 29.39900
C  -5.50600 32.01300 30.13200
O  -5.87500 33.21100 29.86200
O  -5.74900 31.32400 31.27300
C  -6.63500 31.88400 32.39400
H  0.21000 36.38100 29.51300
H  0.82500 36.11000 23.17400
H  -3.35700 31.10600 23.08700
H  -3.51400 33.92500 31.14200
H  -0.70900 34.85900 31.24000
H  -1.69900 36.73900 31.84000
H  -3.34300 36.18700 31.28700
H  -2.28400 36.85600 30.22100
H  -0.92600 32.78700 32.01500
H  -1.86200 31.72400 30.97500
H  -3.08000 31.11000 32.72200
H  -3.71200 32.75700 32.83800
H  2.79100 37.75100 28.43200
H  1.14600 38.13100 29.01600
H  1.85500 39.11800 27.80500
H  3.80800 38.37500 26.04400
H  2.68800 39.77300 25.90800
H  3.73800 39.32800 24.53500
H  0.43000 33.84800 21.74900
H  -2.44700 33.09900 21.42800
H  -0.30400 36.10100 21.00700
H  -1.72400 35.77700 21.93700
H  -1.61000 34.99900 20.33200
H  -0.32700 31.99300 20.52300
H  -1.83200 31.14500 20.96300
H  -0.62400 30.15400 22.59200
H  0.40700 31.42200 23.03900
H  0.86900 30.52700 21.57300
H  -4.35300 29.20100 24.16900
H  -5.66800 30.23100 24.23200
H  -5.61100 28.97800 25.56000
H  -3.97900 30.62700 30.08200
H  -7.61400 32.21600 32.04700
H  -6.16900 32.82700 32.68100
H  -6.72700 31.23500 33.26500

