158

Mg -1.68700 17.53600 27.26800
C  -2.38800 15.12200 29.84300
C  -2.66100 19.96700 29.47500
C  -1.55900 19.76500 24.71900
C  -1.47800 14.97900 25.01200
N  -2.52800 17.45800 29.40100
C  -2.66300 16.44600 30.26400
C  -2.95600 17.01900 31.65400
C  -3.47600 18.44100 31.38500
C  -2.86700 18.65600 30.00500
C  -5.02500 18.61500 31.48400
C  -1.70400 16.79300 32.61900
C  -1.46900 17.74600 33.81900
H  -1.01500 17.17400 35.08600
N  -2.03400 19.63600 27.08700
C  -2.21400 20.41900 28.18100
C  -2.19900 21.76800 27.60000
C  -1.74200 21.77200 26.30400
C  -1.74900 20.37400 25.96300
C  -2.51800 22.94200 28.55400
C  -1.45000 22.93400 25.34100
O  -1.02000 22.78100 24.16500
C  -1.39900 24.44400 25.78900
N  -1.83200 17.48700 25.08800
C  -1.69400 18.52300 24.24100
C  -1.59700 17.93700 22.80400
C  -1.41900 16.43700 23.01800
C  -1.56100 16.27200 24.46700
C  -2.67400 18.57700 21.90500
C  -0.06300 15.90700 22.44500
C  -0.18400 14.64500 21.62800
N  -1.76700 15.51700 27.33800
C  -1.71100 14.63000 26.32200
C  -1.76300 13.26100 26.85200
C  -2.01700 13.43000 28.21900
C  -2.03600 14.83700 28.42600
C  -1.65000 12.01000 26.04100
C  -2.25700 12.73900 29.46200
O  -2.15700 11.52500 29.72200
C  -2.34300 13.80800 30.52500
C  -1.12800 13.78500 31.40500
O  -0.01300 14.23500 31.12200
O  -1.53400 13.33900 32.69800
C  -0.45100 13.34100 33.68200
H  -2.99600 20.68800 30.22400
H  -1.36100 20.46900 23.90800
H  -1.32100 14.19300 24.27000
H  -3.63700 16.24400 32.00600
H  -3.00300 19.21800 31.98500
H  -5.50500 18.53500 30.50900
H  -5.12400 19.65600 31.79100
H  -5.51700 17.97200 32.21300
H  -0.80800 16.74200 32.00100
H  -1.77300 15.79700 33.05600
H  -2.44700 18.22300 33.89400
H  -0.67200 18.43800 33.54900
H  -2.77800 22.72200 29.59000
H  -3.40900 23.46200 28.20200
H  -1.69400 23.65600 28.56200
H  -1.46700 24.50500 26.87500
H  -2.29000 24.92100 25.38000
H  -0.42800 24.82300 25.47200
H  -0.66200 18.40500 22.49700
H  -2.29800 15.89700 22.66600
H  -3.67600 18.31000 22.24200
H  -2.51300 18.09900 20.93900
H  -2.53100 19.65700 21.94200
H  0.67700 15.73700 23.22700
H  0.26800 16.68000 21.75100
H  -1.01600 13.97900 21.85800
H  0.64900 13.96900 21.82200
H  -0.11500 14.90900 20.57300
H  -0.76300 12.06000 25.41000
H  -2.50700 11.93100 25.37300
H  -1.55200 11.14100 26.69200
H  -3.27600 13.63300 31.06200
H  -0.10800 12.30600 33.71100
H  -0.86400 13.60900 34.65500
H  0.28300 14.12800 33.51100
Mg 8.94800 3.63100 27.16900
C  9.98700 2.29600 30.35400
C  6.69300 5.54200 28.88700
C  8.44400 5.12800 24.35700
C  10.93500 1.30900 25.59400
N  8.34000 3.81300 29.39300
C  8.97000 3.25900 30.46100
C  8.41100 3.69600 31.70900
C  7.17900 4.58200 31.24000
C  7.41800 4.64600 29.74300
C  5.82000 4.00100 31.66500
C  9.47500 4.43900 32.55600
C  9.54400 3.79100 34.02100
H  10.77000 4.11400 34.95200
N  7.70800 5.05600 26.64900
C  6.76800 5.69300 27.45400
C  6.09700 6.71400 26.71300
C  6.77600 6.72900 25.41000
C  7.77700 5.63300 25.43500
C  4.86400 7.47500 27.29900
C  6.55400 7.66600 24.23300
O  7.09500 7.53800 23.18100
C  5.70000 8.83300 24.42500
N  9.57200 3.31500 25.26100
C  9.15100 3.97900 24.27900
C  9.61500 3.48100 22.88400
C  10.47900 2.25400 23.25700
C  10.39900 2.34500 24.74600
C  8.40100 3.22200 21.93900
C  11.88100 2.30600 22.61000
C  12.17300 1.01800 21.76300
N  10.18000 2.11800 27.80100
C  10.96300 1.24600 27.01400
C  11.69100 0.33700 27.84700
C  11.45300 0.80400 29.16000
C  10.44200 1.82600 29.07800
C  12.66000 -0.54700 27.38300
C  11.80800 0.60800 30.57500
O  12.50800 -0.21600 31.12700
C  10.89300 1.58900 31.37100
C  10.17900 0.74600 32.36500
O  9.08600 0.21800 32.19400
O  10.96600 0.71300 33.55600
C  10.32500 0.04800 34.70000
H  5.96900 6.16200 29.42000
H  8.32200 5.61600 23.38800
H  11.39400 0.52200 24.99200
H  8.07600 2.76600 32.16800
H  7.29200 5.57100 31.68400
H  5.20000 4.88600 31.81200
H  5.88300 3.29300 32.49100
H  5.26700 3.42200 30.92500
H  9.04200 5.43600 32.64200
H  10.46100 4.48000 32.09300
H  9.47100 2.70400 33.99900
H  8.58400 4.09500 34.43800
H  4.48200 6.94500 28.17200
H  4.16900 7.74700 26.50400
H  5.25000 8.41300 27.69800
H  4.69700 8.54000 24.11600
H  6.06100 9.67700 23.83800
H  5.75600 8.96700 25.50500
H  10.19200 4.24600 22.36600
H  9.99100 1.31300 23.00200
H  7.44500 3.55800 22.34000
H  8.44400 2.18700 21.60000
H  8.47400 3.87900 21.07200
H  12.59700 2.18300 23.42200
H  12.15100 3.15200 21.97900
H  13.17300 1.26500 21.40700
H  11.47900 0.86100 20.93700
H  12.09400 0.10000 22.34700
H  12.11500 -1.43100 27.05100
H  13.45300 -0.78300 28.09200
H  13.12700 -0.11200 26.50000
H  11.55600 2.29100 31.87600
H  9.97300 0.69200 35.50600
H  11.02900 -0.66700 35.12500
H  9.47600 -0.58800 34.44800

