158

Mg 24.01000 -5.82300 45.63100
C  26.19400 -3.43700 44.30800
C  21.47800 -4.32400 43.80700
C  22.03700 -8.45400 46.39600
C  26.88900 -7.62000 46.83500
N  23.94700 -4.28200 44.07200
C  24.96700 -3.43900 43.70000
C  24.51300 -2.40800 42.71900
C  22.93200 -2.49200 42.81800
C  22.77400 -3.80000 43.54400
C  22.12700 -1.30000 43.58800
C  25.17900 -2.70400 41.29100
C  25.76300 -1.45400 40.59500
H  25.78000 -1.49100 39.00500
N  22.00400 -6.31800 45.28300
C  21.15100 -5.45600 44.58400
C  19.82300 -6.15500 44.64600
C  19.95400 -7.41200 45.29300
C  21.34200 -7.45300 45.73700
C  18.57200 -5.57100 43.97500
C  18.77200 -8.30300 45.64300
O  17.59700 -8.06500 45.37400
C  19.00400 -9.54500 46.43300
N  24.40600 -7.72800 46.57700
C  23.34700 -8.55200 46.87500
C  23.85000 -9.84300 47.47500
C  25.40000 -9.57600 47.68500
C  25.57400 -8.23000 47.02000
C  22.99500 -10.29500 48.73000
C  26.35700 -10.65100 47.05700
C  25.98000 -12.17800 47.23300
N  26.05200 -5.52300 45.83500
C  27.06900 -6.31500 46.29300
C  28.30100 -5.62900 46.05700
C  28.00600 -4.44800 45.30400
C  26.64200 -4.43700 45.15800
C  29.64600 -6.08700 46.57500
C  28.54700 -3.30000 44.58800
O  29.72700 -3.06100 44.43600
C  27.39200 -2.54600 43.96000
C  27.27900 -1.16900 44.50900
O  26.39400 -0.75900 45.26200
O  28.22500 -0.38600 43.95600
C  28.19300 1.06600 44.23300
H  20.68100 -3.81000 43.26500
H  21.49400 -9.38400 46.57500
H  27.64300 -8.31000 47.21900
H  24.76500 -1.39400 43.02700
H  22.53000 -2.60800 41.81200
H  21.91300 -1.49400 44.63900
H  21.21000 -1.31600 42.99900
H  22.63500 -0.34200 43.47900
H  24.50700 -3.16200 40.56500
H  26.00100 -3.41300 41.39400
H  26.83100 -1.51900 40.80100
H  25.30700 -0.52100 40.92600
H  18.33600 -6.20200 43.11800
H  18.80700 -4.56900 43.61600
H  17.66700 -5.47000 44.57400
H  18.12000 -10.18100 46.38000
H  19.26900 -9.14200 47.41100
H  19.72600 -10.23200 45.99300
H  23.73600 -10.54200 46.64700
H  25.72000 -9.45800 48.72100
H  22.05200 -9.75900 48.84200
H  23.51100 -10.05400 49.65900
H  22.85300 -11.37500 48.74900
H  27.38400 -10.50200 47.38800
H  26.48300 -10.46700 45.99100
H  25.89600 -12.62200 46.24100
H  25.02200 -12.29200 47.74000
H  26.67000 -12.67400 47.91500
H  29.90100 -6.93400 45.93900
H  29.63900 -6.46100 47.59800
H  30.33100 -5.24100 46.51700
H  27.58800 -2.58200 42.88800
H  28.50200 1.30500 45.25100
H  27.16700 1.43300 44.20200
H  28.73900 1.72900 43.56200
Mg 25.78100 1.69000 29.73700
C  27.88300 1.19400 32.59600
C  23.16700 2.29900 31.79700
C  23.68400 1.29900 27.12900
C  28.43400 0.57700 27.72900
N  25.60200 1.68000 31.93500
C  26.56600 1.50200 32.91700
C  26.07300 2.09500 34.24200
C  24.51900 2.33700 33.96400
C  24.41300 2.04000 32.47000
C  23.51500 1.47400 34.75200
C  26.86800 3.26700 34.81300
C  27.67900 3.01400 36.05300
H  27.18700 3.75300 37.38800
N  23.73500 1.88100 29.47300
C  22.86100 2.08900 30.45300
C  21.59300 2.29300 29.91400
C  21.62600 1.94900 28.53200
C  23.04800 1.67600 28.33300
C  20.38900 2.60100 30.72800
C  20.54800 1.81300 27.57200
O  20.72700 1.36000 26.50100
C  19.11500 2.14800 27.95000
N  26.05300 1.06500 27.72400
C  25.06000 1.03700 26.79700
C  25.61900 0.83600 25.34900
C  27.08800 0.52400 25.52800
C  27.18000 0.77600 27.06100
C  24.83500 -0.15900 24.47600
C  28.05000 1.42600 24.67400
C  28.85700 0.68100 23.58400
N  27.74600 1.02600 30.10000
C  28.67700 0.57700 29.13000
C  29.93500 0.24900 29.80500
C  29.66600 0.52000 31.15000
C  28.32300 0.91000 31.30900
C  31.24800 -0.15200 29.10400
C  30.24700 0.51800 32.46100
O  31.42100 0.31400 32.78500
C  29.15200 1.00600 33.47300
C  29.00900 -0.01200 34.53800
O  28.40000 -1.05000 34.39500
O  29.71700 0.29700 35.65500
C  29.44800 -0.56500 36.80800
H  22.34500 2.56500 32.46500
H  23.05000 1.17100 26.24900
H  29.26100 0.30000 27.07200
H  26.16200 1.23200 34.90200
H  24.33400 3.38900 34.17900
H  24.11600 0.68500 35.20400
H  22.77500 0.95800 34.14000
H  23.16700 2.12300 35.55500
H  26.18600 4.09400 35.00600
H  27.61500 3.52400 34.06200
H  28.71500 3.32700 35.92300
H  27.64000 1.93600 36.20800
H  19.90400 3.40300 30.17200
H  20.59200 3.05000 31.70000
H  19.74400 1.72500 30.79000
H  18.67100 1.53600 28.73500
H  18.52300 2.02000 27.04400
H  18.90600 3.16100 28.29500
H  25.53700 1.86000 24.98500
H  27.29300 -0.53200 25.35000
H  23.88800 -0.40100 24.95900
H  25.40800 -1.07100 24.31100
H  24.57800 0.28600 23.51500
H  28.81700 1.71700 25.39200
H  27.51400 2.29800 24.30000
H  28.23600 0.69900 22.68800
H  29.30600 -0.28200 23.82900
H  29.69800 1.34600 23.38800
H  31.60000 0.67700 28.49000
H  31.13000 -1.05200 28.50100
H  31.98200 -0.38200 29.87600
H  29.43600 1.90400 34.02100
H  30.38300 -0.58400 37.36900
H  29.39800 -1.61700 36.52700
H  28.61300 -0.25400 37.43600

