158

Mg 54.49400 24.18600 45.43600
C  51.71200 26.26500 44.92100
C  52.70900 21.46600 44.25700
C  57.25700 22.43700 45.56500
C  56.28100 27.12900 46.31500
N  52.44200 23.99900 44.59800
C  51.53100 24.96000 44.37800
C  50.25400 24.36200 43.73800
C  50.49700 22.81500 44.01700
C  51.98600 22.75800 44.21700
C  49.94700 22.23600 45.30000
C  50.25700 24.76000 42.19200
C  48.94400 25.13800 41.44000
H  48.44900 24.18000 40.27400
N  54.85000 22.16900 45.02700
C  54.03000 21.22200 44.52000
C  54.78000 19.96100 44.41600
C  56.09000 20.19600 44.93000
C  56.07500 21.64000 45.24000
C  54.04300 18.64100 44.01000
C  57.18400 19.12300 45.13900
O  56.89800 18.00200 44.74400
C  58.51900 19.48900 45.61600
N  56.55200 24.73900 45.79900
C  57.47300 23.73300 45.87500
C  58.82800 24.35300 46.31700
C  58.52900 25.89400 46.31900
C  57.01300 25.87600 46.24400
C  59.33000 23.62700 47.61600
C  59.06200 26.86000 45.08100
C  60.54100 26.63700 44.70800
N  54.17100 26.28300 45.60400
C  54.97400 27.34900 46.03000
C  54.20600 28.50300 46.10900
C  52.94800 28.16000 45.67000
C  52.91700 26.77100 45.40700
C  54.67400 29.79500 46.50100
C  51.62100 28.75400 45.40300
O  51.15800 29.84100 45.61800
C  50.79700 27.51900 44.82300
C  50.35900 27.89700 43.44200
O  51.20500 28.26000 42.60800
O  48.98700 27.81400 43.27400
C  48.49800 28.30200 41.99600
H  52.00500 20.67600 43.98900
H  58.22300 21.94300 45.68400
H  56.80300 28.03200 46.64000
H  49.38200 24.68400 44.30600
H  50.25100 22.18100 43.16600
H  49.08100 22.78400 45.67200
H  50.65300 22.11100 46.12100
H  49.61100 21.22300 45.07600
H  50.66800 23.88700 41.68500
H  50.90800 25.61800 42.02100
H  49.09000 26.05000 40.86100
H  48.18700 25.29400 42.20800
H  53.56700 18.82700 43.04700
H  53.28600 18.15300 44.62500
H  54.74100 17.83100 43.79700
H  59.13000 20.07300 44.92800
H  59.05700 18.58900 45.91700
H  58.34000 20.00000 46.56200
H  59.55100 24.21000 45.51300
H  58.63500 26.34800 47.30500
H  59.74900 24.37400 48.29000
H  60.08200 22.85300 47.46500
H  58.51700 23.21800 48.21600
H  58.77100 27.87300 45.36100
H  58.54900 26.74000 44.12700
H  60.54900 26.14600 43.73500
H  61.00300 26.04700 45.50000
H  61.15000 27.51700 44.49800
H  54.19400 30.01300 47.45500
H  54.36600 30.35500 45.61800
H  55.73600 30.03000 46.55700
H  49.95300 27.27100 45.46600
H  49.09800 28.01900 41.13100
H  48.63400 29.38400 41.99900
H  47.46000 28.14900 41.69900
Mg 6.54100 54.65100 39.84600
C  6.24600 51.13400 39.77000
C  9.86300 54.24100 39.02100
C  6.75600 57.94800 39.31500
C  3.08400 54.80400 40.31800
N  7.83700 52.88200 39.25400
C  7.54600 51.59400 39.43900
C  8.75900 50.77700 39.22900
C  9.89400 51.75800 39.51200
C  9.18700 53.03300 39.25200
C  10.58400 51.65600 40.86900
C  8.76500 50.03900 37.81500
C  8.52700 50.99000 36.64600
H  7.19500 50.94200 35.96200
N  8.11300 55.90600 39.18200
C  9.42000 55.58300 38.96200
C  10.25100 56.74800 38.78600
C  9.35700 57.85000 38.87700
C  7.97600 57.28300 39.10400
C  11.72900 56.79400 38.43700
C  9.75100 59.31900 38.53500
O  10.87200 59.66300 38.38500
C  8.63900 60.44600 38.58100
N  5.08300 56.21200 39.67200
C  5.42700 57.51800 39.57200
C  4.20300 58.43600 39.55700
C  3.08600 57.44700 40.10100
C  3.75800 56.06000 40.03900
C  4.45100 59.67900 40.46400
C  1.83600 57.53700 39.27500
C  0.49800 57.71300 39.94900
N  4.94900 53.29400 39.97700
C  3.61000 53.46900 40.22600
C  2.93800 52.17200 40.56200
C  3.95200 51.24800 40.37500
C  5.11800 51.97000 40.02500
C  1.48300 52.00700 40.98700
C  4.28200 49.80600 40.41700
O  3.60600 48.85200 40.77100
C  5.80000 49.63300 39.98600
C  5.62900 48.94600 38.63100
O  4.95000 49.29800 37.66700
O  6.32600 47.77000 38.68200
C  6.17200 46.77700 37.59900
H  10.94800 54.12700 39.07700
H  6.72200 59.03700 39.24300
H  2.01400 54.87600 40.52700
H  8.77300 50.05300 40.04400
H  10.65900 51.58600 38.75600
H  10.60300 52.64300 41.33100
H  11.60700 51.29800 40.74900
H  10.11500 50.91300 41.51400
H  7.91500 49.37300 37.66400
H  9.68100 49.47100 37.65200
H  9.17900 50.60700 35.86100
H  8.81200 52.00200 36.93300
H  11.62900 57.07800 37.39000
H  12.13200 55.78400 38.36100
H  12.41000 57.49300 38.92300
H  9.11100 61.40500 38.36600
H  8.19600 60.44600 39.57700
H  7.96200 60.19400 37.76400
H  3.98400 58.74200 38.53500
H  2.88200 57.68500 41.14500
H  4.10700 60.52000 39.86400
H  5.47200 59.83100 40.81500
H  3.89500 59.61000 41.39900
H  1.80300 56.68500 38.59600
H  1.95400 58.44500 38.68400
H  0.58400 57.44500 41.00200
H  -0.20100 57.05700 39.43100
H  0.14500 58.73100 39.78400
H  0.91500 52.54200 40.22500
H  1.30500 52.38300 41.99400
H  1.29900 50.93300 40.97800
H  6.33300 48.96500 40.66200
H  7.10500 46.21900 37.51300
H  5.84400 47.26200 36.68000
H  5.42800 46.08300 37.98900

