158

Mg 8.76700 4.18000 27.42200
C  10.29400 2.62300 30.21600
C  6.81700 6.09300 29.74800
C  7.42600 5.85600 24.85600
C  10.26000 1.87200 25.41400
N  8.59100 4.34600 29.77500
C  9.31800 3.56800 30.65400
C  9.00900 4.01200 32.04600
C  7.69800 4.94800 31.89300
C  7.63800 5.13900 30.36100
C  6.39200 4.42500 32.49600
C  10.21500 4.84200 32.64800
C  9.95300 5.26600 34.08100
H  10.91600 4.68300 35.07700
N  7.46800 5.88500 27.31900
C  6.81300 6.53600 28.37900
C  6.03100 7.72000 27.77100
C  6.15500 7.59700 26.34200
C  7.07100 6.43800 26.08900
C  5.21300 8.56100 28.60100
C  5.63600 8.50800 25.22000
O  6.00200 8.29100 24.09200
C  4.44700 9.42300 25.53100
N  8.94800 3.99200 25.50600
C  8.25600 4.74600 24.57200
C  8.41400 4.20900 23.14500
C  9.45700 3.00600 23.41000
C  9.50800 2.87800 24.90300
C  7.01700 3.88300 22.35400
C  10.85500 3.13200 22.80300
C  11.96400 3.96000 23.51400
N  9.86200 2.45700 27.67100
C  10.51100 1.68800 26.73600
C  11.43800 0.78100 27.41600
C  11.36400 1.08300 28.80200
C  10.43500 2.12700 28.93000
C  12.38600 -0.18600 26.69500
C  11.89600 0.77900 30.10800
O  12.75600 -0.02000 30.47900
C  11.28100 1.86300 31.03000
C  10.66900 1.08100 32.16800
O  10.11700 0.03100 32.10100
O  10.84000 1.75100 33.41400
C  10.46800 1.09600 34.69300
H  6.16100 6.61700 30.44600
H  6.93700 6.12800 23.91900
H  10.56200 1.08400 24.72000
H  8.78300 3.15200 32.67700
H  7.87800 5.85700 32.46700
H  5.63200 5.14500 32.80200
H  6.68200 3.82700 33.36000
H  5.92200 3.76800 31.76500
H  10.26000 5.71100 31.99200
H  11.20100 4.41300 32.47000
H  8.92100 5.13900 34.40800
H  10.05800 6.33900 34.24100
H  4.16700 8.26700 28.51500
H  5.40200 9.55000 28.18300
H  5.44400 8.56900 29.66600
H  3.65800 8.84100 26.00600
H  4.08000 9.83600 24.59100
H  4.59000 10.20000 26.28200
H  8.98600 4.97200 22.61600
H  9.03500 2.03000 23.16600
H  6.10900 3.74400 22.94200
H  7.13400 2.91400 21.86800
H  6.92400 4.62400 21.56000
H  10.69500 3.60300 21.83200
H  11.23000 2.11900 22.65900
H  11.64400 4.56800 24.36000
H  12.40000 4.73400 22.88300
H  12.80200 3.30200 23.74600
H  11.82700 -1.07000 26.38900
H  13.04600 -0.56400 27.47600
H  12.87200 0.27700 25.83700
H  11.98700 2.61100 31.39300
H  11.11400 1.57400 35.43000
H  10.68500 0.03000 34.62700
H  9.41000 1.27500 34.88700
Mg 26.24800 1.81900 29.17000
C  27.96300 1.43600 32.10500
C  23.26900 1.76000 31.09500
C  24.39300 1.73200 26.32100
C  29.17400 1.26800 27.36300
N  25.75200 1.65300 31.34600
C  26.60800 1.57700 32.37500
C  25.95300 1.55200 33.73100
C  24.42500 1.37200 33.38100
C  24.44900 1.60900 31.83700
C  23.85500 -0.02700 33.85900
C  26.30300 2.81700 34.61300
C  26.88100 2.48900 35.96600
H  26.85600 3.54900 37.10000
N  24.14500 1.88700 28.71700
C  23.11000 1.86800 29.66200
C  21.82500 1.88500 28.92600
C  22.14300 1.96700 27.54700
C  23.59000 1.87600 27.46900
C  20.50000 1.94900 29.63600
C  21.22100 2.09200 26.38400
O  21.61300 2.10900 25.21900
C  19.66600 2.22200 26.60300
N  26.68400 1.36300 27.10900
C  25.75600 1.55100 26.12800
C  26.38500 1.58300 24.71600
C  27.90200 1.67500 25.10800
C  27.94200 1.47700 26.63400
C  26.06100 0.33400 23.84800
C  28.57500 3.02000 24.57700
C  28.21000 4.37300 25.14400
N  28.15500 1.39600 29.55600
C  29.30300 1.24000 28.74100
C  30.47900 1.14700 29.57700
C  30.02800 1.20400 30.92200
C  28.58100 1.36200 30.83300
C  31.88300 0.90800 29.20300
C  30.44500 1.20300 32.22600
O  31.58900 1.03400 32.61900
C  29.20500 1.41600 33.08800
C  29.03500 0.20600 34.09500
O  28.39300 -0.85400 34.04200
O  29.81100 0.56800 35.19800
C  29.68600 -0.31700 36.41000
H  22.33000 1.78200 31.65300
H  23.82300 1.74300 25.39000
H  30.03100 1.20100 26.69000
H  26.34400 0.63000 34.16200
H  23.85600 2.08700 33.97600
H  24.51100 -0.48900 34.59600
H  23.85400 -0.64700 32.96200
H  22.87400 0.06300 34.32400
H  25.43000 3.45500 34.75300
H  26.99500 3.45600 34.06300
H  27.91800 2.15200 35.96000
H  26.22900 1.72800 36.39500
H  20.47600 2.04800 30.72100
H  19.98200 1.08000 29.22900
H  20.02600 2.85100 29.24900
H  19.27200 1.43600 27.24800
H  19.08200 2.13900 25.68600
H  19.63900 3.23200 27.01200
H  26.13000 2.46300 24.12500
H  28.51200 0.83400 24.77700
H  26.92200 -0.23600 23.50000
H  25.69200 0.74400 22.90800
H  25.28800 -0.22300 24.37900
H  28.41200 3.13300 23.50500
H  29.65800 2.90200 24.55100
H  27.98300 5.01000 24.29000
H  29.01200 4.79200 25.75200
H  27.37900 4.35500 25.84900
H  32.03700 -0.10300 29.57900
H  32.43500 1.67500 29.74700
H  32.07500 0.95400 28.13100
H  29.34500 2.23000 33.79900
H  28.69600 -0.40000 36.85800
H  30.41400 0.11500 37.09800
H  30.01800 -1.30800 36.10200

