158

Mg 2.17000 7.58400 26.34500
C  2.38000 9.80400 29.03800
C  2.31800 4.96000 28.50300
C  2.20400 5.54800 23.59600
C  2.48800 10.37300 24.19300
N  2.46100 7.40200 28.54100
C  2.37500 8.44600 29.43700
C  2.04800 7.89700 30.83600
C  2.44000 6.37100 30.64600
C  2.33600 6.19700 29.16300
C  3.79600 5.87200 31.11300
C  0.60600 8.14200 31.42500
C  0.50100 8.41100 32.95700
H  1.69200 7.89600 33.81900
N  2.23600 5.52700 26.11500
C  2.23500 4.57300 27.12600
C  2.15000 3.27700 26.57300
C  2.09100 3.43300 25.15800
C  2.24800 4.86400 24.88600
C  1.93800 2.01700 27.48900
C  2.04900 2.37100 24.11700
O  2.08900 2.59400 22.92400
C  1.99200 0.86900 24.62500
N  2.29100 7.91800 24.25800
C  2.30900 6.92500 23.31200
C  2.37400 7.41600 21.87000
C  2.46500 8.97700 22.04300
C  2.32700 9.11000 23.61500
C  3.42800 6.71800 21.07100
C  1.28200 9.73500 21.36300
C  1.61600 10.64200 20.23800
N  2.36000 9.66400 26.51700
C  2.52000 10.60200 25.57000
C  2.55600 11.94400 26.15800
C  2.51900 11.69100 27.56900
C  2.46300 10.27900 27.70500
C  2.36400 13.29600 25.52500
C  2.35200 12.25800 28.94400
O  2.30100 13.42800 29.29500
C  2.27000 11.06600 29.88600
C  3.39000 11.02500 30.90900
O  4.58300 11.00600 30.70800
O  2.81200 11.11600 32.14100
C  3.76800 11.22100 33.23500
H  2.39700 4.18400 29.26700
H  2.15900 4.93800 22.69200
H  2.44500 11.24300 23.53300
H  2.80100 8.27100 31.53100
H  1.68000 5.71900 31.07600
H  4.41400 5.59500 30.25900
H  3.53800 5.04300 31.77200
H  4.32900 6.56800 31.75900
H  -0.08900 7.32000 31.25400
H  0.23900 9.10900 31.08100
H  -0.38200 7.88200 33.31600
H  0.47400 9.48700 33.13200
H  2.89200 1.49000 27.44900
H  0.99700 1.58500 27.14800
H  1.78400 2.34600 28.51600
H  2.96900 0.66400 25.06300
H  1.79800 0.22900 23.76500
H  1.08000 0.74800 25.20900
H  1.39800 7.14600 21.46500
H  3.43000 9.37300 21.72600
H  4.10400 6.32900 21.83300
H  3.93200 7.40800 20.39500
H  3.03500 5.97900 20.37300
H  0.74500 10.37200 22.06600
H  0.58600 9.04400 20.88700
H  1.04100 10.44800 19.33200
H  2.68100 10.52300 20.04000
H  1.27100 11.65200 20.45800
H  1.60600 13.95000 25.95700
H  2.18500 13.11200 24.46500
H  3.25200 13.92700 25.56700
H  1.36900 11.09000 30.49900
H  3.98400 12.28900 33.24300
H  4.69100 10.67800 33.03000
H  3.40900 11.04300 34.24900
Mg 6.90700 57.45000 41.70200
C  5.52000 54.26000 41.65100
C  9.79300 56.14100 40.53800
C  7.97100 60.56100 41.22200
C  3.64900 58.63400 42.36400
N  7.54700 55.51200 41.08400
C  6.79600 54.39200 41.08600
C  7.71800 53.19000 40.59300
C  9.12300 53.79100 40.81500
C  8.84500 55.28000 40.79800
C  9.88600 53.27300 42.11600
C  7.45500 52.90200 39.10000
C  7.64000 51.40200 38.79500
H  6.65000 50.67300 37.83200
N  8.71100 58.20900 40.95600
C  9.76000 57.53200 40.50900
C  10.87400 58.40800 40.25100
C  10.37900 59.76400 40.36200
C  8.96500 59.58000 40.94500
C  12.26000 57.90200 39.86200
C  11.18600 61.03700 40.17200
O  12.38300 60.98600 39.95700
C  10.58100 62.39000 40.49000
N  5.84700 59.31600 41.47200
C  6.63500 60.41100 41.50800
C  5.71000 61.69500 41.74800
C  4.28900 61.10500 41.94700
C  4.56300 59.59500 41.92000
C  6.21400 62.75600 42.77300
C  3.09800 61.45900 40.96900
C  1.90800 62.27600 41.55200
N  4.96700 56.64100 42.09800
C  3.75600 57.20700 42.45600
C  2.74900 56.24600 42.79000
C  3.44300 55.00300 42.55400
C  4.76000 55.37400 42.09200
C  1.32900 56.47200 43.18500
C  3.37900 53.54700 42.63400
O  2.43900 52.85600 43.07100
C  4.72800 53.02300 42.07100
C  4.48400 51.98900 41.08400
O  3.87500 52.16000 40.03700
O  4.77400 50.75700 41.66800
C  4.37200 49.58100 40.86800
H  10.73500 55.77900 40.12300
H  8.29800 61.59800 41.32200
H  2.71300 59.16800 42.54100
H  7.49800 52.30600 41.19200
H  9.73000 53.44400 39.97800
H  10.68300 52.69700 41.64600
H  9.35200 52.56500 42.74900
H  10.15400 54.10000 42.77300
H  8.18100 53.46800 38.51600
H  6.46300 53.27100 38.84100
H  7.65800 50.77500 39.68600
H  8.61800 51.22700 38.34800
H  12.26800 57.85800 38.77300
H  12.50500 56.87500 40.13000
H  13.01600 58.58200 40.25400
H  10.17100 62.69100 41.45500
H  9.76000 62.52300 39.78500
H  11.24500 63.18500 40.15100
H  5.70800 62.17500 40.76900
H  4.02000 61.28300 42.98800
H  5.53100 62.94000 43.60300
H  6.31400 63.75100 42.34100
H  7.12700 62.50200 43.31200
H  2.60300 60.69000 40.37600
H  3.50600 62.13400 40.21700
H  2.02000 62.21000 42.63500
H  0.92400 61.83800 41.39000
H  1.83600 63.32900 41.27800
H  1.07800 57.43600 42.74300
H  1.10200 56.57100 44.24600
H  0.56700 55.76900 42.84700
H  5.28600 52.60200 42.90700
H  3.87800 48.94800 41.60600
H  5.09300 48.97100 40.32300
H  3.67700 49.86500 40.07800

