158

Mg 25.99400 0.68300 29.85700
C  28.12500 0.37900 32.59700
C  23.33100 0.94800 32.01700
C  23.97000 0.34500 27.20300
C  28.76800 0.27300 27.79500
N  25.77700 0.42300 32.12200
C  26.81200 0.60200 32.97700
C  26.27800 0.86300 34.42800
C  24.74800 0.93600 34.16900
C  24.59100 0.83700 32.68800
C  23.90900 -0.11500 34.94300
C  26.86900 2.17700 35.08400
C  27.48100 1.96200 36.50100
H  26.94200 2.82600 37.63200
N  23.94800 0.68200 29.67200
C  22.99400 0.89600 30.67100
C  21.67300 0.90900 30.19700
C  21.83600 0.63200 28.75400
C  23.28800 0.52900 28.45900
C  20.43900 1.19600 30.92000
C  20.80900 0.48200 27.68600
O  21.11400 0.23200 26.56500
C  19.37700 0.76600 28.00300
N  26.37400 0.44700 27.83900
C  25.35100 0.33300 26.93900
C  25.84800 0.32100 25.48000
C  27.39700 0.27000 25.65300
C  27.54900 0.36800 27.16800
C  25.36200 -0.71100 24.48800
C  28.16200 1.37000 24.85200
C  29.29400 0.90400 23.96300
N  28.03500 0.24000 30.06700
C  29.05900 0.24600 29.11200
C  30.27800 -0.08700 29.73700
C  29.99800 0.04600 31.09200
C  28.61000 0.15900 31.29600
C  31.60500 -0.47500 29.05400
C  30.60700 0.08000 32.46200
O  31.74900 -0.13000 32.84600
C  29.35500 0.37300 33.49900
C  29.38100 -0.70000 34.57300
O  29.03600 -1.85100 34.36300
O  29.72400 -0.11800 35.77300
C  29.69200 -1.04700 36.91000
H  22.49100 1.14000 32.68800
H  23.34100 0.21500 26.32000
H  29.63000 0.00500 27.18100
H  26.57600 0.08100 35.12600
H  24.32000 1.83600 34.61200
H  24.43100 -1.01800 35.25900
H  23.05600 -0.45800 34.35600
H  23.56000 0.24700 35.91000
H  26.08000 2.91900 35.20500
H  27.66100 2.52200 34.42000
H  28.49700 2.34700 36.40400
H  27.43900 0.89400 36.71600
H  19.87200 2.07400 30.61200
H  20.66800 1.29700 31.98100
H  19.79100 0.32400 30.83400
H  18.98700 -0.03400 28.63300
H  18.78600 0.80100 27.08800
H  19.21000 1.68900 28.55800
H  25.47700 1.28300 25.12700
H  27.77300 -0.71000 25.35900
H  24.68700 -1.48100 24.86000
H  26.20900 -1.22300 24.03000
H  24.79700 -0.23100 23.68900
H  28.57100 2.09800 25.55300
H  27.57600 1.91900 24.11600
H  29.43200 -0.17700 23.91600
H  30.21300 1.41700 24.24700
H  29.23200 1.13400 22.89900
H  31.67200 -0.14000 28.01900
H  31.52100 -1.54800 28.88100
H  32.50000 -0.31800 29.65600
H  29.48000 1.27600 34.09600
H  29.72600 -2.12300 36.73800
H  28.82000 -0.79300 37.51200
H  30.60900 -0.96300 37.49200
Mg 52.97300 23.97700 44.52800
C  50.30600 26.15500 43.70000
C  51.19100 21.40800 43.15000
C  55.74100 22.15100 44.52700
C  54.61100 26.71700 45.83900
N  51.10300 23.93100 43.25000
C  50.22200 24.90800 43.08800
C  48.99500 24.29100 42.34500
C  49.04500 22.83700 42.81200
C  50.55600 22.67200 43.06300
C  48.16900 22.43900 43.99300
C  48.93800 24.64700 40.82300
C  50.28400 25.06600 40.21100
H  50.25600 25.81800 38.84400
N  53.36200 21.94800 43.89600
C  52.50300 21.04600 43.44700
C  53.11900 19.72000 43.40800
C  54.48600 19.92000 43.83200
C  54.59500 21.39200 44.07100
C  52.35200 18.46200 43.08300
C  55.54400 18.86600 44.03600
O  55.27400 17.67900 43.83600
C  56.91800 19.14700 44.53100
N  55.00200 24.50600 44.77600
C  55.91000 23.49800 44.89400
C  57.22900 24.09000 45.55800
C  56.95000 25.61400 45.74000
C  55.42600 25.64900 45.35700
C  57.58500 23.47400 46.95000
C  57.75000 26.57000 44.87000
C  58.80300 27.39400 45.69400
N  52.49900 25.97300 44.95100
C  53.24700 26.92100 45.57100
C  52.46300 28.15000 45.69500
C  51.25200 27.86100 44.97800
C  51.33200 26.53500 44.57500
C  52.80700 29.49100 46.24800
C  50.02700 28.45800 44.47800
O  49.63000 29.61600 44.59300
C  49.36100 27.31800 43.72500
C  48.96500 27.74400 42.36000
O  49.72000 28.29100 41.58700
O  47.61400 27.39700 42.17800
C  46.99700 27.77500 40.93400
H  50.55600 20.56800 42.85900
H  56.64300 21.54200 44.61700
H  55.01500 27.62900 46.28400
H  48.07300 24.71000 42.74700
H  48.68600 22.19900 42.00400
H  47.38500 23.19500 43.96800
H  48.68700 22.29700 44.94100
H  47.62800 21.53300 43.71800
H  48.16800 25.39300 40.62900
H  48.77900 23.75500 40.21600
H  50.84400 24.13100 40.19600
H  50.60500 25.82800 40.92100
H  52.96800 18.14300 42.24300
H  51.32500 18.77700 42.89700
H  52.27800 17.72000 43.87900
H  56.75000 19.60300 45.50700
H  57.45000 19.63100 43.71200
H  57.43600 18.19800 44.67400
H  57.95500 23.93600 44.76000
H  56.93700 25.90600 46.79000
H  56.62400 23.05200 47.24600
H  57.95600 24.16800 47.70400
H  58.25400 22.62800 46.79600
H  57.23300 27.31600 44.26600
H  58.41100 26.01300 44.20600
H  58.80400 27.04200 46.72500
H  58.45100 28.41600 45.83400
H  59.82000 27.29700 45.31300
H  52.06400 29.72000 47.01200
H  52.80000 30.25000 45.46600
H  53.82400 29.63200 46.61300
H  48.44100 27.02000 44.22900
H  46.71000 28.82600 40.92100
H  46.04600 27.27200 40.76200
H  47.66800 27.44600 40.14000

