158

Mg -1.22900 6.25500 26.10900
C  -0.49900 8.64200 28.72200
C  -0.73500 3.74800 28.38800
C  -1.71900 4.30600 23.58300
C  -1.29500 9.13800 23.90700
N  -0.79500 6.24600 28.37800
C  -0.62700 7.30300 29.21000
C  -0.40200 6.88200 30.66200
C  -0.38200 5.33400 30.58500
C  -0.66800 5.05000 29.00100
C  0.89300 4.56600 31.03900
C  -1.41700 7.38300 31.66000
C  -1.10400 7.32700 33.17300
H  0.11000 6.46100 33.78600
N  -1.24000 4.31600 25.96200
C  -1.07100 3.42100 27.02900
C  -1.38800 2.08800 26.48300
C  -1.60200 2.18900 25.08000
C  -1.50100 3.65600 24.78200
C  -1.43600 0.85100 27.37200
C  -2.01000 1.07400 24.02400
O  -2.17600 1.23700 22.79200
C  -2.38000 -0.42000 24.58000
N  -1.42000 6.67600 23.98900
C  -1.79400 5.63300 23.17600
C  -2.18700 6.13100 21.76500
C  -2.10800 7.67600 22.02500
C  -1.55800 7.87500 23.37000
C  -1.30100 5.48000 20.66000
C  -3.47700 8.43100 21.97500
C  -3.48200 9.78800 21.13800
N  -0.91800 8.45500 26.24900
C  -0.91900 9.42200 25.25000
C  -0.46400 10.63400 25.80600
C  -0.30200 10.35200 27.17800
C  -0.58900 9.02900 27.38700
C  -0.29700 11.97700 25.11900
C  -0.01300 10.97100 28.38600
O  0.37100 12.17700 28.51100
C  -0.18500 9.87800 29.49300
C  1.05700 9.80400 30.34400
O  2.13200 9.21600 30.12200
O  0.72100 10.48100 31.57700
C  1.76800 10.50500 32.59300
H  -0.51900 2.89800 29.03800
H  -1.87800 3.52800 22.83300
H  -1.35700 9.97400 23.20800
H  0.56500 7.30300 30.93700
H  -1.23900 4.92800 31.12300
H  1.25600 3.89500 30.25900
H  0.53000 4.00500 31.90000
H  1.71200 5.24500 31.27800
H  -2.41800 7.00300 31.45300
H  -1.55000 8.42300 31.36200
H  -2.00900 6.97800 33.67000
H  -0.91400 8.35000 33.49600
H  -1.40500 1.11500 28.43000
H  -0.51000 0.30500 27.19100
H  -2.29000 0.24400 27.07100
H  -1.65000 -0.69900 25.33900
H  -2.34700 -1.11100 23.73800
H  -3.39100 -0.28300 24.96400
H  -3.21600 5.79500 21.63400
H  -1.46700 8.11500 21.26000
H  -0.60100 4.77800 21.11300
H  -0.69100 6.21700 20.13700
H  -2.02700 4.98000 20.01900
H  -3.84600 8.57100 22.99100
H  -4.34700 7.91200 21.57200
H  -2.46800 9.87400 20.74700
H  -3.75100 10.65800 21.73800
H  -4.11400 9.77800 20.25000
H  -1.23500 12.21200 24.61500
H  0.56200 11.87200 24.45600
H  -0.11500 12.77800 25.83500
H  -1.08100 10.12700 30.06100
H  2.79300 10.36900 32.24800
H  1.43900 9.66700 33.20800
H  1.75000 11.43200 33.16700
Mg 6.95500 2.24700 27.69000
C  8.76200 1.06700 30.26200
C  5.02200 4.23300 29.72400
C  5.43600 3.52300 24.84800
C  8.39900 -0.27900 25.60600
N  6.81100 2.52400 29.81500
C  7.80200 2.05500 30.61700
C  7.64100 2.51600 32.01100
C  6.33400 3.44400 31.84800
C  6.00400 3.41800 30.37900
C  5.19300 2.90000 32.83900
C  8.87500 3.32300 32.52600
C  8.67700 4.11100 33.85200
H  9.77700 3.84900 34.84600
N  5.35000 3.63300 27.35300
C  4.75600 4.40300 28.34100
C  3.90500 5.36000 27.65700
C  3.99900 5.14200 26.26400
C  4.94800 4.02700 26.09700
C  3.04500 6.25500 28.42800
C  3.22100 5.81500 25.11100
O  3.31300 5.51300 23.95600
C  2.08500 6.73700 25.42100
N  6.62800 1.49800 25.55300
C  6.32800 2.43100 24.63200
C  6.81200 1.97900 23.15400
C  7.61800 0.66600 23.44400
C  7.51600 0.57900 24.97600
C  5.69000 1.79100 22.09800
C  9.03000 0.76700 22.80400
C  9.39000 -0.48200 22.03100
N  8.24000 0.59900 27.88500
C  8.77200 -0.29400 26.95000
C  9.70700 -1.14200 27.61300
C  9.74600 -0.69600 28.94300
C  8.87400 0.42700 29.03300
C  10.45700 -2.28600 26.96200
C  10.29400 -0.82900 30.32100
O  11.14100 -1.60600 30.75300
C  9.79000 0.33800 31.17100
C  9.17000 -0.37000 32.38300
O  8.43800 -1.34900 32.29000
O  9.57800 0.22900 33.54500
C  9.25700 -0.39600 34.78300
H  4.65200 5.01800 30.38700
H  5.09200 4.02500 23.94100
H  8.73700 -1.05000 24.91100
H  7.36700 1.66400 32.63400
H  6.62100 4.47800 32.04200
H  5.00100 3.51200 33.72100
H  5.45700 1.93400 33.27000
H  4.28800 2.78700 32.24300
H  9.14100 4.00400 31.71700
H  9.74000 2.67200 32.64900
H  7.73800 3.86400 34.34700
H  8.56400 5.13400 33.49300
H  3.49200 6.46400 29.40000
H  2.07200 5.79500 28.60000
H  2.93900 7.15200 27.81800
H  1.40000 6.98500 24.61100
H  2.53800 7.69600 25.67100
H  1.49200 6.30400 26.22600
H  7.45600 2.83200 22.94000
H  7.05800 -0.15200 22.99100
H  4.77200 1.62800 22.66400
H  5.99000 0.98200 21.43200
H  5.50600 2.72900 21.57300
H  9.88200 0.84400 23.47800
H  9.11800 1.64700 22.16700
H  10.05700 -0.22800 21.20800
H  8.53700 -1.07700 21.70300
H  9.85500 -1.13600 22.76900
H  10.61900 -1.99000 25.92500
H  9.79300 -3.14500 27.05800
H  11.33700 -2.47400 27.57800
H  10.57700 1.00600 31.51900
H  10.20000 -0.70600 35.23200
H  8.48400 -1.16500 34.79900
H  8.85100 0.41200 35.39100

