158

Mg -0.03200 7.92900 24.76700
C  0.87700 9.34100 27.83100
C  0.30800 4.83800 26.40300
C  -0.58600 6.32900 21.89900
C  0.16000 10.93200 23.20100
N  0.77700 7.23800 26.90500
C  0.66800 7.93600 28.05200
C  0.83800 7.16100 29.35200
C  0.78000 5.75300 28.78100
C  0.55100 5.95900 27.27200
C  2.11700 4.96800 29.07000
C  -0.25900 7.54600 30.35900
C  -0.39000 6.89700 31.77200
H  -0.18900 7.69100 33.04500
N  -0.06800 5.84400 24.16700
C  0.04400 4.78800 24.99000
C  -0.04000 3.53500 24.20200
C  -0.32300 3.98000 22.84600
C  -0.36300 5.41600 22.95400
C  0.17100 2.12300 24.72000
C  -0.51600 3.19500 21.51000
O  -0.63000 3.66500 20.41100
C  -0.35400 1.72900 21.62200
N  -0.35900 8.58600 22.83700
C  -0.58200 7.73100 21.82900
C  -0.77200 8.44900 20.49300
C  -0.75600 9.96200 21.04100
C  -0.19500 9.85800 22.43700
C  0.21400 7.98500 19.35900
C  -2.13300 10.63200 20.98000
C  -2.43600 11.58000 19.87700
N  0.37200 9.78600 25.31900
C  0.52000 10.95500 24.55300
C  1.14300 11.93900 25.41100
C  1.22400 11.35000 26.69000
C  0.80100 10.05200 26.60400
C  1.38600 13.39200 25.11100
C  1.54500 11.76300 28.10800
O  1.82400 12.81600 28.67100
C  1.30400 10.45500 28.83300
C  2.66600 10.03500 29.39300
O  3.55700 9.58700 28.74000
O  2.56500 9.99900 30.78200
C  3.57900 9.21500 31.40700
H  0.37700 3.86200 26.88700
H  -0.74600 5.94400 20.89000
H  0.26800 11.88400 22.67700
H  1.83600 7.41900 29.70800
H  -0.06400 5.15800 29.13200
H  2.76700 5.09800 28.20500
H  1.92700 3.90300 29.20100
H  2.59000 5.19400 30.02500
H  -1.18000 7.42900 29.78800
H  -0.02000 8.60100 30.49300
H  0.14700 5.94800 31.77600
H  -1.44400 6.62500 31.73400
H  0.15300 2.01700 25.80500
H  1.14100 1.72500 24.42000
H  -0.70500 1.60700 24.32600
H  0.44500 1.53300 22.33800
H  0.01100 1.43700 20.63700
H  -1.22000 1.17100 21.97700
H  -1.77500 8.11200 20.23100
H  -0.06000 10.53400 20.42800
H  0.97100 7.31200 19.76200
H  0.73300 8.88500 19.02800
H  -0.42600 7.66700 18.53600
H  -2.25700 11.23100 21.88200
H  -2.93000 9.89400 21.07100
H  -1.74100 11.31400 19.08000
H  -2.18900 12.59600 20.18600
H  -3.48400 11.45900 19.60000
H  1.67500 13.49700 24.06500
H  2.24800 13.66800 25.71900
H  0.61600 14.11500 25.37900
H  0.65600 10.72200 29.66800
H  3.32700 9.11900 32.46300
H  4.46800 9.84300 31.34300
H  3.83600 8.29600 30.88100
Mg 43.40100 3.83800 47.53200
C  41.48400 6.74400 47.22400
C  40.42000 1.97600 47.55800
C  45.27700 1.17100 47.27400
C  46.14600 5.90300 46.86700
N  41.17800 4.31400 47.44900
C  40.65000 5.57800 47.35300
C  39.11200 5.54300 47.30200
C  38.79500 4.08300 47.88600
C  40.17000 3.36100 47.57600
C  38.46100 4.01900 49.46700
C  38.57700 5.74500 45.90700
C  37.47400 6.80400 45.85400
H  36.85100 6.83000 44.46400
N  42.87900 1.80800 47.43900
C  41.60200 1.24600 47.45200
C  41.82200 -0.17800 47.42100
C  43.20900 -0.46100 47.15400
C  43.86800 0.85300 47.27200
C  40.64300 -1.18700 47.70400
C  43.87900 -1.76200 46.85300
O  43.31800 -2.86100 46.82400
C  45.36400 -1.92900 46.66500
N  45.38000 3.55600 47.10600
C  45.99800 2.35300 47.26400
C  47.59300 2.51400 47.32200
C  47.78900 3.92100 46.76900
C  46.31700 4.49700 47.00100
C  48.17500 2.23000 48.73600
C  48.18200 4.06300 45.26200
C  49.62200 4.67800 44.98500
N  43.82600 5.92000 47.27500
C  44.99300 6.59900 47.01200
C  44.76800 8.02400 47.06000
C  43.32700 8.11900 47.06100
C  42.86900 6.86000 47.19600
C  45.78700 9.16500 47.03700
C  42.16700 9.08700 47.09400
O  42.13900 10.33700 46.99000
C  40.90900 8.14600 47.14400
C  40.02600 8.47800 48.26800
O  40.17200 8.15500 49.44700
O  38.97700 9.15100 47.84300
C  38.02200 9.60500 48.81800
H  39.47900 1.43300 47.66700
H  45.86400 0.25000 47.26400
H  47.14000 6.34500 46.76600
H  38.77900 6.35700 47.94600
H  37.96800 3.62200 47.34500
H  38.22900 5.03300 49.79300
H  39.26300 3.57000 50.05400
H  37.57500 3.42900 49.70500
H  38.12700 4.81400 45.56200
H  39.28000 5.97600 45.10700
H  38.01800 7.72000 46.08300
H  36.70500 6.65000 46.61100
H  40.07000 -1.34200 46.78900
H  39.99200 -0.73600 48.45300
H  40.95000 -2.18500 48.01400
H  45.93900 -1.87000 47.58900
H  45.79400 -1.32600 45.86400
H  45.50400 -2.94000 46.28200
H  48.15900 1.80300 46.71900
H  48.33600 4.55800 47.46500
H  47.41000 1.66400 49.26700
H  48.37300 3.12800 49.32100
H  49.05600 1.60000 48.61900
H  47.46500 4.76000 44.82900
H  48.09200 3.09700 44.76400
H  50.07800 4.06300 44.21000
H  50.24400 4.62700 45.87900
H  49.51700 5.67700 44.56200
H  46.23000 9.17800 46.04100
H  46.52500 8.83900 47.77000
H  45.30100 10.10400 47.30100
H  40.27000 8.21600 46.26400
H  37.52800 8.81900 49.38900
H  37.25400 10.12600 48.24500
H  38.44600 10.28000 49.56200

