158

Mg 46.44600 16.83800 27.43700
C  44.47900 16.56700 30.31300
C  48.46200 19.11000 29.23900
C  48.28100 17.35800 24.69700
C  43.95000 15.27200 25.58700
N  46.55900 17.63600 29.55500
C  45.69000 17.25700 30.56500
C  46.13600 17.97800 31.93900
C  47.32700 18.85800 31.52900
C  47.50200 18.47000 29.97800
C  47.04900 20.40900 31.66200
C  46.48700 16.92800 32.97300
C  47.13600 17.42700 34.29300
H  46.75200 18.81400 34.73800
N  48.30400 17.78400 27.13500
C  48.88700 18.70400 27.95600
C  50.16300 19.21900 27.26800
C  50.14700 18.64700 25.94600
C  48.92900 17.85500 25.88700
C  51.03800 20.25500 27.76800
C  51.11000 18.76000 24.80200
O  50.97500 18.18200 23.75500
C  52.33900 19.60000 24.95400
N  46.08100 16.47200 25.44600
C  47.07300 16.75300 24.52800
C  46.62600 16.38800 23.12200
C  45.21800 15.64500 23.34700
C  45.12600 15.66500 24.90700
C  46.61200 17.61500 22.08800
C  45.06000 14.22400 22.71400
C  43.88000 13.87600 21.72800
N  44.56800 16.01400 27.82500
C  43.63500 15.39600 26.94200
C  42.47100 15.09600 27.75300
C  42.74300 15.59100 29.03500
C  44.03400 16.11100 29.03600
C  41.31100 14.36300 27.27400
C  42.22600 15.55900 30.44500
O  41.23400 15.08200 30.92500
C  43.40100 16.21500 31.27100
C  42.72100 17.44900 31.87900
O  42.68600 18.54400 31.36500
O  42.26000 17.14200 33.14800
C  41.80800 18.35300 33.92000
H  48.98700 19.91400 29.75900
H  48.79900 17.60700 23.76900
H  43.18400 14.80700 24.96400
H  45.34500 18.63400 32.30600
H  48.23300 18.50600 32.02300
H  46.30600 20.56100 32.44600
H  46.53600 20.75700 30.76600
H  47.94500 21.01200 31.80500
H  47.20500 16.24300 32.52400
H  45.64700 16.34300 33.34800
H  48.18800 17.32600 34.02800
H  46.88500 16.83600 35.17400
H  50.82200 20.69400 28.74100
H  50.92500 21.06500 27.04800
H  52.04800 19.84600 27.73000
H  52.05600 20.61700 25.22500
H  53.00400 19.58200 24.09000
H  52.87400 19.18000 25.80500
H  47.34200 15.61000 22.85800
H  44.36200 16.26600 23.08300
H  46.83400 17.40600 21.04200
H  47.30200 18.34000 22.52000
H  45.60500 18.02900 22.13700
H  45.18500 13.52600 23.54100
H  45.93300 14.12600 22.06900
H  43.21800 13.06900 22.04100
H  44.38300 13.57300 20.81000
H  43.24200 14.70400 21.42000
H  41.01800 14.73300 26.29200
H  40.42900 14.56500 27.88200
H  41.45200 13.28400 27.21300
H  43.67300 15.54000 32.08200
H  40.73100 18.40100 33.75500
H  42.16100 19.35900 33.69200
H  42.17100 18.27700 34.94400
Mg 9.79300 47.79500 26.32300
C  8.07200 47.72200 29.40300
C  12.42500 49.19600 27.95500
C  11.29700 47.87600 23.30600
C  6.81000 46.74900 24.72200
N  10.19500 48.32200 28.45800
C  9.38000 48.07400 29.61800
C  10.17200 48.34000 30.90300
C  11.32000 49.27500 30.29300
C  11.37500 48.94200 28.77500
C  11.09200 50.83500 30.53200
C  10.70200 46.98800 31.65600
C  10.88300 47.15800 33.14200
H  10.07200 46.07500 33.99200
N  11.63700 48.33000 25.79000
C  12.59600 48.93600 26.53400
C  13.82600 49.14900 25.81900
C  13.52000 48.68600 24.49500
C  12.07700 48.25400 24.45100
C  15.04100 49.66100 26.37500
C  14.38800 48.76800 23.26800
O  14.11900 48.33200 22.12100
C  15.74400 49.38100 23.36500
N  9.19300 47.37700 24.21900
C  9.99500 47.49900 23.16300
C  9.42300 46.96400 21.93700
C  8.05900 46.37500 22.48200
C  7.96100 46.82500 23.91800
C  9.45300 48.03100 20.87800
C  7.89000 44.86800 22.43100
C  9.11300 44.06300 22.84100
N  7.88200 47.38200 26.84700
C  6.73800 47.05000 26.10500
C  5.60800 46.85700 26.92100
C  6.06500 47.12800 28.20600
C  7.47300 47.37500 28.13200
C  4.16900 46.47300 26.45600
C  5.66700 47.15400 29.65900
O  4.58000 46.91900 30.18200
C  6.93400 47.45300 30.52000
C  7.18700 46.32500 31.41100
O  7.70900 45.26000 31.07600
O  6.62600 46.69200 32.65300
C  6.40600 45.58000 33.59100
H  13.25400 49.76200 28.38500
H  11.87200 47.89800 22.37800
H  5.97000 46.40300 24.11700
H  9.54100 48.85000 31.63100
H  12.26000 48.92300 30.71800
H  11.96600 51.20100 31.07200
H  10.18300 50.92800 31.12600
H  11.02200 51.43100 29.62200
H  11.69000 46.81900 31.22600
H  10.19600 46.06100 31.38600
H  10.66300 48.14800 33.53900
H  11.91300 46.93700 33.42500
H  15.16000 50.64300 25.91700
H  15.95900 49.09100 26.23100
H  15.01900 49.65900 27.46500
H  15.56300 50.32700 23.87500
H  16.32600 49.64700 22.48300
H  16.37700 48.67900 23.90800
H  10.01300 46.12400 21.57100
H  7.25000 46.77400 21.87100
H  8.54800 48.02600 20.27200
H  10.33800 47.83100 20.27300
H  9.45200 49.06700 21.21800
H  7.71700 44.74500 21.36200
H  7.03600 44.61900 23.06100
H  8.71500 43.28900 23.49800
H  9.76300 44.64100 23.49800
H  9.72600 43.61700 22.05800
H  3.63700 47.42200 26.51600
H  3.62700 45.70800 27.01100
H  4.14000 46.01900 25.46500
H  6.65300 48.38000 31.02000
H  5.35300 45.35100 33.75900
H  6.92500 45.77500 34.53000
H  6.80500 44.61900 33.26700

