158

Mg 25.00500 1.06000 29.67200
C  27.05600 1.08100 32.63200
C  22.22700 0.90500 31.65500
C  23.15900 0.69600 26.82000
C  27.96300 0.87600 27.76800
N  24.74200 0.91900 31.91600
C  25.68600 1.15400 32.87500
C  24.95300 1.25400 34.28900
C  23.41000 1.04500 33.87600
C  23.46200 0.98200 32.39200
C  22.56500 -0.13000 34.52000
C  25.27000 2.55200 35.07900
C  25.49600 2.38300 36.57200
H  24.86300 3.49800 37.48900
N  22.96300 0.99300 29.31300
C  21.97500 0.91100 30.25300
C  20.71500 0.76900 29.53500
C  21.02800 0.79200 28.15000
C  22.44400 0.83800 28.03200
C  19.34500 0.73200 30.21300
C  19.95600 0.68000 27.06400
O  20.15700 0.87000 25.92500
C  18.48500 0.26400 27.41700
N  25.51500 0.80900 27.65000
C  24.56200 0.69300 26.60600
C  25.22900 0.67000 25.23400
C  26.67900 1.00600 25.54900
C  26.71200 0.80900 27.09000
C  24.91400 -0.40200 24.23900
C  27.02000 2.42900 25.05500
C  26.59100 3.65200 25.95300
N  27.01500 0.80700 30.09400
C  28.09700 0.64900 29.20200
C  29.33000 0.45100 29.92200
C  28.98000 0.62900 31.20300
C  27.55000 0.84500 31.31700
C  30.72000 0.23400 29.43700
C  29.51600 0.70100 32.56600
O  30.70200 0.65600 32.92100
C  28.24800 1.09600 33.54900
C  28.10300 0.09000 34.55000
O  27.42700 -0.93000 34.46800
O  28.69300 0.46800 35.74500
C  28.84500 -0.54200 36.82700
H  21.33600 0.94200 32.28500
H  22.59900 0.48500 25.90700
H  28.83800 0.90100 27.11500
H  25.21500 0.39100 34.90200
H  22.84400 1.94900 34.10200
H  23.21100 -0.46900 35.33000
H  22.37000 -0.94100 33.81900
H  21.63500 0.25200 34.94300
H  24.39600 3.16800 34.86500
H  26.04700 3.23400 34.73400
H  26.58000 2.43700 36.67400
H  25.28600 1.36600 36.90200
H  18.69800 1.44700 29.70500
H  19.51200 1.10300 31.22400
H  18.88700 -0.25700 30.22100
H  18.50300 -0.59700 28.08600
H  18.04200 -0.01100 26.46000
H  17.90800 1.10900 27.79200
H  24.68200 1.52300 24.83400
H  27.40800 0.25500 25.24700
H  24.23100 -1.12700 24.68100
H  25.87100 -0.89100 24.05800
H  24.61400 -0.04100 23.25500
H  26.69900 2.54500 24.02000
H  28.10700 2.35900 25.09600
H  27.11200 3.50100 26.89800
H  25.51600 3.49100 26.04300
H  26.79900 4.58100 25.42300
H  31.38200 0.84300 30.05300
H  30.88700 0.50100 28.39300
H  31.08900 -0.78400 29.55600
H  28.38900 2.07500 34.00700
H  29.15700 -1.51200 36.44200
H  27.89300 -0.77400 37.30400
H  29.47300 -0.24900 37.66800
Mg 49.41100 34.89300 26.62400
C  47.32300 33.53800 29.30500
C  50.09700 37.59400 28.66600
C  50.90900 36.26700 24.07000
C  48.76500 31.92600 24.95100
N  48.77900 35.44800 28.73700
C  48.00800 34.71200 29.65700
C  47.99300 35.46100 30.98600
C  48.47100 36.87600 30.58100
C  49.14300 36.64900 29.21000
C  47.37300 38.01600 30.76400
C  48.99700 34.84700 32.00100
C  48.65900 34.99900 33.51200
H  47.43500 35.90000 33.82200
N  50.38500 36.66600 26.32800
C  50.60100 37.65700 27.33800
C  51.34300 38.75000 26.79400
C  51.62500 38.36000 25.45000
C  50.99400 37.01700 25.26800
C  51.72600 40.02000 27.56500
C  52.56100 39.06100 24.34700
O  52.75900 38.57200 23.22200
C  53.32900 40.31400 24.70900
N  49.82400 34.21700 24.79600
C  50.43800 34.98800 23.86900
C  50.63000 34.26200 22.53100
C  50.02800 32.82900 22.77400
C  49.50700 33.01000 24.31100
C  49.95600 35.03500 21.37200
C  50.92200 31.60800 22.75300
C  50.64200 30.75900 21.54300
N  48.31000 33.06900 26.94800
C  48.17000 31.96300 26.20800
C  47.20500 31.03500 26.78500
C  46.85100 31.67600 27.95400
C  47.59000 32.90700 28.08300
C  46.57300 29.74500 26.17700
C  45.93000 31.53900 29.04600
O  45.06500 30.68200 29.18200
C  46.19800 32.80300 29.98000
C  46.41300 32.24000 31.39600
O  47.36800 31.67800 31.77400
O  45.28100 32.43100 32.13200
C  45.03200 31.75600 33.41300
H  50.26700 38.45800 29.31200
H  51.36500 36.62300 23.14400
H  48.65800 31.06600 24.28600
H  46.95400 35.50100 31.31100
H  49.30800 37.14300 31.22700
H  47.59000 38.72700 31.56100
H  46.39200 37.56800 30.92200
H  47.18800 38.68300 29.92200
H  49.96000 35.34900 31.91600
H  49.16300 33.77000 31.98900
H  49.50400 35.38800 34.07900
H  48.27200 34.02000 33.79600
H  50.99600 40.19800 28.35500
H  51.49500 40.83300 26.87700
H  52.79100 40.04400 27.79500
H  52.79200 41.21000 24.39800
H  54.33100 40.21900 24.28900
H  53.44900 40.16000 25.78100
H  51.68200 34.13000 22.27700
H  49.19100 32.74700 22.08100
H  50.09800 34.52100 20.42100
H  50.33900 36.05500 21.35600
H  48.87200 35.04100 21.48100
H  50.87400 31.07300 23.70200
H  51.95900 31.93500 22.68200
H  51.41800 30.94500 20.80000
H  49.62000 30.88900 21.18800
H  50.90700 29.75200 21.86300
H  47.03000 28.94500 26.76000
H  46.85500 29.73700 25.12400
H  45.50000 29.61000 26.31300
H  45.38300 33.51200 30.12900
H  45.02900 32.52500 34.18600
H  45.80300 31.02400 33.65300
H  44.11200 31.17100 33.44100

