158

Mg 9.39000 3.69800 26.68300
C  10.41200 1.81100 29.57100
C  7.76000 5.69900 28.78900
C  8.12300 5.02300 24.09700
C  10.87000 1.05500 24.82900
N  9.20800 3.71200 28.98500
C  9.72000 2.97500 29.96600
C  9.41300 3.48000 31.35400
C  8.37400 4.63700 30.99000
C  8.45100 4.69000 29.51000
C  6.93100 4.40900 31.55900
C  10.64000 3.96900 32.28400
C  10.71000 3.23300 33.65500
H  11.40100 4.01800 34.78700
N  7.98000 5.14500 26.51100
C  7.46200 5.94900 27.47200
C  6.80500 7.01700 26.78400
C  6.99300 6.90400 25.45800
C  7.67400 5.62700 25.32400
C  6.11800 8.11200 27.53000
C  6.59700 7.84600 24.24800
O  6.80100 7.50000 23.06400
C  5.94900 9.13600 24.57800
N  9.40900 3.05000 24.83700
C  8.85600 3.82000 23.89200
C  9.16800 3.35800 22.44200
C  10.08300 2.13600 22.70600
C  10.12500 2.04400 24.19500
C  7.81300 3.02100 21.69200
C  11.48900 2.36300 22.02700
C  11.90900 1.48700 20.84800
N  10.42100 1.82000 27.07700
C  10.93200 0.82600 26.21100
C  11.47000 -0.28100 26.87400
C  11.39400 0.14900 28.21000
C  10.68700 1.34900 28.29700
C  12.02700 -1.51100 26.35600
C  11.74900 -0.23800 29.55300
O  12.40800 -1.08300 30.00500
C  11.06800 0.84400 30.49700
C  10.22000 0.09100 31.43200
O  9.09400 -0.30000 31.23900
O  10.94200 -0.08300 32.58800
C  10.38800 -0.98300 33.56600
H  7.16300 6.37800 29.40200
H  7.84800 5.51400 23.16100
H  11.32100 0.37300 24.10500
H  8.93400 2.66300 31.89400
H  8.74900 5.59800 31.34300
H  6.22900 4.12500 30.77500
H  6.62000 5.34600 32.01900
H  6.99000 3.66400 32.35300
H  10.61400 5.03600 32.50400
H  11.61400 3.88400 31.80200
H  11.44700 2.47900 33.37800
H  9.77700 2.74400 33.93300
H  5.20800 8.41300 27.01200
H  6.78200 8.97600 27.54600
H  5.97100 7.89000 28.58700
H  6.54700 9.71800 25.27900
H  4.92300 8.94900 24.89600
H  6.00200 9.80700 23.72000
H  9.65800 4.12700 21.84500
H  9.61600 1.25700 22.26100
H  6.94900 2.89000 22.34400
H  7.90400 2.10700 21.10700
H  7.59800 3.89500 21.07700
H  12.20100 2.13600 22.82000
H  11.58000 3.40400 21.71800
H  12.52100 1.99900 20.10500
H  10.98300 1.27800 20.31200
H  12.56800 0.69000 21.19500
H  12.10200 -1.56400 25.27000
H  11.53400 -2.39400 26.76200
H  13.04400 -1.45700 26.74300
H  11.94500 1.28000 30.97500
H  10.03300 -1.82700 32.97500
H  9.54700 -0.41700 33.96700
H  11.23800 -1.21900 34.20500
Mg -3.28200 35.01400 26.95300
C  -4.33600 32.86500 29.26500
C  -1.74000 36.85800 29.57600
C  -2.33700 37.45400 24.73800
C  -4.88400 33.38000 24.40600
N  -3.09600 34.85200 29.13600
C  -3.53800 33.82800 29.91200
C  -3.08300 33.93600 31.34100
C  -2.37500 35.29400 31.46500
C  -2.32200 35.66100 29.90400
C  -3.11900 36.33600 32.37700
C  -2.27500 32.64900 31.81400
C  -2.81700 31.88400 33.05800
H  -2.15900 31.92800 34.44100
N  -2.22700 36.87100 27.15000
C  -1.62800 37.43500 28.30200
C  -0.93900 38.69800 27.97700
C  -1.08800 38.88500 26.59200
C  -1.92900 37.72500 26.10000
C  -0.28900 39.61600 29.05000
C  -0.63400 40.03400 25.73000
O  -0.89000 40.07400 24.51700
C  0.15600 41.19700 26.34200
N  -3.78600 35.46900 24.92100
C  -3.16100 36.48500 24.20000
C  -3.70900 36.50800 22.75700
C  -4.29700 35.07300 22.58300
C  -4.33600 34.56600 24.05200
C  -4.66300 37.66900 22.57300
C  -3.59000 34.22000 21.54300
C  -2.24900 33.60200 21.83100
N  -4.51700 33.43100 26.85400
C  -5.05400 32.85600 25.73700
C  -5.68900 31.64700 26.19700
C  -5.56500 31.61200 27.56900
C  -4.81600 32.75100 27.97900
C  -6.26300 30.58700 25.28800
C  -5.80500 30.84100 28.82000
O  -6.30100 29.75200 29.11700
C  -5.04700 31.67100 29.89800
C  -5.99500 32.00900 30.95700
O  -6.70000 33.01800 30.86500
O  -5.94300 31.11700 32.03800
C  -7.00300 31.33000 33.00800
H  -1.05800 37.28000 30.31800
H  -1.98400 38.12400 23.95100
H  -5.39700 32.76700 23.66200
H  -3.97400 34.09800 31.94600
H  -1.32600 35.21800 31.75200
H  -3.84200 36.84200 31.73800
H  -2.40000 37.11800 32.62500
H  -3.63600 35.96800 33.26300
H  -1.28500 32.83000 32.23400
H  -2.17400 31.95000 30.98300
H  -3.08500 30.86000 32.80000
H  -3.82200 32.23000 33.30100
H  0.74800 39.79600 28.76300
H  -0.21000 39.15600 30.03500
H  -0.92300 40.50100 29.10600
H  0.41400 41.92000 25.56800
H  0.96700 40.62300 26.79200
H  -0.46900 41.66600 27.10100
H  -2.90300 36.65000 22.03700
H  -5.34900 35.13100 22.30500
H  -4.13900 38.36200 21.91600
H  -4.88300 38.29800 23.43500
H  -5.62200 37.43300 22.11300
H  -3.37900 34.73200 20.60400
H  -4.31300 33.45500 21.26100
H  -2.36000 32.54300 21.60200
H  -1.77700 33.79000 22.79600
H  -1.56500 33.87900 21.02900
H  -5.95500 30.65500 24.24400
H  -7.32800 30.81200 25.22800
H  -6.07900 29.54200 25.53700
H  -4.34900 30.98500 30.37800
H  -7.95300 31.17500 32.49600
H  -7.14600 32.36300 33.32600
H  -6.85600 30.72500 33.90200

