158

Mg 24.01400 -6.62300 46.70200
C  26.20000 -4.38000 45.09500
C  21.45500 -5.50200 44.83000
C  22.48600 -9.58500 47.13000
C  27.04000 -8.04700 48.08900
N  23.92800 -5.19700 45.19300
C  24.89900 -4.37100 44.68100
C  24.26800 -3.30700 43.78600
C  22.75500 -3.42400 44.02200
C  22.64300 -4.82700 44.76200
C  21.94400 -2.22500 44.75100
C  24.61600 -3.60600 42.28900
C  25.18400 -2.34700 41.52900
H  24.75600 -2.28300 40.07800
N  22.04900 -7.36400 46.23100
C  21.15800 -6.69100 45.49700
C  19.97700 -7.41900 45.46500
C  20.21300 -8.67300 46.20000
C  21.61400 -8.58800 46.58900
C  18.72000 -6.95500 44.74600
C  19.12000 -9.66000 46.51300
O  17.98600 -9.52200 46.05000
C  19.29100 -10.64400 47.66900
N  24.64200 -8.53800 47.60700
C  23.81100 -9.62100 47.62000
C  24.45100 -10.86300 48.32700
C  25.89200 -10.31700 48.68900
C  25.84600 -8.86700 48.11100
C  23.58000 -11.38200 49.45300
C  27.15300 -11.10900 48.25200
C  28.41500 -11.07900 49.14000
N  26.19700 -6.19600 46.81700
C  27.28700 -6.84300 47.41600
C  28.43500 -6.06300 47.23900
C  28.09900 -5.10300 46.22600
C  26.73300 -5.24300 45.99300
C  29.74500 -6.30500 47.86800
C  28.62800 -4.05900 45.38300
O  29.75000 -3.58600 45.16600
C  27.37000 -3.53600 44.57200
C  27.27900 -2.05700 44.76700
O  27.51300 -1.23600 43.86000
O  26.71300 -1.69000 45.99800
C  26.83500 -0.22600 46.23800
H  20.57300 -5.18400 44.27100
H  22.07500 -10.59400 47.05100
H  27.92900 -8.54000 48.48600
H  24.68100 -2.35700 44.12500
H  22.37800 -3.48300 43.00100
H  21.28700 -1.84100 43.97000
H  22.61800 -1.41700 45.03700
H  21.31800 -2.57500 45.57100
H  23.88100 -4.17800 41.72300
H  25.47900 -4.26300 42.18700
H  26.26600 -2.33900 41.65800
H  24.71300 -1.47500 41.98300
H  18.10700 -7.71100 44.25600
H  19.01000 -6.26000 43.95800
H  18.11100 -6.33400 45.40300
H  19.88400 -10.25000 48.49400
H  19.78400 -11.50800 47.22300
H  18.33600 -10.99400 48.06000
H  24.64000 -11.70200 47.65600
H  26.00000 -10.18900 49.76600
H  23.18900 -12.37700 49.24500
H  22.71600 -10.72000 49.50900
H  24.04400 -11.27300 50.43300
H  27.31500 -10.83900 47.20800
H  26.80400 -12.13900 48.31900
H  29.31800 -11.10700 48.53000
H  28.33800 -12.08400 49.55600
H  28.45200 -10.31500 49.91600
H  30.30000 -7.01800 47.25800
H  29.67900 -6.49800 48.93900
H  30.22100 -5.34800 47.65100
H  27.57700 -3.67900 43.51100
H  27.79000 0.24800 46.00900
H  26.80700 -0.03600 47.31100
H  25.98900 0.29800 45.79400
Mg -11.36600 16.38700 42.74400
C  -7.97100 17.16500 43.15800
C  -12.09600 19.64300 42.39000
C  -14.51900 15.45400 42.58900
C  -10.44300 12.95500 43.07300
N  -10.11100 18.20900 42.50100
C  -8.77200 18.28200 42.80500
C  -8.30000 19.69600 42.62500
C  -9.68700 20.50800 42.61300
C  -10.71600 19.41000 42.50600
C  -9.82000 21.66400 43.76300
C  -7.48400 19.87700 41.31700
C  -5.98000 20.22700 41.38400
H  -5.12900 19.73400 40.17900
N  -13.05200 17.39300 42.41800
C  -13.16600 18.75900 42.26600
C  -14.62200 19.14700 42.07600
C  -15.34600 17.85100 42.07100
C  -14.31900 16.80000 42.35500
C  -15.12000 20.64100 41.87500
C  -16.80600 17.72500 41.65100
O  -17.40200 18.74200 41.47000
C  -17.56400 16.51100 41.41000
N  -12.37100 14.41500 42.67400
C  -13.69400 14.32100 42.73700
C  -14.12600 12.90200 42.79900
C  -12.82600 12.03300 42.80600
C  -11.82500 13.19400 42.82200
C  -15.08100 12.53100 44.02600
C  -12.61300 11.11900 41.57400
C  -12.87100 9.64400 41.85700
N  -9.52600 15.26500 42.91600
C  -9.34200 13.91200 43.14300
C  -7.92100 13.70200 43.34000
C  -7.31800 14.93200 43.41600
C  -8.38400 15.81700 43.10900
C  -7.21900 12.38300 43.58400
C  -6.12000 15.64100 43.58100
O  -4.94600 15.27700 43.81900
C  -6.48500 17.17700 43.47800
C  -6.13900 17.78500 44.78800
O  -6.87200 17.78700 45.77900
O  -4.80200 18.26700 44.71700
C  -4.18700 18.53900 46.03600
H  -12.26300 20.70700 42.21000
H  -15.54600 15.08500 42.62400
H  -10.10700 11.93800 43.28400
H  -7.64100 19.97100 43.44800
H  -9.84000 21.02100 41.66400
H  -8.82800 21.81100 44.19200
H  -10.50900 21.38600 44.56000
H  -10.07000 22.61700 43.29700
H  -7.90200 20.73700 40.79400
H  -7.65100 19.01900 40.66600
H  -5.69800 19.92500 42.39200
H  -5.98800 21.31500 41.44000
H  -15.42100 20.68300 40.82800
H  -14.32700 21.38200 41.97900
H  -16.01300 20.81800 42.47300
H  -17.00000 15.68200 40.98300
H  -18.34400 16.84000 40.72300
H  -17.97600 16.16100 42.35700
H  -14.67800 12.55100 41.92700
H  -12.81600 11.45300 43.72900
H  -15.58600 13.42700 44.38700
H  -14.50800 12.12100 44.85800
H  -15.89100 11.86000 43.73800
H  -11.64400 11.23500 41.09000
H  -13.39200 11.29900 40.83300
H  -12.10200 9.04000 41.37400
H  -13.84400 9.32700 41.48200
H  -12.87600 9.40000 42.91900
H  -7.54900 11.72300 42.78200
H  -7.59700 11.98700 44.52700
H  -6.14200 12.54400 43.63500
H  -5.88300 17.55300 42.65000
H  -3.10900 18.58600 45.87800
H  -4.34300 17.80100 46.82300
H  -4.48500 19.50300 46.44800

