158

Mg 7.07700 53.82400 41.50400
C  6.89900 50.40900 40.64700
C  10.11100 53.77800 39.80000
C  7.12300 57.03900 41.83000
C  3.92600 53.56000 42.89800
N  8.19800 52.33700 40.15700
C  7.96300 51.01500 39.96000
C  8.83100 50.46400 38.81100
C  10.09000 51.36000 38.91400
C  9.42100 52.55000 39.69100
C  11.27700 50.88300 39.64100
C  8.20100 50.34500 37.40800
C  8.33800 49.02400 36.49500
H  7.89400 48.92700 35.04200
N  8.41000 55.23000 40.88700
C  9.57600 55.04600 40.21700
C  10.20200 56.36300 40.02500
C  9.35700 57.38400 40.54300
C  8.24500 56.58400 41.14700
C  11.44600 56.56900 39.27800
C  9.52900 58.96900 40.57900
O  10.46800 59.40700 39.95100
C  8.65100 59.90100 41.29100
N  5.68500 55.14500 42.11700
C  5.94800 56.44900 42.28100
C  4.79500 57.22400 42.89800
C  3.80000 56.08200 43.26700
C  4.51600 54.82000 42.75600
C  5.26600 58.26500 43.97400
C  2.27600 56.22500 42.82100
C  1.77900 57.60600 42.59900
N  5.66700 52.32300 41.74900
C  4.53700 52.35400 42.52400
C  3.97500 51.00500 42.61600
C  4.96400 50.18300 41.98800
C  5.91100 51.07000 41.43600
C  2.63300 50.59100 43.26700
C  5.24300 48.87500 41.66700
O  4.68100 47.75300 41.84700
C  6.61800 48.95000 40.93900
C  6.43800 48.07200 39.73700
O  5.80900 48.41400 38.71800
O  7.07700 46.85800 39.91300
C  6.79000 45.86500 38.85700
H  11.12400 53.76700 39.39300
H  7.00000 58.08900 42.10500
H  2.96900 53.52000 43.42300
H  9.10300 49.44600 39.09100
H  10.43600 51.69600 37.93600
H  12.04900 51.64800 39.55300
H  11.65600 49.88600 39.41600
H  11.07800 50.87600 40.71200
H  8.60900 51.14100 36.78500
H  7.11400 50.32900 37.48200
H  7.69400 48.28600 36.97300
H  9.39300 48.75000 36.52200
H  11.43600 55.93500 38.39200
H  12.16700 56.24900 40.03000
H  11.67500 57.55700 38.88000
H  8.60500 59.63200 42.34600
H  7.68800 59.76300 40.79800
H  8.94200 60.95100 41.31300
H  4.41500 57.86300 42.10000
H  3.82300 55.93400 44.34600
H  4.96100 57.99100 44.98400
H  4.70100 59.16200 43.72100
H  6.29700 58.61800 43.96300
H  1.84100 55.83300 43.74000
H  2.05500 55.52700 42.01300
H  0.90100 57.58800 43.24400
H  1.50600 57.68500 41.54600
H  2.43300 58.40300 42.95300
H  1.89900 51.22200 42.76600
H  2.64300 50.92200 44.30600
H  2.33900 49.57400 43.00800
H  7.32900 48.60900 41.69100
H  6.82900 46.24600 37.83600
H  5.78500 45.46500 38.98900
H  7.45300 45.00500 38.95400
Mg 10.23900 46.74400 25.54500
C  7.96800 46.90000 28.18200
C  12.66800 48.08200 27.59200
C  12.28600 46.68500 22.94600
C  7.53300 46.22600 23.40000
N  10.33200 47.45700 27.62400
C  9.28300 47.21200 28.54600
C  9.79400 47.55200 29.95100
C  11.17800 48.24800 29.74400
C  11.46300 47.87200 28.28800
C  11.15600 49.87800 29.84200
C  9.73500 46.28200 30.92500
C  9.35300 46.55500 32.39200
H  9.65900 45.55800 33.42200
N  12.18900 47.21400 25.31200
C  13.00500 47.71800 26.30400
C  14.35800 47.96300 25.75500
C  14.33200 47.43000 24.38400
C  12.87900 47.14500 24.16800
C  15.50700 48.58600 26.57100
C  15.54900 47.20500 23.44100
O  15.45200 46.68700 22.36700
C  16.97100 47.53200 23.84600
N  10.00500 46.49100 23.38100
C  10.98200 46.43500 22.52000
C  10.41900 46.09500 21.06100
C  8.86500 45.79900 21.40200
C  8.81500 46.19700 22.85900
C  10.76700 47.22300 20.05100
C  8.40600 44.31100 20.98100
C  7.50400 44.34400 19.75000
N  8.19000 46.61200 25.64300
C  7.20900 46.47300 24.71400
C  5.89500 46.54100 25.33600
C  6.18100 46.65100 26.72900
C  7.53000 46.70600 26.85900
C  4.64200 46.43600 24.62600
C  5.57000 46.72900 28.04000
O  4.38100 46.77900 28.31800
C  6.73200 46.79400 29.01900
C  6.53600 45.50900 29.80200
O  6.89200 44.38800 29.49200
O  5.89300 45.73800 30.93600
C  5.55000 44.58300 31.77000
H  13.49000 48.43700 28.21700
H  13.04500 46.51200 22.18000
H  6.71700 46.10800 22.68400
H  9.02800 48.24700 30.29500
H  11.99200 47.78800 30.30400
H  11.58700 50.29500 28.93200
H  11.84800 50.15500 30.63700
H  10.15000 50.23900 30.05400
H  10.75700 45.91100 30.83600
H  9.04700 45.56600 30.47600
H  8.26500 46.60500 32.41200
H  9.78200 47.50500 32.71200
H  15.27900 48.91700 27.58400
H  15.81400 49.52900 26.11800
H  16.36200 47.91100 26.62100
H  17.74800 47.58400 23.08300
H  17.11800 46.78100 24.62300
H  16.95600 48.45700 24.42300
H  10.92100 45.17800 20.75300
H  8.17700 46.44400 20.85500
H  11.51700 46.86700 19.34500
H  11.13100 48.20200 20.36000
H  9.86300 47.34900 19.45500
H  7.87400 43.86800 21.82400
H  9.32500 43.72900 20.91100
H  8.13600 43.86100 19.00500
H  7.08700 45.31700 19.48800
H  6.62100 43.76000 20.01100
H  4.45800 45.41100 24.30300
H  4.60300 47.11500 23.77400
H  3.84800 46.76200 25.29700
H  6.69400 47.64200 29.70300
H  6.53200 44.37500 32.19300
H  5.25200 43.65600 31.28100
H  4.84000 44.91200 32.52900

