158

Mg 30.55100 58.69600 41.03200
C  27.78800 56.89700 39.93600
C  32.55600 56.28800 39.65300
C  33.08500 60.99600 41.01800
C  28.31300 61.40500 41.77700
N  30.12000 56.88400 39.81100
C  28.96600 56.23500 39.65300
C  29.11200 54.76500 39.27700
C  30.64600 54.58400 39.34500
C  31.16700 55.98200 39.67400
C  31.17400 53.39700 40.17900
C  28.40300 54.26700 38.03300
C  28.20200 55.22000 36.80900
H  28.36100 54.82800 35.37800
N  32.53300 58.61900 40.55400
C  33.15300 57.56000 39.92700
C  34.57800 57.88400 39.83100
C  34.78100 59.20800 40.15200
C  33.46400 59.66500 40.59600
C  35.64000 56.94800 39.27800
C  36.13000 59.92400 40.08900
O  37.07600 59.38900 39.49600
C  36.40400 61.29700 40.65200
N  30.61000 60.81000 41.59400
C  31.81700 61.49200 41.52800
C  31.71600 62.98000 41.88000
C  30.18500 63.10400 42.21200
C  29.65700 61.74400 41.81500
C  32.65600 63.39900 43.03300
C  29.35700 64.29000 41.68100
C  29.08600 65.49200 42.69300
N  28.43000 59.06500 41.08200
C  27.64800 60.18500 41.37200
C  26.26800 59.91600 41.15100
C  26.32400 58.61300 40.59400
C  27.62300 58.16900 40.48000
C  25.18600 60.90800 41.35800
C  25.43500 57.54900 40.07600
O  24.23200 57.56700 39.92900
C  26.39200 56.36700 39.76300
C  26.10000 55.32100 40.78100
O  26.58800 55.16800 41.87600
O  25.14800 54.43700 40.26300
C  24.70500 53.22900 41.05300
H  33.24600 55.53600 39.26400
H  33.74900 61.85300 40.89000
H  27.59100 62.21400 41.90600
H  28.68100 54.33100 40.17900
H  31.07300 54.44700 38.35200
H  31.92200 53.72900 40.89800
H  31.55000 52.69100 39.43800
H  30.44700 52.89100 40.81400
H  27.43700 53.88700 38.36500
H  29.00700 53.48100 37.58000
H  28.92800 56.02200 36.94200
H  27.18000 55.57900 36.92600
H  35.68000 57.22400 38.22500
H  35.33700 55.90600 39.38800
H  36.57600 57.08800 39.81800
H  35.92900 61.54600 41.60200
H  36.14200 62.01600 39.87500
H  37.47900 61.36700 40.81400
H  31.80000 63.54000 40.94900
H  30.15700 63.07300 43.30200
H  33.16300 62.52200 43.43600
H  32.19000 63.90200 43.88000
H  33.32700 64.17300 42.66200
H  28.47400 63.91300 41.16500
H  29.93000 64.61200 40.81100
H  29.32000 65.24700 43.72900
H  28.00600 65.63800 42.66200
H  29.56600 66.40300 42.33600
H  25.40500 61.47400 42.26300
H  24.30600 60.29300 41.54800
H  25.04600 61.45500 40.42600
H  26.09600 56.08700 38.75100
H  24.26900 53.60500 41.97900
H  25.51900 52.57500 41.36600
H  24.00200 52.68100 40.42600
Mg 0.14000 43.03300 26.46200
C  2.87000 42.89700 28.75700
C  -1.94200 42.64000 29.01300
C  -2.23200 42.94300 24.07200
C  2.55900 43.23100 23.87100
N  0.43400 42.80200 28.55400
C  1.62500 42.81300 29.27300
C  1.27000 42.73200 30.79400
C  -0.18200 42.19200 30.85000
C  -0.60500 42.51300 29.41000
C  -0.34700 40.62700 31.18600
C  1.45500 44.20400 31.48100
C  2.17400 44.13700 32.82800
H  1.71100 43.00900 33.78600
N  -1.80100 42.86400 26.56300
C  -2.52900 42.77900 27.71800
C  -3.91100 42.74500 27.34000
C  -4.06200 42.84600 25.91200
C  -2.68700 42.84300 25.45100
C  -5.02900 42.59800 28.33400
C  -5.30700 43.02200 25.01000
O  -5.32900 43.15000 23.73500
C  -6.62400 43.13200 25.70500
N  0.15200 43.08300 24.23100
C  -0.96100 42.98600 23.46900
C  -0.64700 42.86100 21.93400
C  0.91800 43.18600 21.94700
C  1.23800 43.27900 23.43700
C  -1.01800 41.48400 21.26100
C  1.40800 44.28000 21.05700
C  1.07800 45.67000 21.53700
N  2.28500 43.13500 26.28500
C  3.13500 43.20100 25.14000
C  4.50000 43.31900 25.58900
C  4.46800 43.07700 27.00100
C  3.08900 43.02200 27.35800
C  5.72600 43.33100 24.75600
C  5.24000 42.90500 28.16500
O  6.47900 42.83700 28.22000
C  4.28100 42.85100 29.39700
C  4.67200 41.67900 30.19300
O  4.34000 40.50800 29.92600
O  5.31500 42.03300 31.34600
C  5.66500 40.97300 32.27400
H  -2.58500 42.58300 29.89400
H  -3.03100 43.13200 23.35200
H  3.30700 43.07700 23.09100
H  1.95900 42.07900 31.33100
H  -0.68000 42.77800 31.62300
H  -0.72300 40.39400 32.18200
H  0.61500 40.11300 31.19700
H  -0.88900 40.08500 30.41100
H  0.54100 44.76800 31.66700
H  1.93100 44.86300 30.75500
H  2.13600 45.12100 33.29600
H  3.21000 43.93800 32.55400
H  -5.64100 41.75500 28.01300
H  -5.60700 43.52200 28.32600
H  -4.55800 42.43900 29.30500
H  -7.37300 43.47300 24.99100
H  -6.63400 43.97800 26.39200
H  -6.91300 42.28900 26.33400
H  -1.11300 43.66300 21.36100
H  1.40800 42.29700 21.54900
H  -0.28500 40.67800 21.21700
H  -1.41700 41.85600 20.31700
H  -1.84400 41.11300 21.86700
H  1.06500 44.16200 20.03000
H  2.49600 44.20900 21.07700
H  0.95700 46.28100 20.64200
H  1.85300 46.07700 22.18600
H  0.27200 45.60800 22.26800
H  5.47700 42.89600 23.78800
H  6.43700 42.65600 25.23300
H  6.19800 44.30000 24.59800
H  4.45200 43.72400 30.02700
H  6.18300 40.12100 31.83200
H  4.70200 40.68100 32.69200
H  6.19400 41.27000 33.18000

