158

Mg 29.36800 57.53100 40.56500
C  27.07700 55.31900 39.30600
C  31.91300 55.68500 39.47300
C  31.43100 60.26900 40.97400
C  26.61800 59.74600 41.07800
N  29.45200 55.76200 39.54900
C  28.41000 54.98400 39.14600
C  28.83300 53.56100 38.73500
C  30.37300 53.63600 38.97400
C  30.63400 55.10700 39.37400
C  30.89200 52.57600 40.05700
C  28.47800 53.18800 37.23500
C  28.71300 54.37600 36.23200
H  27.73300 54.77200 35.21400
N  31.35900 57.95700 40.37400
C  32.27800 57.01400 39.90900
C  33.62800 57.62300 39.81000
C  33.49600 58.94800 40.18600
C  32.04600 59.15600 40.53500
C  34.73200 56.84400 39.16800
C  34.65100 59.96300 40.22000
O  35.80800 59.62800 39.99800
C  34.41200 61.47100 40.39200
N  29.02900 59.74000 40.76800
C  30.10900 60.52400 41.19900
C  29.63000 61.84900 41.74300
C  28.07800 61.74600 41.49100
C  27.83600 60.31000 41.16200
C  29.90700 62.13700 43.28100
C  27.59200 62.68500 40.33700
C  27.00200 63.99700 40.87700
N  27.25800 57.54800 40.41300
C  26.28000 58.46500 40.60900
C  24.94900 57.93100 40.30700
C  25.22700 56.66100 39.83200
C  26.64600 56.47600 39.77100
C  23.62200 58.62300 40.48700
C  24.59000 55.44000 39.20500
O  23.42100 55.14900 38.97600
C  25.78800 54.52300 38.77700
C  25.46500 53.19700 39.44900
O  25.50700 52.90300 40.64100
O  25.02700 52.35700 38.46000
C  24.70000 50.99600 38.82800
H  32.73700 55.13000 39.02000
H  31.99900 61.16900 41.21900
H  25.73400 60.36000 41.26100
H  28.27500 52.90100 39.39900
H  30.86400 53.47600 38.01400
H  31.49800 53.15600 40.75300
H  31.42800 51.80900 39.49900
H  29.99800 52.12600 40.48700
H  27.50800 52.71700 37.07400
H  29.24600 52.45400 36.98700
H  29.55500 53.89900 35.73000
H  29.03500 55.29100 36.72900
H  35.54500 56.85700 39.89400
H  35.13800 57.15300 38.20500
H  34.43800 55.80000 39.05800
H  34.18100 61.86700 41.38000
H  33.61100 61.65600 39.67600
H  35.18000 62.03500 39.86300
H  30.09700 62.60800 41.11500
H  27.41700 61.86700 42.35000
H  30.94200 62.47800 43.26000
H  29.64200 61.31300 43.94400
H  29.40500 63.04300 43.62100
H  26.78800 62.18100 39.80000
H  28.36900 62.82800 39.58600
H  25.91300 63.96200 40.86700
H  27.27100 64.87000 40.28200
H  27.38000 64.27700 41.86000
H  23.56000 59.40600 39.73200
H  23.64700 59.11000 41.46200
H  22.84400 57.91200 40.20900
H  25.94800 54.41100 37.70400
H  23.67000 51.01900 39.18500
H  25.37900 50.54900 39.55400
H  24.69100 50.45700 37.88000
Mg -11.19600 16.32300 42.95600
C  -8.08400 14.70700 42.76300
C  -9.54400 19.24900 41.89300
C  -14.14800 17.64800 41.96400
C  -12.62700 13.36000 43.77500
N  -9.12100 16.85200 42.14100
C  -8.03000 16.04500 42.27700
C  -6.72500 16.69900 41.76800
C  -7.20000 18.28200 42.01500
C  -8.70900 18.11900 41.91400
C  -6.78900 18.91700 43.32400
C  -6.40900 16.37400 40.32500
C  -5.20500 15.38100 40.02000
H  -5.52700 14.40400 38.88400
N  -11.75800 18.16300 42.16300
C  -10.92100 19.26000 41.85700
C  -11.75400 20.31000 41.33400
C  -13.12100 19.91700 41.38500
C  -13.05200 18.47000 41.79800
C  -11.05900 21.52100 40.77600
C  -14.27200 20.70600 40.88800
O  -14.12900 21.82300 40.43000
C  -15.69400 20.26500 40.80600
N  -13.10700 15.63200 42.78900
C  -14.19600 16.30300 42.37700
C  -15.49300 15.37300 42.39200
C  -14.97700 14.13900 43.17600
C  -13.46300 14.39700 43.26300
C  -16.71600 16.03300 43.05800
C  -15.48500 12.81700 42.55300
C  -15.83500 11.65400 43.54500
N  -10.53800 14.43700 43.43500
C  -11.20800 13.30600 43.81700
C  -10.27600 12.24400 44.06100
C  -9.00000 12.77300 43.68200
C  -9.23700 14.07300 43.26300
C  -10.71000 10.86000 44.44600
C  -7.62000 12.51700 43.63000
O  -6.98100 11.50300 43.99000
C  -6.94900 13.76200 43.01600
C  -6.05000 14.20800 44.07500
O  -6.43100 14.57500 45.20700
O  -4.83100 14.19900 43.60600
C  -3.83000 14.85900 44.47100
H  -9.04500 20.19500 41.67500
H  -15.10100 18.03100 41.59200
H  -13.03400 12.42200 44.15900
H  -5.88000 16.56100 42.44300
H  -6.86400 18.89500 41.17800
H  -6.23800 19.84100 43.15000
H  -6.20100 18.27600 43.98000
H  -7.62000 19.09600 44.00700
H  -6.08800 17.28100 39.81300
H  -7.27200 15.92100 39.83800
H  -4.93300 14.82300 40.91600
H  -4.29300 15.94900 39.84000
H  -11.81000 22.31100 40.80000
H  -10.61500 21.39300 39.78900
H  -10.40000 21.96800 41.52100
H  -15.78000 19.46800 40.06700
H  -16.36900 21.02600 40.41300
H  -15.96700 19.96400 41.81700
H  -15.69900 15.17400 41.34100
H  -15.39400 14.24700 44.17800
H  -16.29400 16.84800 43.64500
H  -17.34600 15.32400 43.59600
H  -17.37100 16.46300 42.30000
H  -14.79700 12.33200 41.86000
H  -16.40800 13.06800 42.03100
H  -16.67500 11.01600 43.27000
H  -15.73700 11.99700 44.57500
H  -15.04800 10.92100 43.37000
H  -10.75100 10.25500 43.54000
H  -11.70300 10.81900 44.89600
H  -9.96200 10.43400 45.11500
H  -6.39300 13.43800 42.13600
H  -3.14300 15.40500 43.82400
H  -3.33600 14.16400 45.14900
H  -4.29200 15.60100 45.12300

