158

Mg 26.36800 49.00000 26.12200
C  24.58100 50.51700 28.66000
C  28.78900 48.11600 28.51900
C  28.36800 47.82100 23.64800
C  24.17200 50.29600 23.68600
N  26.69500 49.35200 28.34300
C  25.66700 49.77600 29.17800
C  26.05700 49.44700 30.67900
C  27.48700 48.94300 30.57400
C  27.66300 48.72000 29.09000
C  28.60700 49.90700 31.11900
C  24.96600 48.54200 31.33300
C  25.40100 47.80100 32.59000
H  24.60000 48.10500 33.85700
N  28.22300 47.98200 26.10600
C  29.04800 47.78600 27.17600
C  30.19400 47.06800 26.76000
C  30.19000 47.02700 25.35500
C  28.86200 47.58000 24.93600
C  31.19000 46.54100 27.76900
C  31.24800 46.50100 24.45300
O  31.15800 46.36000 23.22300
C  32.50400 45.98600 25.05600
N  26.26700 49.12000 24.03100
C  27.19800 48.44200 23.24400
C  26.95500 48.71200 21.80100
C  25.53000 49.38800 21.75400
C  25.26200 49.57000 23.18200
C  27.97900 49.56500 21.08900
C  24.46500 48.55100 20.96000
C  23.90600 47.23600 21.72100
N  24.69100 50.16300 26.13100
C  23.87400 50.61500 25.07200
C  22.71600 51.26700 25.66900
C  22.96800 51.28200 27.03600
C  24.19100 50.61500 27.25900
C  21.49600 51.71600 25.03300
C  22.45400 51.64700 28.34100
O  21.34900 52.08000 28.52100
C  23.41400 51.09400 29.41600
C  23.85800 52.18400 30.30600
O  24.82800 52.88500 30.17000
O  23.01600 52.33600 31.36900
C  23.36100 53.36600 32.36200
H  29.36100 47.72100 29.36100
H  28.89700 47.33200 22.82800
H  23.38400 50.65500 23.02200
H  26.05400 50.37300 31.25400
H  27.52600 48.06200 31.21500
H  29.50800 49.90500 30.50400
H  28.87500 49.47100 32.08100
H  28.18800 50.90500 31.25100
H  24.56400 47.78400 30.66000
H  24.07200 49.11800 31.57000
H  26.44600 47.95700 32.85900
H  25.35700 46.72400 32.43000
H  32.11700 47.10000 27.89500
H  31.47500 45.51000 27.56200
H  30.78400 46.41000 28.77100
H  33.17700 45.82500 24.21400
H  32.45200 45.02700 25.57000
H  32.88600 46.81900 25.64500
H  26.86700 47.73800 21.32100
H  25.41000 50.40700 21.38700
H  27.41400 50.15700 20.36900
H  28.64400 48.90500 20.53100
H  28.60100 50.16200 21.75600
H  24.95000 48.27400 20.02400
H  23.64400 49.24100 20.76700
H  24.24100 47.39400 22.74600
H  24.44900 46.39300 21.29400
H  22.81700 47.24700 21.66700
H  21.69300 52.48100 24.28200
H  20.80400 52.09900 25.78300
H  21.01500 50.86900 24.54300
H  22.81800 50.48800 30.09700
H  22.70000 54.20500 32.57900
H  24.37800 53.74000 32.24800
H  23.51600 52.94100 33.35300
Mg -10.87900 38.56900 40.84500
C  -9.34500 35.59200 39.93600
C  -8.49500 40.36300 39.28100
C  -12.83500 41.35000 41.12300
C  -13.64000 36.60500 42.08500
N  -9.12700 38.03900 39.76000
C  -8.64700 36.79500 39.48000
C  -7.44000 36.74100 38.49700
C  -7.07000 38.33900 38.55100
C  -8.37200 38.98500 39.19300
C  -5.87500 38.73500 39.56400
C  -7.77700 36.19900 37.04200
C  -6.75700 35.29000 36.20500
H  -6.43100 35.57600 34.70500
N  -10.66600 40.59000 40.33700
C  -9.54300 41.11900 39.76300
C  -9.55300 42.56100 39.73800
C  -10.80700 42.94900 40.23400
C  -11.49000 41.63400 40.66200
C  -8.42800 43.37700 39.11900
C  -11.35800 44.33600 40.36000
O  -10.63500 45.24200 40.03800
C  -12.76700 44.70000 40.77000
N  -12.97900 38.87600 41.43200
C  -13.52100 40.14400 41.43900
C  -15.07300 40.03600 41.71400
C  -15.32100 38.48800 41.87500
C  -13.87000 37.95200 41.83100
C  -15.51600 41.06700 42.83600
C  -16.32900 37.91800 40.80700
C  -15.81100 37.42700 39.46200
N  -11.35100 36.51600 41.05900
C  -12.43700 35.90200 41.65500
C  -12.12400 34.45600 41.77100
C  -10.91800 34.26400 41.08200
C  -10.53700 35.57100 40.69200
C  -12.98700 33.47700 42.54000
C  -9.80900 33.36600 40.71600
O  -9.64400 32.18600 41.08200
C  -8.91300 34.09400 39.77700
C  -7.44600 33.81900 40.11800
O  -6.70000 34.57800 40.81300
O  -7.02500 32.78000 39.37500
C  -5.65500 32.35300 39.65800
H  -7.64800 40.85300 38.79600
H  -13.44600 42.25500 41.08900
H  -14.42800 35.98400 42.51700
H  -6.55800 36.23500 38.88900
H  -6.68300 38.73500 37.61300
H  -5.90000 37.96100 40.33100
H  -5.96900 39.66500 40.12500
H  -4.93700 38.60600 39.02500
H  -8.02600 37.02300 36.37300
H  -8.74400 35.69700 37.04900
H  -7.06800 34.25500 36.34900
H  -5.84400 35.30200 36.80000
H  -8.75900 44.24900 38.55500
H  -7.82000 42.88100 38.36300
H  -7.75700 43.73500 39.90100
H  -12.84900 44.37200 41.80600
H  -13.54200 44.15500 40.23100
H  -12.86000 45.78600 40.73900
H  -15.57500 40.40600 40.82000
H  -15.71000 38.34100 42.88200
H  -16.19100 41.87900 42.56500
H  -14.56600 41.51000 43.13200
H  -15.92700 40.61600 43.74000
H  -17.06400 38.67000 40.52100
H  -16.82200 37.02900 41.20300
H  -14.72700 37.38800 39.56800
H  -15.99200 38.23900 38.75700
H  -16.22900 36.49300 39.08700
H  -12.68500 32.44100 42.38600
H  -14.05300 33.64200 42.38700
H  -12.62900 33.52300 43.56900
H  -9.01300 33.87700 38.71400
H  -5.58700 31.26900 39.55900
H  -5.32600 32.61900 40.66300
H  -4.91500 32.68500 38.92900

