158

Mg 8.64400 3.16400 27.48300
C  10.02500 1.85800 30.33700
C  6.77300 5.38300 29.52900
C  7.25400 4.40600 24.69700
C  9.83900 0.39300 25.61300
N  8.41500 3.58400 29.72000
C  9.15600 2.95100 30.66000
C  8.86600 3.59800 32.02500
C  7.68700 4.59600 31.73800
C  7.62300 4.57500 30.24900
C  6.27700 4.25100 32.17700
C  10.10600 4.30200 32.63000
C  10.47200 3.96700 34.11700
H  10.74700 5.08800 35.14900
N  7.33500 4.79500 27.07500
C  6.65000 5.50700 28.10000
C  5.77800 6.39100 27.41100
C  5.91300 6.16700 25.99100
C  6.92800 5.09100 25.87700
C  4.93100 7.41200 28.05200
C  5.10900 6.76900 24.81100
O  5.45000 6.59000 23.63400
C  3.81600 7.54900 25.11100
N  8.76200 2.53800 25.31200
C  8.01200 3.22800 24.35600
C  8.07300 2.50900 22.94200
C  8.88600 1.22200 23.31500
C  9.16700 1.33700 24.80800
C  6.77900 2.12800 22.29900
C  10.17100 0.84600 22.50200
C  10.03600 -0.47000 21.79600
N  9.58900 1.46300 27.79600
C  10.08100 0.48300 27.01700
C  10.80600 -0.47700 27.88800
C  10.95300 0.05700 29.13700
C  10.15200 1.25000 29.07600
C  11.54100 -1.70300 27.35800
C  11.52900 -0.09200 30.46500
O  12.26200 -0.96900 30.96400
C  10.93600 1.10900 31.29100
C  10.20200 0.50100 32.42300
O  9.15500 -0.07200 32.29900
O  11.00500 0.64100 33.55400
C  10.34900 0.13900 34.79000
H  6.32700 6.16800 30.14300
H  6.74700 4.70500 23.77700
H  10.23400 -0.51000 25.14300
H  8.31200 2.85600 32.59900
H  7.88000 5.59700 32.12400
H  5.77500 5.16900 32.48000
H  6.22800 3.53100 32.99400
H  5.62100 3.79300 31.43700
H  10.00500 5.37700 32.48000
H  10.93900 3.90600 32.04800
H  11.37500 3.36700 34.00100
H  9.70600 3.29600 34.50800
H  5.32700 7.77300 29.00200
H  3.93200 7.00600 28.21000
H  5.12300 8.30800 27.46100
H  3.21900 7.63200 24.20300
H  4.19400 8.48400 25.52400
H  3.38200 6.94800 25.90900
H  8.67600 3.05700 22.21800
H  8.21300 0.36400 23.31900
H  6.10800 2.33400 23.13200
H  6.63200 1.07700 22.04900
H  6.55800 2.84400 21.50800
H  11.05900 0.81000 23.13300
H  10.41400 1.73300 21.91700
H  10.21200 -0.40600 20.72200
H  9.09200 -0.97800 21.98700
H  10.78200 -1.20900 22.08800
H  12.58800 -1.42400 27.23900
H  11.06200 -2.00800 26.42800
H  11.45100 -2.48700 28.11000
H  11.71500 1.81700 31.57300
H  9.66800 -0.70200 34.65900
H  9.64900 0.93700 35.03900
H  11.02800 -0.07800 35.61500
Mg 6.49700 53.88600 41.51900
C  5.72000 50.47800 41.31100
C  9.63900 53.08900 40.32000
C  7.05200 57.10500 41.03500
C  3.14400 54.46900 42.51000
N  7.50500 51.98900 40.84400
C  6.97800 50.73200 40.71700
C  8.00200 49.70600 40.18000
C  9.33500 50.51800 40.13400
C  8.80600 51.96800 40.45800
C  10.58900 50.02700 41.00400
C  7.50100 49.23700 38.73900
C  8.09100 49.87500 37.49300
H  7.45200 49.47400 36.21100
N  8.09200 54.98600 40.70500
C  9.27600 54.46400 40.34100
C  10.13800 55.53100 39.95800
C  9.39600 56.68000 40.19100
C  8.13500 56.32000 40.65000
C  11.62100 55.25900 39.59200
C  9.91600 58.07600 39.87900
O  11.07700 58.15500 39.39300
C  9.14300 59.36500 40.10500
N  5.19600 55.49300 41.44400
C  5.76600 56.73400 41.39700
C  4.59800 57.72000 41.66100
C  3.32300 56.93200 42.07000
C  3.87300 55.48700 41.87500
C  4.96100 58.74700 42.80500
C  2.00500 57.31900 41.36800
C  1.59200 56.34600 40.26000
N  4.72400 52.78500 41.93000
C  3.48600 53.13200 42.42900
C  2.71200 51.89000 42.79000
C  3.55900 50.86100 42.38500
C  4.78900 51.39500 41.89400
C  1.36500 51.81600 43.34100
C  3.58500 49.47700 42.34700
O  2.78800 48.60700 42.76800
C  4.90100 49.13800 41.55200
C  4.53300 48.56600 40.23600
O  3.83400 49.10000 39.39800
O  5.02800 47.32600 40.15000
C  4.60000 46.58100 39.02500
H  10.68900 52.84000 40.15300
H  7.14800 58.19300 41.06000
H  2.22200 54.83000 42.97000
H  8.02300 48.81000 40.80100
H  9.85800 50.54500 39.17800
H  10.72600 50.77900 41.78200
H  11.48600 49.90000 40.39700
H  10.47500 49.07400 41.52100
H  6.42900 49.37100 38.59100
H  7.78600 48.18800 38.65600
H  9.12200 49.52100 37.47000
H  8.11800 50.95900 37.60900
H  11.65100 54.35900 38.97700
H  12.17300 54.98500 40.49000
H  12.21500 56.07600 39.18200
H  8.22200 59.34000 39.52300
H  9.71300 60.20600 39.71300
H  8.85300 59.47800 41.15000
H  4.48600 58.19200 40.68500
H  3.03300 57.02900 43.11700
H  5.09000 59.77500 42.46400
H  5.90100 58.32500 43.16100
H  4.18400 58.77500 43.56800
H  2.22700 58.32400 41.01000
H  1.16900 57.48800 42.04700
H  1.98400 55.33000 40.29600
H  1.92900 56.83000 39.34300
H  0.50500 56.35000 40.33100
H  0.82500 52.71200 43.03600
H  1.36500 51.94800 44.42300
H  0.75500 50.95100 43.08100
H  5.44100 48.36600 42.10000
H  5.03200 46.97500 38.10500
H  3.53300 46.46100 38.84100
H  4.94200 45.54800 39.09100

