158

Mg 24.74600 0.67000 29.97700
C  26.94000 0.35700 32.85600
C  22.11600 0.76800 32.17300
C  22.95300 1.22000 27.33300
C  27.60800 0.37100 27.96400
N  24.59200 0.36600 32.26500
C  25.56900 0.40300 33.19900
C  24.98800 0.46700 34.58500
C  23.48600 0.18100 34.39400
C  23.31000 0.46300 32.84000
C  23.06500 -1.30200 34.66800
C  25.41200 1.70700 35.33000
C  24.69100 2.02800 36.62400
H  25.59900 2.03300 37.81100
N  22.78300 0.85500 29.77300
C  21.87300 0.92900 30.75200
C  20.56300 1.19700 30.13800
C  20.78600 1.22400 28.75500
C  22.21000 1.08300 28.53900
C  19.30200 1.12400 30.93400
C  19.78700 1.53000 27.69000
O  20.07500 1.55400 26.47400
C  18.30600 1.79900 27.91800
N  25.18100 0.60900 27.93100
C  24.26300 0.96300 26.97900
C  24.86900 1.13300 25.53700
C  26.35200 0.94100 25.82500
C  26.36900 0.59700 27.34800
C  24.38400 0.10000 24.57700
C  27.21700 2.16300 25.47400
C  26.98100 3.47200 26.24000
N  26.79900 0.34800 30.32100
C  27.83900 0.22800 29.37400
C  29.08600 -0.06700 30.11100
C  28.77000 0.06800 31.48000
C  27.40700 0.28900 31.53100
C  30.36700 -0.14000 29.41400
C  29.35400 0.06600 32.76200
O  30.53800 -0.02100 33.07300
C  28.21600 0.27900 33.68500
C  28.19900 -0.91000 34.57000
O  27.85000 -2.02000 34.22100
O  28.53400 -0.50900 35.80500
C  28.55100 -1.55600 36.85700
H  21.21900 0.85400 32.78900
H  22.34300 1.68900 26.55800
H  28.53500 0.40900 27.38700
H  25.43500 -0.34000 35.16500
H  22.89800 0.84100 35.03300
H  22.49900 -1.79800 33.88000
H  22.66300 -1.66400 35.61400
H  24.01300 -1.83900 34.62800
H  25.34900 2.55400 34.64700
H  26.46800 1.63700 35.59200
H  23.94400 1.26800 36.85100
H  24.22000 2.98800 36.41300
H  18.92400 2.13400 31.09700
H  19.32300 0.50200 31.82900
H  18.57700 0.56000 30.34800
H  17.91500 0.78700 28.01800
H  17.81500 2.35700 27.12000
H  18.12400 2.37600 28.82500
H  24.63200 2.12900 25.16500
H  26.84700 0.16300 25.24400
H  24.67100 0.61000 23.65700
H  23.30000 0.03200 24.66300
H  24.92300 -0.82000 24.80000
H  26.91300 2.46600 24.47200
H  28.29800 2.06400 25.38000
H  27.89500 3.60600 26.81800
H  26.15300 3.60200 26.93800
H  26.77600 4.30100 25.56300
H  30.36300 -0.82600 28.56700
H  30.92600 -0.72400 30.14600
H  30.88900 0.78800 29.18100
H  28.38100 1.17700 34.28100
H  28.40200 -2.58600 36.53400
H  27.79800 -1.38200 37.62600
H  29.58600 -1.43200 37.17300
Mg 47.00200 17.52400 28.50800
C  45.33800 16.81600 31.55100
C  49.59800 18.83900 30.31600
C  48.29400 18.32500 25.64800
C  44.25800 16.06600 26.82900
N  47.37900 17.91100 30.74200
C  46.56100 17.60000 31.76400
C  47.22300 17.96600 33.05700
C  48.42700 18.86000 32.56300
C  48.44800 18.54600 31.12000
C  48.35400 20.42200 32.78100
C  47.58100 16.77900 34.01400
C  47.27600 16.85000 35.52700
H  46.96700 18.13900 36.18300
N  48.82900 18.43800 28.06300
C  49.84200 18.75700 28.92100
C  50.99600 18.95300 28.14700
C  50.58700 19.02800 26.78700
C  49.17400 18.60200 26.75500
C  52.32600 19.24300 28.77300
C  51.44000 19.37300 25.54900
O  51.02700 19.28300 24.36100
C  52.83200 19.86400 25.73100
N  46.40500 17.20600 26.48000
C  47.10800 17.69500 25.45100
C  46.44600 17.38000 24.09000
C  45.18500 16.54700 24.46600
C  45.28100 16.53700 25.98800
C  46.17200 18.47300 23.06300
C  45.16400 15.09200 23.83100
C  44.69600 14.98400 22.37200
N  45.14600 16.72200 29.01500
C  44.18200 16.02900 28.21700
C  43.12600 15.48000 29.00400
C  43.54700 15.81700 30.31100
C  44.81300 16.48600 30.27200
C  42.02800 14.58100 28.60900
C  43.25800 15.59200 31.77000
O  42.29800 14.95300 32.32300
C  44.37100 16.35400 32.57200
C  43.66900 17.45400 33.33800
O  43.68100 18.64700 33.06600
O  43.16300 16.94600 34.50000
C  42.66400 17.99600 35.45300
H  50.43300 19.25100 30.88600
H  48.76400 18.63600 24.71300
H  43.45800 15.74400 26.15900
H  46.48900 18.58900 33.56800
H  49.29800 18.42000 33.04800
H  47.92300 20.87300 31.88700
H  49.33400 20.75100 33.12700
H  47.63900 20.49900 33.60000
H  48.64500 16.58400 33.87800
H  47.01200 15.93600 33.62200
H  48.14900 16.37100 35.97000
H  46.45100 16.20200 35.82100
H  52.20700 19.11300 29.84900
H  52.58600 20.29200 28.62900
H  53.07400 18.52400 28.43900
H  52.86000 20.77500 26.32800
H  53.13800 20.28700 24.77400
H  53.57200 19.10100 25.97500
H  47.12800 16.71800 23.55900
H  44.24100 16.97000 24.12300
H  46.40100 17.95600 22.13100
H  46.74900 19.38000 23.24400
H  45.09800 18.65700 23.07500
H  44.63100 14.37500 24.45600
H  46.13400 14.64100 24.03800
H  45.45900 14.43400 21.82000
H  44.59900 15.98900 21.96200
H  43.70900 14.55700 22.19500
H  41.92300 13.82200 29.38400
H  42.32300 14.22700 27.62100
H  41.11700 15.17500 28.54100
H  44.83100 15.78700 33.38100
H  42.54200 17.48500 36.40800
H  41.80100 18.58900 35.15200
H  43.45100 18.73200 35.61900

