158

Mg 0.46900 7.54900 26.71400
C  1.21500 9.91500 29.37700
C  0.67400 5.03100 28.95700
C  0.08500 5.65000 24.21300
C  1.22200 10.41900 24.52300
N  1.10900 7.53900 28.84200
C  1.07600 8.53000 29.79000
C  0.92000 8.00800 31.19500
C  1.07100 6.45000 30.99600
C  0.91600 6.31700 29.46800
C  2.47300 5.93500 31.43500
C  -0.31500 8.51500 31.88700
C  -0.46600 8.37800 33.44300
H  0.59500 7.56800 34.08600
N  0.42600 5.61400 26.61500
C  0.54200 4.70100 27.61200
C  0.38200 3.35500 27.05300
C  0.24400 3.45400 25.68000
C  0.24800 4.94600 25.43600
C  0.45600 2.06200 27.89500
C  0.02200 2.35500 24.61600
O  -0.06000 2.69100 23.37900
C  -0.15400 0.92600 24.99700
N  0.78800 7.95100 24.68900
C  0.42600 6.95100 23.82100
C  0.43800 7.39000 22.29100
C  0.46600 8.97900 22.48600
C  0.90600 9.13900 23.93800
C  1.70000 6.83000 21.47200
C  -0.84100 9.72900 22.21600
C  -0.86400 11.05800 21.50300
N  1.08100 9.84600 26.88100
C  1.33900 10.78300 25.92400
C  1.56000 12.11400 26.57100
C  1.48000 11.80600 27.93500
C  1.27500 10.38400 28.04100
C  1.88800 13.46100 26.00800
C  1.70100 12.38100 29.26900
O  1.93400 13.53800 29.67700
C  1.38400 11.19000 30.27000
C  2.45000 11.07000 31.27500
O  3.63600 10.75800 31.08800
O  1.97600 11.42500 32.49400
C  2.78900 10.98100 33.67300
H  0.75700 4.23100 29.69600
H  -0.24100 5.05500 23.35700
H  1.11900 11.35600 23.97200
H  1.71400 8.42100 31.81800
H  0.31100 5.95700 31.60300
H  2.42400 4.84600 31.40200
H  2.80700 6.13300 32.45300
H  3.20100 6.20100 30.66900
H  -1.22800 8.12500 31.43500
H  -0.48100 9.58700 31.78200
H  -1.41100 7.90000 33.69700
H  -0.56300 9.32900 33.96600
H  1.20900 1.39700 27.47200
H  -0.53900 1.63900 27.75900
H  0.62000 2.20100 28.96400
H  0.70900 0.68200 25.61600
H  -0.02400 0.35100 24.08000
H  -1.14100 0.84500 25.45200
H  -0.45300 7.03300 21.77400
H  1.16500 9.41000 21.76900
H  2.19200 7.65300 20.95300
H  1.38800 6.15400 20.67600
H  2.42900 6.32300 22.10500
H  -1.17500 9.98800 23.22100
H  -1.52800 9.01900 21.75400
H  0.06900 11.32600 21.00700
H  -1.14600 11.78100 22.26900
H  -1.64800 10.94500 20.75500
H  1.10500 13.74200 25.30500
H  2.86500 13.52100 25.52800
H  1.83400 14.19500 26.81200
H  0.40200 11.30100 30.72900
H  3.41800 10.11700 33.46000
H  2.10800 10.64200 34.45300
H  3.37400 11.79000 34.11000
Mg 6.07200 54.63300 41.02400
C  5.84900 51.05400 40.66800
C  9.17900 54.36700 39.43700
C  5.89300 57.90700 40.54100
C  2.70000 54.55900 41.97900
N  7.29700 52.86800 39.92200
C  7.01000 51.52400 39.95200
C  8.16700 50.70500 39.38400
C  9.35900 51.77500 39.19700
C  8.64900 53.09500 39.59300
C  10.72700 51.41600 39.82600
C  7.89700 49.94100 38.01900
C  7.03600 50.77000 37.05700
H  6.53800 50.00700 35.81000
N  7.37600 56.01400 40.29200
C  8.61100 55.66600 39.73900
C  9.39200 56.90600 39.68700
C  8.45100 57.96900 39.78700
C  7.16500 57.35300 40.22400
C  10.89400 56.98700 39.39600
C  8.74400 59.40800 39.53000
O  9.85600 59.69800 39.13700
C  7.76700 60.47400 39.72600
N  4.51800 56.00300 41.12400
C  4.70800 57.31500 40.93700
C  3.51900 58.17800 41.32700
C  2.44100 57.10500 41.69000
C  3.28300 55.78700 41.60600
C  3.86500 59.07900 42.54000
C  1.17800 56.99400 40.85000
C  0.08200 57.99100 41.37400
N  4.57700 53.19900 41.35200
C  3.27800 53.32500 41.77200
C  2.83300 52.05500 42.19800
C  3.82600 51.16300 41.81900
C  4.82500 51.88800 41.23700
C  1.58500 51.68800 42.95500
C  4.07700 49.75500 41.72300
O  3.55800 48.73400 42.17300
C  5.44700 49.64200 40.98800
C  5.25400 48.64300 39.91300
O  4.66500 48.75800 38.85100
O  5.98000 47.51600 40.30000
C  5.79100 46.37600 39.32700
H  10.14800 54.36800 38.93400
H  5.76100 58.99100 40.53200
H  1.76500 54.62800 42.53800
H  8.41500 49.88100 40.05300
H  9.62000 51.88200 38.14400
H  10.47300 50.62700 40.53500
H  11.18800 52.31600 40.23200
H  11.43700 51.06700 39.07700
H  7.46700 48.95500 38.19600
H  8.80800 49.70800 37.46800
H  7.72700 51.57600 36.80900
H  6.20600 51.23000 37.59300
H  11.25100 57.77300 40.06300
H  11.16200 57.34100 38.40100
H  11.41200 56.08500 39.72100
H  6.91100 60.23000 39.09600
H  8.27500 61.38100 39.39900
H  7.34300 60.58600 40.72300
H  3.33100 58.86200 40.50000
H  2.09800 57.19900 42.72000
H  3.21300 58.97100 43.40700
H  3.68500 60.09500 42.18900
H  4.88400 58.83500 42.84200
H  0.80000 56.01300 41.13600
H  1.31700 57.02200 39.76900
H  -0.80300 57.49200 41.76900
H  -0.17300 58.65500 40.54800
H  0.39500 58.57800 42.23800
H  0.91700 52.54700 42.89800
H  1.69300 51.41000 44.00300
H  1.02900 50.89800 42.45000
H  6.16500 49.20300 41.68000
H  6.06100 46.72400 38.33000
H  4.75900 46.03200 39.39400
H  6.53100 45.62000 39.59000

