158

Mg 47.34100 17.03400 27.84000
C  45.66800 16.87900 30.92400
C  49.66700 19.15700 29.41400
C  48.54800 17.94900 24.82600
C  44.66000 15.39500 26.30000
N  47.57700 17.92400 29.99800
C  46.84000 17.63400 31.06700
C  47.43700 18.20800 32.32000
C  48.55500 19.12300 31.75700
C  48.63900 18.75400 30.27700
C  48.30200 20.67400 31.95900
C  48.09000 17.11500 33.24400
C  47.83400 17.29700 34.74400
H  47.58800 18.72100 35.27000
N  49.02600 18.18200 27.24300
C  49.90200 18.86600 28.01300
C  50.93600 19.52300 27.13000
C  50.63200 19.13000 25.78300
C  49.37200 18.37500 25.91400
C  51.97700 20.42000 27.71100
C  51.37400 19.56100 24.48000
O  50.81100 19.31900 23.45600
C  52.69900 20.26300 24.61600
N  46.72400 16.67300 25.87000
C  47.38800 17.10000 24.82500
C  46.94700 16.48800 23.49500
C  45.70500 15.56600 24.00200
C  45.63600 15.89100 25.45400
C  46.59800 17.54500 22.39500
C  45.91400 14.03100 23.74000
C  46.65700 13.18900 24.72200
N  45.61200 16.13600 28.47300
C  44.61200 15.55400 27.71000
C  43.60700 15.07000 28.62700
C  43.94900 15.59300 29.88200
C  45.15500 16.28400 29.71600
C  42.44200 14.25100 28.33500
C  43.57400 15.56700 31.24100
O  42.63900 15.04500 31.79100
C  44.62100 16.52500 31.93000
C  43.83400 17.70900 32.42300
O  43.44800 18.61300 31.81000
O  43.72800 17.58700 33.76500
C  43.25200 18.85000 34.42400
H  50.21400 19.91500 29.97800
H  48.84400 18.23100 23.81300
H  43.80300 14.88800 25.85200
H  46.66600 18.74700 32.87100
H  49.46200 18.82600 32.28300
H  48.24000 21.16900 30.99000
H  49.10800 21.08200 32.56900
H  47.36500 20.91900 32.45900
H  49.17600 17.06600 33.17200
H  47.71200 16.15200 32.90100
H  48.73400 16.93200 35.23800
H  47.12800 16.55400 35.11400
H  52.10600 20.47800 28.79200
H  51.78700 21.40600 27.28600
H  52.91200 19.98100 27.36500
H  52.72600 21.27900 25.01200
H  53.17600 20.29100 23.63600
H  53.37400 19.64700 25.20900
H  47.73400 15.84500 23.10200
H  44.78500 15.91800 23.53400
H  45.61600 17.40600 21.94100
H  47.25300 17.47800 21.52600
H  46.57700 18.57300 22.75800
H  46.57700 14.00200 22.87500
H  45.01600 13.46100 23.50200
H  47.55000 12.93900 24.14800
H  45.99000 12.35800 24.95200
H  47.00000 13.74600 25.59300
H  41.96300 13.89000 29.24500
H  42.87000 13.42100 27.77300
H  41.83700 14.87700 27.67900
H  45.05700 16.02600 32.79600
H  42.22400 19.07200 34.13800
H  43.84800 19.73500 34.19900
H  43.27300 18.86500 35.51400
Mg 17.14400 51.99800 25.36600
C  18.94000 50.42000 27.98500
C  14.83800 53.09700 27.54500
C  15.29800 53.01200 22.77900
C  19.45800 50.37700 23.14800
N  16.92800 51.73800 27.56700
C  17.79200 51.06200 28.41400
C  17.43200 51.37700 29.89300
C  15.94600 52.09300 29.64000
C  15.89400 52.32900 28.16900
C  14.65600 51.36000 30.29000
C  18.43500 52.18800 30.67900
C  18.46000 52.04000 32.18900
H  17.37600 51.21900 32.86500
N  15.33200 52.97600 25.21200
C  14.56600 53.47500 26.17500
C  13.42400 54.19700 25.60100
C  13.51700 54.11000 24.15500
C  14.71800 53.31900 23.99100
C  12.31100 54.76600 26.56900
C  12.54600 54.74300 23.13300
O  12.66000 54.55800 21.94400
C  11.53800 55.65600 23.60900
N  17.44200 51.71300 23.33600
C  16.49400 52.27500 22.45600
C  16.86300 51.81900 20.98700
C  18.35500 51.28900 21.09800
C  18.45400 51.19500 22.58000
C  15.81900 50.71100 20.66900
C  19.44000 52.20000 20.50200
C  20.07600 53.33900 21.31000
N  18.90200 50.72500 25.46300
C  19.68900 50.16400 24.50000
C  20.80100 49.45200 25.08400
C  20.51300 49.48300 26.46600
C  19.33600 50.19700 26.60200
C  21.92900 48.72100 24.29300
C  20.96900 49.10100 27.82800
O  21.98200 48.50200 28.10300
C  19.99800 49.76800 28.77500
C  19.61500 48.80400 29.83400
O  18.80200 47.89100 29.74000
O  20.26500 49.06200 30.98300
C  19.79700 48.19600 32.10600
H  14.11100 53.45200 28.27800
H  14.72700 53.36600 21.91800
H  20.20700 49.92300 22.49700
H  17.34300 50.47500 30.49800
H  15.90400 53.05600 30.14900
H  14.18100 51.00900 29.37300
H  13.98800 51.99200 30.87500
H  15.04800 50.58200 30.94400
H  18.20000 53.23400 30.48300
H  19.35600 52.06700 30.10800
H  18.47700 53.03000 32.64400
H  19.39200 51.53800 32.44800
H  12.58200 55.78200 26.85600
H  12.35800 54.21800 27.50900
H  11.34300 54.65500 26.07800
H  10.78500 55.11900 24.18500
H  11.10600 56.16200 22.74600
H  12.03700 56.36500 24.26900
H  16.79200 52.69200 20.33800
H  18.33800 50.29800 20.64600
H  15.24000 50.96000 19.77900
H  15.14500 50.39600 21.46500
H  16.29500 49.78400 20.34900
H  19.11100 52.64200 19.56100
H  20.13100 51.47900 20.06500
H  21.10000 53.10000 21.59800
H  19.50200 53.61400 22.19500
H  20.20900 54.24700 20.72100
H  22.16200 49.15600 23.32100
H  21.74800 47.65900 24.12800
H  22.76900 48.94800 24.95000
H  20.59400 50.60100 29.14900
H  19.86000 48.80000 33.01200
H  20.40000 47.28800 32.11700
H  18.77900 47.81300 32.03300

