158

Mg 0.07500 8.43700 26.82000
C  0.79600 10.51200 29.61100
C  0.64400 5.70300 28.83300
C  -0.13900 6.54600 24.08500
C  0.08300 11.40600 24.93500
N  0.48500 8.21900 28.95100
C  0.56200 9.10500 29.97100
C  0.65900 8.51600 31.32500
C  0.95200 6.98500 31.03700
C  0.72500 6.95100 29.50300
C  2.36300 6.49900 31.27600
C  -0.72200 8.78000 31.93200
C  -0.90900 8.59400 33.47400
H  0.16700 8.25500 34.44300
N  0.12200 6.36600 26.54500
C  0.36400 5.41800 27.45000
C  0.32700 4.09700 26.83500
C  0.07300 4.34100 25.46000
C  0.11500 5.82600 25.26100
C  0.49100 2.87200 27.64200
C  -0.11700 3.32100 24.38700
O  -0.23300 3.79800 23.23700
C  -0.21400 1.78200 24.60400
N  0.20800 8.89100 24.87800
C  -0.14300 7.94900 23.92800
C  -0.28900 8.61600 22.54700
C  -0.56400 10.09400 22.88800
C  0.02300 10.14000 24.27800
C  0.87500 8.46800 21.57100
C  -2.04400 10.59300 22.92500
C  -2.45800 11.37900 21.65100
N  0.38400 10.50600 27.17000
C  0.40800 11.60300 26.27500
C  0.72900 12.85800 26.88600
C  0.90300 12.42300 28.22400
C  0.62500 11.07400 28.34100
C  0.94300 14.28800 26.25100
C  1.31800 12.87700 29.54000
O  1.73200 14.00100 29.83100
C  1.10600 11.67500 30.52100
C  2.37900 11.52800 31.27600
O  3.45500 11.00600 30.94100
O  2.13500 12.17000 32.45300
C  3.21100 12.06400 33.53500
H  0.97200 4.91900 29.51800
H  -0.35500 5.97700 23.17800
H  -0.04300 12.23700 24.23700
H  1.46200 9.00200 31.88000
H  0.14800 6.42200 31.51100
H  2.25300 5.63300 31.93000
H  2.94400 7.32400 31.68700
H  2.85800 6.11900 30.38300
H  -1.51900 8.30200 31.36300
H  -0.85400 9.85800 31.84100
H  -1.69400 7.85600 33.63500
H  -1.27100 9.55800 33.83300
H  0.98500 3.02000 28.60200
H  1.13800 2.19600 27.08100
H  -0.48700 2.42200 27.80900
H  0.81900 1.48400 24.78500
H  -0.44600 1.38500 23.61700
H  -1.05300 1.58200 25.27100
H  -1.22200 8.27700 22.09700
H  0.06400 10.72700 22.26000
H  1.22900 7.43700 21.55000
H  1.74200 9.03300 21.91100
H  0.55100 8.70600 20.55800
H  -2.34300 11.16200 23.80600
H  -2.58800 9.65700 23.05600
H  -1.66100 11.50700 20.91900
H  -2.74200 12.35400 22.04800
H  -3.26900 10.88200 21.11800
H  1.37700 14.95200 26.99900
H  0.06000 14.76100 25.82100
H  1.74600 14.24000 25.51600
H  0.31700 12.00700 31.19500
H  3.60800 13.04900 33.78100
H  4.00600 11.38200 33.23200
H  2.69300 11.68500 34.41600
Mg 7.65100 3.95100 27.73400
C  8.96600 2.58700 30.68200
C  6.08200 6.38200 29.65700
C  5.90000 4.93600 25.02000
C  8.91600 1.18500 25.87400
N  7.62500 4.48100 29.96800
C  8.20700 3.74700 30.98100
C  7.91700 4.38500 32.34500
C  7.04000 5.59100 31.97300
C  6.95500 5.54200 30.42000
C  5.68500 5.67600 32.61800
C  9.16700 4.77000 33.20000
C  9.08900 4.43700 34.66700
H  10.39200 4.55600 35.44300
N  6.31100 5.51700 27.39900
C  5.80300 6.39700 28.32500
C  5.04800 7.43700 27.61300
C  5.03000 7.10600 26.23200
C  5.73900 5.80700 26.14800
C  4.38200 8.63100 28.19700
C  4.30600 7.77700 25.06300
O  4.28900 7.26200 23.95300
C  3.59400 9.09600 25.17400
N  7.48200 3.22600 25.80700
C  6.56500 3.72400 24.92100
C  6.56800 2.99000 23.58500
C  7.53700 1.72800 23.84100
C  8.04900 2.08300 25.25700
C  5.14500 2.65200 23.06900
C  8.70400 1.56700 22.91400
C  8.84900 0.08400 22.28600
N  8.82200 2.34100 28.12800
C  9.22900 1.31800 27.31000
C  10.07800 0.47700 28.14200
C  10.00600 0.86800 29.43700
C  9.21000 2.04400 29.40300
C  10.80400 -0.75200 27.71100
C  10.38600 0.57600 30.81700
O  11.13400 -0.20300 31.35000
C  9.59500 1.64800 31.65000
C  8.72000 0.89300 32.51400
O  7.80000 0.21200 32.10100
O  9.07000 1.10300 33.83800
C  8.22300 0.32000 34.76400
H  5.55500 7.21800 30.12200
H  5.24600 5.36300 24.25700
H  9.26600 0.33400 25.28600
H  7.28900 3.72600 32.94500
H  7.63900 6.50100 32.00000
H  5.23900 6.65500 32.79700
H  5.82500 5.37200 33.65500
H  4.96300 5.13700 32.00500
H  9.29700 5.84500 33.07300
H  10.12100 4.30300 32.95300
H  8.68800 3.44000 34.84900
H  8.25900 5.00700 35.08500
H  4.89600 9.59100 28.15000
H  4.21900 8.47000 29.26300
H  3.39300 8.73800 27.75300
H  2.67900 8.98900 25.75600
H  3.35900 9.42400 24.16100
H  4.28300 9.80700 25.63000
H  6.96900 3.69300 22.85500
H  7.04600 0.75700 23.89200
H  4.99400 3.12500 22.09800
H  4.43600 2.98600 23.82600
H  5.11900 1.56200 23.05400
H  9.59200 1.81300 23.49700
H  8.75300 2.29800 22.10700
H  8.86500 0.04200 21.19700
H  8.09900 -0.60900 22.66700
H  9.81700 -0.34300 22.54500
H  10.40600 -1.24600 26.82400
H  10.73100 -1.63800 28.34100
H  11.86200 -0.52800 27.57400
H  10.34300 2.15400 32.26100
H  7.45600 0.92300 35.24900
H  8.85300 -0.09200 35.55200
H  7.61000 -0.44100 34.28100

