158

Mg 17.31400 -1.61500 28.30800
C  16.81200 0.74000 30.89800
C  19.12600 -3.51900 30.62800
C  18.53600 -3.60700 25.83000
C  16.48900 0.79300 25.98100
N  17.78700 -1.49300 30.64300
C  17.57300 -0.32500 31.42700
C  18.27600 -0.48100 32.75500
C  19.12900 -1.79200 32.61200
C  18.65100 -2.27600 31.24600
C  20.65100 -1.47000 32.60500
C  17.14000 -0.65300 33.75900
C  17.47000 -0.78300 35.22500
H  18.68700 -0.09900 35.81700
N  18.38200 -3.49200 28.30800
C  19.02400 -4.04600 29.32500
C  19.67900 -5.26400 28.93500
C  19.46200 -5.41900 27.49600
C  18.75500 -4.12900 27.14000
C  20.39800 -6.27400 29.84300
C  19.83800 -6.52700 26.37700
O  19.53000 -6.49800 25.20900
C  20.70700 -7.61000 26.84500
N  17.42600 -1.42000 26.12800
C  18.01700 -2.36000 25.34600
C  18.07600 -1.87300 23.93200
C  17.37400 -0.46800 23.92700
C  17.02200 -0.34600 25.42600
C  19.54900 -1.77400 23.45700
C  16.03600 -0.33100 23.06800
C  14.69700 -0.78400 23.63100
N  16.53900 0.24500 28.32100
C  16.22800 1.12600 27.34700
C  15.70000 2.38500 27.89200
C  15.85000 2.18300 29.30800
C  16.39900 0.91100 29.51700
C  15.18700 3.54500 27.10700
C  15.60200 2.82700 30.57900
O  14.99100 3.88000 30.79100
C  16.26300 1.88900 31.65100
C  17.25300 2.67200 32.37500
O  18.37000 2.69100 32.02000
O  16.66000 3.36400 33.42800
C  17.49500 4.28500 34.08500
H  19.66600 -4.16400 31.32500
H  19.03900 -4.23700 25.09300
H  16.52100 1.65300 25.31000
H  18.93800 0.38000 32.85000
H  18.91100 -2.60600 33.30400
H  21.30700 -2.28200 32.29200
H  20.95000 -1.10400 33.58700
H  20.69700 -0.53400 32.04900
H  16.61800 -1.57600 33.50500
H  16.50500 0.23300 33.76200
H  17.37100 -1.83100 35.50700
H  16.61800 -0.26600 35.66500
H  21.47200 -6.09400 29.78000
H  20.25500 -7.33400 29.63000
H  19.95600 -6.12000 30.82700
H  21.62200 -7.17100 27.24300
H  20.93200 -8.25600 25.99600
H  20.11600 -8.18200 27.56000
H  17.56700 -2.56300 23.25900
H  18.02100 0.39500 23.77200
H  19.76400 -0.78600 23.05100
H  19.71100 -2.54200 22.70100
H  20.32700 -1.99500 24.18800
H  16.36200 -0.72000 22.10300
H  16.00000 0.74600 22.90300
H  14.06100 0.08400 23.80000
H  14.79000 -1.27400 24.60100
H  14.16800 -1.43900 22.93900
H  14.60500 4.13700 27.81200
H  14.52000 3.31900 26.27500
H  16.02200 4.16800 26.78500
H  15.52100 1.49500 32.34500
H  18.06400 4.92500 33.41000
H  18.20000 3.78200 34.74800
H  16.93700 4.96500 34.72900
Mg 16.75900 52.40200 26.87200
C  18.68100 50.70700 29.26700
C  14.67900 53.41900 29.45100
C  14.70900 53.77600 24.41400
C  18.71000 51.08800 24.42400
N  16.47200 51.77100 29.00700
C  17.60600 51.28800 29.80800
C  17.42800 51.53800 31.36100
C  15.93200 51.92100 31.26300
C  15.71400 52.52600 29.85100
C  14.83500 50.85700 31.47300
C  18.45200 52.60100 31.95400
C  18.51100 52.67400 33.44700
H  17.43300 51.92600 34.22100
N  15.16400 53.59400 26.93500
C  14.44000 53.84000 28.06400
C  13.24800 54.74100 27.71000
C  13.25000 54.91100 26.30100
C  14.39300 54.03200 25.81400
C  12.33200 55.28800 28.81700
C  12.31800 55.77300 25.40200
O  12.40300 55.74600 24.18100
C  11.22400 56.68600 26.01200
N  16.67600 52.33300 24.70300
C  15.75800 52.96500 23.92300
C  16.11700 52.85700 22.38300
C  17.56300 52.33900 22.54700
C  17.63700 51.75600 23.95200
C  15.20200 51.94500 21.48300
C  18.78100 53.32600 22.32900
C  20.06100 52.74800 21.61300
N  18.32200 51.11600 26.81600
C  19.05800 50.68900 25.72000
C  20.21600 49.81900 26.13600
C  20.08600 49.83600 27.51200
C  18.97400 50.64600 27.87900
C  21.34500 49.26900 25.32300
C  20.64800 49.32000 28.78600
O  21.63000 48.59700 29.04200
C  19.79100 49.91600 29.90000
C  19.11400 48.88400 30.81900
O  18.31900 48.01300 30.45700
O  19.66700 49.03300 32.05500
C  19.32500 48.12200 33.12400
H  13.99400 53.69000 30.25700
H  14.12200 54.16500 23.57900
H  19.36800 50.66900 23.66000
H  17.40100 50.61500 31.94000
H  15.83500 52.76900 31.94200
H  14.00500 50.88500 30.76700
H  14.33000 50.98200 32.43000
H  15.17200 49.82000 31.47900
H  18.03100 53.56800 31.68000
H  19.42200 52.48000 31.47200
H  18.58300 53.74700 33.62600
H  19.46300 52.17700 33.63600
H  12.21400 56.36400 28.69000
H  12.69100 55.27600 29.84600
H  11.36900 54.77900 28.77900
H  10.55900 57.12000 25.26500
H  11.71700 57.52100 26.50900
H  10.72200 56.12700 26.80200
H  16.08400 53.86200 21.96200
H  17.81900 51.52600 21.86700
H  14.47400 51.36700 22.05400
H  15.75800 51.22900 20.87700
H  14.68500 52.68200 20.86900
H  19.19000 53.69100 23.27100
H  18.61900 54.11600 21.59700
H  19.99400 51.66700 21.49100
H  20.86000 53.00000 22.31100
H  20.30100 53.30600 20.70800
H  21.26900 49.23300 24.23600
H  21.54700 48.29400 25.76500
H  22.31000 49.74500 25.49700
H  20.41800 50.60100 30.47100
H  19.80600 47.15700 32.96600
H  18.25700 47.90400 33.15600
H  19.67500 48.47600 34.09400

