158

Mg 43.37500 5.07200 47.03500
C  40.93100 7.45900 46.96500
C  40.83000 2.63700 46.75800
C  45.68100 2.72100 46.58000
C  45.82000 7.52000 47.21100
N  41.09200 5.04100 46.79200
C  40.32100 6.16800 46.85300
C  38.90100 5.82100 46.88000
C  38.86200 4.26700 46.91600
C  40.34800 3.92900 46.81800
C  38.25000 3.62200 48.21000
C  38.10200 6.36000 45.67500
C  38.71200 6.09300 44.23100
H  38.94500 7.32600 43.23200
N  43.27600 2.98600 46.80200
C  42.13000 2.18600 46.73400
C  42.55200 0.79000 46.70800
C  43.99100 0.73900 46.70800
C  44.40400 2.16000 46.74700
C  41.63800 -0.47100 46.59400
C  44.87000 -0.52200 47.00500
O  44.45800 -1.64000 47.03600
C  46.35300 -0.37600 47.19300
N  45.51700 5.14200 47.09400
C  46.20400 4.03500 46.71500
C  47.76000 4.41900 46.42300
C  47.79800 5.82500 46.88200
C  46.30200 6.21700 47.08100
C  48.84500 3.52400 47.21000
C  48.63100 6.85300 45.97900
C  49.85600 7.43500 46.64900
N  43.37700 7.11300 47.14700
C  44.42600 7.96000 47.19100
C  43.88100 9.35400 47.06600
C  42.50200 9.15600 46.94600
C  42.27800 7.79000 47.10000
C  44.82800 10.54600 46.92900
C  41.36400 9.81500 46.85700
O  41.22100 11.03300 46.69300
C  40.21000 8.78800 46.86700
C  39.29200 9.00900 47.98000
O  39.53800 8.67000 49.14900
O  38.12200 9.63300 47.48800
C  37.14900 9.99200 48.59800
H  40.06900 1.86600 46.89800
H  46.44700 2.00200 46.28200
H  46.57600 8.30800 47.18300
H  38.36900 6.18400 47.75900
H  38.42100 3.96800 45.96500
H  38.86000 2.79700 48.58000
H  37.20400 3.43600 47.96600
H  38.22300 4.38500 48.98700
H  38.02000 7.43900 45.80600
H  37.12000 5.88900 45.67900
H  38.01200 5.47300 43.67100
H  39.62900 5.50900 44.30000
H  41.88500 -1.08000 45.72500
H  40.60900 -0.13100 46.47900
H  41.79600 -1.09700 47.47300
H  46.40500 0.31700 48.03300
H  46.84900 -0.01200 46.29400
H  46.68100 -1.34600 47.56800
H  47.90200 4.25600 45.35500
H  48.20300 5.83200 47.89400
H  49.30900 2.79400 46.54600
H  48.26600 2.94600 47.93000
H  49.67300 4.07200 47.65800
H  48.16600 7.81300 45.75800
H  48.94800 6.36900 45.05500
H  49.92900 8.51900 46.55300
H  50.79100 7.02800 46.26300
H  50.05100 7.14600 47.68100
H  45.64800 10.38900 46.22800
H  45.24900 10.78800 47.90500
H  44.19700 11.39100 46.65500
H  39.69000 8.92700 45.92000
H  36.80800 9.06700 49.06200
H  36.27600 10.46400 48.14600
H  37.69800 10.63200 49.28800
Mg 47.60200 25.38500 28.98800
C  48.40200 27.46900 31.72800
C  46.15700 23.12600 31.38700
C  47.34900 23.08300 26.61500
C  49.36400 27.45100 26.93500
N  47.55800 25.21800 31.29600
C  47.71000 26.32200 32.15200
C  47.09700 26.11200 33.51600
C  46.55400 24.60800 33.50200
C  46.75800 24.25000 31.93700
C  47.41400 23.66500 34.43400
C  45.94300 27.13100 33.91700
C  45.92300 27.72700 35.38200
H  46.87900 27.20500 36.48400
N  46.84300 23.39200 28.96300
C  46.26000 22.71100 30.01000
C  45.67100 21.48400 29.51900
C  45.99600 21.41500 28.11900
C  46.70300 22.66900 27.78400
C  45.02400 20.47600 30.26900
C  45.74100 20.30000 27.14400
O  46.15700 20.34100 25.95400
C  44.82400 19.09700 27.45100
N  48.41400 25.21500 27.09900
C  48.11800 24.23400 26.25100
C  48.65700 24.46000 24.89300
C  49.08100 25.92000 24.95600
C  48.99400 26.23800 26.42700
C  49.71900 23.40900 24.39100
C  48.24300 26.83700 24.05900
C  48.97100 27.72100 22.98100
N  48.71500 27.11800 29.24600
C  49.30100 27.89700 28.30700
C  49.85800 29.17900 28.88400
C  49.59100 29.00800 30.28700
C  48.85800 27.78200 30.36600
C  50.59900 30.14100 28.07500
C  49.63100 29.61100 31.61100
O  50.05200 30.71100 31.89300
C  48.92600 28.58800 32.53700
C  49.85500 28.19400 33.62100
O  50.49400 27.15500 33.78100
O  49.94900 29.28000 34.45200
C  50.77100 29.18200 35.67900
H  45.57800 22.48300 32.05300
H  47.27500 22.31800 25.83900
H  49.77600 28.10600 26.16400
H  47.83700 26.14100 34.31500
H  45.50300 24.50100 33.76900
H  46.80600 23.38700 35.29600
H  48.38400 24.04100 34.75900
H  47.58000 22.75500 33.85800
H  44.95700 26.70400 33.73100
H  46.04600 27.98800 33.25100
H  44.91300 27.81400 35.78000
H  46.22400 28.75300 35.17000
H  44.73700 20.63400 31.30900
H  45.47400 19.48800 30.36800
H  44.06600 20.31400 29.77600
H  45.25600 18.52700 28.27400
H  44.65100 18.54000 26.53000
H  43.91000 19.50200 27.88400
H  47.84200 24.38800 24.17200
H  50.11100 26.11100 24.65500
H  49.42700 22.81400 23.52600
H  49.91800 22.70800 25.20300
H  50.65900 23.87700 24.09900
H  47.64000 27.50000 24.67900
H  47.54300 26.31400 23.40800
H  48.57200 27.45300 22.00300
H  50.03500 27.56400 23.16000
H  48.81400 28.75200 23.29600
H  50.84900 29.73600 27.09400
H  51.45700 30.42100 28.68600
H  50.11700 31.11900 28.08600
H  48.10100 29.12000 33.00900
H  51.76500 28.78200 35.48000
H  50.24500 28.57800 36.42000
H  50.95700 30.16900 36.10100

