158

Mg 44.66900 3.95500 46.45900
C  43.06400 7.15800 46.24300
C  41.81900 2.51400 45.72900
C  46.44700 1.23700 46.09100
C  47.77700 5.87500 46.13000
N  42.68800 4.80800 45.98200
C  42.19000 6.06100 45.95700
C  40.67600 6.16100 45.68100
C  40.32200 4.60400 45.65000
C  41.69400 3.87100 45.88100
C  39.28500 4.20100 46.70200
C  40.28400 6.91500 44.37300
C  41.33200 6.92600 43.32100
H  40.76400 6.94100 41.80800
N  44.18800 2.13500 45.87500
C  42.89400 1.67200 45.68700
C  42.96900 0.33300 45.46300
C  44.24500 -0.11800 45.66200
C  45.02100 1.05300 45.96300
C  41.81900 -0.59800 45.09300
C  44.78600 -1.56100 45.50100
O  44.04600 -2.43500 45.12600
C  46.22900 -1.95500 45.69000
N  46.87300 3.64400 46.05400
C  47.27200 2.36200 46.21300
C  48.82400 2.30700 46.25200
C  49.27000 3.72900 46.03800
C  47.93000 4.49300 46.06200
C  49.33400 1.62800 47.50600
C  50.19800 4.05600 44.83700
C  49.50200 4.16000 43.42400
N  45.35000 6.01400 46.40300
C  46.62100 6.63100 46.22200
C  46.53700 8.05600 46.14500
C  45.17700 8.25700 46.29900
C  44.47300 7.03700 46.32000
C  47.73300 8.91200 46.05000
C  44.13800 9.26000 46.55200
O  44.26600 10.45700 46.78200
C  42.75400 8.57800 46.45600
C  41.90600 8.83700 47.61600
O  41.97000 8.29800 48.70700
O  40.90800 9.77200 47.27500
C  39.85900 10.03300 48.25600
H  40.91200 1.92200 45.59800
H  47.01200 0.30900 46.20400
H  48.76800 6.33600 46.12300
H  40.03700 6.58000 46.45800
H  39.87300 4.31500 44.70000
H  38.66500 5.07500 46.90200
H  39.64700 3.98600 47.70700
H  38.66000 3.37200 46.37000
H  39.71700 7.82900 44.55500
H  39.51500 6.35500 43.84100
H  41.94800 6.02700 43.34600
H  41.96300 7.80500 43.45100
H  41.74000 -1.51500 45.67600
H  41.83600 -0.82400 44.02700
H  40.88600 -0.06200 45.26800
H  46.56200 -2.98600 45.57000
H  46.40600 -1.69700 46.73500
H  46.81300 -1.40200 44.95400
H  49.01200 1.69800 45.36800
H  49.83500 4.09200 46.89600
H  49.30700 0.54200 47.41800
H  48.51500 1.69400 48.22200
H  50.29300 1.93400 47.92300
H  50.93200 3.25000 44.84400
H  50.79600 4.89800 45.18600
H  48.45600 3.85400 43.39300
H  49.91900 3.59700 42.58900
H  49.43800 5.20700 43.12700
H  48.21000 8.58400 45.12600
H  48.38800 8.82200 46.91700
H  47.44800 9.95500 45.91500
H  42.12800 8.92000 45.63100
H  39.55800 11.07600 48.35200
H  39.97200 9.59900 49.25000
H  38.98300 9.45700 47.95700
Mg -2.61800 34.14900 26.24200
C  -4.16100 32.75500 29.10000
C  -1.48400 36.66900 28.29200
C  -1.38100 35.67500 23.49800
C  -4.30700 31.83200 24.23700
N  -2.86900 34.69500 28.36300
C  -3.37900 33.89800 29.31800
C  -3.21600 34.41200 30.71600
C  -2.51700 35.75700 30.51400
C  -2.19900 35.68900 28.98100
C  -3.33200 37.02400 30.89700
C  -2.47000 33.24800 31.53300
C  -2.99900 32.81700 32.92700
H  -2.04200 32.66700 34.13900
N  -1.50900 35.86200 25.93200
C  -1.04300 36.71100 26.92500
C  -0.22300 37.70200 26.29500
C  -0.13200 37.31100 24.94700
C  -0.99200 36.20100 24.74800
C  0.27600 38.97500 26.93600
C  0.59100 38.11200 23.81800
O  0.57200 37.88300 22.63600
C  1.45800 39.36000 24.15800
N  -2.84300 33.78700 24.15200
C  -2.31300 34.65400 23.22100
C  -2.63100 34.10800 21.80300
C  -3.52900 32.89400 22.05800
C  -3.55400 32.78600 23.52900
C  -3.29900 35.04400 20.79700
C  -3.09100 31.65600 21.17100
C  -2.08800 30.67400 21.75300
N  -3.86500 32.54000 26.52900
C  -4.46200 31.69500 25.62700
C  -5.22600 30.72800 26.33300
C  -5.21100 31.15300 27.66200
C  -4.34500 32.25400 27.77500
C  -5.92600 29.60300 25.71800
C  -5.78700 30.92500 29.04400
O  -6.60700 30.13300 29.42200
C  -5.01000 31.83300 30.05400
C  -6.04500 32.60800 30.81100
O  -6.89500 33.33000 30.31000
O  -6.17900 32.14900 32.10800
C  -7.30500 32.63300 32.87800
H  -0.97700 37.41200 28.91200
H  -1.06900 36.23600 22.61400
H  -4.86800 31.16000 23.58400
H  -4.20000 34.48300 31.18000
H  -1.57400 35.93800 31.03000
H  -3.50600 37.66400 30.03200
H  -2.87400 37.64200 31.67000
H  -4.29900 36.66500 31.24900
H  -1.42700 33.54500 31.64500
H  -2.51200 32.33400 30.94100
H  -3.59100 31.90700 32.82300
H  -3.71300 33.59800 33.18800
H  -0.12300 39.85200 26.42700
H  1.35600 39.03600 26.80400
H  0.06800 39.22600 27.97600
H  2.00500 39.62100 23.25200
H  2.25400 39.17200 24.87900
H  0.84100 40.21200 24.44600
H  -1.64000 33.81400 21.45600
H  -4.58600 33.08600 21.87500
H  -3.70800 35.96000 21.22400
H  -3.94400 34.51300 20.09700
H  -2.44400 35.39900 20.22200
H  -2.57100 32.03600 20.29200
H  -3.98300 31.14200 20.81000
H  -2.51000 29.69800 21.99200
H  -1.69600 31.06600 22.69100
H  -1.18500 30.64100 21.14400
H  -5.42200 29.35300 24.78500
H  -6.95700 29.89100 25.50900
H  -6.02300 28.72300 26.35400
H  -4.56800 31.03400 30.64800
H  -7.93700 31.78600 33.14500
H  -8.00400 33.35800 32.46100
H  -6.88000 32.98000 33.81900

