158

Mg 35.20100 0.49200 29.46700
C  32.97500 1.37700 32.02200
C  37.74600 0.38600 31.72700
C  37.36200 -0.54700 27.04000
C  32.70200 0.76500 27.16200
N  35.26200 0.88500 31.53600
C  34.27300 1.18200 32.43600
C  34.74200 1.18600 33.81000
C  36.25500 1.04900 33.68800
C  36.44300 0.70000 32.17800
C  37.08800 2.31000 34.03200
C  34.12900 0.10200 34.72000
C  34.05800 0.31600 36.24900
H  34.93400 1.49400 36.80900
N  37.29700 -0.14100 29.45800
C  38.16500 0.02000 30.44600
C  39.49300 -0.38400 30.00500
C  39.35200 -0.66600 28.62100
C  37.93800 -0.49000 28.32900
C  40.68800 -0.27100 30.95000
C  40.41100 -1.14700 27.62900
O  40.13600 -1.21800 26.40400
C  41.71700 -1.47800 28.09700
N  34.97400 0.02400 27.36900
C  36.05800 -0.36900 26.59400
C  35.59400 -0.61200 25.15000
C  34.04700 -0.25800 25.22600
C  33.89800 0.28000 26.62200
C  36.45200 0.10300 24.09500
C  33.13700 -1.46200 24.84800
C  32.81600 -2.49600 25.94400
N  33.34900 1.18100 29.46100
C  32.40400 1.27300 28.48400
C  31.14300 1.69000 29.03300
C  31.26900 1.72600 30.39200
C  32.63300 1.39300 30.63800
C  29.84800 1.93000 28.25900
C  30.65700 1.93100 31.63600
O  29.53200 2.21100 32.02000
C  31.72600 1.71400 32.79800
C  31.79400 2.88500 33.62400
O  31.91400 4.00800 33.28000
O  31.55800 2.43300 34.94100
C  31.38500 3.51800 35.92700
H  38.55700 0.31000 32.45300
H  37.99000 -0.94700 26.24200
H  31.92200 0.88600 26.40700
H  34.51000 2.17700 34.20100
H  36.53200 0.25200 34.37800
H  36.71800 2.96700 34.81800
H  36.92500 2.81400 33.07900
H  38.13300 2.04800 34.19500
H  34.53200 -0.86900 34.43300
H  33.10300 -0.02000 34.37400
H  34.32100 -0.64200 36.69700
H  33.02500 0.55700 36.50000
H  41.60300 0.05400 30.45500
H  40.82100 -1.17700 31.54100
H  40.52600 0.47200 31.73000
H  41.61600 -2.19200 28.91400
H  42.34700 -0.59500 28.21400
H  42.24900 -1.98400 27.29100
H  35.81000 -1.67500 25.04800
H  33.80800 0.44600 24.42900
H  37.32800 -0.51900 23.91200
H  36.86600 1.06600 24.39400
H  35.80600 0.17500 23.22000
H  33.62100 -1.91300 23.98200
H  32.18700 -1.17100 24.39900
H  31.74200 -2.47200 26.12600
H  33.46300 -2.30600 26.80100
H  33.17200 -3.47500 25.62300
H  29.95500 1.61400 27.22100
H  29.68400 3.00700 28.24700
H  29.04800 1.37100 28.74300
H  31.36800 0.79700 33.26600
H  30.35900 3.74500 36.21900
H  32.02500 4.39800 35.85400
H  31.85500 3.10300 36.81900
Mg 46.44600 23.94700 28.19700
C  47.05400 26.12100 30.78100
C  45.86300 21.40300 30.42900
C  46.25300 21.88800 25.56400
C  47.19800 26.61900 26.03800
N  46.47000 23.78800 30.26700
C  46.69500 24.84000 31.21300
C  46.46700 24.33700 32.64300
C  46.32800 22.76000 32.44900
C  46.13800 22.65600 30.96700
C  47.64600 22.00000 32.86000
C  45.22900 25.03100 33.26700
C  45.61700 25.68700 34.68400
H  44.49700 25.89400 35.76700
N  46.08300 21.93600 28.02200
C  45.82100 21.04300 29.04000
C  45.44300 19.78900 28.47500
C  45.51500 19.90500 27.02500
C  45.95600 21.28300 26.82600
C  45.21300 18.58700 29.38400
C  45.27400 18.86700 25.98600
O  45.35800 19.20100 24.78200
C  45.02000 17.43300 26.32900
N  46.62200 24.19500 26.13900
C  46.48400 23.27000 25.27500
C  46.62000 23.72700 23.80300
C  46.47900 25.27400 23.97000
C  46.76400 25.38200 25.44800
C  47.93700 23.27000 23.11700
C  45.18100 25.91000 23.48700
C  43.99800 25.74800 24.34800
N  47.01500 25.97600 28.30900
C  47.38200 26.93000 27.39200
C  47.90800 28.11700 27.94200
C  47.80300 27.83200 29.31400
C  47.24500 26.54200 29.46900
C  48.40700 29.39300 27.25800
C  48.14500 28.40300 30.60400
O  48.65900 29.49500 30.89500
C  47.56300 27.30500 31.62100
C  48.65300 26.98100 32.63900
O  49.50500 26.09500 32.46700
O  48.47000 27.75100 33.77200
C  49.60100 27.52800 34.76000
H  45.79400 20.64100 31.20800
H  46.31400 21.23800 24.68900
H  47.44600 27.46100 25.38900
H  47.38000 24.57700 33.18700
H  45.45300 22.38300 32.97800
H  48.55200 22.59800 32.76500
H  47.76200 21.06200 32.31700
H  47.66600 21.67000 33.89800
H  44.41800 24.35200 33.52700
H  44.98000 25.75400 32.49000
H  46.09300 26.60800 34.34800
H  46.51600 25.23600 35.10400
H  44.23400 18.12500 29.25500
H  45.22800 18.73900 30.46300
H  45.97800 17.84200 29.16300
H  45.94100 16.95000 26.65500
H  44.87300 17.04000 25.32300
H  44.14600 17.27600 26.96000
H  45.79100 23.33800 23.21200
H  47.34900 25.71200 23.48200
H  48.77100 23.93200 23.34800
H  47.83200 23.01800 22.06200
H  48.35800 22.41900 23.65300
H  45.18800 25.53100 22.46500
H  45.55600 26.93200 23.43400
H  44.01800 26.59400 25.03500
H  44.06700 24.81200 24.90200
H  43.17000 25.82500 23.64400
H  48.35400 30.32600 27.81700
H  47.94400 29.58100 26.28900
H  49.41000 29.15300 26.90400
H  46.68500 27.69300 32.13700
H  49.72600 26.48100 35.03600
H  49.28100 27.98300 35.69700
H  50.53900 27.94100 34.38800

