158

Mg -1.64400 18.04700 27.12100
C  -1.99200 16.06200 30.10700
C  -2.12100 20.79500 29.09100
C  -1.76800 19.91400 24.28000
C  -1.22000 15.21000 25.27800
N  -1.71900 18.40100 29.38900
C  -1.95100 17.41700 30.37900
C  -2.16800 18.08500 31.69900
C  -2.50000 19.56300 31.37700
C  -2.04100 19.63400 29.85900
C  -3.86300 20.18300 31.68700
C  -1.04000 17.86700 32.83800
C  -1.50700 17.73300 34.34200
H  -0.45100 17.59400 35.47700
N  -1.91100 20.04700 26.74900
C  -2.00600 21.01500 27.69400
C  -1.89600 22.33200 27.02800
C  -1.66000 22.09600 25.62800
C  -1.66100 20.62300 25.49300
C  -2.08500 23.62100 27.81900
C  -1.37500 23.06500 24.48600
O  -1.06600 22.68900 23.35800
C  -1.33100 24.57000 24.79000
N  -1.69300 17.67000 25.08800
C  -1.73700 18.55500 24.03000
C  -1.44800 17.88900 22.67600
C  -0.98900 16.46200 23.10600
C  -1.30600 16.44700 24.55600
C  -2.75600 18.09100 21.75600
C  0.47400 16.14800 22.73400
C  1.60100 16.95200 23.35800
N  -1.70700 16.07900 27.57900
C  -1.51100 14.96900 26.67300
C  -1.64000 13.71900 27.38200
C  -1.74700 14.13400 28.73400
C  -1.77100 15.56200 28.80300
C  -1.40000 12.31000 26.88300
C  -1.94200 13.67800 30.10600
O  -2.04000 12.52000 30.46900
C  -2.14800 14.89000 31.00300
C  -1.27600 14.79200 32.21800
O  -0.01300 14.74800 32.18600
O  -2.03700 14.73900 33.30800
C  -1.37900 14.26700 34.53500
H  -2.33300 21.65900 29.72400
H  -1.82700 20.48400 23.35000
H  -0.75200 14.40000 24.71400
H  -3.07900 17.59200 32.03900
H  -1.76700 20.20500 31.86500
H  -4.35000 20.62400 30.81800
H  -3.84300 20.90600 32.50300
H  -4.59300 19.39100 31.85700
H  -0.36900 18.72400 32.77600
H  -0.44200 17.04900 32.43700
H  -2.23700 16.94500 34.52900
H  -2.09000 18.63900 34.50300
H  -2.10500 23.61500 28.90900
H  -2.82000 24.30100 27.38700
H  -1.21100 24.26600 27.73000
H  -0.93400 25.04900 23.89500
H  -0.77000 24.63300 25.72200
H  -2.37800 24.79500 24.99800
H  -0.54300 18.33000 22.26000
H  -1.57700 15.71800 22.56900
H  -3.54300 18.51700 22.37900
H  -3.09600 17.17900 21.26500
H  -2.57000 18.79700 20.94700
H  0.48700 16.34000 21.66100
H  0.62200 15.09100 22.95500
H  2.06600 16.35700 24.14400
H  1.20100 17.93900 23.58900
H  2.24100 17.02200 22.47800
H  -2.29000 11.68300 26.83300
H  -0.59100 11.85900 27.45900
H  -1.04400 12.43400 25.86100
H  -3.19800 14.84300 31.29000
H  -2.03400 14.57400 35.35000
H  -0.39000 14.70300 34.67800
H  -1.34500 13.17700 34.52600
Mg 17.44600 -0.81700 28.09100
C  16.44600 1.29000 30.83900
C  19.09800 -2.76600 30.10700
C  18.91100 -2.15400 25.24500
C  15.64700 1.48300 25.96700
N  17.85000 -0.63500 30.20600
C  17.29700 0.24300 31.19200
C  17.79600 -0.13900 32.55700
C  18.79400 -1.38600 32.26600
C  18.53800 -1.63700 30.77300
C  20.32000 -1.10200 32.49000
C  16.56700 -0.62700 33.51900
C  16.65700 -0.15800 35.01100
H  17.92600 0.52300 35.58700
N  18.70500 -2.34000 27.75000
C  19.20800 -3.08900 28.71300
C  19.96100 -4.20600 28.19400
C  19.87500 -4.03700 26.76400
C  19.12900 -2.80500 26.50300
C  20.60800 -5.29200 29.00000
C  20.38200 -4.92900 25.63700
O  20.13700 -4.72300 24.48400
C  21.08700 -6.22600 25.82300
N  17.21300 -0.52800 25.93500
C  18.05800 -1.05300 25.02600
C  17.81400 -0.42800 23.60000
C  16.75200 0.59100 23.88300
C  16.45200 0.47600 25.40100
C  19.19300 0.10600 22.90500
C  15.45100 0.47500 23.03900
C  15.18100 1.47200 21.89100
N  16.21600 1.00700 28.27400
C  15.53000 1.78500 27.33700
C  14.86600 2.89400 27.97600
C  15.14800 2.68500 29.42100
C  16.01900 1.58100 29.50900
C  14.16900 4.03300 27.45700
C  14.94400 3.21800 30.74000
O  14.32600 4.19400 31.22800
C  15.75100 2.32000 31.71600
C  16.72800 3.14000 32.48800
O  17.72100 3.61500 32.03700
O  16.17000 3.41600 33.75100
C  16.73900 4.44900 34.61100
H  19.60500 -3.40500 30.83200
H  19.49000 -2.48900 24.38200
H  15.13200 2.09700 25.22600
H  18.36300 0.66300 33.02900
H  18.57900 -2.25400 32.89000
H  20.92900 -1.13000 31.58700
H  20.72500 -1.69700 33.31000
H  20.47800 -0.08900 32.85900
H  16.66000 -1.71100 33.57000
H  15.62100 -0.30800 33.08100
H  16.41000 -1.00500 35.65100
H  15.84700 0.56000 35.14600
H  20.20500 -6.22400 28.60300
H  20.33300 -5.31400 30.05500
H  21.66600 -5.30600 28.74000
H  21.47800 -6.61600 24.88300
H  20.41300 -6.95700 26.27000
H  21.90700 -6.13800 26.53600
H  17.48300 -1.26100 22.97900
H  17.22800 1.55500 23.70300
H  20.08400 -0.03800 23.51700
H  19.04900 1.17900 22.77800
H  19.30600 -0.37600 21.93400
H  14.61100 0.62500 23.71800
H  15.35400 -0.55500 22.69600
H  16.11400 2.03000 21.81900
H  14.36700 2.18200 22.04200
H  15.17200 0.99700 20.91000
H  14.74500 4.48900 26.65200
H  14.08800 4.90500 28.10600
H  13.18300 3.71900 27.11600
H  15.17900 1.75800 32.45500
H  16.12900 4.45400 35.51500
H  16.85900 5.39100 34.07600
H  17.74900 4.14000 34.87700

