158

Mg -1.99100 17.38700 27.08000
C  -2.54200 15.31800 29.81400
C  -2.82100 20.12600 28.99700
C  -1.82800 19.37500 24.36800
C  -2.09900 14.54600 24.98400
N  -2.74800 17.56100 29.07500
C  -2.64800 16.67000 30.11900
C  -2.83700 17.31200 31.48600
C  -3.15400 18.77300 31.15000
C  -2.85800 18.85400 29.60700
C  -4.54200 19.26200 31.55100
C  -1.64300 17.19200 32.48700
C  -2.01600 16.41000 33.83200
H  -0.85500 16.22700 34.92100
N  -2.06900 19.52800 26.76500
C  -2.46700 20.40900 27.69000
C  -2.55000 21.75400 27.09400
C  -2.04100 21.56100 25.77700
C  -1.98500 20.10600 25.57400
C  -3.01200 23.01100 27.75700
C  -1.72400 22.49600 24.74700
O  -1.60100 22.16200 23.54900
C  -1.48400 23.95600 25.10400
N  -2.01700 17.03500 24.98100
C  -1.90700 17.98100 24.05300
C  -1.69700 17.51800 22.62000
C  -1.54200 15.97300 22.84400
C  -1.88000 15.78800 24.37600
C  -2.77900 18.00600 21.66200
C  -0.21400 15.38000 22.34600
C  1.08600 15.92200 22.95000
N  -2.16500 15.36900 27.36500
C  -2.27500 14.35300 26.37100
C  -2.61500 13.20700 27.03300
C  -2.57400 13.46200 28.37200
C  -2.33400 14.80900 28.54900
C  -2.97700 11.83800 26.38400
C  -2.75900 12.88200 29.67300
O  -3.15800 11.77400 29.99800
C  -2.56700 14.07200 30.69300
C  -1.29700 13.81100 31.50000
O  -0.21900 14.33900 31.25800
O  -1.46200 12.79800 32.39500
C  -0.35600 12.40500 33.28800
H  -2.95400 20.98500 29.65800
H  -1.70200 19.91700 23.42800
H  -2.07300 13.66000 24.34500
H  -3.60800 16.73400 31.99500
H  -2.45400 19.39300 31.71000
H  -5.03500 19.40400 30.59000
H  -4.67100 20.18400 32.11800
H  -5.12900 18.47400 32.02200
H  -1.25200 18.13700 32.86400
H  -0.70500 16.78500 32.11000
H  -2.39900 15.40900 33.63600
H  -2.80600 16.92200 34.38200
H  -3.67700 23.45600 27.01700
H  -2.18700 23.67200 28.02400
H  -3.58400 22.76200 28.65000
H  -0.71100 24.39600 24.47500
H  -1.20900 24.12600 26.14500
H  -2.37700 24.56300 24.95400
H  -0.79900 17.98400 22.21400
H  -2.35200 15.46100 22.32400
H  -3.68000 17.45800 21.93600
H  -2.58800 17.80500 20.60800
H  -2.95600 19.08200 21.67900
H  -0.23600 15.61300 21.28100
H  -0.33400 14.29900 22.41400
H  1.75000 16.47300 22.28400
H  1.64000 15.05200 23.30300
H  0.82100 16.72000 23.64300
H  -2.70200 10.96800 26.98100
H  -2.33200 11.56200 25.55000
H  -4.00800 11.88100 26.03100
H  -3.41400 14.03200 31.37800
H  -0.81200 12.00300 34.19200
H  0.38900 13.13100 33.61400
H  0.12500 11.46000 33.03300
Mg 6.78100 55.10300 41.83400
C  4.05700 52.78200 41.67200
C  8.65400 52.64900 40.40000
C  9.08400 57.42000 41.24800
C  4.43100 57.54600 42.82000
N  6.31000 52.93300 40.88300
C  5.14900 52.30400 40.87900
C  5.25200 51.01600 40.01000
C  6.78000 50.85600 39.88500
C  7.33900 52.17200 40.44100
C  7.43500 49.54300 40.58500
C  4.58600 51.12400 38.64500
C  4.00000 49.72100 38.12800
H  4.60100 49.20500 36.78400
N  8.72800 55.02900 41.04900
C  9.34400 53.91500 40.59400
C  10.67100 54.27000 40.14700
C  10.81300 55.64900 40.45300
C  9.51600 56.10200 40.93200
C  11.59500 53.38400 39.45900
C  12.02200 56.43800 40.12700
O  13.11300 55.93800 39.77300
C  12.09600 57.91700 40.36800
N  6.69300 57.27300 41.79900
C  7.81500 57.92900 41.61800
C  7.69200 59.38700 42.15800
C  6.20900 59.55300 42.47500
C  5.75200 58.05300 42.42200
C  8.71000 59.78200 43.25600
C  5.47400 60.48000 41.51800
C  5.87600 61.92100 41.63300
N  4.70100 55.16600 42.21400
C  3.95300 56.24700 42.68200
C  2.69600 55.78100 43.17500
C  2.69200 54.44100 42.78800
C  3.93300 54.09600 42.18300
C  1.58200 56.54700 43.78700
C  1.91300 53.20100 42.89500
O  0.83000 52.99200 43.48300
C  2.68500 52.10300 42.04800
C  1.78700 51.65400 40.87700
O  1.30200 52.37500 40.02600
O  1.65600 50.25600 40.90300
C  0.69800 49.70100 39.96000
H  9.16400 51.85400 39.85300
H  9.73900 58.28900 41.16100
H  3.80300 58.25500 43.36200
H  4.86200 50.22500 40.64900
H  7.05200 50.79500 38.83100
H  6.67200 48.86100 40.95900
H  8.08000 49.97800 41.34900
H  8.13200 49.02000 39.92900
H  5.30700 51.59700 37.97800
H  3.84100 51.91900 38.61100
H  2.92800 49.68900 37.93600
H  4.17400 48.87200 38.79000
H  11.09600 52.64600 38.83100
H  12.08900 52.86800 40.28200
H  12.27300 53.87500 38.76200
H  13.02200 58.37400 40.01900
H  11.89500 58.05100 41.43100
H  11.35900 58.57900 39.91400
H  7.90400 60.13900 41.39800
H  6.00300 59.87600 43.49600
H  8.25300 60.28100 44.11000
H  9.48800 60.41700 42.83400
H  9.23000 58.93400 43.70100
H  4.39400 60.45300 41.66600
H  5.49500 60.20300 40.46400
H  6.63900 62.01000 42.40700
H  5.04200 62.54400 41.95500
H  6.14100 62.22400 40.62000
H  1.90100 57.17700 44.61800
H  0.93800 55.82000 44.28200
H  0.90400 57.09200 43.13100
H  2.95600 51.31600 42.75200
H  -0.30300 49.88000 40.35100
H  0.80000 48.61700 39.90200
H  0.81600 50.18400 38.99000

