158

Mg 24.64600 -6.48500 46.47200
C  26.93300 -4.22800 45.20000
C  22.41600 -5.37500 44.16800
C  22.70600 -9.14800 47.29100
C  27.38100 -8.19700 48.08900
N  24.80600 -5.08900 44.82600
C  25.72100 -4.17400 44.55900
C  25.35000 -3.21500 43.40600
C  23.82600 -3.37200 43.33100
C  23.66300 -4.75100 44.14400
C  22.91400 -2.28500 43.88300
C  26.06400 -3.65600 42.12400
C  26.79200 -2.68600 41.24200
H  26.32700 -2.62500 39.81400
N  22.65300 -7.05500 45.92100
C  21.91600 -6.44800 44.93100
C  20.67800 -7.20200 44.81000
C  20.74000 -8.26600 45.70100
C  22.05300 -8.17600 46.37200
C  19.53700 -6.92800 43.78700
C  19.73100 -9.33100 45.77400
O  18.71900 -9.25700 45.11900
C  19.85600 -10.43900 46.78900
N  25.07900 -8.50400 47.39900
C  24.04600 -9.33000 47.67800
C  24.49500 -10.57700 48.42400
C  25.99300 -10.26900 48.71800
C  26.14900 -8.87500 48.09400
C  23.66100 -11.03900 49.72500
C  27.04500 -11.33200 48.13000
C  27.52000 -12.41600 49.15100
N  26.74200 -6.28000 46.62900
C  27.68000 -6.98500 47.42100
C  28.92000 -6.20700 47.43900
C  28.68300 -5.08800 46.59400
C  27.35400 -5.23100 46.07100
C  30.13700 -6.83000 48.13400
C  29.29000 -4.01200 45.94100
O  30.46100 -3.54300 46.00400
C  28.23100 -3.36500 44.97900
C  28.06700 -1.92500 45.23200
O  28.42700 -0.97500 44.47700
O  27.36300 -1.75100 46.31200
C  27.19200 -0.39200 46.82200
H  21.72900 -4.84000 43.51000
H  22.22800 -10.09600 47.54600
H  28.13900 -8.64300 48.73700
H  25.73900 -2.21800 43.61500
H  23.40900 -3.69700 42.37800
H  23.59100 -1.57500 44.35800
H  22.27200 -2.62800 44.69400
H  22.27400 -2.00600 43.04600
H  25.42100 -4.18700 41.42200
H  26.78800 -4.39400 42.47000
H  27.85100 -2.84700 41.43900
H  26.40900 -1.74000 41.62600
H  19.73000 -6.13300 43.06600
H  18.55500 -6.63800 44.16000
H  19.28700 -7.80600 43.19100
H  20.15500 -10.07000 47.77100
H  20.73600 -10.89100 46.33100
H  19.16600 -11.28300 46.80400
H  24.45700 -11.46400 47.79100
H  26.12600 -10.18700 49.79700
H  23.38200 -10.11800 50.23700
H  24.23800 -11.61500 50.44800
H  22.89800 -11.69600 49.30800
H  27.89300 -10.78700 47.71500
H  26.67700 -11.88300 47.26400
H  27.12800 -12.48200 50.16500
H  28.61000 -12.38500 49.16500
H  27.28200 -13.36500 48.67100
H  30.89500 -6.04600 48.14400
H  30.42500 -7.70500 47.55100
H  29.93000 -6.98900 49.19200
H  28.50200 -3.36500 43.92300
H  27.51600 0.40200 46.15000
H  27.59700 -0.27500 47.82800
H  26.12500 -0.17000 46.84400
Mg 47.43000 34.19900 26.65500
C  45.59400 32.93700 29.40900
C  47.78200 37.16100 28.37400
C  48.51800 35.57900 23.73900
C  46.27700 31.37300 24.75100
N  46.84800 34.87000 28.68500
C  46.19400 34.19900 29.58600
C  46.25800 34.94500 30.89700
C  46.69600 36.39000 30.51900
C  47.04500 36.17400 29.09100
C  45.76100 37.57200 30.82100
C  47.30200 34.33600 31.96000
C  46.99700 34.48100 33.39900
H  46.18000 35.65000 33.92900
N  48.21200 36.00100 26.17000
C  48.25000 37.10000 27.00000
C  49.07700 38.13100 26.41100
C  49.31100 37.71700 25.05400
C  48.64700 36.36500 24.95200
C  49.67200 39.32500 27.10300
C  50.14500 38.39400 23.93300
O  50.46800 37.78200 22.94800
C  50.57500 39.84700 24.18000
N  47.32300 33.60800 24.51400
C  47.99400 34.33400 23.58000
C  47.93700 33.62600 22.25100
C  47.39300 32.22200 22.58500
C  46.93800 32.40400 24.05600
C  47.14200 34.34800 21.08100
C  48.41000 31.01400 22.39700
C  49.47900 30.76200 23.46400
N  46.39500 32.43500 27.01700
C  46.06500 31.38400 26.15200
C  45.46500 30.39500 26.88500
C  45.11000 31.01100 28.15900
C  45.73900 32.24300 28.16000
C  45.16900 29.02200 26.37800
C  44.41700 30.80300 29.41400
O  43.75000 29.85300 29.88600
C  44.66600 32.03700 30.28900
C  45.29200 31.56900 31.47600
O  46.43500 31.14300 31.57100
O  44.39400 31.58900 32.54500
C  44.74800 30.89100 33.81400
H  47.87100 38.08700 28.94400
H  49.01700 35.99700 22.86100
H  45.87800 30.49500 24.23900
H  45.25400 34.93200 31.32100
H  47.65600 36.73300 30.90700
H  45.88500 38.31400 30.03200
H  46.08600 38.11400 31.71000
H  44.70900 37.29300 30.87700
H  48.27600 34.71800 31.65500
H  47.39600 33.30200 31.63100
H  47.91700 34.54200 33.98100
H  46.61200 33.51300 33.72100
H  50.73600 39.43300 26.89400
H  49.51100 39.20700 28.17400
H  49.18700 40.28000 26.90200
H  49.71700 40.43900 24.49800
H  50.97700 40.04000 23.18600
H  51.44300 39.95900 24.82900
H  49.00500 33.59600 22.03800
H  46.45000 31.92500 22.12600
H  47.70500 34.28300 20.15000
H  46.92300 35.37500 21.37600
H  46.18500 33.83300 20.99700
H  48.98800 31.10700 21.47700
H  47.85200 30.09300 22.22900
H  50.36300 30.48600 22.88900
H  49.10400 29.87800 23.98000
H  49.67600 31.65400 24.05900
H  44.17700 28.95900 25.92900
H  45.16600 28.40600 27.27700
H  45.99100 28.62100 25.78500
H  43.71700 32.48000 30.59100
H  45.77100 31.15000 34.08800
H  44.60100 29.82500 33.64200
H  44.01200 31.40600 34.43000

