158

Mg 30.01200 57.89800 40.18900
C  27.60000 55.79500 38.94900
C  32.51700 56.02200 39.08500
C  32.11200 60.64500 40.86700
C  27.28400 60.31300 40.90500
N  29.98600 56.06100 39.21200
C  28.93700 55.36500 38.75400
C  29.35200 53.92800 38.30300
C  30.88200 53.97500 38.51200
C  31.20500 55.45500 38.87600
C  31.61000 52.93300 39.45100
C  28.98100 53.53700 36.79600
C  28.86100 54.68400 35.80500
H  27.86600 54.55600 34.65400
N  32.04500 58.20600 40.14000
C  32.91100 57.28000 39.60500
C  34.23400 57.74000 39.85900
C  34.16900 59.08100 40.29000
C  32.70100 59.38400 40.42500
C  35.47000 56.95300 39.59200
C  35.43000 60.07700 40.44800
O  36.57500 59.79500 40.12500
C  35.24100 61.47600 41.07900
N  29.73000 60.22000 40.73400
C  30.80200 61.01000 41.06500
C  30.29800 62.43400 41.61100
C  28.79200 62.12600 41.72900
C  28.53000 60.78800 41.07200
C  30.96700 63.03900 42.88000
C  27.90200 63.30000 41.40100
C  27.19200 63.89300 42.61800
N  27.88400 58.04400 40.02100
C  26.94100 59.03400 40.38400
C  25.64000 58.58900 40.00900
C  25.84200 57.33600 39.41000
C  27.22300 57.06200 39.49000
C  24.37100 59.40300 40.08100
C  25.16600 56.24400 38.75200
O  24.02500 56.15200 38.41800
C  26.29800 55.15800 38.50800
C  25.88400 53.99900 39.26600
O  26.25300 53.61600 40.42100
O  24.85400 53.38600 38.59500
C  23.96000 52.45400 39.31300
H  33.37200 55.38800 38.84300
H  32.71500 61.44900 41.29400
H  26.44000 60.95900 41.15700
H  28.87000 53.29900 39.05200
H  31.37200 53.94200 37.53900
H  30.88800 52.18900 39.78700
H  32.12000 53.47700 40.24600
H  32.41400 52.45800 38.88800
H  28.06300 52.95200 36.86400
H  29.77700 52.86300 36.48100
H  29.80800 54.95800 35.33800
H  28.57400 55.59100 36.33600
H  35.27800 55.88400 39.49100
H  36.36800 57.12500 40.18400
H  35.63400 57.18000 38.53800
H  36.20600 61.90300 41.35100
H  34.76800 61.34100 42.05100
H  34.81100 62.13900 40.32800
H  30.40000 63.13900 40.78600
H  28.75100 61.88900 42.79200
H  31.74500 62.39800 43.29500
H  30.24000 63.24100 43.66600
H  31.49900 63.97000 42.68300
H  27.15800 63.09000 40.63300
H  28.49200 64.13400 41.02200
H  27.82300 64.55400 43.21100
H  26.83300 63.18500 43.36500
H  26.35000 64.49100 42.26900
H  24.48200 60.11800 40.89600
H  23.54600 58.71700 40.27200
H  24.19700 59.97600 39.17000
H  26.24500 55.04200 37.42500
H  23.56800 51.82000 38.51900
H  23.20000 53.10100 39.75100
H  24.50900 51.84800 40.03400
Mg 10.11500 48.24100 25.38000
C  7.94200 48.64600 27.92500
C  12.73300 49.14400 27.44800
C  12.22400 47.65400 22.76900
C  7.45300 47.76600 23.05000
N  10.28300 48.66900 27.45400
C  9.25300 48.62400 28.38500
C  9.78800 48.63900 29.84100
C  11.26100 49.22900 29.56600
C  11.50800 49.02300 28.08600
C  11.57400 50.67400 30.00900
C  9.64000 47.23000 30.53900
C  10.40000 47.10300 31.83600
H  9.59600 46.61500 33.04600
N  12.18700 48.38100 25.14100
C  13.03400 48.71700 26.13300
C  14.42300 48.67600 25.61500
C  14.28800 48.12800 24.29100
C  12.85900 48.01900 24.01900
C  15.72000 48.96000 26.39300
C  15.36100 47.56700 23.36200
O  15.21300 46.95300 22.31600
C  16.74900 47.76200 23.71500
N  9.86600 47.83400 23.16300
C  10.90300 47.67000 22.31400
C  10.44800 47.10200 20.97500
C  8.94500 46.90100 21.22300
C  8.70400 47.55400 22.55600
C  10.74000 47.90200 19.72600
C  8.38900 45.47200 21.11700
C  8.82700 44.46400 22.26100
N  8.12100 48.46100 25.41300
C  7.14800 48.22100 24.45200
C  5.80900 48.36200 24.97300
C  6.07900 48.61600 26.36100
C  7.48500 48.60300 26.55300
C  4.47000 48.23000 24.27400
C  5.53300 48.76300 27.65700
O  4.37800 48.88100 28.01000
C  6.65100 48.72100 28.73100
C  6.24200 47.51700 29.61500
O  6.18600 46.37300 29.19400
O  5.96300 47.91700 30.93900
C  5.69200 46.83600 31.85800
H  13.51000 49.43200 28.16000
H  12.90900 47.42700 21.95000
H  6.66200 47.55900 22.32600
H  9.14700 49.29000 30.43600
H  11.96500 48.67000 30.18300
H  11.92400 51.33700 29.21800
H  12.22300 50.66100 30.88500
H  10.65000 51.19000 30.27100
H  10.05300 46.48000 29.86500
H  8.56800 47.06400 30.64500
H  10.76300 48.10300 32.07100
H  11.19600 46.40000 31.59000
H  15.58300 49.29600 27.42100
H  16.30200 49.77400 25.96200
H  16.33000 48.05700 26.40500
H  16.82700 48.78600 24.07900
H  17.39700 47.73600 22.84000
H  17.06000 47.05800 24.48700
H  10.90900 46.13200 20.78900
H  8.32500 47.46600 20.52700
H  11.36900 48.68500 20.15000
H  9.87300 48.47300 19.39300
H  11.31500 47.38200 18.95900
H  8.59800 45.27600 20.06500
H  7.30700 45.57200 21.20600
H  7.90100 43.98200 22.57600
H  9.39300 45.00600 23.01800
H  9.43500 43.72400 21.74000
H  4.12600 47.19800 24.21200
H  4.56300 48.72800 23.30900
H  3.64800 48.75600 24.75800
H  6.64600 49.61900 29.34900
H  6.06800 47.09800 32.84700
H  6.11500 45.87800 31.55500
H  4.61300 46.68600 31.88300

