158

Mg 0.69500 43.77300 26.09000
C  2.79300 43.32000 28.69400
C  -1.86100 42.40900 27.92100
C  -1.20600 43.64500 23.23300
C  3.56400 44.54300 24.06700
N  0.47300 43.00000 28.08600
C  1.48900 43.00900 28.98500
C  0.89700 42.67600 30.40800
C  -0.58100 42.19200 30.04300
C  -0.66400 42.43000 28.52500
C  -0.92700 40.72000 30.55700
C  0.95200 43.86800 31.39100
C  0.58700 43.54300 32.87800
H  0.40400 42.14200 33.39200
N  -1.32700 43.24800 25.66900
C  -2.22900 42.67300 26.57800
C  -3.56200 42.46200 25.96800
C  -3.37700 42.86700 24.56400
C  -1.88900 43.28400 24.42900
C  -4.77300 41.91400 26.71700
C  -4.33800 42.87500 23.43300
O  -4.08200 43.28100 22.25500
C  -5.74800 42.56600 23.63600
N  1.19000 43.75000 23.91900
C  0.14000 43.88800 22.99000
C  0.63500 44.32800 21.62700
C  2.06400 44.73500 21.99100
C  2.31400 44.29000 23.45400
C  0.51300 43.19700 20.54000
C  2.32100 46.21300 21.77100
C  1.68900 47.20300 22.74600
N  2.86200 43.87800 26.28700
C  3.84500 44.25300 25.39900
C  5.07200 44.29500 26.09100
C  4.77500 43.92400 27.42100
C  3.37800 43.71100 27.46300
C  6.37400 44.68900 25.52000
C  5.27500 43.64900 28.71800
O  6.38800 43.65900 29.11600
C  4.04000 43.28500 29.64200
C  4.32500 41.95600 30.22600
O  4.21000 40.90200 29.64600
O  4.76800 42.11500 31.52600
C  4.80000 40.73200 32.15400
H  -2.61000 41.87000 28.50500
H  -1.82900 43.75500 22.34300
H  4.39800 45.01000 23.54100
H  1.53500 41.92900 30.88000
H  -1.16000 42.94000 30.58400
H  -1.75200 40.53700 31.24600
H  -0.00500 40.40500 31.04600
H  -1.12000 40.07100 29.70200
H  0.19500 44.54900 30.99900
H  1.90900 44.37900 31.28600
H  -0.28600 44.11000 33.19900
H  1.48200 43.88400 33.39900
H  -5.09600 41.01200 26.19600
H  -5.54300 42.67900 26.62400
H  -4.53400 41.59600 27.73200
H  -6.26500 42.59100 22.67700
H  -6.22200 43.29300 24.29500
H  -5.75000 41.58600 24.11300
H  0.04900 45.17800 21.28000
H  2.68500 44.14300 21.31800
H  -0.54100 43.10400 20.28100
H  1.03200 42.29300 20.85600
H  0.93500 43.65500 19.64500
H  1.99000 46.34500 20.74100
H  3.40900 46.25400 21.82700
H  0.75900 46.80800 23.15300
H  1.49000 48.15100 22.24500
H  2.42300 47.48100 23.50300
H  7.12900 44.47700 26.27600
H  6.52800 45.74400 25.29700
H  6.49100 44.03900 24.65200
H  4.06400 44.00300 30.46300
H  5.74400 40.21600 31.97500
H  3.92200 40.11400 31.96900
H  4.78900 41.04200 33.19900
Mg -12.07700 16.03700 42.31000
C  -8.71400 16.53700 42.50600
C  -12.60600 19.26000 41.79600
C  -15.29900 15.18700 41.16400
C  -11.43900 12.44800 42.33600
N  -10.70500 17.66800 41.71900
C  -9.41100 17.70700 42.15300
C  -8.89200 19.12500 42.21500
C  -10.23800 19.95100 42.38400
C  -11.23100 18.90400 41.88500
C  -10.56400 20.28400 43.84800
C  -8.12600 19.61100 40.93200
C  -6.66900 19.93700 41.16000
H  -5.68600 19.14400 40.20600
N  -13.70100 17.10900 41.54100
C  -13.71700 18.40400 41.52200
C  -15.03100 18.94400 41.19100
C  -15.83100 17.81000 40.87500
C  -14.96000 16.59000 41.21300
C  -15.43300 20.43600 41.10300
C  -17.26500 17.88200 40.44700
O  -17.83400 18.99900 40.29500
C  -18.02100 16.63300 40.25700
N  -13.20000 14.14100 41.66000
C  -14.47700 14.10200 41.25400
C  -15.00100 12.65300 41.08000
C  -13.73100 11.82400 41.31700
C  -12.73500 12.82100 41.91700
C  -16.27800 12.36500 41.89500
C  -13.24100 11.23000 39.93200
C  -13.38700 9.69300 39.80900
N  -10.42200 14.68400 42.34900
C  -10.33500 13.28600 42.50300
C  -8.96000 12.92900 42.65200
C  -8.29600 14.16500 42.76700
C  -9.22100 15.22400 42.49900
C  -8.31300 11.66400 42.99300
C  -6.98200 14.72300 43.04000
O  -5.98300 14.17200 43.37000
C  -7.20500 16.32000 42.88100
C  -6.89100 17.01400 44.22600
O  -7.39800 16.78300 45.31800
O  -5.89800 17.96200 44.02400
C  -5.20200 18.47500 45.21000
H  -12.69300 20.34300 41.91100
H  -16.29600 14.91800 40.80600
H  -11.35800 11.37800 42.53800
H  -8.35000 19.26200 43.15100
H  -10.15900 20.90100 41.85600
H  -9.61000 20.38400 44.36600
H  -11.21200 19.55000 44.32600
H  -10.95000 21.30200 43.79800
H  -8.65800 20.47000 40.52200
H  -8.35300 18.89900 40.13800
H  -6.43400 19.55400 42.15300
H  -6.53400 21.01800 41.12400
H  -16.35400 20.64300 41.64700
H  -15.60900 20.71200 40.06300
H  -14.62600 21.10700 41.39700
H  -19.01500 16.94500 39.93700
H  -18.00900 16.12300 41.22000
H  -17.50200 16.05900 39.48900
H  -15.45300 12.70800 40.09000
H  -13.91400 11.00300 42.01000
H  -17.07800 11.98800 41.25700
H  -16.60400 13.15000 42.57700
H  -16.06300 11.50300 42.52600
H  -12.18600 11.50200 39.90600
H  -13.84900 11.59600 39.10400
H  -12.41300 9.20600 39.84500
H  -13.82400 9.50300 38.82800
H  -14.03500 9.15800 40.50400
H  -8.38000 11.42900 44.05500
H  -7.23300 11.64900 42.85000
H  -8.86600 10.91600 42.42500
H  -6.55800 16.76500 42.12400
H  -5.51500 19.51000 45.34800
H  -4.14300 18.39200 44.96300
H  -5.34800 17.85300 46.09200

