158

Mg 2.40300 -2.12100 44.73700
C  5.83100 -1.57500 44.28900
C  1.77500 0.43700 42.52800
C  -0.80300 -3.00100 44.80300
C  3.21600 -5.02000 46.51300
N  3.67000 -0.77400 43.50400
C  5.09200 -0.68300 43.48200
C  5.52700 0.30600 42.39300
C  4.24000 1.15600 42.07800
C  3.14900 0.16800 42.74100
C  4.03000 2.56300 42.72200
C  6.22800 -0.25700 41.09300
C  7.68000 0.18600 40.86800
H  8.06200 0.70400 39.42800
N  0.68100 -1.19900 43.98800
C  0.64000 -0.19900 43.10100
C  -0.71600 0.20400 42.94100
C  -1.54400 -0.75200 43.63900
C  -0.56200 -1.70800 44.22300
C  -1.13900 1.39000 42.05300
C  -3.05900 -0.84900 43.63900
O  -3.73900 -0.13400 42.97000
C  -3.82800 -1.84300 44.54700
N  1.41700 -3.92800 45.35800
C  0.05200 -3.96400 45.39900
C  -0.39200 -5.36200 45.75100
C  0.78300 -5.89500 46.53000
C  1.92300 -4.83000 46.10300
C  -1.78700 -5.37100 46.52800
C  1.13600 -7.37900 46.08000
C  1.49400 -8.31900 47.24300
N  4.07100 -2.97000 45.44300
C  4.28500 -4.13400 46.16800
C  5.69400 -4.39500 46.41700
C  6.32600 -3.35100 45.72300
C  5.31600 -2.61100 45.10600
C  6.31400 -5.54400 47.28000
C  7.62800 -2.79500 45.38600
O  8.77000 -3.27300 45.50400
C  7.36200 -1.65500 44.31500
C  8.05100 -0.37400 44.76700
O  9.13000 -0.02900 44.37600
O  7.18700 0.29300 45.58900
C  7.52900 1.69300 45.87900
H  1.63500 1.27600 41.84400
H  -1.84900 -3.26200 44.63000
H  3.60400 -5.84900 47.10900
H  6.26700 0.96100 42.85400
H  3.97400 1.28800 41.02900
H  5.03300 2.97100 42.84900
H  3.47600 2.60000 43.66000
H  3.63900 3.27700 41.99700
H  5.73900 0.06100 40.17300
H  6.21800 -1.34500 41.02500
H  8.30800 -0.70100 40.95100
H  8.01500 0.79900 41.70500
H  -0.38700 1.57500 41.28600
H  -1.12700 2.30200 42.65000
H  -2.06600 1.20700 41.50800
H  -4.88300 -1.57100 44.50100
H  -3.53900 -1.66000 45.58200
H  -3.73900 -2.92000 44.40100
H  -0.53900 -5.94800 44.84400
H  0.62300 -5.81600 47.60600
H  -1.65400 -5.84100 47.50200
H  -2.58100 -5.84000 45.94600
H  -2.09500 -4.37100 46.83200
H  2.00400 -7.38200 45.42000
H  0.27500 -7.69400 45.49000
H  0.76300 -9.10600 47.05800
H  1.31600 -7.79400 48.18200
H  2.52400 -8.67300 47.24000
H  5.81900 -6.46800 46.98300
H  6.18200 -5.28700 48.33100
H  7.38900 -5.54400 47.09800
H  7.88800 -1.94300 43.40500
H  7.40000 1.72000 46.96100
H  6.73900 2.38200 45.58300
H  8.49800 2.06000 45.53800
Mg 47.84800 24.86700 28.14800
C  48.60200 27.02100 30.89800
C  47.62700 22.24200 30.49100
C  47.31700 22.82200 25.65200
C  49.03600 27.31400 25.87900
N  48.01100 24.62800 30.42600
C  48.30500 25.68400 31.30600
C  48.28500 25.17400 32.76400
C  48.26200 23.67700 32.56900
C  47.91200 23.50800 31.10500
C  49.62200 22.94600 33.00500
C  47.06100 25.71000 33.57400
C  47.42500 26.67100 34.74600
H  46.42500 26.62300 35.83400
N  47.41300 22.78700 28.12800
C  47.25100 21.92500 29.13900
C  46.68300 20.69700 28.62300
C  46.45900 20.96900 27.27200
C  47.10100 22.21400 26.96100
C  46.46500 19.46700 29.48400
C  45.65300 20.10100 26.27900
O  45.38600 20.41500 25.12200
C  44.88200 18.97500 26.87000
N  48.28700 25.00200 26.06600
C  47.78400 24.04900 25.28400
C  47.81300 24.47400 23.76200
C  48.19400 26.03500 23.93300
C  48.52300 26.10400 25.38600
C  48.61300 23.60000 22.79500
C  46.99000 26.91400 23.50600
C  47.18200 27.87000 22.31900
N  48.65500 26.80700 28.33600
C  49.16300 27.62900 27.27500
C  49.64200 28.84300 27.97200
C  49.37400 28.70500 29.38200
C  48.82800 27.38200 29.56000
C  50.23600 30.02400 27.28900
C  49.46600 29.35000 30.66100
O  49.91400 30.43900 30.96400
C  48.91100 28.24500 31.68800
C  50.05700 28.01000 32.54900
O  50.92100 27.17600 32.49300
O  49.97800 28.96600 33.61100
C  50.99500 28.87700 34.64500
H  47.54100 21.45800 31.24600
H  46.95100 22.19100 24.83900
H  49.36500 28.06300 25.15600
H  49.16700 25.50100 33.31400
H  47.43200 23.22900 33.11500
H  50.09300 22.31600 32.25100
H  49.39900 22.22900 33.79500
H  50.31000 23.69300 33.40200
H  46.64100 24.86500 34.11900
H  46.33200 26.01100 32.82200
H  47.53400 27.68100 34.34900
H  48.37600 26.30600 35.13200
H  45.42800 19.13400 29.52600
H  46.74900 19.62400 30.52400
H  47.07400 18.67700 29.04400
H  45.61500 18.26000 27.24200
H  44.33500 18.57800 26.01500
H  44.22400 19.35500 27.65100
H  46.76500 24.45100 23.46500
H  49.11900 26.24000 23.39400
H  48.92400 22.71300 23.34600
H  49.51900 24.15300 22.54500
H  48.06200 23.36300 21.88500
H  46.74900 27.59800 24.32000
H  46.17600 26.24600 23.22400
H  46.29400 27.81000 21.69000
H  48.06800 27.52600 21.78400
H  47.28800 28.92000 22.59300
H  50.88400 30.41500 28.07300
H  49.50100 30.78800 27.03800
H  50.78200 29.57000 26.46100
H  48.07500 28.68500 32.23000
H  50.83500 28.10000 35.39200
H  50.96300 29.85400 35.12900
H  51.96700 28.82300 34.15400

