158

Mg 53.41100 24.01800 45.87300
C  50.86000 26.02900 44.49400
C  51.92500 21.26700 44.47300
C  56.42100 22.43900 46.18100
C  54.76700 27.00100 47.07100
N  51.66800 23.70900 44.64700
C  50.77900 24.62500 44.31400
C  49.49300 23.99200 43.69900
C  49.72300 22.45400 44.13100
C  51.18500 22.43500 44.47100
C  48.83000 22.01900 45.43200
C  49.45200 24.16900 42.15300
C  48.02400 24.17100 41.54500
H  47.84500 24.15500 40.04000
N  54.03600 22.09900 45.52500
C  53.25300 21.13800 44.87800
C  53.97800 19.84500 44.81300
C  55.33600 20.21100 45.27700
C  55.33600 21.61100 45.59900
C  53.54300 18.57200 44.13800
C  56.61700 19.25700 45.17500
O  56.44700 18.07900 44.88800
C  58.07800 19.57200 45.55500
N  55.40200 24.76100 46.26200
C  56.40200 23.78700 46.57300
C  57.66900 24.46900 47.28100
C  57.09100 25.90300 47.54600
C  55.65300 25.87700 47.00500
C  58.26900 23.67700 48.49800
C  57.86300 27.16400 47.10700
C  58.03700 28.29500 48.09400
N  52.95700 26.15000 45.81900
C  53.51700 27.20300 46.51800
C  52.73600 28.41100 46.27900
C  51.68800 28.00900 45.47000
C  51.87200 26.63500 45.24700
C  53.07300 29.72100 46.95100
C  50.41400 28.41100 44.87200
O  49.94900 29.50200 44.81700
C  49.79300 27.12700 44.22800
C  49.60700 27.46400 42.81200
O  50.42800 27.71400 41.92400
O  48.22400 27.44400 42.55900
C  47.84900 27.90200 41.17800
H  51.47400 20.34800 44.09300
H  57.39000 21.96500 46.35200
H  55.21300 27.86600 47.56600
H  48.56400 24.43400 44.06000
H  49.57400 21.77100 43.29500
H  48.10000 21.40200 44.90800
H  48.43100 22.97000 45.78500
H  49.32000 21.41700 46.19700
H  49.95400 23.28900 41.75100
H  49.91700 25.10500 41.84300
H  47.57400 25.06200 41.98200
H  47.42700 23.33200 41.90100
H  53.69600 17.74900 44.83700
H  54.13900 18.38500 43.24500
H  52.50100 18.39600 43.87400
H  58.34300 20.28800 44.77700
H  58.70100 18.70300 45.34100
H  58.24000 19.83000 46.60100
H  58.45000 24.43900 46.52200
H  56.92300 26.01000 48.61800
H  59.33900 23.54600 48.34200
H  57.84300 22.68000 48.61000
H  58.00500 24.26400 49.37900
H  57.41100 27.42600 46.15100
H  58.86500 26.91900 46.75500
H  57.53600 29.16600 47.67100
H  59.07800 28.47900 48.35900
H  57.46200 28.19800 49.01600
H  52.67900 29.65900 47.96500
H  52.69200 30.58100 46.40000
H  54.14800 29.90200 46.94200
H  48.87300 26.79900 44.71200
H  47.70200 28.96800 41.00400
H  46.88300 27.41000 41.07000
H  48.46400 27.42100 40.41800
Mg 40.75900 40.14600 27.45100
C  40.16900 42.66300 29.84500
C  41.93900 38.10500 30.01700
C  41.39000 37.85000 25.08800
C  40.04200 42.55400 24.92400
N  41.01200 40.39200 29.71300
C  40.61300 41.47100 30.45600
C  40.65100 41.14800 31.98100
C  41.35000 39.70700 31.94800
C  41.44500 39.36000 30.44400
C  42.68600 39.72100 32.70900
C  39.23800 41.23300 32.74000
C  39.23100 42.07700 33.97700
H  38.67100 41.40200 35.26200
N  41.51400 38.21300 27.61800
C  41.96800 37.56000 28.71400
C  42.40400 36.21500 28.31400
C  42.27700 36.08700 26.95000
C  41.69900 37.39300 26.46700
C  42.96800 35.25000 29.30200
C  42.78800 35.05000 26.01200
O  42.76200 35.18700 24.81300
C  43.46600 33.78000 26.52300
N  40.93000 40.32600 25.31400
C  41.06100 39.17000 24.54500
C  40.73400 39.39700 23.02200
C  39.98500 40.80400 23.07700
C  40.27100 41.26000 24.53500
C  41.90000 39.36400 22.12800
C  38.51100 40.64500 22.70400
C  37.69700 39.81100 23.65400
N  40.22500 42.19400 27.36000
C  40.00200 43.06400 26.27100
C  39.52500 44.29300 26.75300
C  39.66400 44.24900 28.14400
C  40.10000 42.93600 28.47400
C  39.04400 45.45700 25.93200
C  39.54200 44.98900 29.30300
O  39.24000 46.21600 29.32600
C  39.78200 43.92700 30.54900
C  40.86100 44.44900 31.38000
O  41.94300 44.69000 30.89700
O  40.43500 44.76800 32.69100
C  41.28800 45.61700 33.49400
H  42.22400 37.59500 30.93900
H  41.36300 37.09000 24.30400
H  39.65500 43.18800 24.12300
H  41.34600 41.88600 32.38200
H  40.76300 38.85600 32.29400
H  42.87700 38.67500 32.95000
H  42.43600 40.23600 33.63700
H  43.49700 40.27100 32.23200
H  39.06400 40.18700 32.99400
H  38.42800 41.52400 32.07100
H  38.49300 42.86300 33.81700
H  40.18800 42.55500 34.18500
H  44.02800 35.03000 29.17600
H  42.42700 34.31300 29.16900
H  42.82300 35.52000 30.34800
H  44.46500 34.08900 26.83100
H  43.65800 33.08700 25.70400
H  42.86900 33.31000 27.30400
H  39.97500 38.67600 22.71800
H  40.55700 41.44900 22.40900
H  42.66400 38.70100 22.53500
H  42.21500 40.32600 21.72500
H  41.55000 38.84700 21.23400
H  38.52700 40.23900 21.69200
H  38.17700 41.68200 22.72500
H  38.20300 39.37300 24.51500
H  37.29000 39.04900 22.99000
H  36.77600 40.25800 24.02700
H  38.84500 45.11700 24.91600
H  39.92000 46.08600 25.77200
H  38.24400 45.94900 26.48600
H  38.87200 43.79200 31.13300
H  41.50600 45.03800 34.39100
H  40.71700 46.48400 33.82700
H  42.16800 45.82700 32.88600

