158

Mg 43.96400 5.11900 47.06700
C  42.04100 8.08200 46.78200
C  41.02200 3.38700 46.56100
C  45.88700 2.39100 46.56100
C  46.90100 7.06700 46.74800
N  41.77200 5.65800 46.77400
C  41.25200 6.90700 46.63500
C  39.75000 6.81500 46.42200
C  39.43100 5.36100 46.83900
C  40.81000 4.74300 46.72100
C  38.79000 5.09700 48.23900
C  39.42700 7.09300 44.93200
C  38.75900 8.42200 44.58300
H  39.29600 9.30100 43.41400
N  43.49100 3.17300 46.77200
C  42.27900 2.63000 46.61700
C  42.38600 1.18400 46.40700
C  43.73300 0.88100 46.68300
C  44.51000 2.19300 46.58800
C  41.28000 0.29900 46.16100
C  44.30100 -0.53100 47.11800
O  43.61600 -1.53800 47.13500
C  45.70800 -0.58000 47.36900
N  46.11500 4.81400 46.52900
C  46.63300 3.52700 46.49800
C  48.21400 3.58000 46.44500
C  48.50000 5.11700 46.45400
C  47.06600 5.67800 46.55800
C  48.92300 2.89500 47.60700
C  49.36200 5.57700 45.24900
C  50.61300 6.33800 45.50400
N  44.49000 7.19400 46.84700
C  45.71400 7.83800 46.86900
C  45.46700 9.28100 46.92300
C  44.02100 9.44800 46.99400
C  43.49800 8.13000 46.90800
C  46.52200 10.37900 46.77300
C  42.91100 10.38200 47.03500
O  42.83500 11.59400 47.14800
C  41.63600 9.54100 46.76200
C  40.71800 9.84200 47.90900
O  40.79400 9.51700 49.12100
O  39.94100 10.78500 47.49800
C  39.09300 11.38300 48.51900
H  40.19000 2.71000 46.35300
H  46.48300 1.48400 46.43900
H  47.88700 7.53600 46.76900
H  39.17200 7.48000 47.06400
H  38.79200 4.85000 46.12000
H  39.36500 4.52900 48.97000
H  37.83700 4.61500 48.02300
H  38.74800 6.10200 48.66000
H  38.84100 6.29300 44.48000
H  40.37800 7.14200 44.40200
H  38.71000 9.05700 45.46800
H  37.74700 8.06600 44.39200
H  40.56900 0.48200 46.96700
H  41.54300 -0.75700 46.09200
H  40.75300 0.63300 45.26700
H  46.26600 -0.65800 46.43600
H  45.98000 -1.46500 47.94400
H  45.99500 0.27700 47.97800
H  48.43000 3.17100 45.45800
H  48.92000 5.44600 47.40400
H  49.31100 1.90300 47.37800
H  48.34600 2.84800 48.53100
H  49.81400 3.47200 47.85500
H  48.74100 6.28100 44.69500
H  49.67800 4.70700 44.67300
H  51.41500 6.08700 44.81100
H  50.89400 6.20700 46.54900
H  50.40600 7.39400 45.32900
H  46.17600 11.28800 46.28000
H  47.33900 9.90200 46.23200
H  46.95200 10.48000 47.76900
H  41.28700 9.96700 45.82200
H  38.83800 12.41500 48.27700
H  39.71200 11.46900 49.41200
H  38.21400 10.76200 48.68900
Mg 47.56000 25.35500 27.68500
C  48.70600 27.57700 30.32700
C  47.09200 23.03700 29.96700
C  46.84100 23.36800 25.12800
C  49.15700 27.62000 25.47600
N  47.84400 25.33000 29.87700
C  48.06000 26.40800 30.72200
C  47.82000 26.05100 32.16700
C  47.62600 24.43800 32.05800
C  47.56200 24.22900 30.54400
C  48.71200 23.68200 32.90200
C  46.61600 26.86100 32.66700
C  46.91600 27.49400 34.00200
H  45.78700 27.54500 35.01300
N  46.90300 23.52500 27.55300
C  46.80300 22.65700 28.60600
C  46.33900 21.34700 28.12200
C  46.12300 21.53600 26.73000
C  46.66800 22.87400 26.35600
C  45.97500 20.24000 29.03400
C  45.48600 20.62900 25.77500
O  45.35600 20.76200 24.56600
C  45.10300 19.25700 26.25100
N  47.86100 25.48900 25.59200
C  47.37700 24.60300 24.72700
C  47.60100 24.95300 23.25400
C  48.28900 26.36800 23.34900
C  48.41700 26.55500 24.92300
C  48.46400 23.91200 22.51000
C  47.47400 27.53600 22.67800
C  48.27100 28.77200 22.24500
N  48.78200 27.20100 27.78100
C  49.39900 27.94600 26.79500
C  50.02300 29.04300 27.37600
C  49.77700 28.95800 28.79400
C  49.04200 27.80300 28.95200
C  50.82000 30.06900 26.63100
C  49.95600 29.63600 30.01500
O  50.55400 30.68900 30.24700
C  49.26000 28.83300 31.15300
C  50.07400 28.48800 32.41100
O  50.75700 27.56200 32.71000
O  49.94700 29.57200 33.16900
C  50.49900 29.45100 34.60800
H  46.92300 22.26200 30.71800
H  46.56000 22.71500 24.29800
H  49.47200 28.35500 24.73100
H  48.69100 26.39900 32.72100
H  46.65300 24.22900 32.50400
H  49.14500 24.28400 33.70100
H  49.51500 23.29500 32.27500
H  48.17700 22.88300 33.41500
H  45.79700 26.16600 32.84700
H  46.26300 27.65900 32.01400
H  47.09700 28.56600 33.92300
H  47.69600 26.87200 34.44300
H  46.09700 20.44500 30.09700
H  46.56200 19.36600 28.75400
H  44.88700 20.20100 28.98000
H  44.29100 19.34200 26.97300
H  46.01400 18.83800 26.67800
H  44.83600 18.69500 25.35600
H  46.70400 25.07200 22.64600
H  49.29000 26.44700 22.92400
H  48.65100 23.05300 23.15400
H  49.39900 24.40000 22.23400
H  47.92000 23.54600 21.64000
H  46.61400 27.68800 23.33000
H  47.01800 27.14200 21.77000
H  48.01600 28.95300 21.20100
H  49.33600 28.61600 22.41600
H  48.10800 29.69400 22.80300
H  51.86800 29.79100 26.51700
H  50.72300 30.96100 27.24900
H  50.46200 30.15800 25.60600
H  48.45200 29.46600 31.52100
H  50.14900 28.60200 35.19500
H  50.10200 30.29200 35.17700
H  51.58400 29.41600 34.69900

