158

Mg 2.31500 -0.74400 43.42500
C  5.57300 0.28300 42.97700
C  1.37300 2.05700 41.51500
C  -0.91500 -1.85000 43.49300
C  3.38500 -3.76800 44.59300
N  3.32700 0.97000 42.27600
C  4.66300 1.13200 42.31100
C  5.08900 2.23900 41.41000
C  3.77900 2.97300 41.05300
C  2.75400 1.94900 41.64100
C  3.68400 4.40800 41.66300
C  5.91200 1.67600 40.15600
C  6.91000 2.72100 39.61900
H  6.62600 3.06100 38.15500
N  0.53700 0.05500 42.89000
C  0.35100 1.20100 42.01900
C  -1.09500 1.25800 41.76200
C  -1.76000 0.26300 42.47700
C  -0.71200 -0.56900 42.99800
C  -1.73200 2.31300 40.96100
C  -3.33200 0.13600 42.53200
O  -4.09800 0.94100 41.94400
C  -3.86200 -0.93200 43.26700
N  1.38500 -2.67500 43.80000
C  0.04700 -2.83700 43.93000
C  -0.31100 -4.29500 44.28000
C  1.06600 -4.83200 44.86800
C  2.02400 -3.67200 44.43600
C  -1.51600 -4.45200 45.30400
C  1.49900 -6.23600 44.36700
C  1.63200 -6.45300 42.86500
N  4.07300 -1.55200 43.86400
C  4.39200 -2.84300 44.38400
C  5.79400 -2.94700 44.54200
C  6.33600 -1.74900 44.00400
C  5.22100 -0.92300 43.66300
C  6.60800 -4.20100 44.85000
C  7.55400 -1.06800 43.66600
O  8.70700 -1.41900 43.67300
C  7.09200 0.26300 42.97800
C  7.56900 1.33900 43.81200
O  7.56500 1.38600 45.03800
O  8.13600 2.36000 43.05600
C  8.80900 3.48100 43.81000
H  0.99200 2.97900 41.07000
H  -1.90200 -2.29600 43.63300
H  3.68400 -4.75300 44.95700
H  5.83500 2.81900 41.95400
H  3.67900 2.97500 39.96700
H  4.62000 4.63400 42.17400
H  2.75500 4.48700 42.22700
H  3.53400 5.04500 40.79100
H  5.16300 1.52600 39.37800
H  6.37400 0.69800 40.29200
H  7.88300 2.33900 39.93100
H  6.66300 3.62300 40.17700
H  -2.10500 1.89700 40.02500
H  -0.98300 3.07200 40.73600
H  -2.50000 2.91000 41.45300
H  -4.94800 -0.87300 43.33700
H  -3.33200 -0.97000 44.21800
H  -3.71900 -1.83600 42.67400
H  -0.50100 -4.92300 43.40900
H  0.96100 -4.92200 45.94900
H  -2.28900 -5.03500 44.80300
H  -1.87400 -3.47400 45.62700
H  -1.11900 -5.00900 46.15300
H  0.80900 -6.97900 44.76800
H  2.41100 -6.45400 44.92300
H  2.70200 -6.55200 42.68100
H  1.20400 -5.64800 42.26700
H  1.09000 -7.34100 42.54100
H  5.97300 -4.87800 45.42100
H  7.45900 -3.96700 45.49100
H  6.93400 -4.71900 43.94800
H  7.50700 0.26100 41.97000
H  8.45100 4.45700 43.48500
H  9.87300 3.39300 43.58700
H  8.68600 3.38900 44.89000
Mg 47.08100 24.91500 29.14900
C  47.93900 27.26900 31.68100
C  45.90900 22.77500 31.56200
C  46.65700 22.53700 26.78300
C  48.52500 26.96500 26.80100
N  46.71400 25.13700 31.26800
C  47.22000 26.11200 32.08200
C  46.97900 25.73400 33.61100
C  46.51100 24.28000 33.48400
C  46.29300 24.07600 31.98400
C  47.52100 23.30700 34.14900
C  45.93400 26.77300 34.24800
C  46.05200 27.30900 35.73700
H  46.73600 26.41900 36.81500
N  46.30600 22.95000 29.14500
C  45.85800 22.30900 30.20500
C  45.32800 21.01000 29.82800
C  45.46000 20.91200 28.44900
C  46.20500 22.14000 28.02700
C  44.61300 19.97300 30.80600
C  45.10800 19.78000 27.50100
O  45.18300 19.91600 26.26300
C  44.49200 18.51600 28.11900
N  47.43500 24.73200 27.04600
C  47.28700 23.72300 26.32200
C  47.75500 23.94400 24.88300
C  48.12800 25.40100 24.88800
C  48.02500 25.76700 26.34400
C  48.74400 22.90300 24.32500
C  47.17100 26.25100 23.95400
C  45.71700 26.19800 24.26800
N  48.03800 26.81600 29.16100
C  48.63200 27.47700 28.12500
C  49.20300 28.70300 28.61200
C  48.94500 28.64500 30.04400
C  48.30200 27.44500 30.30300
C  49.90800 29.69500 27.73200
C  49.10400 29.39900 31.24800
O  49.63300 30.48900 31.27700
C  48.63200 28.46800 32.39300
C  49.64200 28.11900 33.33200
O  50.54500 27.29100 33.17800
O  49.50800 28.81300 34.52400
C  50.43100 28.33300 35.53000
H  45.61200 22.12800 32.39000
H  46.73000 21.74800 26.03200
H  48.86800 27.54900 25.94400
H  47.96500 25.88100 34.05300
H  45.51400 24.17600 33.91400
H  48.27800 23.86600 34.69900
H  48.05400 22.76500 33.36700
H  47.08000 22.60200 34.85400
H  44.99400 26.22200 34.28100
H  45.83900 27.60500 33.55100
H  45.01600 27.46900 36.03700
H  46.57900 28.26100 35.79900
H  44.29000 20.38100 31.76400
H  45.40700 19.27300 31.06600
H  43.73100 19.40500 30.50900
H  45.29300 18.08500 28.71900
H  44.32600 17.81500 27.30100
H  43.52300 18.60600 28.61100
H  46.84800 23.77600 24.30200
H  49.19100 25.50600 24.67000
H  49.75700 23.30500 24.32900
H  48.44500 22.81000 23.28100
H  48.84300 21.93900 24.82300
H  47.26300 25.85600 22.94300
H  47.44800 27.30200 23.86700
H  45.26700 25.82700 23.34700
H  45.30300 27.15700 24.57800
H  45.39100 25.54400 25.07700
H  50.65800 29.29400 27.05100
H  50.36600 30.39400 28.43200
H  49.27300 30.28600 27.07200
H  47.83100 28.90900 32.98600
H  50.16500 27.36400 35.95400
H  50.29800 28.94300 36.42300
H  51.49800 28.48200 35.36300

