158

Mg 26.10000 -0.48100 29.00700
C  28.16200 -0.79300 31.77000
C  23.26900 -0.50100 31.02600
C  24.28900 -0.57900 26.15700
C  29.02600 -1.39800 26.98800
N  25.83700 -0.85700 31.14700
C  26.83800 -0.77000 32.05300
C  26.22600 -0.67800 33.47300
C  24.69500 -0.59300 33.20300
C  24.53700 -0.69500 31.71400
C  23.81000 -1.56200 33.97400
C  26.71000 0.50600 34.24200
C  25.96000 0.96100 35.56400
H  26.71300 1.11700 36.85400
N  24.12200 -0.39300 28.66400
C  23.08700 -0.33100 29.61600
C  21.81300 -0.15900 28.95800
C  22.04400 -0.18000 27.54800
C  23.54500 -0.38500 27.37900
C  20.60700 0.01100 29.79800
C  20.99300 -0.16600 26.39200
O  21.29900 -0.19800 25.19300
C  19.48500 -0.11100 26.68800
N  26.60900 -0.85600 26.86700
C  25.66000 -0.74700 25.88100
C  26.30500 -0.88900 24.51100
C  27.84500 -1.03900 24.83600
C  27.85000 -1.11900 26.34000
C  25.74700 -1.98100 23.55700
C  28.81800 0.02400 24.27300
C  30.14900 -0.34400 23.56500
N  28.21700 -1.02800 29.29400
C  29.28700 -1.36200 28.41600
C  30.51000 -1.53100 29.16400
C  30.13500 -1.29200 30.54400
C  28.77000 -1.02500 30.55000
C  31.87000 -1.92900 28.60000
C  30.58000 -1.08800 31.87400
O  31.71200 -1.18500 32.33000
C  29.30400 -0.92400 32.70300
C  29.05400 -2.03200 33.70400
O  28.62300 -3.18200 33.44100
O  29.33900 -1.56600 34.95600
C  29.26700 -2.65800 35.97700
H  22.46400 -0.40200 31.75800
H  23.59400 -0.49500 25.31900
H  29.84000 -1.64100 26.30200
H  26.42200 -1.59700 34.02700
H  24.37800 0.43900 33.35400
H  24.16500 -1.97100 34.92000
H  23.76300 -2.46700 33.36900
H  22.86800 -1.01500 33.92900
H  26.72800 1.40200 33.62100
H  27.74700 0.37200 34.54700
H  25.05300 0.45400 35.89300
H  25.75200 1.99400 35.28400
H  20.15000 0.95400 29.49600
H  20.61400 0.05100 30.88700
H  19.93100 -0.79800 29.52000
H  19.25100 0.86700 27.10800
H  19.24700 -0.83500 27.46700
H  18.77600 -0.23500 25.86900
H  26.22000 0.10400 24.06900
H  28.19100 -2.02600 24.52800
H  25.78200 -2.92700 24.09800
H  26.42900 -2.00300 22.70700
H  24.70500 -1.83100 23.27600
H  29.09300 0.62300 25.14200
H  28.20100 0.55700 23.55000
H  30.23900 0.46000 22.83500
H  30.12600 -1.32500 23.09000
H  31.00500 -0.23200 24.23000
H  32.50600 -1.04400 28.61400
H  31.86000 -2.22400 27.55100
H  32.34700 -2.68500 29.22400
H  29.38400 -0.01300 33.29500
H  29.24100 -3.68800 35.62200
H  28.39800 -2.51600 36.61900
H  30.15100 -2.59800 36.61300
Mg 6.90700 56.82500 42.36200
C  5.97400 53.63900 42.02500
C  10.14800 55.95700 41.29900
C  7.68000 60.26100 41.79400
C  3.73700 57.74300 43.25400
N  7.90300 55.06400 41.73300
C  7.29800 53.86300 41.63100
C  8.21200 52.83900 41.05900
C  9.63200 53.43100 41.39900
C  9.24100 54.88200 41.62500
C  10.42000 52.80300 42.56300
C  7.94500 52.65700 39.51000
C  8.28200 51.25300 38.89800
H  7.54800 51.00700 37.51700
N  8.64400 57.94200 41.60900
C  9.83500 57.36700 41.28200
C  10.79700 58.40200 40.82900
C  10.14900 59.68900 41.10500
C  8.77100 59.34500 41.56700
C  12.19800 58.03700 40.33900
C  10.82100 60.98300 41.05400
O  12.02600 60.91500 40.73200
C  10.18700 62.31000 41.50500
N  5.84700 58.71400 42.53000
C  6.41800 59.96600 42.30500
C  5.32000 61.07300 42.39500
C  4.07900 60.27700 42.91500
C  4.59600 58.85100 42.97100
C  5.84100 62.18400 43.34500
C  2.78300 60.48300 42.12800
C  1.61100 60.52400 43.14000
N  5.21500 55.91800 42.68600
C  3.98400 56.35300 43.12400
C  3.14200 55.18900 43.32200
C  3.86900 54.06600 42.92500
C  5.11700 54.61800 42.54200
C  1.75300 55.24600 43.85100
C  3.85100 52.68200 42.72000
O  3.04800 51.82800 43.06800
C  5.28500 52.32800 42.21600
C  5.12300 51.44300 41.01100
O  4.70800 51.69300 39.94000
O  5.46400 50.17300 41.42100
C  5.04500 49.11700 40.52000
H  11.14300 55.55600 41.09500
H  7.90900 61.32800 41.77400
H  2.73600 58.09400 43.51600
H  8.10100 51.88600 41.57700
H  10.31300 53.37600 40.55000
H  10.89700 53.43700 43.31000
H  11.03200 52.02000 42.11600
H  9.70800 52.27800 43.20000
H  8.71600 53.13600 38.90600
H  6.97400 53.00400 39.15800
H  7.91200 50.42500 39.50200
H  9.32400 51.10700 38.61100
H  12.61000 58.73500 39.60900
H  12.09700 57.12400 39.75300
H  12.79700 57.83500 41.22600
H  9.86500 62.25200 42.54400
H  9.34600 62.51700 40.84400
H  10.90300 63.11700 41.34700
H  5.09400 61.46300 41.40300
H  3.95200 60.63000 43.93900
H  6.46800 62.92100 42.84300
H  6.37500 61.69700 44.16100
H  5.01600 62.64000 43.89200
H  2.63000 59.58200 41.53300
H  2.88400 61.34300 41.46700
H  0.88400 59.89600 42.62600
H  1.22500 61.54300 43.16700
H  1.81800 60.17300 44.15100
H  1.18500 55.53600 42.96700
H  1.60900 55.89600 44.71300
H  1.37400 54.26400 44.13300
H  5.86100 51.66300 42.86000
H  5.80700 49.11800 39.74100
H  4.06400 49.22100 40.05700
H  5.11400 48.18500 41.08200

