158

Mg 42.18800 40.96800 26.79700
C  41.45000 43.48000 29.13400
C  43.13300 38.97500 29.41600
C  43.03800 38.58300 24.46900
C  41.38700 43.21500 24.23400
N  42.35100 41.27500 29.04800
C  41.87500 42.35000 29.78300
C  42.02200 42.07400 31.26400
C  42.76200 40.73200 31.28100
C  42.73000 40.28400 29.84300
C  44.19500 40.81900 31.93000
C  40.59700 41.96100 31.91200
C  40.48900 42.70300 33.21300
H  39.85000 41.91800 34.41900
N  42.74600 38.96900 26.93900
C  43.19600 38.38000 28.14200
C  43.53400 37.00100 27.81000
C  43.48700 36.81500 26.39600
C  43.00600 38.10800 25.81100
C  43.86900 35.92000 28.87200
C  43.85600 35.57500 25.57800
O  43.55800 35.51100 24.38100
C  44.42700 34.37100 26.21500
N  42.36900 40.95700 24.62600
C  42.63800 39.82200 23.87500
C  42.44100 40.17400 22.33800
C  41.68400 41.53400 22.32300
C  41.82300 41.92500 23.85700
C  43.87100 40.28400 21.74000
C  40.13600 41.40800 21.96400
C  39.38400 40.20100 22.57700
N  41.74300 42.99800 26.61700
C  41.31800 43.71300 25.53100
C  40.93900 45.03400 25.98900
C  40.94200 45.03800 27.41700
C  41.37500 43.72600 27.74500
C  40.53100 46.19400 25.21100
C  40.76400 45.84000 28.66000
O  40.46900 46.99600 28.81800
C  40.88500 44.73500 29.73200
C  41.73600 45.35000 30.81600
O  42.90800 45.49400 30.81100
O  40.88900 45.89200 31.74100
C  41.59800 46.34000 33.02600
H  43.38700 38.31700 30.25000
H  43.09700 37.89900 23.62000
H  41.21700 43.95000 23.44600
H  42.59200 42.87000 31.74300
H  42.09400 40.06900 31.83000
H  44.33800 40.08500 32.72300
H  44.54300 41.82600 32.15900
H  44.93900 40.48100 31.20800
H  40.33300 40.92700 32.13200
H  39.89400 42.41300 31.21200
H  39.91100 43.60500 33.01000
H  41.48900 43.03100 33.49700
H  44.93100 35.73900 28.70500
H  43.34300 34.96600 28.86400
H  43.75900 36.36000 29.86300
H  43.94300 34.05800 27.14000
H  45.49600 34.51600 26.36900
H  44.42600 33.50800 25.54900
H  41.97400 39.38000 21.75400
H  42.11200 42.32700 21.70800
H  43.94600 39.46400 21.02600
H  44.65700 40.30800 22.49400
H  44.05300 41.18200 21.15100
H  40.16000 41.44800 20.87500
H  39.61400 42.35300 22.11300
H  38.86800 39.66000 21.78400
H  38.54700 40.55700 23.17900
H  39.96300 39.69100 23.34600
H  39.79600 46.69100 25.84400
H  40.03600 45.88300 24.29100
H  41.39600 46.83000 25.02300
H  39.90800 44.52500 30.16700
H  41.91600 45.61900 33.77900
H  40.97200 46.98400 33.64400
H  42.43800 46.97900 32.75300
Mg 30.10300 58.41000 40.17300
C  27.27300 56.67500 39.19800
C  31.97700 55.63800 39.37400
C  33.10000 60.39100 39.94000
C  28.31100 61.22100 40.55500
N  29.68500 56.35800 39.25600
C  28.43300 55.87800 39.10200
C  28.53300 54.31100 38.88100
C  30.08700 53.96100 39.15400
C  30.62000 55.38500 39.33300
C  30.37600 52.97600 40.28300
C  28.13800 53.91900 37.34000
C  28.70800 54.70700 36.20200
H  27.81400 55.53000 35.26600
N  32.25300 58.06900 39.88200
C  32.76600 56.79400 39.55200
C  34.19100 56.93300 39.41200
C  34.57900 58.25700 39.69200
C  33.30400 58.97000 39.83400
C  35.05900 55.77100 38.99100
C  36.03600 58.74500 39.59100
O  36.91400 57.96600 39.23200
C  36.50800 60.19800 39.99900
N  30.67000 60.51900 40.08800
C  31.88000 61.10200 40.06700
C  31.86800 62.65400 40.22600
C  30.39600 62.74100 40.77700
C  29.74300 61.43600 40.48300
C  32.93000 63.05200 41.28900
C  29.71800 63.95300 39.96800
C  29.41200 65.27000 40.74500
N  28.18600 58.88600 39.90200
C  27.57600 60.07800 40.18500
C  26.16100 59.89300 40.21800
C  25.96900 58.64400 39.65800
C  27.28600 58.07000 39.51800
C  25.14600 60.95300 40.50900
C  25.03100 57.72000 39.20300
O  23.79400 57.78100 39.13400
C  25.83800 56.34000 38.88600
C  25.28300 55.20600 39.68900
O  25.06400 55.23000 40.84100
O  24.84700 54.19400 38.89100
C  23.92000 53.20500 39.59600
H  32.51500 54.69400 39.26100
H  34.00200 61.00400 39.88000
H  27.73100 62.10700 40.82300
H  27.87600 53.86700 39.62900
H  30.53300 53.67500 38.20100
H  31.06000 53.34800 41.04600
H  30.88300 52.09200 39.89800
H  29.44400 52.62200 40.72400
H  27.07900 54.16900 37.29600
H  28.29400 52.85100 37.19200
H  29.36600 54.09800 35.58100
H  29.31200 55.48600 36.66700
H  35.81100 56.04100 38.24900
H  34.40500 54.98500 38.61400
H  35.42800 55.39000 39.94300
H  36.08500 60.91200 39.29200
H  37.58600 60.27400 39.86000
H  36.45300 60.54700 41.03000
H  32.12000 63.17800 39.30500
H  30.36200 62.77600 41.86600
H  32.64100 63.80200 42.02500
H  33.81300 63.40400 40.75600
H  33.21300 62.23000 41.94600
H  28.78000 63.70600 39.47100
H  30.29500 64.19900 39.07600
H  28.44200 65.68900 40.47600
H  30.13100 66.07700 40.60400
H  29.31700 65.00400 41.79800
H  25.19800 61.71700 39.73200
H  25.28900 61.56200 41.40200
H  24.09800 60.72500 40.70100
H  25.71500 56.11900 37.82600
H  23.84200 52.26400 39.05300
H  22.93700 53.65000 39.75800
H  24.24000 52.93100 40.60100

