158

Mg 0.46400 7.36700 25.30300
C  0.99500 9.44200 27.95200
C  0.16600 4.57100 27.44700
C  -0.39400 5.37600 22.59700
C  1.15000 10.00500 23.02900
N  0.71500 7.07200 27.40500
C  0.78400 8.06500 28.32800
C  0.64600 7.50800 29.79400
C  0.75200 5.92800 29.48000
C  0.56100 5.82300 27.98600
C  2.12700 5.38000 29.95700
C  -0.62200 8.03700 30.53900
C  -0.46100 8.33700 32.04400
H  1.01100 8.25800 32.71200
N  0.07800 5.27600 25.06700
C  -0.08000 4.29300 26.05600
C  -0.54000 3.05600 25.49800
C  -0.64100 3.26400 24.09800
C  -0.35400 4.70600 23.85900
C  -0.63900 1.73200 26.32800
C  -0.86600 2.24300 22.98400
O  -0.93400 2.48000 21.81900
C  -1.17500 0.83600 23.41500
N  0.36500 7.64500 23.18900
C  -0.09400 6.72600 22.29300
C  -0.33000 7.34400 20.96400
C  0.32500 8.68700 21.06600
C  0.62400 8.81000 22.50400
C  0.13400 6.52900 19.76700
C  -0.46600 9.83100 20.32100
C  0.09100 10.21800 18.90300
N  1.07700 9.30900 25.41900
C  1.30000 10.29400 24.45900
C  1.58700 11.51400 25.14300
C  1.46500 11.20600 26.49700
C  1.16700 9.83000 26.61400
C  1.95900 12.69000 24.46600
C  1.50200 11.83100 27.82900
O  1.79200 12.93500 28.20500
C  1.17300 10.67500 28.80900
C  2.37200 10.55700 29.71000
O  3.44000 10.03100 29.42300
O  2.19300 11.33700 30.84300
C  3.28200 11.67400 31.77100
H  0.12300 3.75100 28.16700
H  -0.75100 4.91000 21.67600
H  1.46000 10.81800 22.37000
H  1.57200 7.88700 30.22500
H  -0.04200 5.40700 30.01400
H  2.54700 5.89700 30.82000
H  2.90300 5.45700 29.19500
H  2.07500 4.35200 30.31500
H  -1.32700 7.20700 30.49300
H  -1.09300 8.88000 30.03400
H  -1.03800 7.67600 32.69200
H  -0.80600 9.36100 32.18500
H  -0.14500 0.95700 25.74300
H  -1.64300 1.50500 26.68800
H  -0.07400 1.72100 27.26000
H  -0.23000 0.32700 23.60500
H  -1.60400 0.53300 22.46000
H  -1.91100 0.71100 24.21000
H  -1.41100 7.43500 20.85400
H  1.33800 8.65000 20.66400
H  1.09300 6.09400 20.05100
H  0.38500 7.11500 18.88300
H  -0.60900 5.78500 19.47900
H  -0.29500 10.72800 20.91700
H  -1.52500 9.63800 20.15400
H  -0.77800 10.32200 18.25400
H  0.64300 9.34000 18.56800
H  0.65600 11.14900 18.85700
H  2.44700 12.63200 23.49300
H  2.72300 13.11300 25.11800
H  1.13000 13.35800 24.23200
H  0.27300 10.93400 29.36700
H  3.51400 12.68200 31.42800
H  4.15600 11.03300 31.65900
H  3.00600 11.80600 32.81700
Mg 17.21000 -1.83600 28.33400
C  16.19800 0.38600 30.80700
C  19.28700 -3.38700 30.58900
C  18.44600 -3.59100 25.79600
C  15.47600 0.32400 26.00400
N  17.62300 -1.55200 30.43900
C  17.03500 -0.58500 31.24600
C  17.48800 -0.83500 32.66800
C  18.60600 -1.96900 32.61500
C  18.45000 -2.38000 31.13800
C  20.07400 -1.72500 32.97700
C  16.24900 -1.28300 33.61000
C  16.20500 -0.47000 34.88600
H  17.52100 -0.08300 35.55000
N  18.74800 -3.24400 28.23200
C  19.40400 -3.83300 29.24400
C  20.05500 -5.01600 28.83400
C  19.77400 -5.20900 27.39300
C  18.90300 -4.00500 27.06600
C  20.87700 -5.94600 29.75900
C  20.28100 -6.17800 26.41000
O  20.07500 -6.23400 25.16000
C  21.25100 -7.21400 26.89200
N  16.93400 -1.74300 26.24000
C  17.67900 -2.50400 25.39500
C  17.29400 -2.18700 23.92100
C  16.34900 -0.92800 23.98900
C  16.25000 -0.71900 25.51900
C  18.52300 -1.95800 23.01200
C  14.97100 -1.16100 23.28000
C  13.99500 -2.03500 24.03100
N  15.92800 -0.07500 28.38100
C  15.34700 0.67600 27.39000
C  14.46000 1.69600 27.97300
C  14.79900 1.67300 29.33300
C  15.72400 0.64400 29.48400
C  13.47700 2.65800 27.33500
C  14.62600 2.37100 30.65100
O  13.92600 3.32800 30.94900
C  15.49000 1.50400 31.63400
C  16.35800 2.30900 32.35200
O  17.42400 2.70700 32.01200
O  15.83300 2.71600 33.52500
C  16.47400 3.73600 34.34000
H  19.96600 -3.85700 31.30400
H  18.82700 -4.12400 24.92400
H  14.98400 0.99900 25.30100
H  18.04800 0.04500 32.98300
H  18.29800 -2.83900 33.19600
H  20.05000 -0.87500 33.65800
H  20.59000 -1.55300 32.03200
H  20.42000 -2.60400 33.52000
H  16.39500 -2.31200 33.93900
H  15.34200 -1.16600 33.01600
H  15.52900 -1.04200 35.52100
H  15.66600 0.42100 34.56200
H  20.46800 -6.94300 29.59800
H  20.83300 -5.70500 30.82100
H  21.92000 -5.84600 29.45700
H  20.73800 -7.82100 27.63900
H  22.20400 -6.80000 27.22000
H  21.58200 -7.88100 26.09600
H  16.78100 -3.08400 23.57500
H  16.71700 -0.02300 23.50700
H  18.34100 -1.31600 22.15100
H  18.75800 -2.97000 22.68200
H  19.30100 -1.45900 23.59100
H  15.08100 -1.64500 22.30900
H  14.41000 -0.22900 23.20700
H  13.08800 -1.45100 24.18900
H  14.39300 -2.40200 24.97700
H  13.67600 -2.89700 23.44500
H  13.10400 2.16000 26.44000
H  14.04800 3.51600 26.97900
H  12.61600 2.97500 27.92300
H  14.73500 1.04800 32.27400
H  17.23100 4.28500 33.78000
H  17.00500 3.37100 35.22000
H  15.62100 4.34100 34.64600

