158

Mg -1.89900 18.06700 26.92700
C  -2.45400 15.88900 29.71200
C  -2.13900 20.79300 29.21100
C  -1.48400 20.05300 24.38200
C  -1.96500 15.22000 24.83700
N  -2.14300 18.32300 29.16300
C  -2.36100 17.28200 30.11400
C  -2.57700 17.80700 31.49800
C  -2.71600 19.28900 31.25700
C  -2.21600 19.51000 29.80500
C  -4.08100 19.98400 31.66000
C  -1.40000 17.46700 32.59800
C  -1.86200 16.78100 33.83200
H  -0.80700 16.46100 34.92900
N  -1.73300 20.12000 26.77900
C  -1.87600 21.06400 27.82000
C  -1.83400 22.41100 27.19500
C  -1.62700 22.27500 25.73900
C  -1.64300 20.76300 25.57700
C  -1.84900 23.69900 27.92300
C  -1.45700 23.29900 24.61600
O  -1.19000 23.03900 23.46000
C  -1.35800 24.69500 24.98200
N  -1.94500 17.72800 24.94100
C  -1.63300 18.73500 24.07800
C  -1.56600 18.16700 22.62300
C  -1.88300 16.66400 22.70200
C  -1.98700 16.45300 24.27000
C  -2.60700 18.89200 21.57900
C  -0.71000 15.83200 22.05100
C  0.57400 15.65600 22.83700
N  -2.22200 16.00500 27.12300
C  -2.17000 14.95700 26.20300
C  -2.29000 13.68300 26.92500
C  -2.32900 14.01100 28.29700
C  -2.34900 15.39500 28.36200
C  -2.31800 12.37100 26.26800
C  -2.48600 13.44600 29.64700
O  -2.57300 12.32700 30.04900
C  -2.55100 14.65800 30.61500
C  -1.36400 14.37600 31.47800
O  -0.21600 14.62100 31.19300
O  -1.74100 13.73600 32.58700
C  -0.73800 13.22800 33.46000
H  -2.27400 21.60400 29.93000
H  -1.26800 20.70200 23.53200
H  -2.06200 14.41700 24.10400
H  -3.44800 17.31000 31.92500
H  -2.05800 19.81800 31.94700
H  -4.44000 20.54600 30.79700
H  -3.97400 20.64000 32.52400
H  -4.78600 19.22200 31.99200
H  -0.73600 18.25900 32.94600
H  -0.76500 16.78700 32.03100
H  -2.28900 15.80900 33.58700
H  -2.69500 17.39700 34.17400
H  -1.95600 23.55600 28.99800
H  -2.71100 24.33200 27.71400
H  -0.90900 24.22200 27.74300
H  -2.05300 25.01700 25.75800
H  -1.57700 25.37000 24.15500
H  -0.36500 24.86500 25.39700
H  -0.53900 18.32100 22.29400
H  -2.74200 16.42700 22.07500
H  -3.11000 19.72000 22.07900
H  -3.34400 18.18300 21.20300
H  -2.06100 19.13800 20.66800
H  -0.40400 16.33100 21.13100
H  -0.97300 14.83000 21.71200
H  1.16600 16.54500 22.61900
H  1.05200 14.71300 22.57000
H  0.35900 15.48800 23.89300
H  -2.13100 11.50600 26.90500
H  -1.58900 12.37900 25.45800
H  -3.30400 12.31900 25.80600
H  -3.42300 14.56400 31.26200
H  0.11300 13.86500 33.70100
H  -0.45500 12.25400 33.06100
H  -1.29200 13.00300 34.37200
Mg 30.50300 57.67900 40.96100
C  27.62300 55.96400 39.79600
C  32.56900 55.11200 39.58600
C  33.13300 59.75500 41.07500
C  28.38300 60.32800 41.97500
N  30.11400 55.95400 39.72200
C  28.88100 55.34300 39.43300
C  29.09700 54.04400 38.68200
C  30.47500 53.57900 39.27400
C  31.15200 55.00000 39.46600
C  30.36800 52.97900 40.63600
C  28.90600 53.93200 37.19300
C  29.02400 55.22100 36.28200
H  27.85000 55.50600 35.40000
N  32.65000 57.45200 40.49600
C  33.24000 56.31200 39.94000
C  34.66700 56.53400 39.83200
C  34.84200 57.92100 40.20200
C  33.50700 58.47200 40.67500
C  35.69100 55.45800 39.45200
C  36.20200 58.57800 40.18800
O  37.16700 57.88500 39.93000
C  36.50200 60.02800 40.62300
N  30.77000 59.70200 41.60800
C  31.95800 60.32800 41.56300
C  31.87000 61.84100 41.79700
C  30.39500 62.00700 42.29100
C  29.77500 60.60700 42.01500
C  32.89700 62.49300 42.68400
C  29.61200 63.03600 41.35500
C  28.66800 63.91700 42.14800
N  28.43000 58.04800 40.94600
C  27.70600 59.16000 41.39100
C  26.30700 58.86700 41.13500
C  26.20700 57.63300 40.52700
C  27.51600 57.19400 40.45200
C  25.14000 59.75300 41.42700
C  25.32100 56.72100 39.99300
O  24.05700 56.74300 39.88000
C  26.25000 55.53500 39.36700
C  25.82700 54.24600 40.06700
O  25.98000 54.02500 41.26900
O  24.95200 53.51900 39.23500
C  24.36500 52.28000 39.83900
H  33.22500 54.26100 39.39100
H  33.96200 60.46300 41.14700
H  27.70400 61.11400 42.31200
H  28.39300 53.30900 39.07200
H  31.13700 53.06600 38.57600
H  29.34300 52.83700 40.97800
H  30.85900 53.54000 41.43100
H  30.88100 52.01800 40.57700
H  27.84900 53.70300 37.05500
H  29.68900 53.26700 36.83000
H  29.82600 54.95800 35.59200
H  29.22400 56.09300 36.90500
H  36.11100 55.57900 38.45400
H  35.22200 54.49400 39.64900
H  36.49100 55.52000 40.19000
H  35.73000 60.67200 40.20100
H  37.49500 60.38900 40.35800
H  36.32900 60.10300 41.69700
H  31.98600 62.30500 40.81800
H  30.45800 62.13500 43.37100
H  32.96500 61.88700 43.58800
H  32.50500 63.46600 42.98000
H  33.78000 62.64700 42.06300
H  29.05400 62.48000 40.60100
H  30.27700 63.72100 40.83100
H  29.01600 64.94900 42.10100
H  28.59600 63.55200 43.17300
H  27.66000 63.83100 41.74000
H  24.97200 60.55300 40.70600
H  25.45100 60.32600 42.30000
H  24.15900 59.27800 41.40100
H  26.14200 55.48100 38.28400
H  23.54000 51.92300 39.22200
H  23.85700 52.51100 40.77500
H  25.15300 51.52800 39.80600

