158

Mg -11.62200 37.46800 42.38300
C  -9.70800 34.74000 40.93800
C  -9.13800 39.50200 41.15100
C  -13.69800 39.98100 42.88500
C  -14.14700 35.11600 43.19000
N  -9.67400 37.17200 41.16600
C  -9.09400 35.99600 40.70900
C  -7.79300 36.21200 39.98000
C  -7.51700 37.68000 40.49100
C  -8.86200 38.19100 40.97400
C  -6.40200 37.75700 41.59300
C  -8.02600 36.03100 38.40800
C  -7.03900 35.18000 37.63600
H  -5.90200 35.82500 36.81800
N  -11.46100 39.56200 42.11700
C  -10.32500 40.23100 41.62000
C  -10.58100 41.60500 41.60900
C  -11.88500 41.84900 42.17800
C  -12.44200 40.44000 42.36900
C  -9.60800 42.69400 41.22100
C  -12.53000 43.12900 42.49100
O  -11.98900 44.15700 42.12500
C  -13.80900 43.27700 43.26800
N  -13.68400 37.52100 42.75200
C  -14.26600 38.68700 43.07700
C  -15.71700 38.47000 43.41000
C  -15.85600 36.93100 43.51600
C  -14.54000 36.48400 43.08200
C  -16.12300 39.18500 44.74900
C  -17.13100 36.42700 42.82200
C  -17.07900 36.35900 41.31400
N  -11.83100 35.37000 42.24800
C  -12.91000 34.62700 42.65600
C  -12.65900 33.24100 42.34000
C  -11.40300 33.26100 41.66100
C  -10.93800 34.52900 41.66200
C  -13.58500 32.01200 42.44400
C  -10.41600 32.39800 41.05100
O  -10.42100 31.18900 40.86500
C  -9.31500 33.36500 40.42700
C  -8.04800 32.77300 40.86400
O  -7.10800 32.61300 40.09800
O  -8.10000 32.32600 42.18800
C  -6.78800 32.39600 42.91300
H  -8.35300 40.18200 40.81300
H  -14.27200 40.83700 43.24600
H  -14.89300 34.32900 43.31500
H  -7.17100 35.43600 40.42500
H  -7.14500 38.25100 39.64100
H  -5.88800 36.80200 41.69800
H  -6.70300 38.22900 42.52800
H  -5.57100 38.32100 41.16900
H  -7.96000 36.96700 37.85300
H  -8.99900 35.56000 38.26700
H  -7.64800 34.49900 37.04100
H  -6.59300 34.47900 38.34100
H  -9.24600 43.23200 42.09700
H  -10.09600 43.36700 40.51700
H  -8.72600 42.28100 40.73000
H  -14.03600 44.29600 43.58400
H  -13.71900 42.61900 44.13200
H  -14.63200 42.92800 42.64500
H  -16.21700 38.77500 42.49000
H  -15.91800 36.53200 44.52800
H  -16.27800 40.25200 44.58600
H  -15.38000 39.23400 45.54400
H  -16.92800 38.61100 45.20800
H  -18.02200 36.95800 43.15800
H  -17.25000 35.38000 43.10300
H  -17.43000 35.36000 41.05400
H  -16.09500 36.50700 40.86900
H  -17.71900 37.14700 40.91700
H  -13.17400 31.08600 42.04100
H  -14.45000 32.32700 41.86100
H  -13.77400 31.58900 43.43100
H  -9.31600 33.29900 39.33900
H  -6.24800 31.46300 43.07500
H  -7.03100 32.65900 43.94200
H  -6.13400 33.14200 42.46100
Mg -1.54700 34.26000 26.70800
C  -3.32200 32.52800 29.15800
C  -0.24000 36.31600 29.12600
C  -0.17200 36.00100 24.27900
C  -3.32800 32.31000 24.25400
N  -1.95800 34.59000 28.88000
C  -2.46600 33.55500 29.65000
C  -2.26600 33.87300 31.15800
C  -1.33400 35.18600 31.05600
C  -1.22000 35.46400 29.62800
C  -1.74900 36.46000 31.84500
C  -1.69300 32.60300 31.83300
C  -2.53000 31.95700 32.99800
H  -1.72800 31.89500 34.38400
N  -0.17100 35.89300 26.74700
C  0.26000 36.58800 27.79500
C  1.19400 37.62900 27.36900
C  1.10700 37.55300 25.93600
C  0.16900 36.49400 25.58900
C  1.97100 38.51600 28.34900
C  1.83400 38.44600 24.88800
O  1.79900 38.32100 23.63000
C  2.64700 39.55200 25.45900
N  -1.86000 34.26500 24.60100
C  -1.03100 35.03600 23.80600
C  -1.23000 34.74100 22.27900
C  -1.83300 33.31400 22.40800
C  -2.46700 33.32700 23.84200
C  -2.09400 35.81500 21.52800
C  -0.87400 32.14600 21.99900
C  -0.05200 31.45600 23.09700
N  -2.99400 32.68700 26.66000
C  -3.56300 31.96600 25.60700
C  -4.30800 30.83200 26.15100
C  -4.27500 31.05200 27.54800
C  -3.46900 32.22400 27.81900
C  -5.07700 29.80100 25.43500
C  -4.73900 30.50300 28.75800
O  -5.42500 29.49600 28.95700
C  -4.11400 31.39400 29.89100
C  -5.17100 31.88600 30.75000
O  -5.92700 32.81600 30.34400
O  -5.43200 31.06000 31.80800
C  -6.48600 31.51900 32.71500
H  0.32000 36.73600 29.96400
H  0.14900 36.60300 23.42600
H  -3.68200 31.60600 23.49800
H  -3.26400 34.05200 31.55800
H  -0.34800 34.99900 31.48000
H  -2.65800 36.29300 32.42400
H  -1.88100 37.29400 31.15600
H  -0.98100 36.78700 32.54500
H  -0.67900 32.77800 32.19300
H  -1.49200 31.77100 31.15800
H  -2.74400 30.91400 32.76800
H  -3.40800 32.54700 33.26400
H  1.91100 39.57100 28.08300
H  3.03100 38.27000 28.29200
H  1.73800 38.32400 29.39700
H  1.96200 40.24400 25.94800
H  3.23800 39.97000 24.64400
H  3.32200 39.04200 26.14700
H  -0.28300 34.65200 21.74600
H  -2.78400 33.21200 21.88400
H  -2.12900 36.62700 22.25400
H  -3.05800 35.44500 21.18000
H  -1.60800 36.13100 20.60500
H  -0.14700 32.58400 21.31400
H  -1.38100 31.34400 21.46200
H  -0.35400 31.59700 24.13500
H  0.98800 31.76100 22.97700
H  -0.06300 30.38200 22.91200
H  -6.15400 29.96500 25.42400
H  -4.93900 28.79500 25.83100
H  -4.64400 29.74400 24.43600
H  -3.64700 30.67400 30.56400
H  -6.21800 32.50900 33.08500
H  -6.60800 30.90900 33.61000
H  -7.42300 31.71700 32.19500

