158

Mg 7.27600 53.30800 40.35800
C  6.50700 49.79000 40.41300
C  10.48400 52.54000 39.71900
C  7.79700 56.65500 39.98500
C  3.79700 53.98400 40.79400
N  8.35000 51.41600 40.04300
C  7.84100 50.12200 40.21600
C  9.02300 49.15600 40.13300
C  10.24200 50.04100 40.22700
C  9.66600 51.40000 39.99900
C  11.13400 50.01700 41.43200
C  9.15200 48.21600 38.83900
C  8.83300 48.90000 37.50500
H  7.67600 48.38200 36.67500
N  8.95300 54.47900 39.83600
C  10.21200 53.90700 39.56000
C  11.08100 54.95100 39.23700
C  10.40300 56.17700 39.44700
C  8.96500 55.85400 39.70700
C  12.55200 54.71300 38.94800
C  11.06300 57.64100 39.30300
O  12.26800 57.78500 39.05400
C  10.26600 58.84100 39.41800
N  5.93800 55.08800 40.28900
C  6.46300 56.30900 40.23200
C  5.40000 57.37200 40.66600
C  4.06400 56.54300 40.86900
C  4.65200 55.12200 40.68700
C  5.84200 58.48100 41.72700
C  2.93200 56.86100 39.76400
C  1.56400 57.05300 40.42000
N  5.51200 52.21900 40.40800
C  4.20900 52.59700 40.70300
C  3.42900 51.39600 41.06400
C  4.35100 50.34800 40.93400
C  5.56200 50.86300 40.55600
C  1.95000 51.36800 41.29700
C  4.46200 48.90100 41.12500
O  3.57200 48.05400 41.47300
C  5.89600 48.48400 40.77800
C  5.66500 47.53800 39.67000
O  5.34200 47.83300 38.52500
O  5.80700 46.23900 40.14700
C  5.42500 45.17800 39.14200
H  11.51100 52.20700 39.55100
H  8.00200 57.72400 40.07100
H  2.75500 54.05700 41.11300
H  9.08400 48.60100 41.07000
H  10.94600 49.91800 39.40300
H  12.13500 50.32800 41.13200
H  11.21500 49.00000 41.81600
H  10.96900 50.70300 42.26300
H  8.45000 47.38200 38.85800
H  10.15500 47.80200 38.73800
H  9.68600 48.99200 36.83300
H  8.70300 49.96500 37.69700
H  12.80500 53.67100 38.75600
H  13.06900 54.92000 39.88400
H  12.84100 55.30600 38.07900
H  10.78900 59.74100 39.09500
H  10.01900 58.86400 40.47900
H  9.36500 58.60500 38.85200
H  5.37600 57.88900 39.70600
H  3.76500 56.72400 41.90100
H  6.85300 58.19900 42.02000
H  5.12600 58.53500 42.54700
H  5.78700 59.43800 41.20700
H  2.83500 56.04100 39.05300
H  3.17200 57.70300 39.11400
H  0.94100 57.68500 39.78800
H  1.65100 57.58400 41.36800
H  1.08500 56.08000 40.52900
H  1.51500 51.94700 40.48200
H  1.78500 51.78000 42.29200
H  1.48400 50.38300 41.32300
H  6.38200 47.96500 41.60400
H  6.10500 44.33800 39.28600
H  5.66300 45.48000 38.12200
H  4.35900 44.95700 39.20100
Mg -12.81200 16.68000 41.77100
C  -9.77200 15.03900 41.27300
C  -11.42300 19.60400 40.56900
C  -15.88300 17.94000 41.53700
C  -14.26300 13.50800 42.68500
N  -10.86600 17.16300 40.80700
C  -9.73100 16.36900 40.90200
C  -8.57100 17.22200 40.47100
C  -9.12400 18.62100 40.17600
C  -10.55300 18.51000 40.63400
C  -8.33800 19.79500 40.83200
C  -7.68900 16.55600 39.42300
C  -6.11900 16.48300 39.66400
H  -5.37500 15.34700 39.01900
N  -13.45400 18.53100 41.27000
C  -12.75700 19.59600 40.77700
C  -13.65500 20.70200 40.50900
C  -15.00000 20.31200 40.84500
C  -14.78900 18.83900 41.26100
C  -13.12600 22.02500 40.00100
C  -16.29300 21.21500 40.81800
O  -16.29800 22.35400 40.35700
C  -17.65300 20.75700 41.51800
N  -14.80200 15.79600 42.28100
C  -15.91300 16.57400 41.97400
C  -17.16500 15.71100 42.06600
C  -16.63300 14.36500 42.48000
C  -15.10500 14.52300 42.41000
C  -18.45900 16.36900 42.78700
C  -17.24900 13.25600 41.64800
C  -17.49600 11.84800 42.32200
N  -12.24500 14.76400 41.96300
C  -12.90100 13.59300 42.40100
C  -11.92200 12.59100 42.65200
C  -10.70300 13.13400 42.18100
C  -10.91500 14.37600 41.72300
C  -12.20100 11.12300 43.16600
C  -9.31300 12.76900 42.04300
O  -8.68400 11.73800 42.15400
C  -8.68000 14.02000 41.42300
C  -7.68900 14.45700 42.46900
O  -7.91600 15.14600 43.46500
O  -6.51500 13.85600 42.15100
C  -5.47500 13.93600 43.23900
H  -10.90700 20.47900 40.16800
H  -16.87600 18.30300 41.26800
H  -14.65000 12.53600 42.99700
H  -7.87600 17.44400 41.28100
H  -9.06300 18.96800 39.14400
H  -7.38200 19.51500 41.27400
H  -8.92700 20.29500 41.60000
H  -8.00300 20.45300 40.03000
H  -7.70300 17.14000 38.50300
H  -8.10800 15.59300 39.13400
H  -6.03400 16.32900 40.73900
H  -5.61900 17.41600 39.40600
H  -13.89000 22.73600 39.68500
H  -12.54900 21.73400 39.12300
H  -12.52900 22.42000 40.82300
H  -18.31600 21.49900 41.96300
H  -17.41000 20.13000 42.37500
H  -18.23500 20.26900 40.73600
H  -17.45300 15.58400 41.02200
H  -16.68100 14.19200 43.55500
H  -18.75500 15.86200 43.70500
H  -19.27600 16.25300 42.07500
H  -18.37900 17.44000 42.97300
H  -16.59600 13.09400 40.79000
H  -18.23700 13.53400 41.28000
H  -18.53400 11.69400 42.61500
H  -17.03400 11.81000 43.30900
H  -17.04000 11.13900 41.63100
H  -11.23600 10.66300 43.37700
H  -12.76100 10.51000 42.45900
H  -12.71500 11.09800 44.12600
H  -8.15300 13.66200 40.53900
H  -5.29800 14.98700 43.46500
H  -4.51200 13.66100 42.80800
H  -5.59400 13.34400 44.14600

