158

Mg 6.90800 52.59100 42.12800
C  6.50100 49.04400 41.74300
C  10.26400 52.18200 41.02800
C  7.08100 55.82300 41.84900
C  3.52700 52.75200 42.75000
N  8.22700 50.81500 41.46800
C  7.80300 49.46500 41.34600
C  9.04000 48.59900 40.93100
C  10.25400 49.64600 41.12700
C  9.55800 50.99000 41.22100
C  11.33600 49.32500 42.22500
C  8.99400 47.86900 39.56700
C  8.82800 48.73400 38.25300
H  7.95100 48.17300 37.12700
N  8.50800 53.85000 41.58300
C  9.78100 53.55000 41.16800
C  10.55100 54.73200 41.02800
C  9.61200 55.84200 41.28400
C  8.31000 55.20500 41.52000
C  12.06600 54.65200 40.74300
C  10.02100 57.28200 41.12900
O  11.22000 57.56200 40.93200
C  9.03800 58.37700 41.42900
N  5.49100 54.06100 42.13700
C  5.83300 55.31900 42.22900
C  4.73200 56.22300 42.62600
C  3.56400 55.32300 43.05600
C  4.17900 53.94100 42.61000
C  5.03600 57.22400 43.79400
C  2.14900 55.60100 42.46600
C  2.01300 55.21000 40.98200
N  5.32900 51.23500 42.17600
C  4.01700 51.48600 42.48000
C  3.39400 50.23300 42.77100
C  4.31700 49.25000 42.37300
C  5.47400 49.89100 42.02600
C  1.94900 50.11800 43.28800
C  4.50200 47.84700 42.18300
O  3.76900 46.86700 42.30100
C  5.92200 47.68900 41.65800
C  5.71300 47.13300 40.29000
O  5.40400 47.72800 39.24300
O  6.09500 45.88700 40.37700
C  5.93900 44.98800 39.34500
H  11.32100 52.00900 40.81400
H  7.02400 56.90100 41.68400
H  2.47800 52.75600 43.05200
H  9.07700 47.84900 41.72200
H  10.86600 49.68800 40.22600
H  11.09600 48.48000 42.87100
H  11.59600 50.15900 42.87700
H  12.30500 49.05500 41.80300
H  8.32100 47.01700 39.46400
H  10.01600 47.49200 39.53100
H  9.85100 48.87100 37.90300
H  8.46700 49.73000 38.50900
H  12.55000 55.61100 40.92600
H  12.22800 54.41200 39.69200
H  12.51300 53.94000 41.43700
H  8.22300 58.28300 40.71100
H  9.61800 59.29300 41.32100
H  8.74800 58.14400 42.45400
H  4.49100 56.86700 41.78000
H  3.47800 55.16000 44.13000
H  4.14300 57.81200 44.00800
H  5.76100 57.91300 43.36100
H  5.37700 56.81900 44.74700
H  1.91700 56.66400 42.53300
H  1.49800 55.10100 43.18400
H  0.97900 55.40900 40.70200
H  2.14900 54.13400 40.87500
H  2.70100 55.75800 40.33800
H  1.77300 49.24000 43.91000
H  1.33800 50.06800 42.38600
H  1.67600 50.92400 43.96900
H  6.30800 46.91700 42.32400
H  6.88500 44.51100 39.08600
H  5.50200 45.42900 38.44900
H  5.34100 44.17700 39.76200
Mg -12.05700 37.91200 42.30000
C  -9.31200 35.85500 42.01900
C  -9.96900 40.73300 41.93100
C  -14.72600 39.91300 42.28300
C  -14.08600 35.07100 43.01500
N  -9.86900 38.18400 41.82100
C  -8.97700 37.19400 41.82500
C  -7.58300 37.81700 41.51800
C  -7.69500 39.32000 41.95300
C  -9.24000 39.49100 41.88900
C  -7.26600 39.57800 43.45800
C  -7.06200 37.70300 39.99100
C  -5.78600 36.86500 39.66900
H  -5.93800 35.80100 38.58400
N  -12.25500 40.03500 41.89900
C  -11.33300 41.02000 41.91800
C  -11.95500 42.35700 41.73400
C  -13.36400 42.15400 41.66700
C  -13.52300 40.59900 41.89600
C  -11.14400 43.72000 41.43600
C  -14.42200 43.20500 41.44300
O  -14.11200 44.35900 41.33200
C  -15.94300 42.91100 41.16700
N  -14.10000 37.60100 42.42700
C  -15.03000 38.57100 42.48900
C  -16.40400 38.09400 42.82500
C  -16.19800 36.56900 42.79500
C  -14.71300 36.37100 42.77800
C  -16.88100 38.63500 44.21100
C  -16.99700 35.71000 41.70300
C  -16.28100 35.14800 40.42500
N  -11.84000 35.84400 42.53800
C  -12.70300 34.83500 42.89000
C  -11.93700 33.62900 43.00600
C  -10.59400 33.95800 42.64900
C  -10.62200 35.31300 42.39400
C  -12.45700 32.29900 43.48300
C  -9.30100 33.46500 42.47200
O  -8.94400 32.31900 42.60300
C  -8.33600 34.66200 42.02900
C  -7.21800 34.79000 42.93300
O  -7.28300 35.17800 44.13400
O  -6.05100 34.15400 42.45200
C  -4.94400 33.87600 43.39300
H  -9.27100 41.57000 42.00500
H  -15.45000 40.67400 42.58000
H  -14.76700 34.27200 43.31500
H  -6.87900 37.36100 42.21400
H  -7.26200 40.02800 41.24600
H  -6.59800 38.81600 43.86200
H  -8.16700 39.73500 44.05000
H  -6.67000 40.48200 43.58600
H  -6.93300 38.71100 39.59700
H  -7.86400 37.22300 39.42900
H  -5.36800 36.31000 40.50900
H  -4.97300 37.54800 39.42400
H  -11.75600 44.43100 40.88000
H  -10.18700 43.52300 40.95300
H  -10.98100 44.17400 42.41300
H  -16.13700 41.88900 40.84100
H  -16.25300 43.52500 40.32200
H  -16.49000 43.20300 42.06300
H  -17.04800 38.40700 42.00300
H  -16.62500 36.12700 43.69500
H  -16.02400 38.88200 44.83800
H  -17.45000 37.80300 44.62600
H  -17.60100 39.45400 44.21100
H  -17.83900 36.29300 41.32900
H  -17.34900 34.84500 42.26500
H  -16.58800 34.10200 40.44100
H  -15.19700 35.24500 40.47900
H  -16.48800 35.65800 39.48400
H  -12.16700 32.15100 44.52300
H  -12.01500 31.43700 42.98500
H  -13.54400 32.24200 43.42600
H  -7.90100 34.47900 41.04700
H  -4.12500 33.44900 42.81300
H  -5.29500 33.02000 43.96900
H  -4.67600 34.67900 44.08000

