158

Mg 2.89400 -2.75800 43.71000
C  6.06100 -1.10800 43.17700
C  1.44600 -0.27900 42.04800
C  0.18800 -4.59600 43.63100
C  4.82700 -5.48400 45.05800
N  3.70300 -1.07900 42.67500
C  4.93000 -0.56300 42.49600
C  5.03000 0.76100 41.80800
C  3.52900 1.12800 41.72500
C  2.82900 -0.09800 42.23800
C  3.18900 2.45200 42.44400
C  5.86200 0.61200 40.43600
C  6.89200 1.78500 40.12400
H  6.49400 2.86000 39.11900
N  1.04500 -2.46300 42.89000
C  0.58800 -1.31700 42.31500
C  -0.77800 -1.46700 41.98600
C  -1.20100 -2.73000 42.47500
C  0.02000 -3.26700 43.08800
C  -1.56300 -0.42300 41.28100
C  -2.63200 -3.30800 42.39700
O  -3.51800 -2.67500 41.78400
C  -3.00000 -4.65100 43.08500
N  2.60900 -4.81700 44.23000
C  1.30000 -5.26100 44.13800
C  1.21600 -6.74900 44.66900
C  2.74300 -7.03100 45.02700
C  3.44200 -5.69700 44.77100
C  0.21300 -6.92000 45.81800
C  3.34000 -8.21000 44.23300
C  4.07400 -9.29900 45.02600
N  5.03400 -3.17100 44.23600
C  5.60400 -4.31200 44.70800
C  7.03900 -3.97900 44.97000
C  7.23600 -2.74300 44.40800
C  6.00100 -2.27000 43.94800
C  7.94300 -4.87900 45.77100
C  8.22200 -1.73900 44.17400
O  9.44300 -1.76000 44.36000
C  7.49300 -0.67500 43.26900
C  7.69300 0.59600 44.01600
O  7.21800 0.83500 45.15000
O  8.34400 1.55900 43.22200
C  8.26000 2.95900 43.77800
H  0.89900 0.58300 41.66000
H  -0.71500 -5.21000 43.62900
H  5.34100 -6.40800 45.33200
H  5.45100 1.53900 42.44500
H  3.04000 1.26200 40.76000
H  3.89300 3.24400 42.19000
H  3.19300 2.38400 43.53200
H  2.20000 2.73100 42.07900
H  5.20300 0.66300 39.56900
H  6.21900 -0.40300 40.26500
H  7.85600 1.38400 39.81100
H  6.98600 2.32800 41.06500
H  -0.85700 0.22800 40.76600
H  -2.28700 0.04800 41.94500
H  -2.19900 -0.95100 40.57000
H  -2.59900 -5.46900 42.48700
H  -4.08700 -4.71500 43.11500
H  -2.77900 -4.78000 44.14500
H  0.93400 -7.25000 43.74300
H  2.82100 -7.20900 46.10000
H  -0.29100 -7.88300 45.90400
H  -0.47200 -6.07600 45.73900
H  0.62500 -6.73800 46.81100
H  4.09900 -7.83100 43.54900
H  2.54100 -8.71300 43.68900
H  4.01500 -9.09000 46.09400
H  5.13800 -9.29100 44.78900
H  3.62600 -10.27900 44.86100
H  7.93900 -5.91100 45.41900
H  7.68700 -4.89500 46.83100
H  8.98300 -4.55900 45.71100
H  7.90900 -0.69300 42.26200
H  9.25400 3.36700 43.59600
H  8.14700 3.07800 44.85500
H  7.36900 3.42200 43.35200
Mg 45.84000 5.07400 49.01800
C  43.78500 7.86800 48.03800
C  43.12600 3.04500 48.06900
C  47.78900 2.48400 49.33300
C  48.61400 7.32500 49.30800
N  43.60300 5.44100 48.32800
C  43.08900 6.64700 47.86400
C  41.77400 6.42700 47.09900
C  41.44300 4.85800 47.39200
C  42.81600 4.39200 47.99700
C  40.26900 4.76100 48.39300
C  41.87200 6.76800 45.57500
C  40.93600 7.92800 45.13500
H  39.95000 7.64900 43.93000
N  45.51200 3.02100 48.83500
C  44.29900 2.39500 48.46500
C  44.56400 0.96600 48.40300
C  45.86700 0.77100 48.79600
C  46.46200 2.14800 48.97900
C  43.39600 0.00600 48.00100
C  46.58700 -0.63700 48.91900
O  45.92800 -1.67600 48.86700
C  48.08600 -0.74400 49.10500
N  47.92300 4.91700 49.14300
C  48.42700 3.68600 49.49800
C  49.88700 3.84500 49.87500
C  50.15500 5.40400 49.94600
C  48.84200 5.91800 49.34700
C  50.34100 3.13100 51.23500
C  51.40900 5.91700 49.10400
C  52.38400 6.84100 49.93100
N  46.18900 7.12800 48.84400
C  47.35900 7.85900 49.01000
C  46.99400 9.30900 48.85200
C  45.71200 9.29500 48.46100
C  45.21800 7.97400 48.47500
C  47.91800 10.44100 48.98200
C  44.59700 10.13300 48.07400
O  44.62600 11.38200 47.95800
C  43.32100 9.31500 47.83900
C  42.34400 9.70700 48.77600
O  42.15400 9.22000 49.90200
O  41.53200 10.66000 48.20600
C  40.33000 10.88300 48.98800
H  42.36000 2.33400 47.75100
H  48.36700 1.65900 49.75600
H  49.46300 7.94900 49.59200
H  40.99500 7.05800 47.52600
H  41.22900 4.30500 46.47700
H  39.80300 3.77600 48.37100
H  39.47800 5.47700 48.16900
H  40.59100 5.03000 49.39900
H  41.57200 5.88500 45.01100
H  42.90300 6.94900 45.27200
H  41.60700 8.69900 44.75600
H  40.45100 8.35800 46.01200
H  43.80200 -0.77500 47.35900
H  42.64400 0.44400 47.34400
H  43.03800 -0.40100 48.94600
H  48.41600 -1.73700 48.80200
H  48.31700 -0.49100 50.13900
H  48.50900 -0.09300 48.34000
H  50.35900 3.38900 49.00500
H  50.09600 5.83000 50.94700
H  49.53300 2.67600 51.80800
H  50.95900 3.76600 51.87000
H  50.91400 2.24400 50.96400
H  50.93000 6.48800 48.30900
H  52.00800 5.10100 48.69800
H  53.44800 6.62500 49.84000
H  52.11700 6.71600 50.98000
H  52.27200 7.90200 49.70700
H  48.31400 10.55800 49.99000
H  47.36800 11.31000 48.62100
H  48.67300 10.38300 48.19800
H  42.94900 9.42400 46.82100
H  40.61000 11.43900 49.88300
H  39.75000 9.97200 49.13900
H  39.66900 11.61200 48.52000

