158

Mg 45.18600 4.30100 47.84400
C  43.05600 6.95000 47.11000
C  42.59200 2.11700 47.05700
C  47.38600 1.62300 47.47600
C  47.85300 6.50500 47.93600
N  43.10700 4.53100 47.23200
C  42.48900 5.68100 46.89000
C  41.06200 5.36000 46.44600
C  40.85400 3.82500 46.77600
C  42.24600 3.44300 46.99700
C  39.75800 3.49900 47.88700
C  40.94500 5.78400 44.97100
C  40.02200 6.91000 44.53100
H  40.34800 7.77600 43.29000
N  44.99300 2.10500 47.67000
C  43.80400 1.49300 47.31800
C  44.08100 0.08300 47.12200
C  45.55200 -0.05400 47.33700
C  46.04300 1.28700 47.48300
C  43.04300 -0.99000 46.99500
C  46.29400 -1.41600 47.33300
O  45.66500 -2.44600 47.18000
C  47.75600 -1.55500 47.53500
N  47.32500 4.13900 47.71000
C  47.98800 2.89400 47.65100
C  49.54700 3.05300 47.82700
C  49.63800 4.57400 48.23300
C  48.21900 5.15200 47.96600
C  50.23100 2.12000 48.85700
C  50.83500 5.29000 47.50500
C  51.80800 6.24800 48.32100
N  45.41800 6.29400 47.72200
C  46.58800 7.09100 47.83100
C  46.21300 8.43000 47.75700
C  44.80200 8.44800 47.44400
C  44.38000 7.13900 47.41000
C  47.13100 9.60000 47.92400
C  43.63900 9.27300 47.29200
O  43.48100 10.49500 47.38700
C  42.38300 8.29900 47.07500
C  41.50800 8.43700 48.31500
O  41.66100 7.89800 49.39900
O  40.60000 9.39000 47.99800
C  39.56400 9.68000 49.01900
H  41.70800 1.48000 46.99400
H  48.07000 0.78300 47.33500
H  48.71600 7.17400 47.97100
H  40.31400 6.00300 46.91000
H  40.52700 3.29800 45.88000
H  39.08200 4.32000 48.12300
H  40.08800 3.02500 48.81100
H  39.12600 2.73000 47.44200
H  40.53600 4.86700 44.54700
H  41.94000 5.93300 44.55100
H  39.80000 7.67600 45.27500
H  39.07900 6.41800 44.29400
H  42.97900 -1.77700 47.74500
H  43.15400 -1.47600 46.02500
H  42.04500 -0.55200 46.95600
H  48.05200 -0.91700 48.36700
H  48.30400 -1.42100 46.60200
H  47.87500 -2.60400 47.80800
H  50.04800 2.88700 46.87300
H  49.78200 4.73600 49.30200
H  49.52800 1.53000 49.44500
H  50.79000 2.74200 49.55500
H  50.90400 1.47400 48.29300
H  50.43400 5.99300 46.77600
H  51.53200 4.60300 47.02600
H  52.78000 6.18800 47.83100
H  51.86600 6.06400 49.39400
H  51.45400 7.27600 48.23900
H  47.38900 9.55900 48.98200
H  46.55200 10.46300 47.59600
H  47.95200 9.38200 47.24000
H  41.81000 8.57600 46.19100
H  39.36200 8.69400 49.43800
H  38.65200 10.12100 48.61700
H  40.01800 10.33900 49.75800
Mg 5.26500 54.96200 41.43200
C  4.92000 51.57000 41.77000
C  8.12600 54.48400 39.54200
C  5.27700 58.16200 40.45000
C  2.01600 55.39300 42.80600
N  6.26700 53.25000 40.59700
C  5.98000 51.96400 40.92700
C  7.09000 51.04100 40.46600
C  8.25500 51.99100 40.02000
C  7.53600 53.32000 40.07400
C  9.55600 52.07400 40.90900
C  6.50800 50.17700 39.23800
C  5.33300 50.72600 38.36300
H  5.44600 51.09600 36.86800
N  6.50800 56.17900 40.14200
C  7.67500 55.80500 39.52300
C  8.34500 56.96800 38.92500
C  7.56300 58.05100 39.40800
C  6.40200 57.51300 40.05200
C  9.66600 56.90800 38.13100
C  8.00900 59.48700 39.24800
O  9.02700 59.77600 38.64600
C  7.33100 60.56100 39.92900
N  3.79500 56.44500 41.40300
C  4.06800 57.75000 41.01300
C  2.98100 58.76800 41.42100
C  1.79000 57.84900 41.90200
C  2.60300 56.50600 42.14300
C  3.29700 59.86400 42.55000
C  0.69200 57.57900 40.82800
C  -0.62600 56.88900 41.30700
N  3.85100 53.78100 42.47100
C  2.60800 54.07200 42.90200
C  1.99100 52.89700 43.41600
C  2.89000 51.82700 43.09900
C  4.02100 52.44000 42.40400
C  0.65000 52.80900 44.03000
C  3.24200 50.38900 43.16800
O  2.72900 49.48300 43.70700
C  4.52400 50.23300 42.33500
C  4.22100 49.18200 41.37400
O  3.35000 49.20400 40.55000
O  4.95100 48.08100 41.64900
C  4.74800 46.87700 40.79700
H  9.08000 54.25400 39.06300
H  5.29700 59.19000 40.08200
H  1.02600 55.60600 43.21400
H  7.49600 50.30000 41.15400
H  8.69700 51.83300 39.03700
H  9.61300 52.88500 41.63500
H  10.46100 52.13400 40.30500
H  9.57200 51.25800 41.63200
H  6.35900 49.15800 39.59500
H  7.27500 50.16900 38.46400
H  5.01700 51.70000 38.73600
H  4.45500 50.09700 38.51200
H  9.38200 57.04400 37.08700
H  10.07700 55.91400 38.30600
H  10.43600 57.53500 38.58200
H  6.40700 60.73500 39.37800
H  7.94900 61.44600 39.77700
H  7.13600 60.27300 40.96300
H  2.76900 59.31700 40.50300
H  1.37400 58.18300 42.85200
H  2.96200 60.84800 42.22100
H  4.34000 59.94000 42.85500
H  2.69900 59.72400 43.45000
H  1.16700 56.83200 40.19200
H  0.48800 58.47800 40.24700
H  -1.37900 57.52600 40.84300
H  -0.73700 56.98900 42.38600
H  -0.76400 55.85700 40.98400
H  0.23000 53.81300 43.97600
H  0.61000 52.46000 45.06200
H  0.00600 52.08700 43.52800
H  5.39500 49.84000 42.85900
H  3.76400 46.47300 41.03200
H  5.58200 46.19000 40.94300
H  4.77000 47.00900 39.71500

