158

Mg -0.10700 7.95300 27.46800
C  0.75400 10.19900 30.04300
C  0.28400 5.38400 29.86200
C  -0.63200 5.82000 25.00300
C  0.24500 10.65400 25.22400
N  0.43500 7.76000 29.71800
C  0.53000 8.90100 30.56600
C  0.52500 8.50900 32.02400
C  0.79800 6.94600 31.94700
C  0.52500 6.64600 30.42900
C  2.22800 6.49600 32.33400
C  -0.86300 8.84600 32.66900
C  -0.83100 9.17700 34.22300
H  0.43400 8.86100 34.97500
N  -0.28200 5.88900 27.50000
C  -0.09200 5.01600 28.51700
C  -0.27000 3.63300 27.97500
C  -0.62800 3.75100 26.59700
C  -0.55900 5.20900 26.28800
C  -0.20300 2.41600 28.85700
C  -1.00000 2.60900 25.60300
O  -1.32400 2.80700 24.43700
C  -0.92500 1.17700 26.04200
N  -0.16600 8.23100 25.46800
C  -0.44300 7.19500 24.56200
C  -0.30300 7.68900 23.07600
C  -0.47100 9.22400 23.27400
C  -0.10700 9.41200 24.75500
C  1.02300 7.21500 22.31500
C  -1.91100 9.86000 22.85700
C  -1.98400 10.95400 21.77200
N  0.37400 9.94700 27.56100
C  0.48600 10.94000 26.54800
C  0.89400 12.14400 27.16800
C  0.93300 11.87800 28.50000
C  0.64200 10.55600 28.71900
C  1.18300 13.53300 26.49000
C  1.16500 12.52700 29.76400
O  1.42600 13.71100 29.97500
C  1.00300 11.41700 30.82800
C  2.23300 11.45700 31.64000
O  3.24600 10.86100 31.34300
O  2.06500 12.23300 32.75300
C  3.26400 12.42800 33.60300
H  0.27400 4.61500 30.63700
H  -0.74400 5.11400 24.17800
H  0.26400 11.55900 24.61400
H  1.34700 9.01000 32.53500
H  0.01500 6.54800 32.59100
H  2.92800 7.28800 32.60200
H  2.67500 6.00500 31.47000
H  2.27400 5.69900 33.07700
H  -1.64500 8.16500 32.33200
H  -1.17200 9.77000 32.18000
H  -1.73100 8.68400 34.58800
H  -1.11200 10.22400 34.33800
H  -1.18900 2.07900 29.17600
H  0.27800 2.67600 29.80000
H  0.35100 1.64300 28.32600
H  -1.68300 0.90000 26.77400
H  0.10900 1.00100 26.33900
H  -1.05300 0.50200 25.19600
H  -1.18100 7.24800 22.60300
H  0.30600 9.82400 22.80100
H  0.81300 6.58900 21.44700
H  1.61900 6.62800 23.01400
H  1.59600 8.11700 22.10400
H  -2.36600 10.26200 23.76200
H  -2.53500 9.02300 22.54600
H  -2.52100 10.56000 20.90900
H  -1.00700 11.34200 21.48200
H  -2.48300 11.83800 22.16900
H  0.54800 13.84000 25.66000
H  2.20400 13.60200 26.11500
H  0.97200 14.24300 27.28900
H  0.22600 11.75300 31.51400
H  3.06200 12.08200 34.61700
H  3.55000 13.47300 33.72100
H  4.14300 11.85800 33.30100
Mg 47.00800 16.82600 28.16900
C  45.24100 16.05200 31.03500
C  49.37000 18.54100 30.28700
C  48.64800 17.88400 25.45800
C  44.35800 15.67000 26.21500
N  47.20000 17.35400 30.44400
C  46.38300 16.80200 31.40000
C  46.85600 17.14300 32.79200
C  48.05800 18.16600 32.44000
C  48.30900 17.94400 30.98900
C  47.77700 19.61000 32.82000
C  47.29400 15.95000 33.65900
C  47.97400 16.29100 35.06800
H  48.01600 17.77500 35.61400
N  48.77900 18.00100 27.85600
C  49.59500 18.49500 28.87800
C  50.78300 19.16900 28.21200
C  50.62300 18.92800 26.78400
C  49.31300 18.23900 26.65900
C  51.92100 19.86400 28.89500
C  51.48200 19.44700 25.59900
O  51.15500 19.31700 24.43000
C  52.87500 20.04900 25.84900
N  46.49400 17.02500 26.15200
C  47.38700 17.37200 25.20600
C  46.81700 17.14200 23.79100
C  45.63000 16.23400 24.08000
C  45.43800 16.31200 25.54600
C  46.71200 18.39300 22.89700
C  45.66800 14.69900 23.64800
C  46.31100 13.69200 24.59400
N  45.23500 16.04300 28.50700
C  44.21500 15.49500 27.63700
C  43.18500 14.91400 28.38200
C  43.58500 15.09200 29.68200
C  44.80300 15.83700 29.74300
C  41.82300 14.32500 27.93900
C  43.12700 14.89700 31.01100
O  42.16000 14.34700 31.46200
C  44.06800 15.62000 31.93400
C  43.29400 16.72300 32.55300
O  42.73200 17.56900 31.89300
O  43.27700 16.72100 33.98300
C  42.47600 17.78200 34.52900
H  50.11500 18.88400 31.00800
H  49.22600 18.08900 24.55400
H  43.61300 15.10600 25.65000
H  46.12300 17.64800 33.42200
H  48.97300 17.81000 32.91300
H  47.90200 20.29000 31.97700
H  48.60100 19.72700 33.52400
H  46.84700 19.73100 33.37500
H  48.02900 15.40000 33.07000
H  46.33500 15.43200 33.69100
H  48.97500 15.87200 34.96300
H  47.47500 15.66600 35.80800
H  52.79600 19.21300 28.91400
H  51.64500 20.14300 29.91200
H  52.16700 20.75300 28.31400
H  52.82000 21.04000 26.29900
H  53.41800 20.28800 24.93400
H  53.48600 19.37200 26.44700
H  47.54900 16.48100 23.32600
H  44.80700 16.61300 23.47400
H  47.36400 18.25800 22.03500
H  47.12700 19.15900 23.55300
H  45.69800 18.65800 22.59500
H  46.14600 14.62700 22.67100
H  44.64700 14.34000 23.52700
H  45.44000 13.22100 25.05100
H  46.92900 14.23800 25.30700
H  46.90300 12.86900 24.19200
H  41.32200 14.64300 27.02500
H  41.07000 14.50800 28.70500
H  41.85900 13.24200 27.81900
H  44.31900 14.91100 32.72300
H  43.10200 18.63400 34.79300
H  42.11600 17.32800 35.45200
H  41.55300 18.11500 34.05400

