158

Mg -12.47700 38.32900 42.56300
C  -9.83600 36.05200 41.92900
C  -10.68300 40.69800 40.85700
C  -15.19200 39.99100 42.45000
C  -14.27700 35.40600 43.66000
N  -10.53900 38.35300 41.46100
C  -9.66700 37.28300 41.31800
C  -8.49800 37.78800 40.42000
C  -8.55100 39.38300 40.49800
C  -9.99800 39.51800 40.95700
C  -7.49100 40.12400 41.36400
C  -8.63000 37.19100 39.02600
C  -7.54900 36.11600 38.73500
H  -6.58900 36.39300 37.64100
N  -12.88900 40.14700 41.89900
C  -11.96000 41.04400 41.29400
C  -12.60400 42.27400 41.06000
C  -13.99100 42.07000 41.47900
C  -14.07400 40.65700 41.97300
C  -11.94900 43.40800 40.41300
C  -15.05400 43.18200 41.50200
O  -14.78200 44.24200 40.91300
C  -16.37300 43.06600 42.20300
N  -14.51700 37.67400 42.70100
C  -15.46300 38.62100 42.80000
C  -16.77900 38.07900 43.30200
C  -16.47300 36.58700 43.53000
C  -15.01300 36.51700 43.26400
C  -17.24200 38.80900 44.63300
C  -17.32300 35.59600 42.68000
C  -17.60400 34.23200 43.37400
N  -12.07100 36.17100 42.95500
C  -12.90900 35.18900 43.41000
C  -12.11200 33.97300 43.60500
C  -10.85200 34.25400 43.07000
C  -10.97300 35.62000 42.61400
C  -12.41600 32.69000 44.22300
C  -9.44000 33.78900 42.82700
O  -8.95600 32.70600 43.13100
C  -8.79500 34.90600 41.97900
C  -7.38700 35.11500 42.45800
O  -6.35900 34.46800 42.17100
O  -7.40700 36.27000 43.14800
C  -6.21800 36.95000 43.54900
H  -10.04700 41.47200 40.42300
H  -16.15700 40.49400 42.53900
H  -14.88700 34.56600 43.99600
H  -7.54000 37.49800 40.85200
H  -8.31700 39.84900 39.54100
H  -7.96100 40.72800 42.14100
H  -6.75300 40.72900 40.83800
H  -6.95300 39.38800 41.96100
H  -8.43300 37.96100 38.27900
H  -9.61900 36.74700 38.90700
H  -8.06800 35.29500 38.24000
H  -7.07500 35.76500 39.65200
H  -12.45800 43.77800 39.52200
H  -10.94200 43.17400 40.06900
H  -11.84300 44.23500 41.11400
H  -16.17300 42.72100 43.21700
H  -17.00900 42.38000 41.64300
H  -16.91700 44.00600 42.29400
H  -17.56800 38.17700 42.55700
H  -16.58300 36.31900 44.58100
H  -17.87900 38.25300 45.32200
H  -17.83100 39.67200 44.32400
H  -16.30800 39.10200 45.11300
H  -16.68800 35.50800 41.79900
H  -18.26800 36.07200 42.41900
H  -18.67200 34.01900 43.40800
H  -17.08500 34.21000 44.33300
H  -17.18700 33.35900 42.87200
H  -13.27700 32.89200 44.86100
H  -11.60400 32.28000 44.82200
H  -12.63900 31.95300 43.45100
H  -8.67200 34.54500 40.95800
H  -6.54900 37.87400 44.02200
H  -5.59200 37.13200 42.67500
H  -5.70600 36.34900 44.30100
Mg -5.19600 25.78400 26.98000
C  -3.66400 27.08200 29.88100
C  -6.70100 23.29400 28.74800
C  -5.86400 24.29500 24.05500
C  -2.82000 27.89600 25.09800
N  -5.01400 25.24800 29.04400
C  -4.54400 26.04700 30.11200
C  -5.11300 25.47200 31.43900
C  -6.04500 24.31800 31.04100
C  -5.82500 24.20800 29.47400
C  -5.85100 23.04300 31.83000
C  -5.60200 26.61900 32.41000
C  -6.72300 26.27700 33.44200
H  -6.39300 25.36400 34.69500
N  -6.25200 24.08600 26.44800
C  -6.87500 23.23300 27.34400
C  -7.70400 22.31200 26.63200
C  -7.49100 22.49900 25.21900
C  -6.51800 23.67700 25.19900
C  -8.76400 21.53200 27.34200
C  -8.03400 21.78900 24.05100
O  -7.78000 22.11200 22.86800
C  -9.07700 20.73600 24.05400
N  -4.50000 26.06200 24.92400
C  -4.97600 25.31800 23.89400
C  -4.57200 25.79700 22.52300
C  -3.50300 26.87000 22.93400
C  -3.61200 26.97400 24.38900
C  -4.01000 24.65500 21.56300
C  -3.70000 28.21400 22.18800
C  -3.68100 28.31900 20.66500
N  -3.61500 27.27200 27.36100
C  -2.76900 27.97900 26.51300
C  -2.09100 28.90900 27.31400
C  -2.27800 28.50500 28.65400
C  -3.28600 27.56900 28.60100
C  -1.12700 30.01300 26.82600
C  -1.91500 28.86100 29.97800
O  -1.10300 29.60600 30.48500
C  -2.81100 28.02600 30.86500
C  -2.00800 27.21900 31.85600
O  -1.21000 26.36200 31.56600
O  -2.14600 27.74100 33.13300
C  -1.10100 27.37500 34.06800
H  -7.11800 22.46500 29.32300
H  -6.16000 23.77800 23.14000
H  -2.16300 28.59100 24.57100
H  -4.37000 24.96600 32.05600
H  -7.09300 24.61700 31.01900
H  -6.71500 22.85500 32.46800
H  -5.02200 23.02300 32.53700
H  -5.64400 22.18900 31.18600
H  -5.99600 27.35900 31.71300
H  -4.86800 27.15400 33.01200
H  -7.54400 25.87400 32.84800
H  -7.11300 27.18700 33.89800
H  -8.83400 20.52700 26.92600
H  -9.70700 22.02500 27.10500
H  -8.61400 21.56400 28.42100
H  -8.55700 19.78300 24.14700
H  -9.77300 20.81500 23.21900
H  -9.63400 20.98000 24.95900
H  -5.46500 26.17400 22.02400
H  -2.59200 26.42000 22.54000
H  -4.71300 24.34700 20.78800
H  -3.86600 23.75600 22.16100
H  -3.06000 24.91900 21.09900
H  -2.91800 28.88900 22.53700
H  -4.68800 28.61500 22.41700
H  -4.70900 28.33000 20.30400
H  -3.30800 27.34200 20.35800
H  -3.11500 29.16400 20.27300
H  -0.27100 29.90600 27.49100
H  -1.70700 30.93600 26.84100
H  -0.77800 29.78900 25.81800
H  -3.36300 28.81500 31.37600
H  -1.17500 26.28700 34.09800
H  -1.23200 27.86800 35.03100
H  -0.19600 27.78800 33.62200

