158

Mg 1.17300 7.91500 25.45800
C  1.97000 9.84300 28.28600
C  1.03400 5.07500 27.37900
C  1.17700 5.98600 22.54100
C  1.59100 10.85900 23.47700
N  1.53400 7.53800 27.60200
C  1.77800 8.49000 28.59200
C  1.58100 7.85400 29.96500
C  1.48500 6.30800 29.64900
C  1.30600 6.28100 28.13800
C  2.75300 5.42200 30.09500
C  0.29500 8.18800 30.77900
C  0.18700 7.79400 32.22200
H  1.22600 6.96400 32.99500
N  1.00100 5.85300 25.04900
C  0.95600 4.81900 25.99400
C  0.99800 3.52400 25.39400
C  0.94000 3.80900 23.97600
C  1.06100 5.33100 23.75700
C  1.15600 2.23200 26.18500
C  0.79600 2.83000 22.82900
O  0.92800 3.09900 21.64100
C  0.52700 1.31400 23.17000
N  1.33800 8.30900 23.38900
C  1.33700 7.39100 22.36400
C  1.48800 7.98900 21.00500
C  1.33400 9.56700 21.20900
C  1.33200 9.60600 22.79600
C  2.96500 7.78200 20.43200
C  -0.03800 10.17100 20.62000
C  -0.09800 11.70800 20.40500
N  1.59700 9.96500 25.72500
C  1.80100 11.03800 24.84900
C  2.20800 12.21100 25.55800
C  2.20800 11.81900 26.89400
C  1.95700 10.42600 26.96600
C  2.33800 13.56700 24.93700
C  2.37500 12.21800 28.27000
O  2.67300 13.29200 28.71400
C  2.08500 11.01000 29.19700
C  3.24900 10.96300 30.12000
O  4.37300 10.56600 29.79900
O  2.86800 11.39400 31.38700
C  4.02600 11.51400 32.30600
H  0.99800 4.22900 28.06800
H  1.01400 5.49500 21.57900
H  1.82600 11.74100 22.87800
H  2.48900 8.10100 30.51500
H  0.53600 5.81300 29.85600
H  3.20500 5.81900 31.00400
H  3.49000 5.56400 29.30400
H  2.45800 4.37900 30.21100
H  -0.52500 7.79700 30.17700
H  0.38600 9.26600 30.91500
H  -0.68200 7.13800 32.26800
H  0.01100 8.63600 32.89100
H  1.55300 1.39200 25.61500
H  0.30000 2.02800 26.82700
H  1.93100 2.50400 26.90100
H  -0.04400 1.02100 24.05200
H  1.51200 0.94900 23.46000
H  0.15300 0.86900 22.24800
H  0.77700 7.55300 20.30300
H  2.16700 10.15000 20.81800
H  3.59900 7.30900 21.18100
H  3.54100 8.66000 20.13900
H  2.78800 7.15100 19.56100
H  -0.78900 9.91600 21.36800
H  -0.20200 9.75400 19.62700
H  -0.23000 11.94900 19.35000
H  0.77400 12.17000 20.86800
H  -0.96700 12.15500 20.88900
H  1.38900 13.66200 24.40900
H  3.12300 13.60400 24.18200
H  2.42800 14.34800 25.69200
H  1.12000 11.16200 29.68100
H  3.99100 12.56500 32.59200
H  5.03300 11.23800 31.99300
H  3.80100 10.92600 33.19600
Mg -10.01800 16.96600 40.44500
C  -6.60900 16.84400 40.54400
C  -9.76700 20.35800 39.57300
C  -13.40000 17.04400 39.95900
C  -10.05800 13.48900 40.44500
N  -8.35200 18.34600 39.96100
C  -7.07600 18.05000 40.10500
C  -6.26500 19.22300 39.53500
C  -7.17000 20.43900 39.74400
C  -8.50400 19.71300 39.75300
C  -6.95000 21.30900 40.98700
C  -5.79100 18.94200 38.07100
C  -4.37800 18.61500 37.66000
H  -4.14500 17.22900 37.01400
N  -11.38200 18.53400 39.92200
C  -11.08300 19.86600 39.54600
C  -12.30800 20.56900 39.28300
C  -13.37600 19.61400 39.44900
C  -12.72100 18.33200 39.82200
C  -12.27700 22.02200 38.99900
C  -14.79100 19.91200 39.36000
O  -15.10400 21.08400 39.13600
C  -15.87000 18.96200 39.59200
N  -11.47900 15.49300 40.18700
C  -12.85600 15.76700 40.06300
C  -13.68500 14.47500 39.98300
C  -12.51000 13.33500 39.95300
C  -11.25600 14.16500 40.19800
C  -14.67100 14.23600 41.10800
C  -12.33000 12.57000 38.58200
C  -12.39500 11.00400 38.63600
N  -8.67500 15.36900 40.57100
C  -8.82700 14.09400 40.64100
C  -7.46200 13.46200 40.98600
C  -6.58300 14.54100 41.06600
C  -7.37000 15.63200 40.70800
C  -7.30300 11.99400 41.20600
C  -5.20900 14.94900 41.25600
O  -4.25700 14.26300 41.66500
C  -5.10900 16.42700 40.82400
C  -4.62600 17.36500 41.93400
O  -5.30200 18.17500 42.53600
O  -3.32900 17.10800 42.24300
C  -2.73800 18.01100 43.24000
H  -9.60500 21.38900 39.25100
H  -14.44700 17.01300 39.65100
H  -10.18500 12.40500 40.47200
H  -5.38000 19.24900 40.17100
H  -7.25700 21.17200 38.94200
H  -6.04800 21.00600 41.51800
H  -7.80200 21.18000 41.65500
H  -6.75600 22.34300 40.70500
H  -6.02300 19.79500 37.43400
H  -6.41600 18.16000 37.64000
H  -3.75500 18.72000 38.54800
H  -4.14500 19.32500 36.86700
H  -12.25200 22.59300 39.92700
H  -13.03100 22.25300 38.24700
H  -11.32800 22.28300 38.52900
H  -15.70100 18.51800 40.57300
H  -15.86100 18.20200 38.81000
H  -16.84600 19.44500 39.56600
H  -14.27800 14.46100 39.06800
H  -12.67200 12.64200 40.77900
H  -14.47300 14.93900 41.91700
H  -14.55400 13.20300 41.43400
H  -15.71100 14.48300 40.89200
H  -11.34200 12.78700 38.17400
H  -13.00900 12.91400 37.80200
H  -12.00800 10.70800 39.61100
H  -11.63900 10.58200 37.97300
H  -13.39800 10.62300 38.44500
H  -6.47100 11.66100 41.82700
H  -7.15100 11.46600 40.26500
H  -8.12200 11.51300 41.74100
H  -4.53100 16.53800 39.90700
H  -2.80400 18.98600 42.75700
H  -1.69400 17.91700 43.54100
H  -3.36100 17.99200 44.13400

