158

Mg 47.31500 24.47700 28.45000
C  48.10600 26.84800 31.01200
C  46.39800 22.34600 31.06500
C  47.11400 22.10000 26.23500
C  48.51300 26.74000 26.12100
N  47.29900 24.63600 30.75100
C  47.48100 25.68300 31.58700
C  47.12100 25.47800 33.11300
C  46.69600 23.99400 33.00900
C  46.77500 23.62500 31.48100
C  47.70500 23.09900 33.88300
C  46.10300 26.48900 33.64600
C  46.46900 27.18000 34.98100
H  45.34100 27.43800 36.05600
N  46.77300 22.49400 28.58600
C  46.40200 21.84300 29.74300
C  45.89600 20.57000 29.35400
C  46.14400 20.38500 27.99500
C  46.70200 21.66900 27.55200
C  45.23800 19.55300 30.32600
C  45.85100 19.16500 27.12700
O  46.11000 19.09400 25.93200
C  45.16700 17.98000 27.68800
N  47.76500 24.40300 26.42000
C  47.58500 23.28100 25.71100
C  47.72600 23.60800 24.21700
C  48.03600 25.13200 24.28300
C  48.14800 25.44300 25.68300
C  48.89200 22.77500 23.63700
C  47.00100 25.99300 23.55400
C  45.49500 25.70500 23.76700
N  48.09500 26.40800 28.48000
C  48.53300 27.20000 27.41600
C  48.92200 28.43700 27.92400
C  48.76700 28.41600 29.35900
C  48.29700 27.07600 29.62600
C  49.46100 29.52500 27.00800
C  48.94200 29.06900 30.59700
O  49.33200 30.22000 30.80800
C  48.52600 28.09100 31.72600
C  49.70300 27.86600 32.69300
O  50.64400 27.11800 32.39600
O  49.49900 28.45400 33.95600
C  50.68000 28.58700 34.82700
H  46.07200 21.60100 31.79400
H  47.05600 21.29400 25.50100
H  48.66700 27.46000 25.31500
H  48.04000 25.51500 33.69800
H  45.68000 23.86900 33.38400
H  47.93900 23.64500 34.79700
H  48.64300 22.99100 33.33900
H  47.24000 22.13700 34.09800
H  45.11900 26.02800 33.73200
H  45.97500 27.30600 32.93700
H  46.90600 28.13300 34.68000
H  47.28300 26.69700 35.52200
H  44.93700 20.05600 31.24500
H  45.87700 18.72200 30.62500
H  44.27600 19.11200 30.06300
H  45.61100 17.64700 28.62600
H  45.13700 17.17400 26.95500
H  44.10700 18.19500 27.81700
H  46.85100 23.23600 23.68400
H  48.98200 25.26000 23.75700
H  48.32100 22.03600 23.07400
H  49.63900 22.39600 24.33500
H  49.49100 23.35600 22.93700
H  47.33000 25.75900 22.54200
H  47.07000 27.06500 23.74000
H  44.97700 25.23900 22.92900
H  44.93100 26.62100 23.94600
H  45.51000 25.10700 24.67800
H  49.34200 30.48500 27.51200
H  48.90400 29.56000 26.07200
H  50.49500 29.28700 26.76000
H  47.82200 28.66700 32.32600
H  50.64700 27.71800 35.48500
H  50.88600 29.46200 35.44300
H  51.52900 28.39600 34.17100
Mg -4.89400 25.66400 25.42300
C  -3.39800 27.23600 28.38500
C  -6.29800 23.31000 27.64800
C  -5.95800 23.89200 22.88900
C  -2.90300 27.61400 23.55500
N  -4.93700 25.43000 27.76100
C  -4.35400 26.18200 28.75900
C  -4.74400 25.59200 30.19900
C  -5.74700 24.47200 29.83700
C  -5.56200 24.32900 28.30500
C  -5.36500 23.08600 30.45000
C  -5.23600 26.70100 31.16800
C  -6.31400 26.31000 32.24500
H  -5.95400 25.11000 33.12900
N  -6.15700 23.99400 25.31000
C  -6.56900 23.16300 26.26800
C  -7.45400 22.13500 25.77000
C  -7.40500 22.31100 24.41900
C  -6.49700 23.41900 24.09600
C  -8.16300 21.08500 26.66900
C  -8.15500 21.52700 23.27700
O  -7.99700 21.76000 22.06400
C  -9.12200 20.35900 23.66000
N  -4.46900 25.67800 23.54300
C  -5.05600 24.93100 22.55300
C  -4.80200 25.42400 21.16800
C  -3.92900 26.68700 21.39800
C  -3.70400 26.62400 22.96900
C  -4.20100 24.42900 20.20600
C  -4.58000 28.09800 21.06900
C  -3.77700 29.09900 20.25900
N  -3.36100 27.12400 25.84800
C  -2.63900 27.84100 24.93400
C  -1.86400 28.83700 25.60200
C  -2.10200 28.60800 26.99600
C  -3.05400 27.57100 27.10000
C  -0.90800 29.78600 24.89700
C  -1.73400 29.08800 28.25800
O  -0.94400 29.96900 28.68900
C  -2.59100 28.18300 29.26300
C  -1.66500 27.55500 30.19400
O  -0.85700 26.75200 29.88600
O  -1.92500 27.97700 31.55400
C  -1.16100 27.29400 32.61300
H  -6.73200 22.64100 28.39400
H  -6.28000 23.29400 22.03300
H  -2.31700 28.17400 22.82200
H  -3.82100 25.19700 30.62300
H  -6.80300 24.62000 30.06100
H  -5.17500 22.35700 29.66200
H  -6.21000 22.79200 31.07200
H  -4.55600 23.06300 31.17900
H  -5.65400 27.57700 30.67300
H  -4.38400 27.12500 31.69900
H  -7.29100 26.28500 31.76100
H  -6.40400 27.16800 32.91100
H  -8.37100 20.21500 26.04700
H  -9.06900 21.61700 26.96300
H  -7.48000 20.86100 27.48800
H  -9.93300 20.68600 24.31000
H  -8.45500 19.59600 24.06100
H  -9.63800 20.04500 22.75200
H  -5.77300 25.67100 20.73900
H  -2.95800 26.74100 20.90500
H  -3.88500 23.44300 20.54700
H  -3.29600 24.82000 19.74000
H  -4.88800 24.14300 19.41000
H  -4.74700 28.80700 21.87900
H  -5.50900 27.94800 20.51900
H  -2.74000 28.79100 20.39400
H  -3.81500 30.08900 20.71600
H  -4.10400 29.12000 19.22000
H  -1.43200 30.27900 24.07800
H  0.06100 29.34900 24.65600
H  -0.71800 30.55400 25.64700
H  -3.30400 28.86300 29.72800
H  -0.24700 26.78900 32.30200
H  -1.84700 26.56100 33.03700
H  -0.82200 27.97100 33.39700

