158

Mg 44.77900 5.52600 46.70200
C  42.48400 8.32600 46.99900
C  41.99200 3.46200 46.46700
C  46.81200 3.00500 46.56900
C  47.32600 7.88700 46.22100
N  42.55000 5.93900 46.81600
C  41.85700 7.10300 46.91800
C  40.27800 6.82500 46.80900
C  40.23400 5.28700 46.75000
C  41.66800 4.87100 46.72800
C  39.29400 4.54400 47.73800
C  39.49300 7.47200 45.61300
C  40.11300 7.42100 44.21400
H  40.20600 8.68600 43.39000
N  44.46900 3.53700 46.47600
C  43.30200 2.83000 46.46700
C  43.55500 1.43000 46.40200
C  44.96200 1.28600 46.34100
C  45.47800 2.60800 46.49700
C  42.42700 0.34300 46.50500
C  45.74100 -0.10000 46.24300
O  45.09500 -1.14200 46.32700
C  47.22900 -0.16700 45.91400
N  46.76500 5.42000 46.16400
C  47.41500 4.26100 46.47000
C  48.93200 4.49400 46.48300
C  49.01000 5.88700 45.81000
C  47.65700 6.49000 46.13700
C  49.59900 4.32100 47.92800
C  49.25200 5.86900 44.30600
C  50.67800 6.25600 43.90500
N  44.98200 7.67300 46.80400
C  46.08800 8.49500 46.52500
C  45.68300 9.89400 46.63100
C  44.33800 9.85300 46.93200
C  43.92600 8.52300 46.95200
C  46.43100 11.27000 46.47600
C  43.17400 10.68200 47.16300
O  43.06300 11.92500 47.21000
C  41.93500 9.74500 47.12100
C  40.92700 9.87100 48.28500
O  41.00200 9.20300 49.26100
O  39.96300 10.82000 47.92300
C  38.88100 11.00500 48.91600
H  41.11000 2.90900 46.13600
H  47.52700 2.18900 46.69200
H  48.20200 8.50300 46.01000
H  39.92200 7.01700 47.82100
H  39.87700 5.00700 45.75800
H  38.40700 4.22200 47.19300
H  39.04000 5.10900 48.63400
H  39.81000 3.69100 48.17800
H  39.23900 8.52400 45.73900
H  38.55400 6.93500 45.48200
H  39.62100 6.63600 43.64100
H  41.18500 7.28500 44.35600
H  42.49300 -0.27000 45.60600
H  41.42900 0.76100 46.63100
H  42.54800 -0.35200 47.33600
H  47.44600 -1.14400 45.48100
H  47.61500 0.02300 46.91500
H  47.58700 0.57700 45.20200
H  49.50500 3.77200 45.90000
H  49.69100 6.51600 46.38400
H  50.60700 3.90500 47.93700
H  48.96800 3.62700 48.48200
H  49.65600 5.30600 48.39200
H  48.52300 6.46300 43.75400
H  49.12900 4.83400 43.99000
H  51.18000 5.50100 43.30000
H  51.36200 6.56400 44.69600
H  50.49500 7.12000 43.26600
H  46.39900 11.76400 47.44700
H  45.86500 11.89100 45.78200
H  47.46100 11.05200 46.19200
H  41.38200 9.90200 46.19500
H  38.88300 12.05000 49.22700
H  39.08700 10.38000 49.78500
H  37.86500 10.86600 48.54700
Mg -5.67000 25.75300 25.62400
C  -4.36400 26.90200 28.69800
C  -7.56800 23.62900 27.42800
C  -6.51000 24.35500 22.71900
C  -3.50600 27.94900 23.95800
N  -5.74600 25.16600 27.79300
C  -5.15900 25.81500 28.83000
C  -5.72600 25.33200 30.16700
C  -6.52500 23.97800 29.79100
C  -6.65600 24.26000 28.25900
C  -5.94800 22.64000 30.17000
C  -6.64400 26.39800 30.74900
C  -6.59600 26.63000 32.24600
H  -5.98200 25.49200 33.05900
N  -7.01200 24.34000 25.13600
C  -7.73200 23.61600 26.01400
C  -8.66800 22.83800 25.27600
C  -8.24700 22.79500 23.92800
C  -7.21400 23.87600 23.86800
C  -9.84200 22.13700 25.92700
C  -8.68300 22.00900 22.73600
O  -8.11800 22.13200 21.66700
C  -9.88900 21.12400 22.90200
N  -5.06900 26.09000 23.56000
C  -5.56100 25.35200 22.55000
C  -4.99500 25.84600 21.28800
C  -3.95600 26.91200 21.67500
C  -4.19800 27.06100 23.13300
C  -4.38500 24.69900 20.43500
C  -4.14600 28.20000 20.89700
C  -2.84700 28.94700 20.67900
N  -4.14200 27.07700 26.20400
C  -3.39700 27.97000 25.35700
C  -2.61700 28.80700 26.19300
C  -3.03200 28.47000 27.52800
C  -3.88800 27.41500 27.46100
C  -1.65500 29.86400 25.69300
C  -2.81000 28.83600 28.85700
O  -2.06500 29.62200 29.35400
C  -3.71500 27.83500 29.73400
C  -2.80100 27.14500 30.64700
O  -2.24300 26.10400 30.44400
O  -2.69100 27.92400 31.76600
C  -1.89100 27.30900 32.81900
H  -8.17100 22.95600 28.04100
H  -6.76400 23.92400 21.74900
H  -3.02200 28.86900 23.62500
H  -4.90400 25.03500 30.81800
H  -7.52500 23.94200 30.22400
H  -6.67300 22.09500 30.77500
H  -5.17400 22.93000 30.88000
H  -5.63200 22.03400 29.32000
H  -7.67900 26.10400 30.57700
H  -6.63400 27.31500 30.16100
H  -7.59500 26.76900 32.65900
H  -6.01900 27.54400 32.38900
H  -9.96700 22.47100 26.95700
H  -9.80400 21.04900 25.98800
H  -10.82100 22.26000 25.46300
H  -10.78200 21.68400 23.18000
H  -9.65100 20.35200 23.63300
H  -9.98400 20.65300 21.92300
H  -5.73100 26.29400 20.62200
H  -2.97100 26.44700 21.69800
H  -3.37800 24.86200 20.05400
H  -4.97500 24.55600 19.53000
H  -4.40600 23.72900 20.93300
H  -4.81500 28.80300 21.51100
H  -4.65200 28.04900 19.94400
H  -1.96400 28.31100 20.61300
H  -2.73800 29.71700 21.44200
H  -2.91600 29.49800 19.74100
H  -1.34300 30.50000 26.52100
H  -2.10400 30.52500 24.95100
H  -0.66800 29.50600 25.39700
H  -4.50400 28.37600 30.25600
H  -0.88200 27.04100 32.50300
H  -2.40500 26.43000 33.20900
H  -1.89300 27.97300 33.68300

