158

Mg 1.38100 8.37500 25.02900
C  1.88100 10.36100 27.80200
C  1.50500 5.60400 26.81400
C  0.89700 6.53400 22.20500
C  1.17700 11.34400 23.07600
N  1.76200 8.04500 27.08600
C  1.90300 9.00100 28.07200
C  2.03800 8.32500 29.49600
C  2.01200 6.79200 29.06200
C  1.70300 6.80100 27.55900
C  3.38100 6.05900 29.32700
C  0.81100 8.65200 30.45900
C  1.10300 8.72900 31.96700
H  2.33300 7.94400 32.58500
N  1.35000 6.34100 24.52600
C  1.47000 5.37300 25.51100
C  1.26500 4.13000 24.86500
C  0.97500 4.31600 23.49900
C  1.07500 5.77700 23.35000
C  1.26900 2.81800 25.53800
C  0.63400 3.38500 22.35300
O  0.19300 3.71300 21.25400
C  0.65500 1.99400 22.64200
N  1.20100 8.90200 22.92200
C  0.99700 7.91000 21.96700
C  0.78500 8.56800 20.57800
C  0.55600 10.13700 20.92500
C  0.94600 10.17900 22.40000
C  2.10200 8.36600 19.75900
C  -0.84600 10.68400 20.60200
C  -0.85100 11.39800 19.24600
N  1.47100 10.41500 25.33700
C  1.37400 11.52100 24.40900
C  1.50200 12.83700 25.15500
C  1.66500 12.41500 26.50000
C  1.71000 10.93800 26.51300
C  1.66200 14.22700 24.52500
C  1.87300 12.89000 27.81200
O  1.93700 14.01400 28.23900
C  1.93400 11.62300 28.70800
C  3.06100 11.81400 29.64500
O  4.19400 12.01300 29.27400
O  2.59800 11.88000 30.92700
C  3.45600 12.38400 32.00300
H  1.58600 4.76000 27.50200
H  0.88600 5.99600 21.25400
H  1.21900 12.20900 22.41100
H  2.99500 8.64200 29.90900
H  1.23600 6.19900 29.54700
H  3.19500 5.25700 30.04100
H  4.20400 6.64500 29.73300
H  3.72700 5.54300 28.43100
H  0.00900 7.94200 30.26000
H  0.50700 9.66600 30.20100
H  0.23000 8.26500 32.42500
H  1.08900 9.78400 32.23900
H  2.04400 2.17400 25.12200
H  0.31500 2.32300 25.71800
H  1.74400 3.04600 26.49300
H  0.50200 1.45700 21.70700
H  -0.22900 2.06100 23.27700
H  1.57300 1.66000 23.12500
H  -0.02500 8.03500 20.07800
H  1.28000 10.79600 20.44600
H  2.05600 7.31400 19.47500
H  2.96800 8.48600 20.40800
H  2.13000 8.97400 18.85500
H  -1.17200 11.33600 21.41200
H  -1.44000 9.78200 20.45900
H  -1.69200 11.12200 18.61100
H  0.05200 11.41000 18.63600
H  -1.15600 12.39400 19.56800
H  0.99400 14.93900 25.00900
H  1.45800 14.23700 23.45400
H  2.68500 14.60100 24.56800
H  1.04700 11.76600 29.32500
H  3.95700 11.46500 32.31000
H  2.88000 12.77900 32.84000
H  4.15300 13.14100 31.64400
Mg 16.96500 -2.59700 27.99600
C  16.08600 -0.66300 30.84400
C  18.22800 -4.96900 29.98600
C  17.89700 -4.33800 25.13900
C  15.47800 -0.18000 26.04600
N  17.17500 -2.74300 30.15200
C  16.74800 -1.86400 31.10900
C  17.02500 -2.45400 32.56200
C  17.88300 -3.78800 32.23500
C  17.85100 -3.83100 30.67400
C  19.30800 -3.75800 32.93600
C  15.74500 -2.72400 33.40600
C  15.84900 -2.22700 34.87900
H  17.20600 -1.65600 35.43700
N  17.70100 -4.51300 27.68200
C  18.05300 -5.37700 28.64400
C  18.39200 -6.60600 28.00400
C  18.45800 -6.37600 26.56700
C  18.08700 -5.00900 26.44300
C  18.71800 -7.86600 28.84800
C  18.85700 -7.33800 25.41900
O  18.84300 -7.07500 24.23900
C  19.41900 -8.68300 25.86100
N  16.87000 -2.25000 25.88400
C  17.35500 -3.04200 24.93800
C  17.05000 -2.51600 23.58900
C  16.10400 -1.27200 23.86400
C  16.12400 -1.24800 25.32600
C  18.32400 -2.26800 22.62000
C  14.66700 -1.20000 23.24600
C  13.58200 -2.02100 23.89700
N  16.20100 -0.63300 28.28700
C  15.50300 0.10200 27.44400
C  14.90800 1.17200 28.23100
C  15.12200 0.90700 29.52800
C  15.93600 -0.20800 29.55400
C  14.00300 2.32800 27.73000
C  14.77800 1.43000 30.80800
O  14.17200 2.41900 31.17500
C  15.41000 0.37700 31.73000
C  16.39800 0.97000 32.71000
O  17.61200 0.94700 32.59600
O  15.73100 1.65400 33.62800
C  16.50900 2.54500 34.54800
H  18.60500 -5.66100 30.74200
H  18.29300 -4.85800 24.26400
H  14.99900 0.50400 25.34200
H  17.63600 -1.65600 32.98200
H  17.39500 -4.70700 32.56000
H  19.96000 -4.19000 32.17700
H  19.22900 -4.33800 33.85600
H  19.66600 -2.79200 33.29300
H  15.45300 -3.77400 33.38900
H  14.88400 -2.22900 32.95700
H  15.50000 -2.99600 35.56900
H  15.10300 -1.48500 35.16600
H  17.96900 -8.61100 28.58000
H  18.72300 -7.71900 29.92800
H  19.74200 -8.14700 28.60200
H  20.18700 -8.76800 26.63000
H  19.92400 -9.12900 25.00300
H  18.59500 -9.28700 26.24000
H  16.48700 -3.33000 23.13200
H  16.71900 -0.47000 23.45700
H  18.27000 -1.26400 22.19900
H  18.36800 -3.01800 21.83000
H  19.24900 -2.37300 23.18700
H  14.80600 -1.45100 22.19400
H  14.37900 -0.15000 23.29600
H  13.91100 -2.69100 24.69200
H  13.14800 -2.68100 23.14700
H  12.79500 -1.32500 24.18900
H  13.02400 2.19000 28.19000
H  13.93700 2.33500 26.64200
H  14.27600 3.31400 28.10400
H  14.60400 -0.07900 32.30600
H  15.93400 3.47000 34.57200
H  17.48900 2.82100 34.15900
H  16.60900 2.24000 35.59000

