158

Mg 2.04700 -1.56800 45.14300
C  5.43100 -0.40300 44.69700
C  0.99100 1.20600 43.44300
C  -0.86100 -3.14400 44.55900
C  3.47200 -4.46000 46.56500
N  3.09600 0.11000 44.07300
C  4.49700 0.44700 44.06600
C  4.73500 1.79600 43.35100
C  3.24300 2.52400 43.41800
C  2.38800 1.24600 43.70000
C  3.03500 3.57200 44.55400
C  5.38700 1.50600 42.00500
C  4.59200 1.85000 40.72500
H  5.36300 1.46100 39.43200
N  0.33700 -0.99500 44.12400
C  0.10100 0.15200 43.44700
C  -1.26800 0.15300 42.92300
C  -1.76700 -1.15700 43.25300
C  -0.70800 -1.84300 43.95500
C  -2.00900 1.25900 42.26300
C  -3.22100 -1.58400 43.09800
O  -4.03600 -0.89800 42.45800
C  -3.86400 -2.82400 43.58900
N  1.45100 -3.51900 45.44900
C  0.14000 -3.85500 45.28500
C  -0.08900 -5.28900 45.89800
C  1.27700 -5.75900 46.40200
C  2.10200 -4.47100 46.21600
C  -1.17200 -5.44700 47.02700
C  1.93400 -6.77200 45.44800
C  1.56400 -8.28600 45.56900
N  4.06900 -2.28500 45.69000
C  4.45400 -3.48000 46.17800
C  5.86600 -3.51600 46.40700
C  6.30800 -2.29800 45.86000
C  5.18200 -1.59700 45.37400
C  6.68900 -4.62200 46.99700
C  7.43400 -1.48300 45.56300
O  8.62100 -1.62700 45.86300
C  6.93600 -0.24000 44.80400
C  7.18400 0.92100 45.72600
O  7.18300 0.93400 46.95600
O  7.84300 1.87100 45.05600
C  8.56300 2.92300 45.75300
H  0.70000 2.20500 43.11200
H  -1.75300 -3.77000 44.49200
H  4.00900 -5.35500 46.88600
H  5.50100 2.42800 43.80100
H  2.85900 2.96500 42.49900
H  3.85900 3.67100 45.26100
H  2.08600 3.52500 45.08900
H  3.05800 4.52400 44.02300
H  5.50400 0.44000 41.81400
H  6.38200 1.93900 41.90100
H  4.36900 2.91500 40.66200
H  3.69100 1.23900 40.78400
H  -2.82800 1.55000 42.92000
H  -2.44300 0.97400 41.30400
H  -1.31700 2.09400 42.14900
H  -3.41600 -3.72000 43.16000
H  -4.88900 -3.00700 43.26600
H  -3.90800 -2.91600 44.67400
H  -0.47300 -5.80200 45.01700
H  1.33500 -5.95100 47.47300
H  -0.73600 -5.99500 47.86300
H  -2.06200 -5.97600 46.68700
H  -1.41400 -4.45500 47.40800
H  3.01900 -6.70500 45.36400
H  1.53500 -6.46600 44.48100
H  1.08800 -8.69400 44.67800
H  0.87600 -8.35200 46.41100
H  2.48400 -8.86300 45.66000
H  7.75400 -4.48000 46.81100
H  6.29300 -5.57500 46.64700
H  6.54000 -4.69300 48.07500
H  7.38300 -0.19400 43.81100
H  8.58800 3.79300 45.09700
H  9.60500 2.61900 45.85800
H  8.10200 3.26600 46.67900
Mg 49.66100 35.20800 28.01000
C  47.68100 33.65500 30.53600
C  49.86800 37.98900 30.01700
C  51.41900 36.70600 25.50400
C  48.98900 32.46800 25.90500
N  48.89200 35.64700 30.13100
C  48.27700 34.86500 31.00600
C  48.37200 35.41300 32.42400
C  48.78300 36.91900 32.13900
C  49.24800 36.87300 30.67300
C  47.75900 38.05900 32.63000
C  49.51500 34.58400 33.10700
C  49.48800 34.36800 34.61600
H  48.56800 35.21600 35.48700
N  50.57000 37.06600 27.86600
C  50.44700 38.08900 28.75100
C  51.12300 39.32200 28.19400
C  51.71400 38.92800 26.95100
C  51.20700 37.50000 26.67500
C  51.23500 40.66100 29.06500
C  52.73900 39.62700 26.03800
O  53.33800 39.08700 25.14100
C  53.28200 41.00200 26.43300
N  49.89000 34.75700 25.87000
C  50.90000 35.42700 25.17700
C  51.50100 34.57700 24.01100
C  50.68200 33.26700 24.04700
C  49.78900 33.45900 25.32000
C  51.45200 35.40500 22.66600
C  51.57400 31.98500 24.07900
C  50.98000 30.78900 23.36700
N  48.57500 33.44000 28.11000
C  48.35800 32.46900 27.16400
C  47.37200 31.59900 27.68000
C  47.08800 32.03300 29.02600
C  47.86100 33.15400 29.18100
C  46.91900 30.29600 26.95300
C  46.30400 31.71800 30.13400
O  45.50000 30.81100 30.30300
C  46.72800 32.73700 31.24300
C  47.48000 32.04600 32.34100
O  48.38600 31.25800 32.05700
O  47.02600 32.26400 33.57500
C  47.37500 31.21200 34.58000
H  49.93600 38.86600 30.66500
H  51.97700 37.13000 24.66600
H  48.78800 31.59200 25.28500
H  47.43300 35.25100 32.95400
H  49.66800 37.15500 32.73100
H  48.08700 38.43000 33.60100
H  46.74800 37.66200 32.73200
H  47.80800 38.88500 31.92100
H  50.40800 35.20600 33.04700
H  49.60600 33.63900 32.57200
H  50.49400 34.51100 35.01200
H  49.17500 33.34200 34.81200
H  50.65300 40.72200 29.98400
H  50.81100 41.41400 28.40000
H  52.26700 40.84600 29.36300
H  52.50700 41.71100 26.72400
H  53.78700 41.39600 25.55100
H  53.80300 40.70300 27.34200
H  52.54300 34.49400 24.32000
H  50.02800 33.21100 23.17600
H  50.88300 34.78800 21.97000
H  52.48500 35.60500 22.38100
H  50.98000 36.38200 22.76600
H  51.68200 31.75900 25.14000
H  52.58300 32.10400 23.68400
H  51.75700 30.24700 22.82900
H  50.11700 31.09200 22.77300
H  50.60100 30.16400 24.17500
H  47.72100 29.93200 26.31100
H  45.97000 30.53000 26.46900
H  46.74800 29.56700 27.74400
H  45.85000 33.28700 31.58300
H  47.08100 30.21100 34.26500
H  46.99200 31.47200 35.56800
H  48.45400 31.14200 34.71300

