158

Mg -2.14200 17.23200 25.94100
C  -2.46200 15.00800 28.86100
C  -3.49400 19.76900 28.03800
C  -2.20300 19.09800 23.37800
C  -1.73300 14.34000 24.04300
N  -3.07000 17.24900 28.18000
C  -2.90200 16.34200 29.15000
C  -3.37300 16.91700 30.52800
C  -3.96300 18.31000 30.15500
C  -3.44600 18.50300 28.72600
C  -5.47100 18.33000 30.23100
C  -2.20800 17.03200 31.50900
C  -2.25300 16.06100 32.67300
H  -2.73300 16.52700 34.05900
N  -2.52800 19.17600 25.69800
C  -3.07300 20.06300 26.68800
C  -3.19400 21.39000 26.12500
C  -2.86600 21.24500 24.69200
C  -2.52700 19.81400 24.49500
C  -3.37000 22.62200 26.94100
C  -2.86000 22.35900 23.60600
O  -2.68100 22.04700 22.43800
C  -3.06500 23.77100 23.93100
N  -1.89600 16.80000 24.02900
C  -1.95500 17.76900 23.08800
C  -1.65000 17.15900 21.71300
C  -1.32500 15.68200 21.94500
C  -1.65400 15.56900 23.38300
C  -2.81400 17.43600 20.64700
C  0.11000 15.32600 21.61900
C  1.24500 15.86300 22.55100
N  -2.00100 15.12900 26.32500
C  -1.82900 14.11500 25.39900
C  -1.77600 12.85300 26.08300
C  -1.94100 13.18500 27.44900
C  -2.15500 14.53100 27.55900
C  -1.68200 11.50700 25.47200
C  -2.09900 12.60100 28.77600
O  -1.98600 11.45400 29.21400
C  -2.44400 13.72000 29.65700
C  -1.38300 13.76800 30.66200
O  -0.31100 14.38500 30.59300
O  -1.67100 13.00200 31.74900
C  -0.76200 12.79600 32.86600
H  -3.81400 20.62000 28.64300
H  -2.07900 19.64400 22.44000
H  -1.59400 13.46200 23.40800
H  -4.14000 16.23200 30.89000
H  -3.46300 19.11200 30.69700
H  -5.96400 17.42400 30.58400
H  -6.07800 18.46400 29.33600
H  -5.85800 19.12000 30.87500
H  -2.14500 18.02100 31.96400
H  -1.25300 16.91200 30.99800
H  -1.22800 15.73500 32.84500
H  -2.87100 15.18600 32.47500
H  -3.60900 22.47700 27.99400
H  -4.21900 23.18000 26.54500
H  -2.42900 23.16500 26.85300
H  -2.17200 24.35900 24.14200
H  -3.89800 24.00900 24.59300
H  -3.24700 24.25900 22.97300
H  -0.84600 17.78200 21.32100
H  -1.96500 15.02000 21.36100
H  -2.51900 18.08200 19.82100
H  -3.71000 17.82300 21.13300
H  -3.09900 16.46000 20.25400
H  0.32000 15.84300 20.68300
H  0.17900 14.24800 21.47800
H  0.82400 16.46500 23.35600
H  1.95100 16.44300 21.95600
H  1.69100 14.96600 22.98100
H  -1.09700 11.68600 24.57000
H  -2.61900 10.97600 25.30700
H  -1.01400 10.97000 26.14500
H  -3.37300 13.48600 30.17700
H  0.26000 13.04500 32.57900
H  -0.78400 11.79200 33.29000
H  -1.11500 13.53400 33.58600
Mg 36.67700 49.82300 25.89100
C  35.92700 47.96700 28.82500
C  35.63700 52.67000 27.50600
C  36.41600 51.48400 22.92200
C  37.41200 47.00100 24.16100
N  36.02800 50.17500 28.00300
C  35.85900 49.34500 29.03200
C  35.59600 50.05900 30.36800
C  35.47900 51.49900 29.91000
C  35.74200 51.51600 28.34100
C  34.22000 52.25500 30.31100
C  36.83300 49.71900 31.32000
C  36.47100 49.29300 32.77700
H  35.07500 49.43600 33.23800
N  36.21700 51.83400 25.32200
C  35.85900 52.84400 26.19600
C  35.70800 54.06500 25.44600
C  35.87400 53.78900 24.05200
C  36.08400 52.33000 24.04700
C  35.48700 55.34200 26.13700
C  35.71100 54.60200 22.77900
O  35.81100 54.17200 21.62800
C  35.14400 56.02100 22.78400
N  36.98800 49.30100 23.82400
C  36.84200 50.15400 22.82100
C  37.16300 49.51700 21.47500
C  37.57500 48.12900 21.94500
C  37.34400 48.10600 23.39600
C  36.09000 49.54600 20.33100
C  39.05300 47.80100 21.59300
C  40.18600 48.22400 22.49000
N  36.73300 47.83700 26.31600
C  37.08300 46.80300 25.51300
C  36.91200 45.55500 26.28400
C  36.55500 45.95200 27.58800
C  36.36500 47.37100 27.58800
C  37.30800 44.22100 25.74600
C  36.23900 45.52400 28.89100
O  36.19800 44.38500 29.33900
C  35.75900 46.76300 29.69900
C  34.59200 46.43200 30.46000
O  33.43600 46.85200 30.27400
O  34.98300 45.60400 31.51900
C  33.89500 45.18700 32.35200
H  35.30800 53.58300 28.00700
H  36.32500 52.01800 21.97500
H  37.60600 46.06400 23.63400
H  34.70400 49.66600 30.85600
H  36.34000 52.02300 30.32300
H  34.39600 53.19000 30.84200
H  33.66600 51.61400 30.99700
H  33.54900 52.37900 29.46200
H  37.50500 50.57100 31.42500
H  37.36200 48.93200 30.78200
H  37.15200 49.85700 33.41600
H  36.68100 48.22800 32.87100
H  35.27700 56.11400 25.39700
H  36.37500 55.51000 26.74600
H  34.72100 55.28200 26.91000
H  35.15800 56.31900 21.73600
H  35.87300 56.59100 23.36100
H  34.15600 56.14600 23.22800
H  38.05200 49.96200 21.02800
H  37.10100 47.34400 21.35700
H  35.27500 50.19500 20.65200
H  35.63600 48.59900 20.03800
H  36.64200 49.93000 19.47300
H  39.19100 48.11600 20.55900
H  39.14600 46.71500 21.60300
H  40.94000 48.78600 21.94000
H  40.53600 47.37200 23.07300
H  39.83200 49.03800 23.12200
H  36.97200 44.10600 24.71500
H  36.80500 43.46500 26.34900
H  38.35700 44.18100 26.04100
H  36.55700 46.83700 30.43800
H  33.15400 44.57900 31.83400
H  33.37300 46.01500 32.82900
H  34.32100 44.54400 33.12200

