158

Mg 30.17800 57.59600 39.89700
C  27.17100 55.97000 39.07400
C  31.95300 54.71300 39.11700
C  33.12300 59.46700 40.08200
C  28.41500 60.63300 40.41000
N  29.57900 55.64400 39.06000
C  28.31500 55.12200 38.81600
C  28.42200 53.70100 38.11900
C  29.76300 53.29400 38.76400
C  30.54300 54.63100 39.01400
C  29.62800 52.35400 40.03600
C  28.51000 53.86900 36.52200
C  27.32800 53.07700 35.87100
H  26.95600 53.44300 34.42400
N  32.30200 57.17400 39.71900
C  32.75100 55.88700 39.39500
C  34.25600 55.95600 39.40100
C  34.57300 57.26800 39.80500
C  33.32000 58.02100 39.94400
C  35.15100 54.77900 39.07300
C  36.03600 57.73800 40.08100
O  36.99600 56.96000 39.99200
C  36.32800 59.07800 40.68900
N  30.64300 59.74300 40.55200
C  31.94100 60.18300 40.35000
C  31.96900 61.66900 40.53200
C  30.49300 62.09300 40.77000
C  29.77900 60.73900 40.66300
C  32.89700 62.08100 41.69800
C  30.04200 63.24600 39.81800
C  29.38200 64.54200 40.40800
N  28.15300 58.20100 39.87200
C  27.61600 59.47000 40.11000
C  26.12500 59.33500 39.99100
C  25.94500 58.02600 39.53500
C  27.17300 57.36100 39.46900
C  25.01100 60.37200 40.12700
C  24.93900 56.96700 39.19800
O  23.67900 57.01800 39.13200
C  25.68600 55.59400 38.88800
C  25.22700 54.41200 39.71700
O  25.66200 54.02700 40.79600
O  24.12800 53.79200 39.04600
C  23.39300 52.83200 39.91900
H  32.48900 53.76200 39.15200
H  34.05200 60.03900 40.03600
H  27.91300 61.58900 40.56700
H  27.66100 52.96400 38.37600
H  30.29800 52.67800 38.04100
H  30.24200 51.48700 39.79100
H  28.56000 52.14500 39.98900
H  29.97600 52.81400 40.96000
H  29.52200 53.64400 36.18600
H  28.29700 54.90500 36.25700
H  26.40700 53.20800 36.43900
H  27.64100 52.03300 35.90700
H  35.88500 54.95700 38.28800
H  34.54400 53.87500 39.02900
H  35.76800 54.77200 39.97100
H  35.99500 59.86700 40.01500
H  37.41600 59.13700 40.70300
H  35.81500 58.98000 41.64600
H  32.33000 62.05800 39.58100
H  30.29500 62.32200 41.81600
H  33.32600 61.20500 42.18500
H  32.39400 62.61500 42.50500
H  33.73100 62.67500 41.32400
H  29.44700 62.83000 39.00600
H  30.88300 63.63400 39.24400
H  29.58300 64.55800 41.47900
H  28.32300 64.36100 40.22400
H  29.68500 65.41700 39.83300
H  24.06600 59.89200 40.38200
H  25.11000 60.96200 39.21600
H  25.37500 60.97200 40.96000
H  25.50600 55.39500 37.83100
H  22.36100 53.08300 39.67500
H  23.55700 52.95300 40.98900
H  23.40600 51.79200 39.59500
Mg 26.63200 49.87700 26.58800
C  24.39100 50.93800 29.03500
C  28.84400 49.01200 29.00700
C  28.70400 48.84600 24.19000
C  24.41600 51.00100 24.22500
N  26.54400 50.08300 28.75500
C  25.50300 50.31200 29.58600
C  25.81600 49.87900 31.02400
C  27.32100 49.43400 30.93300
C  27.57900 49.48400 29.41400
C  28.27100 50.37300 31.70900
C  24.78900 48.84500 31.60200
C  23.80500 49.44900 32.61400
H  23.74100 48.77300 34.03900
N  28.51000 49.06300 26.56200
C  29.26200 48.79800 27.70300
C  30.48600 48.17900 27.28500
C  30.51200 48.27800 25.84800
C  29.21200 48.74600 25.47200
C  31.57000 47.69100 28.17600
C  31.64300 48.06700 24.82700
O  31.56800 48.38800 23.62400
C  32.96200 47.59300 25.41200
N  26.68200 50.05200 24.47000
C  27.57000 49.46600 23.66600
C  27.07500 49.41900 22.20900
C  25.60900 49.95600 22.36700
C  25.58200 50.34700 23.77500
C  27.96500 50.27100 21.19800
C  24.53200 48.88500 21.95900
C  24.34400 47.75200 22.94500
N  24.84300 50.74900 26.52100
C  24.08300 51.28100 25.53600
C  22.89900 51.92300 26.03200
C  22.99700 51.84000 27.41900
C  24.15700 51.12700 27.66600
C  21.84700 52.67600 25.27100
C  22.33300 52.23900 28.63000
O  21.34200 52.92900 28.82400
C  23.13800 51.47800 29.78600
C  23.49800 52.56800 30.81000
O  24.47000 53.30400 30.77400
O  22.53200 52.56200 31.73900
C  22.69000 53.66300 32.73700
H  29.42400 48.46600 29.75400
H  29.36900 48.63300 23.35000
H  23.60500 51.16600 23.51200
H  25.81700 50.76500 31.66000
H  27.34900 48.45200 31.40600
H  29.05300 50.79600 31.07900
H  28.85500 49.91100 32.50500
H  27.74800 51.24000 32.11200
H  25.38700 48.11200 32.14400
H  24.23100 48.40700 30.77400
H  22.79900 49.47200 32.19500
H  23.98600 50.50100 32.83400
H  31.80000 46.63700 28.02500
H  31.48000 47.84700 29.25100
H  32.39100 48.37100 27.94900
H  33.38100 48.24000 26.18300
H  33.55800 47.42500 24.51500
H  32.71600 46.65200 25.90400
H  27.03300 48.35200 21.99200
H  25.46900 50.78200 21.67000
H  28.95500 50.48200 21.60200
H  27.50500 51.19900 20.86000
H  28.16600 49.69000 20.29800
H  24.71300 48.68200 20.90400
H  23.59800 49.44300 22.01400
H  25.07300 47.90000 23.74200
H  24.44300 46.84800 22.34400
H  23.35900 47.72400 23.41100
H  20.92600 52.81100 25.83800
H  21.63900 52.09400 24.37300
H  22.29200 53.58600 24.87000
H  22.49100 50.70300 30.19800
H  23.47600 53.27900 33.38800
H  21.79100 53.76100 33.34500
H  22.89100 54.57800 32.17900

