158

Mg 44.32900 3.78600 47.92000
C  41.73700 6.15100 47.23300
C  41.90800 1.36800 47.95800
C  46.74400 1.48500 47.96500
C  46.61000 6.25400 47.21400
N  42.02100 3.80600 47.64000
C  41.18800 4.88400 47.43200
C  39.73200 4.44500 47.29600
C  39.83000 2.92900 47.86300
C  41.36400 2.62400 47.83300
C  39.37100 2.85100 49.30100
C  39.22400 4.45000 45.84100
C  38.06500 5.37500 45.58000
H  38.01700 6.17100 44.21000
N  44.33900 1.63700 47.87800
C  43.23700 0.88400 47.97700
C  43.65700 -0.55200 47.97200
C  45.07900 -0.58700 47.95000
C  45.46000 0.84600 48.00500
C  42.71800 -1.67400 48.20700
C  45.95500 -1.87900 48.01500
O  45.50700 -3.01300 47.93200
C  47.47300 -1.74300 48.20700
N  46.33900 3.86400 47.56200
C  47.14900 2.83200 47.84100
C  48.60300 3.22800 48.02200
C  48.56500 4.67200 47.38800
C  47.07600 4.96800 47.45100
C  49.23900 2.94500 49.34200
C  49.15900 4.75900 45.92000
C  50.66700 5.02000 45.85600
N  44.26300 5.84800 47.46600
C  45.29400 6.66000 47.17000
C  44.75000 7.95300 46.91500
C  43.34700 7.86700 46.95800
C  43.11100 6.46000 47.25400
C  45.37400 9.22300 46.39600
C  42.12200 8.49700 46.75700
O  41.88600 9.63100 46.40300
C  41.01400 7.48100 47.20100
C  40.56200 7.80500 48.61000
O  41.29100 8.25200 49.49500
O  39.21400 7.41300 48.74500
C  38.66300 7.85300 50.05200
H  41.11200 0.63000 47.84400
H  47.49000 0.75200 48.28000
H  47.35300 7.04400 47.09000
H  39.05000 4.90900 48.00900
H  39.30600 2.12800 47.34000
H  40.19800 2.70600 49.99600
H  38.72700 1.97100 49.30000
H  38.82000 3.71300 49.67700
H  38.86900 3.49700 45.45100
H  40.04700 4.72900 45.18300
H  38.12000 6.00700 46.46600
H  37.16600 4.75900 45.54200
H  41.74300 -1.24300 48.43200
H  43.00600 -2.37500 48.99000
H  42.70500 -2.12800 47.21600
H  47.68600 -1.24100 49.15100
H  48.00900 -1.22100 47.41500
H  47.90100 -2.74400 48.24700
H  49.29900 2.76400 47.32300
H  49.09400 5.35800 48.04900
H  48.48200 2.69900 50.08600
H  49.63300 3.86800 49.76900
H  50.06300 2.24400 49.20700
H  48.68000 5.51100 45.29200
H  48.87500 3.84400 45.40000
H  50.84500 5.99800 46.30400
H  51.24700 4.97600 44.93400
H  51.19400 4.40500 46.58500
H  44.92000 9.46100 45.43400
H  46.45500 9.15000 46.28000
H  45.21400 10.01400 47.12900
H  40.13300 7.37900 46.56600
H  38.57100 8.93500 50.15200
H  39.32700 7.49900 50.84000
H  37.67400 7.40500 50.14300
Mg 46.13700 35.49900 28.07300
C  44.73700 33.23600 30.47500
C  46.67200 37.72100 30.51400
C  47.61600 37.31700 25.76300
C  45.45100 32.98000 25.67000
N  45.66900 35.46100 30.30100
C  45.25600 34.42400 31.07000
C  45.43600 34.79500 32.53800
C  45.55900 36.36500 32.46700
C  45.99400 36.60700 30.98200
C  44.22300 37.15800 32.66800
C  46.73600 34.17900 33.11100
C  46.91200 34.02000 34.62600
H  46.08500 34.79500 35.60200
N  46.88300 37.43700 28.11700
C  47.18200 38.14200 29.23600
C  48.05300 39.25700 28.88700
C  48.27600 39.12800 27.49200
C  47.56700 37.93600 27.03300
C  48.67700 40.13200 29.98300
C  49.10500 40.05400 26.56600
O  49.32000 39.91700 25.34100
C  49.76600 41.29000 27.24400
N  46.29700 35.23000 25.99200
C  47.03500 36.18400 25.28700
C  47.28500 35.66700 23.79200
C  46.27000 34.44800 23.72600
C  46.04300 34.15600 25.20100
C  47.00700 36.75900 22.67000
C  46.78000 33.24700 22.92700
C  45.76200 32.59000 22.00400
N  45.31200 33.52000 28.08700
C  45.14800 32.66000 27.01200
C  44.53100 31.41700 27.52000
C  44.23200 31.73100 28.86900
C  44.76700 32.95000 29.10400
C  44.25000 30.22000 26.80500
C  43.52100 31.23500 30.01700
O  42.84500 30.25900 30.08800
C  43.75600 32.23400 31.20700
C  44.23400 31.55700 32.40600
O  45.11000 30.72200 32.39900
O  43.63200 32.08000 33.54600
C  43.89300 31.39000 34.76100
H  46.75200 38.46300 31.31200
H  48.32900 37.80000 25.09200
H  45.14000 32.18200 24.99300
H  44.57900 34.66000 33.19700
H  46.30900 36.59000 33.22500
H  44.18500 37.65800 33.63600
H  43.34400 36.51900 32.58300
H  44.10900 37.91500 31.89200
H  47.54800 34.75800 32.67000
H  46.81200 33.17400 32.69700
H  47.98800 34.19400 34.65100
H  46.64500 32.98800 34.85200
H  48.44900 39.98700 31.03900
H  48.22100 41.07300 29.67400
H  49.75600 40.18400 29.83500
H  49.02900 41.81300 27.85300
H  50.13100 41.95500 26.46200
H  50.56800 40.89200 27.86600
H  48.30300 35.28800 23.70200
H  45.33900 34.82300 23.30100
H  46.08300 36.58500 22.11700
H  47.82200 36.64600 21.95400
H  46.84100 37.78400 23.00100
H  47.33400 32.54300 23.54700
H  47.46200 33.56800 22.13900
H  45.74800 33.12200 21.05300
H  44.76400 32.84200 22.36300
H  45.97700 31.52300 21.93700
H  44.38500 29.50100 27.61300
H  45.06500 30.16800 26.08400
H  43.23200 30.20800 26.41600
H  42.81600 32.73000 31.44700
H  44.53000 30.50800 34.69100
H  42.98600 31.06100 35.26700
H  44.28400 32.12100 35.46900

