158

Mg 8.96300 3.18700 27.20500
C  10.17700 1.65300 30.08300
C  7.29800 5.42900 29.22600
C  7.77700 4.52600 24.43900
C  10.56300 0.69600 25.34500
N  8.67200 3.40200 29.51300
C  9.31800 2.73000 30.49700
C  9.05000 3.34600 31.90300
C  8.02700 4.49300 31.54800
C  7.98700 4.43300 30.01300
C  6.69500 4.51100 32.20300
C  10.44600 3.79900 32.50300
C  10.54700 4.58800 33.81800
H  11.22100 4.00200 35.03600
N  7.80800 4.82100 26.82700
C  7.14900 5.58300 27.80200
C  6.42500 6.56200 27.11600
C  6.62200 6.32500 25.73600
C  7.45900 5.20000 25.59000
C  5.80000 7.72600 27.77000
C  6.02700 7.20200 24.61400
O  6.20500 7.00400 23.42200
C  4.86600 8.16300 24.93700
N  9.21100 2.69400 25.15100
C  8.58300 3.41200 24.15000
C  8.74000 2.79800 22.74000
C  9.72700 1.63000 23.10100
C  9.84400 1.63900 24.62800
C  7.44000 2.22200 22.05600
C  11.11500 1.93100 22.51500
C  11.37100 1.70700 20.95400
N  10.00200 1.39300 27.59700
C  10.66500 0.53600 26.74800
C  11.40100 -0.40400 27.50700
C  11.12100 -0.08600 28.85800
C  10.31900 1.09300 28.85600
C  12.24200 -1.58400 27.03900
C  11.37100 -0.50200 30.16500
O  12.08700 -1.41800 30.59100
C  10.86700 0.68100 31.07100
C  10.03400 0.08500 32.12500
O  8.96600 -0.38900 32.08200
O  10.82300 0.06900 33.20600
C  10.07000 0.17500 34.44500
H  6.75300 6.20000 29.77500
H  7.29400 5.06100 23.61800
H  11.10000 -0.02000 24.71900
H  8.58500 2.51300 32.43000
H  8.49800 5.44600 31.79000
H  5.99000 5.03700 31.55900
H  6.79400 5.10400 33.11200
H  6.33400 3.56400 32.60400
H  10.86500 4.31200 31.63800
H  10.96300 2.84800 32.63700
H  9.52300 4.70800 34.17000
H  10.95000 5.58000 33.61600
H  6.26200 7.86700 28.74700
H  4.75900 7.45200 27.93900
H  5.93300 8.67200 27.24400
H  4.40200 8.32600 23.96500
H  5.50400 9.01700 25.16400
H  4.21500 7.87200 25.76200
H  9.17700 3.59100 22.13300
H  9.42200 0.65300 22.72500
H  7.25500 2.75600 21.12400
H  6.62300 2.29000 22.77400
H  7.51100 1.15200 21.86400
H  11.83200 1.37600 23.12100
H  11.35100 2.97200 22.73800
H  11.61300 2.62300 20.41500
H  10.51000 1.43000 20.34400
H  12.15300 0.97900 20.73800
H  13.04900 -1.86600 27.71600
H  12.56100 -1.25200 26.05100
H  11.53700 -2.41400 27.02400
H  11.75100 1.16000 31.49200
H  9.70100 1.20100 34.46300
H  10.62500 0.09400 35.38000
H  9.17800 -0.44700 34.52400
Mg 26.28600 -0.49800 30.26000
C  28.32600 -0.51100 32.95700
C  23.53400 0.00000 32.34500
C  24.36200 0.01100 27.53300
C  28.96600 -1.27700 28.11700
N  25.97000 -0.48700 32.46300
C  27.00100 -0.25300 33.30700
C  26.39800 0.04800 34.76600
C  24.85200 0.06300 34.52500
C  24.74700 -0.21600 33.03000
C  23.96600 -0.86800 35.41200
C  27.07500 1.31000 35.38000
C  27.68300 1.23000 36.75600
H  27.24300 2.18700 37.86600
N  24.27500 -0.05900 30.03900
C  23.29600 0.02700 30.94800
C  22.10200 0.37300 30.40200
C  22.22600 0.36500 28.98400
C  23.66900 0.06100 28.78000
C  20.76200 0.42300 31.19400
C  21.23900 0.65600 27.87200
O  21.47300 0.66000 26.66000
C  19.75500 0.92500 28.18100
N  26.63500 -0.67200 28.14500
C  25.63100 -0.34900 27.25300
C  26.16200 -0.28700 25.83300
C  27.61400 -0.86000 26.02100
C  27.80600 -0.83200 27.52700
C  25.33500 -1.01300 24.75900
C  28.69000 0.00900 25.24800
C  29.69000 -0.77100 24.32900
N  28.19200 -0.96900 30.41400
C  29.22100 -1.20300 29.46200
C  30.44300 -1.39600 30.16100
C  30.15900 -1.20100 31.47600
C  28.75500 -0.88600 31.59300
C  31.75600 -1.58300 29.42200
C  30.71900 -1.21100 32.80200
O  31.87600 -1.31900 33.16800
C  29.53500 -0.71600 33.84500
C  29.35400 -1.73900 34.88300
O  28.77800 -2.82700 34.73400
O  29.97500 -1.34200 35.96700
C  29.83300 -2.21900 37.12400
H  22.73900 0.14900 33.07900
H  23.70400 0.27000 26.70100
H  29.81400 -1.50400 27.46700
H  26.73700 -0.79000 35.37600
H  24.47100 1.08300 34.56600
H  22.89800 -0.69200 35.27800
H  24.27500 -0.64500 36.43300
H  24.20700 -1.89200 35.12600
H  26.41300 2.15500 35.19200
H  27.94300 1.43900 34.73300
H  28.73400 1.50100 36.65100
H  27.82700 0.21500 37.12700
H  20.11400 -0.37900 30.84100
H  20.34500 1.41700 31.02800
H  20.88500 0.24100 32.26200
H  19.69600 1.80800 28.81700
H  19.50800 0.07300 28.81500
H  19.23300 1.04700 27.23200
H  26.21900 0.75000 25.50000
H  27.67000 -1.93600 25.85300
H  24.34500 -1.22000 25.16500
H  25.71700 -2.02500 24.62600
H  25.31900 -0.45700 23.82200
H  29.32500 0.44900 26.01700
H  28.38300 0.81400 24.58000
H  30.51400 -1.02300 24.99700
H  30.12700 -0.17400 23.53000
H  29.30600 -1.70500 23.91800
H  32.43800 -1.30900 30.22600
H  31.83900 -0.99300 28.50900
H  31.85200 -2.64700 29.20700
H  29.85300 0.25300 34.23200
H  28.96800 -1.81300 37.64800
H  30.72600 -2.12100 37.74100
H  29.79900 -3.28400 36.89300

