158

Mg 55.28900 23.21500 45.10000
C  53.11600 25.90400 44.16400
C  53.12800 21.08400 43.68500
C  57.77100 21.10500 44.92900
C  57.62800 25.92800 46.03100
N  53.42400 23.59400 43.91400
C  52.69300 24.68700 43.68500
C  51.32900 24.37300 42.99000
C  51.23000 22.82600 43.26300
C  52.69400 22.42800 43.65800
C  50.08700 22.41400 44.26600
C  51.25900 24.65900 41.49600
C  49.85800 25.17600 41.03200
H  49.32200 24.47300 39.86900
N  55.44700 21.22900 44.46000
C  54.40200 20.54300 43.95400
C  54.84000 19.21400 43.65200
C  56.23900 19.11000 44.17100
C  56.55000 20.51300 44.54200
C  54.07700 18.05800 43.16500
C  57.10200 17.86900 44.02700
O  56.69400 16.83000 43.44200
C  58.35400 17.86800 44.72100
N  57.37300 23.52400 45.25200
C  58.17300 22.37100 45.26100
C  59.64000 22.73300 45.37700
C  59.58200 24.16700 45.98200
C  58.09900 24.61900 45.66600
C  60.61000 21.75900 46.24600
C  60.72400 25.12100 45.62100
C  61.40600 25.71000 46.92600
N  55.34500 25.44800 45.31300
C  56.31300 26.35800 45.70700
C  55.69600 27.64600 45.75200
C  54.43900 27.56200 45.21600
C  54.31000 26.21800 44.85800
C  56.36400 28.86200 46.22300
C  53.28300 28.29900 44.75000
O  53.00900 29.46700 44.77700
C  52.34000 27.19500 44.10400
C  52.02600 27.74500 42.78300
O  52.76800 27.87500 41.81900
O  50.81300 28.33300 42.87600
C  50.46300 29.15100 41.73700
H  52.45400 20.35400 43.23200
H  58.63400 20.44200 45.01000
H  58.43700 26.63700 46.21700
H  50.52700 24.86700 43.53900
H  51.01800 22.21100 42.38800
H  49.68200 21.42200 44.06500
H  49.30000 23.16900 44.23700
H  50.49600 22.35300 45.27500
H  51.56100 23.83700 40.84700
H  52.01900 25.40200 41.25400
H  50.12500 26.18500 40.71800
H  49.12600 25.19200 41.84000
H  54.37800 17.64000 42.20500
H  53.07300 18.36300 42.86700
H  53.99100 17.23400 43.87300
H  59.17500 18.19600 44.08400
H  58.56900 16.83000 44.97800
H  58.34800 18.34100 45.70300
H  59.88100 22.75200 44.31500
H  59.51300 24.07300 47.06600
H  61.07000 22.36100 47.02900
H  61.35000 21.22300 45.65200
H  59.88400 21.16700 46.80300
H  60.36300 25.92700 44.98200
H  61.58700 24.72700 45.08400
H  61.85400 24.94600 47.56100
H  60.64700 26.27000 47.47200
H  62.19700 26.41900 46.68400
H  56.08100 29.00900 47.26500
H  56.08700 29.70500 45.59000
H  57.45300 28.84600 46.16100
H  51.49300 27.15600 44.78900
H  50.29800 28.53100 40.85700
H  51.16400 29.98000 41.63900
H  49.53200 29.67200 41.96400
Mg 26.36100 50.28400 26.02800
C  24.81300 51.34500 28.97200
C  29.03600 49.23000 27.92700
C  27.93800 49.48200 23.21100
C  23.74400 51.62500 24.24400
N  26.86600 50.29600 28.28900
C  26.02700 50.70200 29.27100
C  26.62100 50.30200 30.64600
C  28.09100 49.88400 30.31600
C  28.03600 49.73300 28.77800
C  29.12800 51.02300 30.69600
C  25.78400 49.22200 31.43200
C  25.05400 49.63200 32.72900
H  25.88400 50.14900 33.92500
N  28.22500 49.50400 25.62100
C  29.17200 49.09900 26.56800
C  30.21200 48.25200 25.95300
C  29.87200 48.26200 24.54600
C  28.69600 49.18500 24.39600
C  31.31400 47.44700 26.65400
C  30.46000 47.45700 23.39600
O  29.96400 47.46400 22.29500
C  31.64800 46.55600 23.67500
N  25.87600 50.63700 24.04000
C  26.69400 50.09100 23.03800
C  26.07700 50.32300 21.69600
C  24.67600 50.92700 22.06700
C  24.76000 51.16100 23.53000
C  26.95200 51.10000 20.70900
C  23.45600 49.96600 21.65800
C  22.33300 50.65100 20.86800
N  24.59100 51.25100 26.39200
C  23.60600 51.67000 25.62900
C  22.58000 52.25800 26.41300
C  23.00500 52.13500 27.75800
C  24.21800 51.47400 27.66800
C  21.25600 52.91200 26.02100
C  22.66000 52.40700 29.12500
O  21.66400 52.94800 29.62200
C  23.77900 51.79200 30.00600
C  24.28400 52.87200 30.94500
O  25.38100 53.37300 30.82600
O  23.38400 53.02800 31.92500
C  24.01300 53.54500 33.15800
H  29.95600 48.94300 28.44200
H  28.51200 49.14600 22.34400
H  22.94500 52.03200 23.62100
H  26.65900 51.20200 31.25900
H  28.31000 48.89900 30.72700
H  28.68600 51.77700 31.34700
H  29.52800 51.53800 29.82200
H  29.97900 50.47300 31.09600
H  26.38300 48.34000 31.65600
H  25.01200 48.85900 30.75400
H  24.50700 48.74700 33.05400
H  24.44900 50.52600 32.58100
H  31.12300 46.38200 26.52600
H  31.34200 47.71000 27.71200
H  32.26200 47.78000 26.23100
H  31.48600 45.77600 24.41900
H  32.45500 47.21700 23.99300
H  32.02900 46.18700 22.72300
H  26.05400 49.30100 21.32000
H  24.40800 51.92300 21.71300
H  27.69300 51.63700 21.30000
H  26.48500 51.88800 20.11800
H  27.39500 50.36900 20.03200
H  22.95300 49.49200 22.50100
H  23.80900 49.11900 21.07100
H  21.44200 50.67000 21.49700
H  22.02500 50.16100 19.94400
H  22.47200 51.69700 20.59600
H  20.91500 52.63500 25.02400
H  21.35600 53.98800 26.16600
H  20.55300 52.51000 26.75000
H  23.19000 51.02000 30.50100
H  24.00200 54.63100 33.07500
H  24.99000 53.10800 33.37000
H  23.39300 53.23100 33.99800

