158

Mg 7.73000 2.70800 28.76600
C  9.23400 1.33000 31.77100
C  5.63900 4.42900 30.89000
C  6.01900 3.61700 26.08300
C  9.36100 0.09800 26.97200
N  7.62700 2.95400 31.13300
C  8.27700 2.29900 32.11200
C  7.85400 2.82000 33.56100
C  6.70300 3.80000 33.22500
C  6.57400 3.69900 31.67700
C  5.35800 3.42600 33.94800
C  8.98800 3.56100 34.37200
C  8.63000 4.08600 35.77200
H  8.88800 3.27100 37.07700
N  6.17900 3.87400 28.48900
C  5.43300 4.47400 29.49000
C  4.40700 5.34800 28.87900
C  4.52900 5.17900 27.44700
C  5.57200 4.19200 27.32000
C  3.49900 6.21500 29.65600
C  3.87100 5.86800 26.29300
O  4.12100 5.65700 25.10000
C  2.65600 6.71400 26.51700
N  7.71400 1.97200 26.78700
C  7.07800 2.67800 25.82300
C  7.43100 2.13700 24.44000
C  8.63100 1.08100 24.70500
C  8.59000 1.04400 26.27200
C  6.16800 1.61700 23.80500
C  10.02500 1.50000 24.12600
C  11.10800 2.16600 25.03900
N  9.14300 1.08700 29.15400
C  9.64100 0.09600 28.36100
C  10.58900 -0.64300 29.14800
C  10.46500 -0.26200 30.44800
C  9.56000 0.84900 30.47500
C  11.37800 -1.85300 28.60900
C  10.91500 -0.51900 31.80700
O  11.67400 -1.35700 32.25700
C  10.15100 0.50100 32.69500
C  9.38000 -0.28800 33.64400
O  8.47900 -1.02400 33.39200
O  9.86000 -0.16600 34.97100
C  9.27200 -0.98400 36.02100
H  5.02400 5.12000 31.47100
H  5.52200 3.86000 25.14200
H  9.81800 -0.71700 26.40800
H  7.42600 2.03600 34.18600
H  6.93200 4.84000 33.46000
H  4.59000 2.94600 33.34100
H  4.89200 4.32400 34.35300
H  5.43400 2.60700 34.66300
H  9.46900 4.36800 33.81900
H  9.84000 2.90700 34.55400
H  7.54700 3.99300 35.85300
H  8.91400 5.12500 35.93900
H  3.74200 6.37300 30.70700
H  2.58800 5.65500 29.86400
H  3.42200 7.17600 29.14600
H  2.22600 6.93100 25.53900
H  2.95000 7.69600 26.89000
H  1.99200 6.21200 27.22100
H  7.87700 2.95700 23.87700
H  8.34700 0.08400 24.36700
H  5.34100 1.54800 24.51200
H  6.30600 0.63400 23.35600
H  5.88400 2.34800 23.04800
H  9.91300 2.30500 23.39900
H  10.58600 0.67400 23.68900
H  10.72600 2.29300 26.05200
H  11.30900 3.19200 24.73100
H  11.98500 1.51900 25.01800
H  12.18000 -1.97400 29.33600
H  11.73100 -1.76200 27.58200
H  10.71300 -2.70700 28.74400
H  10.88300 1.15400 33.17100
H  9.33700 -0.41900 36.95100
H  9.59600 -2.02200 36.09700
H  8.18800 -0.99700 35.90900
Mg 49.70300 45.71800 42.85100
C  46.39800 46.34100 41.89100
C  49.54700 42.75800 41.12100
C  53.19200 45.66800 42.67700
C  49.81400 48.97400 44.04200
N  48.15200 44.68500 41.67400
C  46.83500 45.03500 41.48500
C  46.07200 43.93900 40.69900
C  47.02600 42.71200 40.64900
C  48.36600 43.44900 41.11000
C  46.51500 41.55400 41.57900
C  45.66100 44.52800 39.24500
C  44.30400 44.03500 38.77000
H  44.19600 43.07700 37.59900
N  51.13900 44.33300 42.16600
C  50.85000 43.20100 41.54300
C  52.08600 42.45000 41.37800
C  53.15600 43.18900 42.03800
C  52.49400 44.45700 42.37700
C  52.19200 41.14200 40.76900
C  54.56600 42.76600 42.18800
O  54.93000 41.71800 41.67800
C  55.55200 43.55000 42.89800
N  51.25400 47.10600 43.24000
C  52.61200 46.79500 43.20900
C  53.50300 48.06100 43.53300
C  52.38900 49.05200 44.20000
C  51.05400 48.34600 43.87100
C  54.76800 47.82400 44.42400
C  52.42500 50.55200 43.70200
C  52.10000 51.56200 44.83300
N  48.33700 47.33400 43.07200
C  48.53900 48.55000 43.66300
C  47.35900 49.33700 43.57500
C  46.42600 48.46300 42.91400
C  47.14000 47.22600 42.58800
C  47.20600 50.79800 44.04500
C  45.03700 48.38800 42.44900
O  44.06700 49.10800 42.56100
C  45.01600 47.02100 41.69500
C  43.97700 46.25600 42.42900
O  44.13000 45.90400 43.60900
O  42.87600 46.05000 41.67500
C  41.83200 45.28700 42.31400
H  49.62500 41.74800 40.71400
H  54.26100 45.53900 42.49900
H  49.88200 50.02100 44.34300
H  45.27200 43.65300 41.38300
H  47.02500 42.22900 39.67200
H  47.36900 40.92200 41.82300
H  45.79100 40.96300 41.01800
H  46.02200 41.92400 42.47800
H  46.38900 44.23100 38.48900
H  45.68200 45.61800 39.25600
H  43.66800 44.90000 38.58600
H  43.83200 43.49000 39.58800
H  52.48200 41.20600 39.72000
H  51.24300 40.61300 40.69200
H  52.83500 40.47700 41.34600
H  55.16300 43.78900 43.88800
H  55.88000 44.45200 42.38200
H  56.39500 42.88200 43.07300
H  53.82000 48.39000 42.54400
H  52.49800 48.93100 45.27800
H  54.76200 48.42500 45.33300
H  55.63300 48.15500 43.84900
H  54.93100 46.79000 44.73100
H  51.74300 50.78200 42.88300
H  53.42500 50.65400 43.28100
H  51.24000 52.13300 44.48300
H  53.02200 52.14000 44.76300
H  51.85700 51.11900 45.79900
H  47.93200 51.02200 44.82600
H  46.19000 50.99900 44.38500
H  47.42900 51.46600 43.21300
H  44.87300 47.17300 40.62500
H  41.14900 44.73300 41.67100
H  41.24700 46.08100 42.77800
H  42.25500 44.59300 43.04100

