158

Mg 2.10400 -1.69500 44.24100
C  5.33400 -0.81200 43.30200
C  0.98400 0.83100 42.35100
C  -0.84700 -3.04100 44.68700
C  3.55300 -4.86500 45.45700
N  3.10400 -0.20400 42.99600
C  4.37600 -0.06900 42.66100
C  4.53900 0.96700 41.59100
C  3.21200 1.77100 41.56300
C  2.33700 0.69000 42.29400
C  3.30200 3.14600 42.41100
C  5.04500 0.31200 40.19600
C  6.35100 0.90500 39.57600
H  6.18400 1.68300 38.24700
N  0.29800 -1.09500 43.70600
C  0.00900 -0.05200 42.93600
C  -1.43900 0.10600 42.79900
C  -1.97300 -0.94100 43.53300
C  -0.84300 -1.76900 44.00600
C  -2.09200 1.26500 42.00400
C  -3.49400 -1.23500 43.73600
O  -4.38300 -0.42200 43.47200
C  -3.93900 -2.49400 44.40400
N  1.44700 -3.69800 45.10100
C  0.14400 -4.00000 45.11500
C  -0.19300 -5.40700 45.55200
C  1.23100 -5.97800 45.69200
C  2.19100 -4.79100 45.37000
C  -1.03000 -5.41300 46.78700
C  1.43000 -7.18400 44.78100
C  1.92200 -8.49900 45.37200
N  3.92400 -2.67500 44.42800
C  4.37300 -3.85400 45.05600
C  5.82500 -3.82300 45.17900
C  6.18300 -2.66100 44.45800
C  5.03900 -1.98900 44.08000
C  6.58600 -4.88900 45.86200
C  7.38600 -1.92000 44.00200
O  8.58300 -2.21300 44.10800
C  6.85300 -0.70900 43.20100
C  7.43900 0.50100 43.84500
O  8.20400 1.22300 43.27000
O  7.03600 0.62900 45.14100
C  7.35000 1.92700 45.76200
H  0.44400 1.60500 41.80200
H  -1.81900 -3.32600 45.09500
H  3.99300 -5.75800 45.90700
H  5.30000 1.60500 42.04200
H  2.93000 2.01700 40.53900
H  4.08800 3.07800 43.16400
H  2.39400 3.45800 42.92700
H  3.63700 4.02300 41.85700
H  4.28200 0.37800 39.42100
H  5.17500 -0.75300 40.39100
H  6.97000 0.04500 39.31800
H  6.93400 1.41700 40.34100
H  -1.46000 1.70000 41.23000
H  -2.41500 2.03300 42.70700
H  -3.05500 0.95700 41.59800
H  -5.02400 -2.51700 44.30700
H  -3.67000 -2.62600 45.45200
H  -3.39200 -3.34400 43.99600
H  -0.79100 -5.75000 44.70800
H  1.36600 -6.40200 46.68700
H  -0.67400 -4.62400 47.44900
H  -0.80300 -6.38400 47.22700
H  -2.07500 -5.21300 46.54900
H  2.16500 -6.97900 44.00300
H  0.47300 -7.28000 44.26800
H  1.03900 -9.06000 45.68000
H  2.54300 -8.37400 46.25900
H  2.38200 -9.10600 44.59300
H  6.75600 -5.87000 45.41800
H  6.00000 -5.12500 46.75000
H  7.57000 -4.53600 46.16900
H  7.21600 -0.85300 42.18300
H  8.40500 2.08000 45.53700
H  7.09000 2.04500 46.81400
H  6.71800 2.69200 45.31100
Mg 0.21400 7.97200 26.27800
C  0.98100 9.73300 29.22100
C  0.20500 5.05300 28.19300
C  -0.20000 6.31500 23.48300
C  0.58900 10.94000 24.49700
N  0.46800 7.49100 28.33800
C  0.69400 8.37900 29.41800
C  0.57800 7.73700 30.77700
C  0.51000 6.20700 30.40400
C  0.47500 6.24000 28.87400
C  1.65900 5.36000 31.01400
C  -0.69600 8.28500 31.53000
C  -0.51900 8.42700 33.06600
H  0.71000 7.87200 33.87100
N  0.05800 6.00800 25.86000
C  0.01800 4.94600 26.81500
C  -0.33000 3.69800 26.11300
C  -0.31300 4.03800 24.72100
C  -0.15700 5.53600 24.64000
C  -0.51500 2.34000 26.85800
C  -0.60500 3.13200 23.51500
O  -0.56500 3.50500 22.36200
C  -1.06400 1.83800 23.78900
N  0.38400 8.53100 24.29100
C  -0.01400 7.66500 23.30500
C  -0.20300 8.27900 21.92500
C  -0.03700 9.81000 22.28100
C  0.30500 9.78200 23.77000
C  0.86600 7.75100 20.83500
C  -1.22900 10.69700 21.85000
C  -2.52200 10.61600 22.64000
N  0.80000 9.91700 26.70700
C  0.94600 10.98300 25.83800
C  1.36300 12.13800 26.57900
C  1.36500 11.70900 27.93700
C  1.04500 10.33600 27.95900
C  1.68400 13.50400 25.99100
C  1.55000 12.14000 29.27500
O  1.94700 13.18900 29.70000
C  1.26000 10.92600 30.14000
C  2.32400 10.76300 31.07300
O  3.24200 9.93600 30.99700
O  2.21200 11.70100 32.05900
C  3.19100 11.59600 33.15000
H  0.09900 4.14800 28.79400
H  -0.51600 5.77200 22.59000
H  0.82800 11.84900 23.94100
H  1.42200 8.06200 31.38500
H  -0.44600 5.75400 30.66900
H  1.28700 4.55500 31.64700
H  2.20600 5.89400 31.79100
H  2.39900 4.95400 30.32300
H  -1.34900 7.42900 31.35900
H  -1.08500 9.19700 31.07900
H  -1.38800 7.95000 33.51800
H  -0.56000 9.49400 33.28800
H  -1.26700 1.69900 26.39800
H  -0.84600 2.51600 27.88100
H  0.43800 1.82100 26.74900
H  -1.44000 1.32700 22.90200
H  -1.95400 2.10200 24.35900
H  -0.40400 1.19400 24.37100
H  -1.17900 7.99100 21.53500
H  0.83500 10.23900 21.78800
H  1.58500 7.03000 21.22600
H  1.52300 8.48000 20.36100
H  0.27400 7.13600 20.15700
H  -1.36400 10.54800 20.77900
H  -0.92100 11.73400 21.98200
H  -2.44700 9.80200 23.36000
H  -3.38100 10.44600 21.99100
H  -2.76300 11.52800 23.18700
H  0.67000 13.81800 25.74200
H  2.31200 13.36200 25.11100
H  2.04200 14.20500 26.74500
H  0.36200 11.06800 30.74200
H  4.05000 12.26500 33.09500
H  3.50200 10.57500 33.37300
H  2.59500 11.91600 34.00400

