158

Mg 17.10200 52.36200 25.94400
C  19.04900 51.17400 28.53000
C  14.60900 52.97700 28.19400
C  15.41700 53.61900 23.39400
C  19.65900 51.38500 23.74800
N  16.83300 52.07900 28.10100
C  17.84600 51.72800 28.95800
C  17.39100 51.95000 30.44300
C  15.81800 52.12300 30.18900
C  15.70200 52.35300 28.71400
C  14.92100 51.07600 30.70100
C  17.90600 53.30100 30.99300
C  17.89500 53.55400 32.49300
H  16.70100 53.11100 33.41700
N  15.28500 53.20000 25.79300
C  14.40700 53.32500 26.82000
C  13.26700 54.10100 26.31600
C  13.46600 54.25500 24.94900
C  14.75400 53.66600 24.63900
C  12.16100 54.49900 27.20000
C  12.51800 54.86400 23.91600
O  12.84200 54.98400 22.73500
C  11.20300 55.35500 24.33600
N  17.39300 52.33000 23.83600
C  16.60700 52.98800 22.94200
C  17.11100 52.95800 21.53400
C  18.50500 52.22100 21.71800
C  18.58700 52.05600 23.24800
C  16.09900 52.31400 20.57100
C  19.68300 52.93900 21.03000
C  20.09800 54.22800 21.72600
N  18.81800 51.37100 26.02000
C  19.82600 51.02900 25.06100
C  20.92300 50.33800 25.65500
C  20.64700 50.39300 27.00000
C  19.38100 51.01400 27.18700
C  22.03800 49.63800 24.93500
C  21.26200 49.98000 28.23400
O  22.28900 49.36000 28.55800
C  20.30600 50.59500 29.31200
C  19.80400 49.60400 30.25300
O  19.24400 48.57600 29.93100
O  20.03100 50.04800 31.51700
C  19.49500 49.22600 32.57600
H  13.87300 53.35000 28.90900
H  14.95100 54.02700 22.49500
H  20.45400 51.10700 23.05300
H  17.57000 51.08800 31.08600
H  15.42900 53.01200 30.68400
H  15.46500 50.42500 31.38600
H  14.63800 50.48200 29.83200
H  14.04800 51.40800 31.26400
H  17.32000 54.14200 30.62300
H  18.94600 53.33500 30.66700
H  18.21300 54.55000 32.80100
H  18.64700 52.90400 32.94100
H  12.30600 54.16700 28.22800
H  11.19600 54.19400 26.79500
H  12.18200 55.56400 27.43000
H  10.58500 55.51300 23.45200
H  11.22800 56.33900 24.80400
H  10.64400 54.54300 24.80100
H  17.32600 53.95700 21.15700
H  18.60400 51.21600 21.30800
H  15.57100 53.15000 20.11300
H  15.39200 51.65400 21.07300
H  16.64400 51.71000 19.84500
H  19.28700 53.24700 20.06300
H  20.50400 52.25300 20.82000
H  21.18000 54.33200 21.81100
H  19.66900 54.23000 22.72800
H  19.54400 54.99500 21.18500
H  22.06300 48.56600 24.74000
H  22.90200 49.66600 25.59900
H  22.12600 50.06500 23.93600
H  20.82700 51.33500 29.92000
H  19.11100 49.79600 33.42200
H  20.42000 48.76200 32.91700
H  18.78500 48.41800 32.39700
Mg -11.30300 38.28700 41.71100
C  -9.24400 35.43200 41.31700
C  -8.94900 40.11700 39.92200
C  -13.50400 40.59700 41.34600
C  -13.63700 36.15500 43.23700
N  -9.42100 37.74500 40.61100
C  -8.76400 36.56500 40.59300
C  -7.53100 36.66400 39.68000
C  -7.31100 38.19600 39.53300
C  -8.62900 38.71100 40.12200
C  -6.10500 38.83700 40.31200
C  -7.84100 35.95300 38.24100
C  -6.76200 35.06700 37.68100
H  -5.80300 35.73600 36.67500
N  -11.20700 40.14400 40.86900
C  -10.14900 40.80900 40.26100
C  -10.47100 42.11100 39.92300
C  -11.86500 42.21800 40.26400
C  -12.23700 40.96300 40.86500
C  -9.41600 43.04900 39.30200
C  -12.70900 43.49900 40.02700
O  -12.21500 44.58400 39.76800
C  -14.18700 43.58600 40.24800
N  -13.41200 38.35700 42.12700
C  -14.07700 39.49900 41.93100
C  -15.57100 39.41900 42.38800
C  -15.58700 37.88700 42.76000
C  -14.14200 37.40200 42.79100
C  -15.99400 40.53200 43.42700
C  -16.67500 37.06300 41.95200
C  -16.13300 36.33800 40.69800
N  -11.42200 36.21700 42.25000
C  -12.37800 35.52100 42.92300
C  -11.91700 34.23700 43.21800
C  -10.63200 34.13100 42.61500
C  -10.44200 35.32900 42.02300
C  -12.60400 33.17200 43.97300
C  -9.45500 33.27000 42.45500
O  -9.29500 32.05200 42.64900
C  -8.47400 34.16500 41.64300
C  -7.19400 34.24400 42.35800
O  -6.61700 33.22800 42.71400
O  -6.73200 35.52300 42.64400
C  -5.34500 35.70700 43.08000
H  -8.17500 40.70500 39.42500
H  -14.36500 41.26700 41.30700
H  -14.44200 35.53100 43.63100
H  -6.59400 36.23500 40.03700
H  -7.17100 38.51400 38.50000
H  -6.35000 39.83300 40.67900
H  -5.28700 38.94000 39.59900
H  -5.93900 38.12900 41.12500
H  -7.94700 36.79400 37.55600
H  -8.81600 35.46800 38.19600
H  -7.22100 34.13500 37.34900
H  -6.00000 34.78600 38.40700
H  -9.45100 42.77000 38.24900
H  -8.45400 42.94000 39.80200
H  -9.79200 44.06500 39.42300
H  -14.38800 43.54600 41.31800
H  -14.48400 42.66500 39.74700
H  -14.59800 44.47100 39.76000
H  -16.10900 39.64900 41.46800
H  -15.99300 37.72600 43.75800
H  -16.61500 41.14700 42.77500
H  -15.08700 41.05200 43.73500
H  -16.64500 40.17800 44.22600
H  -17.41300 37.72200 41.49500
H  -17.21300 36.37000 42.59800
H  -16.30700 35.28100 40.89900
H  -15.09600 36.57800 40.46500
H  -16.61600 36.58700 39.75300
H  -13.68900 33.25200 43.90900
H  -12.16000 33.35300 44.95200
H  -12.29200 32.17700 43.65800
H  -8.24600 33.64900 40.71000
H  -5.25700 36.72500 43.46100
H  -4.57900 35.55700 42.31900
H  -5.14700 34.98200 43.86900

