158

Mg 2.10800 -1.56800 43.56000
C  5.52000 -0.62100 43.06200
C  1.21700 1.58400 42.15800
C  -0.99400 -2.73800 42.90500
C  3.18200 -4.72700 44.39000
N  3.28300 0.39500 42.83900
C  4.67600 0.45600 42.62900
C  4.99800 1.64000 41.80000
C  3.68100 2.53900 41.98900
C  2.60400 1.45500 42.38300
C  3.80600 3.77600 42.95600
C  5.35700 1.16800 40.37300
C  6.69800 1.53300 39.79200
H  6.65600 2.25300 38.46400
N  0.27700 -0.71900 42.71000
C  0.15400 0.60300 42.29100
C  -1.24300 0.87200 41.99400
C  -1.95000 -0.40000 42.19800
C  -0.90000 -1.31500 42.54700
C  -1.84700 2.20300 41.71200
C  -3.46000 -0.59200 42.13000
O  -4.16800 0.41300 41.89900
C  -4.14300 -1.89800 42.34300
N  1.19000 -3.46900 43.78800
C  -0.07100 -3.71300 43.44800
C  -0.40400 -5.20500 43.59900
C  0.90900 -5.79500 44.08800
C  1.85600 -4.56500 44.12300
C  -1.68700 -5.52600 44.42000
C  1.55000 -6.98000 43.22500
C  1.37300 -8.42200 43.74900
N  3.98200 -2.51300 43.95100
C  4.23900 -3.77800 44.19300
C  5.66000 -3.95500 44.17800
C  6.18700 -2.73000 43.73300
C  5.08700 -1.86900 43.58200
C  6.47900 -5.14500 44.43700
C  7.43100 -1.99900 43.42600
O  8.58500 -2.43800 43.43100
C  7.01300 -0.63400 42.82000
C  7.79700 0.36900 43.52900
O  7.61700 0.77400 44.66600
O  8.83500 0.84100 42.66700
C  9.41000 2.00100 43.17300
H  0.89800 2.55900 41.78300
H  -1.99000 -3.17900 42.82500
H  3.69700 -5.68600 44.47300
H  5.79400 2.08600 42.39700
H  3.38000 3.05900 41.08000
H  4.64500 3.65700 43.64200
H  2.84100 3.78800 43.46400
H  3.95800 4.66100 42.33800
H  4.60500 1.61900 39.72500
H  5.17600 0.10100 40.23900
H  7.31100 0.64300 39.65600
H  7.18600 2.19800 40.50500
H  -2.74800 2.08900 41.11100
H  -1.15900 2.90900 41.24600
H  -2.20400 2.63100 42.64900
H  -5.22900 -1.81200 42.31000
H  -3.83100 -2.23700 43.33100
H  -3.87500 -2.66300 41.61500
H  -0.70500 -5.43500 42.57700
H  0.71100 -6.12200 45.10900
H  -1.55300 -6.25500 45.22000
H  -2.48300 -5.87900 43.76400
H  -1.93500 -4.54000 44.81400
H  2.60000 -6.77100 43.02300
H  1.04800 -6.93000 42.25900
H  2.19200 -8.67100 44.42400
H  1.24000 -9.00500 42.83800
H  0.43000 -8.60800 44.26300
H  7.51500 -4.86900 44.63500
H  6.55800 -5.71300 43.51000
H  6.11900 -5.80200 45.22800
H  7.25400 -0.58900 41.75800
H  10.09800 1.77500 43.98800
H  8.70600 2.77500 43.47700
H  9.98000 2.52700 42.40700
Mg 47.57800 15.66300 29.14900
C  45.50300 15.28100 31.85300
C  49.58400 17.68400 31.15900
C  49.61700 16.49200 26.61100
C  45.08800 14.54200 27.04400
N  47.46500 16.45000 31.17300
C  46.63300 15.94700 32.16000
C  46.96400 16.58000 33.52100
C  48.15800 17.54600 33.25700
C  48.44500 17.21200 31.74300
C  47.91300 19.03500 33.49200
C  47.30300 15.53600 34.58300
C  47.27300 15.88400 36.02700
H  46.88200 17.27700 36.43700
N  49.50500 16.63400 28.94300
C  50.07400 17.44400 29.89000
C  51.42500 17.79000 29.44900
C  51.44000 17.42300 28.11600
C  50.10900 16.88600 27.79200
C  52.41900 18.53100 30.32100
C  52.54000 17.62100 27.10000
O  52.48200 17.28400 25.98000
C  53.85300 18.36100 27.58900
N  47.38400 15.68500 27.14800
C  48.37400 16.03000 26.26600
C  47.91400 15.80200 24.80800
C  46.53700 14.96200 24.95100
C  46.27100 15.09500 26.44800
C  47.76400 17.18900 24.13200
C  46.63900 13.45900 24.36800
C  46.82100 12.26600 25.34700
N  45.70500 15.07500 29.34500
C  44.76700 14.57500 28.41300
C  43.51600 14.08800 29.14600
C  43.86800 14.28200 30.48100
C  45.13700 14.91700 30.56900
C  42.22400 13.65800 28.58500
C  43.29500 14.19000 31.77500
O  42.18200 13.76600 32.07200
C  44.30200 14.94200 32.76400
C  43.53100 16.12500 33.27000
O  43.04200 16.99000 32.58600
O  43.31100 16.04400 34.61200
C  42.73400 17.17600 35.33800
H  50.20600 18.33100 31.78100
H  50.23800 16.70100 25.73700
H  44.33500 14.25500 26.30600
H  46.04000 17.04400 33.86600
H  49.06900 17.22800 33.76400
H  46.91100 19.13400 33.91000
H  47.97400 19.51700 32.51700
H  48.69900 19.41200 34.14600
H  48.29800 15.19600 34.29500
H  46.60600 14.72100 34.38800
H  48.24000 15.57600 36.42500
H  46.64600 15.20000 36.59800
H  53.22800 17.82200 30.49800
H  52.16200 18.90300 31.31300
H  52.80800 19.37000 29.74500
H  53.59900 19.40300 27.78600
H  54.58200 18.34300 26.77800
H  54.19900 17.87000 28.49800
H  48.76800 15.17400 24.55500
H  45.68100 15.35900 24.40500
H  46.77800 17.26700 23.67300
H  48.44600 17.13500 23.28300
H  48.02300 18.05000 24.74800
H  47.47900 13.39300 23.67600
H  45.68200 13.29500 23.87100
H  45.86800 11.76100 25.50500
H  47.27300 12.65600 26.25800
H  47.50200 11.53800 24.90500
H  42.34400 13.87100 27.52300
H  41.44800 14.29700 29.00700
H  42.04000 12.59300 28.72600
H  44.52100 14.25500 33.58100
H  43.13100 18.09500 34.90700
H  43.08000 17.17200 36.37200
H  41.65000 17.11400 35.24700

