158

Mg 26.19300 0.02700 29.34200
C  28.09900 -0.33600 32.22200
C  23.39400 0.65800 31.36900
C  24.24000 0.20800 26.66200
C  28.86000 -1.28100 27.45800
N  25.80100 0.10300 31.54500
C  26.72900 -0.01600 32.57300
C  26.15900 0.12100 33.95200
C  24.59400 0.12000 33.58200
C  24.57100 0.29700 32.10000
C  23.79200 -1.14800 34.12600
C  26.78900 1.35700 34.59300
C  26.01000 1.85900 35.88900
H  26.79700 2.06800 37.15400
N  24.19900 0.46300 29.05600
C  23.20300 0.69400 29.96400
C  21.92000 0.90200 29.31800
C  22.10200 0.86300 27.96100
C  23.56100 0.53900 27.83300
C  20.65300 1.19700 30.07100
C  21.20000 1.11200 26.75900
O  21.54100 1.02000 25.59800
C  19.86000 1.61100 27.01800
N  26.56700 -0.41200 27.36400
C  25.56400 -0.22200 26.44300
C  26.14000 -0.69300 25.07900
C  27.69200 -0.73400 25.28700
C  27.72800 -0.87300 26.80400
C  25.53300 -2.02300 24.47100
C  28.55900 0.49300 24.82800
C  30.03000 0.19900 24.50700
N  28.06600 -0.62900 29.68300
C  29.10000 -1.11400 28.85300
C  30.26900 -1.35500 29.53900
C  30.00000 -1.06200 30.85800
C  28.61400 -0.59900 30.91300
C  31.44800 -2.05600 28.86500
C  30.48900 -1.04500 32.24000
O  31.57800 -1.26700 32.69700
C  29.28300 -0.63200 33.14000
C  29.03000 -1.84200 34.04300
O  28.54800 -2.88600 33.68800
O  29.29900 -1.52800 35.35500
C  29.17200 -2.60800 36.33000
H  22.46300 0.80300 31.92100
H  23.79700 0.29300 25.66800
H  29.66400 -1.60300 26.79300
H  26.34000 -0.78200 34.53400
H  24.19800 1.03500 34.02100
H  24.46500 -1.84000 34.63300
H  23.38700 -1.73300 33.30100
H  23.02600 -0.81000 34.82300
H  26.79100 2.26200 33.98500
H  27.80800 1.15100 34.92000
H  25.07700 1.32000 36.05600
H  25.60500 2.85700 35.72500
H  20.08800 1.99900 29.59700
H  20.69800 1.48900 31.12100
H  19.93300 0.39400 29.91000
H  19.96600 2.56000 27.54500
H  19.29700 0.84300 27.54900
H  19.31800 1.81800 26.09600
H  25.94700 0.11300 24.37100
H  28.07900 -1.63200 24.80500
H  26.22200 -2.86300 24.55700
H  25.17200 -1.80900 23.46500
H  24.66600 -2.30000 25.07100
H  28.58000 1.10700 25.72800
H  28.22400 1.06300 23.96200
H  30.27100 0.72100 23.58100
H  30.17400 -0.88100 24.47700
H  30.68500 0.60600 25.27700
H  32.24000 -2.33600 29.55900
H  31.90100 -1.38600 28.13400
H  31.07100 -2.97800 28.42200
H  29.47000 0.19300 33.82700
H  29.95800 -3.36300 36.34300
H  28.19400 -3.02400 36.08800
H  29.00000 -2.15700 37.30700
Mg 6.32500 57.34100 41.54900
C  5.04700 54.02700 41.57100
C  9.45900 55.96400 40.91200
C  7.34800 60.47200 40.94500
C  3.01600 58.53200 41.85400
N  7.07400 55.30000 41.11900
C  6.43100 54.09400 41.29400
C  7.37600 52.88800 40.93800
C  8.80000 53.51400 41.29100
C  8.42000 55.03400 41.08100
C  9.32100 53.19200 42.70400
C  7.28700 52.50200 39.50500
C  7.90800 51.22700 38.97700
H  7.16200 50.32200 38.04500
N  8.14200 58.11900 41.02800
C  9.31800 57.41800 40.80600
C  10.36800 58.39200 40.62400
C  9.77700 59.70000 40.69000
C  8.36600 59.48200 40.88800
C  11.85700 58.06000 40.44500
C  10.50200 60.99700 40.43500
O  11.64700 60.87700 40.06500
C  9.90900 62.36200 40.66000
N  5.29700 59.17200 41.28500
C  5.94900 60.31500 41.19600
C  5.00400 61.57500 41.37400
C  3.62200 60.96900 41.77100
C  3.98000 59.49600 41.64000
C  5.63900 62.68900 42.28600
C  2.40300 61.56200 41.01800
C  2.51400 62.96300 40.39800
N  4.38300 56.51400 41.79100
C  3.16300 57.10400 41.87900
C  2.17200 56.09900 42.10500
C  2.88500 54.92100 42.06400
C  4.20100 55.13000 41.78500
C  0.69800 56.37000 42.39200
C  2.73700 53.50200 42.21600
O  1.69800 52.92500 42.48200
C  4.07200 52.85300 41.93200
C  3.84300 51.83700 40.81700
O  3.40200 52.09100 39.66200
O  4.15100 50.61800 41.16800
C  4.07200 49.58100 40.18800
H  10.42700 55.48400 40.75400
H  7.61300 61.53100 40.92000
H  2.02800 58.89800 42.14200
H  7.31600 52.02400 41.60100
H  9.57000 53.12000 40.62600
H  10.38200 52.94500 42.67300
H  8.87000 52.34300 43.21600
H  9.17800 54.01700 43.40200
H  7.73800 53.23400 38.83500
H  6.24300 52.35700 39.22700
H  8.14100 50.63100 39.85900
H  8.88300 51.33600 38.50100
H  12.56100 58.49000 41.15700
H  12.10400 58.49100 39.47400
H  11.96100 56.97600 40.41600
H  9.50700 62.52300 41.66000
H  9.16100 62.57600 39.89600
H  10.67900 63.08900 40.40200
H  4.88000 61.87900 40.33400
H  3.29500 61.22700 42.77800
H  4.85800 63.34400 42.67100
H  6.34100 63.27500 41.69300
H  6.08600 62.18000 43.14000
H  1.58200 61.65700 41.72900
H  2.07100 60.79300 40.32000
H  1.49200 63.25000 40.15200
H  3.11000 62.83300 39.49400
H  2.95700 63.70800 41.05900
H  0.33700 55.47800 42.90400
H  0.14200 56.45200 41.45800
H  0.56800 57.24400 43.02900
H  4.40700 52.24300 42.77100
H  3.03400 49.26900 40.30400
H  4.78800 48.80300 40.45300
H  4.35700 49.91000 39.18900

