158

Mg 41.31800 7.77500 30.37100
C  43.08100 9.36800 33.00900
C  39.05400 6.48000 32.63400
C  39.71900 6.03100 27.88400
C  43.59800 8.88400 28.05800
N  41.21900 7.88700 32.55400
C  41.97200 8.57500 33.48000
C  41.54300 8.40400 34.89600
C  40.40300 7.30600 34.66500
C  40.20700 7.18500 33.19100
C  40.50600 5.93800 35.44800
C  41.00400 9.74900 35.33500
C  41.61500 10.41500 36.58500
H  40.69800 10.80800 37.76400
N  39.58900 6.53600 30.21400
C  38.77300 6.14800 31.27700
C  37.63000 5.33600 30.71500
C  37.82500 5.34600 29.32600
C  39.07900 5.96800 29.10100
C  36.50000 4.72500 31.49700
C  36.86400 4.68400 28.31500
O  37.27100 4.54900 27.16300
C  35.41800 4.25400 28.62000
N  41.68300 7.38000 28.28200
C  40.91200 6.60800 27.48300
C  41.45400 6.53300 25.99900
C  42.53700 7.70800 26.04300
C  42.63700 8.02100 27.58300
C  41.90100 5.17700 25.55300
C  42.27300 8.92500 25.09800
C  41.09700 9.82800 25.41200
N  43.02500 8.86200 30.42400
C  43.86500 9.23800 29.40200
C  44.92100 10.09700 29.96100
C  44.60300 10.17100 31.35100
C  43.52200 9.37700 31.59000
C  46.07600 10.70000 29.21100
C  45.10000 10.73100 32.59400
O  46.05800 11.49500 32.79800
C  44.07400 10.29900 33.67600
C  44.98200 9.47200 34.58800
O  45.58400 8.46300 34.26400
O  45.08600 10.00000 35.79100
C  45.99700 9.37500 36.78800
H  38.31000 6.01600 33.28400
H  39.29900 5.42900 27.07500
H  44.20800 9.31800 27.26300
H  42.39700 7.96000 35.40700
H  39.47300 7.82900 34.88900
H  40.33300 5.10800 34.76300
H  39.67700 5.90700 36.15600
H  41.44900 5.78000 35.97100
H  39.94500 9.68400 35.58900
H  41.05400 10.53800 34.58500
H  41.97200 11.40300 36.29200
H  42.55400 9.90300 36.79700
H  35.58600 5.31500 31.42500
H  36.68400 4.83900 32.56500
H  36.55400 3.65500 31.30100
H  35.29600 3.52600 29.42200
H  34.99300 3.89200 27.68400
H  34.89600 5.17400 28.88600
H  40.61200 6.76600 25.34700
H  43.52200 7.31500 25.79300
H  42.80300 4.84200 26.06500
H  42.08100 5.20400 24.47800
H  41.21800 4.33600 25.67400
H  42.11300 8.41100 24.15000
H  43.19600 9.50200 25.03900
H  40.67500 9.59500 26.39000
H  40.31200 9.71000 24.66500
H  41.36700 10.87600 25.54500
H  46.20000 11.75900 29.43900
H  45.93200 10.52100 28.14600
H  47.05500 10.31800 29.50300
H  43.72100 11.18800 34.19900
H  46.05100 8.28700 36.83800
H  45.68000 9.63600 37.79700
H  47.03100 9.66400 36.60000
Mg 47.32600 15.67800 29.17800
C  44.98500 14.84000 31.83700
C  48.74800 17.85900 31.39000
C  49.17800 16.59800 26.62900
C  45.01600 13.96400 26.97600
N  46.84800 16.30100 31.41700
C  46.03600 15.60100 32.24600
C  46.28800 16.09800 33.72300
C  47.20600 17.34700 33.53000
C  47.69100 17.15500 32.04200
C  46.53800 18.67900 33.78900
C  46.84800 14.93600 34.66200
C  46.34000 14.89500 36.09300
H  47.47900 14.90600 37.16200
N  48.86500 17.01800 29.05600
C  49.27700 17.86300 30.02200
C  50.39500 18.64100 29.45200
C  50.56000 18.32700 28.14700
C  49.56500 17.29000 27.86900
C  51.10900 19.67000 30.40800
C  51.54300 18.81900 27.12600
O  51.58500 18.38100 25.97200
C  52.51900 19.93000 27.51700
N  47.11600 15.33500 27.14400
C  48.06100 15.82100 26.23100
C  47.62800 15.51100 24.78900
C  46.46500 14.51200 24.98700
C  46.17500 14.58400 26.47700
C  47.33400 16.59200 23.81100
C  46.59100 13.12600 24.39300
C  47.56900 12.09900 25.08400
N  45.37600 14.58100 29.32000
C  44.64400 13.87600 28.33500
C  43.51100 13.28000 28.97400
C  43.61200 13.67500 30.31100
C  44.73400 14.45300 30.48400
C  42.58000 12.40200 28.23600
C  42.91900 13.59500 31.59900
O  41.90200 12.99300 31.94400
C  43.77000 14.34100 32.62900
C  42.91000 15.45500 33.14000
O  42.69700 16.51300 32.63200
O  42.48700 15.12900 34.42800
C  41.82400 16.07400 35.24600
H  49.15300 18.55800 32.12500
H  49.82500 16.85200 25.78700
H  44.29700 13.66800 26.20800
H  45.24700 16.33700 33.94200
H  48.10800 17.28800 34.13900
H  46.56400 18.81300 34.87100
H  45.51500 18.79100 33.42900
H  47.10000 19.47100 33.29500
H  47.93300 15.01800 34.72600
H  46.59800 13.99100 34.18100
H  45.75700 13.98600 36.24100
H  45.70600 15.77500 36.20300
H  50.61300 19.69200 31.37900
H  51.12000 20.63400 29.89900
H  52.11000 19.30900 30.64600
H  53.25800 20.15800 26.74800
H  52.99900 19.63300 28.44900
H  51.95300 20.85400 27.63400
H  48.47500 15.00000 24.32900
H  45.57600 14.92600 24.51000
H  47.67500 17.54500 24.21500
H  46.27100 16.74700 23.62500
H  47.84300 16.51700 22.85000
H  46.96800 13.19900 23.37200
H  45.59300 12.68900 24.37300
H  47.14600 11.17300 25.47400
H  48.09000 12.60100 25.89900
H  48.36800 11.76900 24.42100
H  41.84000 11.99800 28.92700
H  43.12800 11.55100 27.83100
H  42.13400 12.96200 27.41400
H  44.08500 13.77400 33.50500
H  41.81400 15.58400 36.22000
H  40.82200 16.28200 34.87000
H  42.53700 16.89500 35.30900

