158

Mg 9.34100 4.32700 27.90900
C  10.71200 2.67600 30.66700
C  7.24000 5.92500 29.95600
C  7.84900 5.72100 25.11100
C  10.93900 2.02000 25.74200
N  8.97700 4.20600 30.16700
C  9.71800 3.57800 31.13500
C  9.14800 3.88700 32.51900
C  7.93400 4.83900 32.23900
C  8.09300 5.03300 30.69800
C  6.48800 4.35000 32.59600
C  10.20800 4.30500 33.63400
C  9.58400 4.27200 35.03300
H  10.48000 4.37600 36.21900
N  7.85800 5.77600 27.63800
C  7.03500 6.20500 28.56800
C  6.11700 7.22300 28.02200
C  6.24000 7.16200 26.60300
C  7.42500 6.25900 26.37700
C  5.19300 8.06300 28.78800
C  5.45200 7.87400 25.44800
O  5.78300 7.82700 24.29600
C  4.32300 8.85000 25.69300
N  9.35600 3.98300 25.76500
C  8.63600 4.62100 24.84200
C  8.80100 4.00500 23.44300
C  9.80900 2.85200 23.67400
C  10.12400 3.02700 25.16600
C  7.49600 3.57400 22.73600
C  11.05300 2.75000 22.75500
C  11.04800 1.69500 21.63800
N  10.59700 2.66900 28.06200
C  11.20900 1.84300 27.12300
C  11.98900 0.90200 27.85700
C  11.98600 1.30900 29.22700
C  10.96700 2.29300 29.28800
C  12.80000 -0.23700 27.20400
C  12.46600 0.96300 30.55900
O  13.23000 0.08400 30.93700
C  11.72600 1.92700 31.50200
C  11.10800 1.16200 32.55800
O  10.11400 0.42200 32.44700
O  11.73400 1.41800 33.73000
C  11.22700 0.67700 34.85700
H  6.57600 6.47200 30.62800
H  7.31800 6.10800 24.23900
H  11.23700 1.24100 25.03600
H  8.89400 2.90500 32.91700
H  8.10500 5.85200 32.60300
H  6.43700 3.54200 33.32500
H  5.90000 4.09200 31.71500
H  5.88100 5.19700 32.91700
H  10.55300 5.31600 33.42000
H  11.07900 3.65600 33.54100
H  9.04200 3.32600 35.03600
H  8.80600 5.02900 35.13000
H  5.76300 8.98800 28.87000
H  4.86200 7.61500 29.72400
H  4.28500 8.33300 28.24900
H  3.88600 9.26300 24.78400
H  4.61000 9.72400 26.27800
H  3.51300 8.32000 26.19500
H  9.29200 4.81000 22.89600
H  9.25200 1.91700 23.62300
H  6.69900 3.64500 23.47700
H  7.52200 2.55200 22.35800
H  7.50100 4.35900 21.98000
H  11.94500 2.70500 23.38100
H  11.11500 3.73900 22.30100
H  10.06100 1.25200 21.50500
H  11.69400 0.88400 21.97400
H  11.33700 2.06300 20.65300
H  12.52500 -1.20300 27.62900
H  13.83800 0.07600 27.31500
H  12.54400 -0.38000 26.15400
H  12.43200 2.57700 32.01800
H  10.18700 0.36200 34.76500
H  11.23300 1.21000 35.80700
H  11.82000 -0.23500 34.92200
Mg 47.67800 35.09200 26.48900
C  45.59600 33.72300 28.92800
C  48.12200 37.82800 28.31400
C  49.23900 36.46700 23.75700
C  46.46600 32.53500 24.27900
N  47.09800 35.56500 28.39400
C  46.39000 34.82200 29.35900
C  46.44300 35.45200 30.71900
C  46.90200 36.88300 30.41200
C  47.40600 36.79900 28.94300
C  45.77300 37.95500 30.49000
C  47.47800 34.73800 31.64700
C  47.30400 34.86000 33.09700
H  46.22100 35.81000 33.60300
N  48.65900 36.87100 26.13400
C  48.66500 37.88900 27.02200
C  49.31300 38.99900 26.39800
C  49.68400 38.60400 25.03700
C  49.16400 37.21100 24.89900
C  49.52500 40.30700 27.17500
C  50.27500 39.44000 23.88100
O  50.48500 39.06100 22.72300
C  50.55300 40.83100 24.30200
N  48.00500 34.44300 24.38800
C  48.78000 35.18400 23.54700
C  48.85900 34.57400 22.17900
C  48.03800 33.25300 22.39500
C  47.42800 33.37400 23.75900
C  48.40500 35.41300 20.97500
C  48.73500 31.88900 22.04600
C  47.95200 30.82200 21.23900
N  46.34800 33.55900 26.53600
C  45.94900 32.61500 25.55800
C  45.01000 31.63100 26.13100
C  44.77700 32.10000 27.46700
C  45.63400 33.22900 27.65700
C  44.37000 30.46200 25.47800
C  43.99700 31.81300 28.68700
O  43.31100 30.85500 28.97800
C  44.40700 32.96800 29.67800
C  44.79300 32.34900 30.99600
O  45.85700 31.78300 31.15500
O  43.80500 32.51800 32.02500
C  44.20200 32.08600 33.38400
H  48.29300 38.68000 28.97400
H  49.72600 36.87800 22.87000
H  46.12500 31.72400 23.63200
H  45.42200 35.41200 31.09800
H  47.65700 37.25800 31.10200
H  46.18800 38.87500 30.90100
H  45.02900 37.60300 31.20500
H  45.40700 38.20400 29.49400
H  48.49400 34.99700 31.35100
H  47.23100 33.68000 31.55200
H  48.25000 35.26300 33.45900
H  47.12800 33.92000 33.62000
H  50.56700 40.59300 27.03600
H  49.31800 40.09300 28.22400
H  48.86100 41.11700 26.87400
H  50.96300 41.46500 23.51600
H  51.47100 40.69900 24.87400
H  49.64700 41.25200 24.73600
H  49.90000 34.36100 21.93900
H  47.24800 33.21700 21.64500
H  47.64800 36.11900 21.31700
H  48.00200 34.73600 20.22200
H  49.31900 35.85300 20.57700
H  48.93500 31.50700 23.04700
H  49.69500 32.01400 21.54600
H  46.93200 31.15700 21.04900
H  47.92200 29.83900 21.71000
H  48.36400 30.67000 20.24200
H  43.44400 30.20600 25.99200
H  45.00300 29.58400 25.34800
H  44.05000 30.73700 24.47300
H  43.50000 33.53800 29.87900
H  43.46400 32.60600 33.99400
H  45.22300 32.25700 33.72700
H  44.15500 30.99700 33.39000

