158

Mg 26.63700 0.67800 29.39600
C  28.56100 0.33800 32.17400
C  23.78300 1.17800 31.38800
C  24.66600 0.63300 26.59100
C  29.48100 -0.09500 27.31000
N  26.25700 0.68100 31.55000
C  27.22200 0.69300 32.52900
C  26.61500 0.89400 33.92000
C  25.08800 1.01000 33.60200
C  25.00900 1.02300 32.09300
C  24.25100 -0.02700 34.27600
C  27.19600 2.25200 34.53500
C  28.08700 2.01400 35.74900
H  27.81600 2.87900 37.03000
N  24.58000 0.88900 28.99400
C  23.61900 1.10900 29.96800
C  22.30600 1.30900 29.28300
C  22.53600 1.04100 27.88200
C  23.96200 0.86800 27.79900
C  20.99100 1.54500 30.00200
C  21.52900 1.07800 26.70100
O  21.89300 0.93900 25.52200
C  20.07400 1.29200 26.94500
N  27.03700 0.23700 27.31900
C  25.99800 0.33900 26.40700
C  26.55200 0.35900 24.92800
C  28.17000 0.23100 25.13400
C  28.23100 0.10400 26.70600
C  25.99700 -0.68500 24.10500
C  28.97800 1.56500 24.72500
C  30.03600 1.28600 23.68600
N  28.54800 0.13500 29.64500
C  29.59100 -0.09100 28.70400
C  30.79200 -0.33800 29.50900
C  30.43200 -0.18200 30.85400
C  29.07300 0.10800 30.87000
C  32.14800 -0.69000 28.93900
C  30.91400 -0.34700 32.19500
O  31.91600 -0.86000 32.70800
C  29.71000 0.10400 33.11200
C  29.40000 -0.99600 34.11400
O  28.63500 -1.97600 33.91800
O  30.07400 -0.74700 35.27800
C  30.09000 -1.81700 36.25800
H  22.81700 1.32800 31.87600
H  24.23100 0.69500 25.59200
H  30.42000 -0.34200 26.81100
H  26.82600 0.06100 34.59000
H  24.74000 1.94400 34.04300
H  23.55900 0.42600 34.98500
H  24.94200 -0.73500 34.73400
H  23.64500 -0.53900 33.52800
H  26.47500 2.97100 34.92500
H  27.81400 2.78100 33.80900
H  29.10600 2.31200 35.49900
H  28.05400 0.96400 36.03800
H  20.39900 0.65300 29.79800
H  20.50800 2.39200 29.51600
H  21.02000 1.68600 31.08200
H  19.48700 1.11600 26.04300
H  20.02100 2.36700 27.12200
H  19.73900 0.62200 27.73700
H  26.34400 1.25800 24.34900
H  28.49400 -0.64700 24.57600
H  26.66800 -1.14900 23.38300
H  25.37400 -0.19900 23.35300
H  25.39600 -1.45200 24.59300
H  29.56200 2.03700 25.51600
H  28.32200 2.34800 24.34500
H  31.05000 1.32600 24.08200
H  30.05800 2.05900 22.91700
H  29.86700 0.32100 23.20700
H  32.93700 -0.46700 29.65900
H  32.36400 -0.15900 28.01200
H  32.12400 -1.77200 28.80900
H  29.91200 1.06200 33.58900
H  30.12500 -2.85200 35.91700
H  29.25100 -1.63800 36.93000
H  31.02000 -1.76100 36.82300
Mg 30.53300 58.82100 38.88300
C  27.92300 56.72100 37.60700
C  32.63300 56.26900 38.01400
C  33.01000 61.02000 39.10800
C  28.13100 61.42000 38.96400
N  30.28200 56.74500 37.70700
C  29.15600 56.13500 37.40400
C  29.41100 54.74900 36.81700
C  31.02700 54.60400 37.04900
C  31.32100 55.89300 37.77200
C  31.42500 53.35000 37.83100
C  29.00300 54.54600 35.36200
C  29.31700 55.66800 34.32200
H  28.31600 56.18300 33.26500
N  32.60900 58.59000 38.74500
C  33.24400 57.42500 38.36000
C  34.67900 57.64000 38.51100
C  34.79800 59.07900 38.88800
C  33.43000 59.65000 38.87600
C  35.76000 56.62200 38.27700
C  36.00800 59.79800 39.29500
O  37.03900 59.23500 39.12900
C  36.06400 61.12800 39.80100
N  30.52300 60.92400 39.12500
C  31.69300 61.54100 39.22800
C  31.48800 63.03600 39.56900
C  29.92000 63.20600 39.23400
C  29.45900 61.77500 39.17000
C  31.89700 63.47600 41.03200
C  29.68800 64.07700 37.92600
C  29.82600 65.62900 37.81500
N  28.42300 59.04700 38.54100
C  27.63200 60.13700 38.68300
C  26.25400 59.81300 38.39400
C  26.30900 58.48000 37.97000
C  27.67300 58.08400 38.01100
C  25.04400 60.75600 38.40000
C  25.58600 57.34500 37.48000
O  24.39400 57.17000 37.30700
C  26.55400 56.16100 37.31500
C  26.07400 54.91400 38.07700
O  26.24300 54.69400 39.28000
O  25.25000 54.14400 37.24100
C  24.49100 53.07700 37.96100
H  33.35800 55.48300 37.79600
H  33.73600 61.83200 39.18700
H  27.43500 62.26100 38.99500
H  28.79300 54.05100 37.38200
H  31.64500 54.55700 36.15200
H  31.70400 53.63700 38.84500
H  32.18700 52.72900 37.36100
H  30.65400 52.58000 37.87000
H  27.92700 54.37400 35.32200
H  29.56400 53.66800 35.04100
H  30.23200 55.36600 33.81300
H  29.61200 56.59900 34.80700
H  36.41600 56.63500 39.14700
H  36.20800 56.66400 37.28500
H  35.29100 55.63900 38.32500
H  37.08600 61.25700 40.15700
H  35.42000 61.24600 40.67200
H  35.80200 61.79500 38.97900
H  32.07600 63.69800 38.93300
H  29.42300 63.68100 40.08000
H  32.76800 64.12400 40.94100
H  32.25500 62.59300 41.56100
H  31.20500 63.95100 41.72700
H  28.60900 63.97500 37.81100
H  30.20000 63.63900 37.06900
H  30.26300 66.02400 38.73200
H  28.87500 66.09500 37.55800
H  30.53200 65.86300 37.01800
H  24.16900 60.10600 38.41900
H  24.91900 61.42100 37.54500
H  25.10500 61.38100 39.29100
H  26.61400 56.02700 36.23400
H  24.03000 53.32200 38.91700
H  25.13500 52.21900 38.15300
H  23.69000 52.83600 37.26200

