158

Mg -1.94000 17.67100 27.34400
C  -2.52100 15.29600 29.92700
C  -2.39400 20.10900 29.68500
C  -1.73200 19.97800 24.90500
C  -2.31300 15.07200 25.05100
N  -2.59000 17.65000 29.59600
C  -2.53200 16.56000 30.46800
C  -2.45700 16.94500 31.89700
C  -2.61000 18.54700 31.76000
C  -2.61500 18.82000 30.24900
C  -3.86600 19.12000 32.45800
C  -1.16500 16.54400 32.72300
C  -0.90100 17.33100 33.99300
H  -0.62000 16.57900 35.27600
N  -1.91500 19.77600 27.31400
C  -2.14700 20.59200 28.41600
C  -2.12900 21.98500 27.98400
C  -1.84900 21.99600 26.58600
C  -1.86100 20.54600 26.23700
C  -2.56000 23.12500 28.95700
C  -1.79500 23.15000 25.67200
O  -1.65000 23.07900 24.43200
C  -2.13200 24.48100 26.16000
N  -2.09000 17.50900 25.31300
C  -1.94000 18.61000 24.50800
C  -2.11300 18.23000 23.03100
C  -2.18100 16.70500 23.10400
C  -2.30400 16.37400 24.59200
C  -3.39500 18.86200 22.37300
C  -1.06000 16.03200 22.28500
C  0.31200 15.96400 22.97700
N  -2.18500 15.57900 27.43500
C  -2.33400 14.68200 26.41700
C  -2.58100 13.35200 26.91600
C  -2.59200 13.52500 28.28800
C  -2.39700 14.92000 28.57700
C  -2.77200 12.15000 26.00600
C  -2.63000 12.83000 29.57300
O  -2.72200 11.69900 29.94600
C  -2.58300 13.96600 30.60100
C  -1.42900 13.70600 31.45900
O  -0.26000 14.06000 31.29000
O  -1.91500 12.89000 32.50700
C  -0.96500 12.81100 33.59000
H  -2.58800 20.89700 30.41600
H  -1.67400 20.79700 24.18400
H  -2.38900 14.21100 24.38500
H  -3.31400 16.40400 32.29800
H  -1.85300 19.13600 32.27800
H  -3.54700 19.46500 33.44200
H  -4.56600 18.29100 32.56600
H  -4.38400 19.91300 31.92000
H  -0.21800 16.54100 32.18300
H  -1.48300 15.59200 33.14900
H  -1.71500 18.02600 34.20200
H  -0.07400 18.00100 33.75600
H  -3.62400 23.25400 28.75500
H  -2.03100 24.06400 28.79500
H  -2.53400 22.85900 30.01400
H  -3.16400 24.52200 26.50900
H  -1.89100 25.28400 25.46300
H  -1.49100 24.85800 26.95700
H  -1.20600 18.57000 22.53200
H  -3.11200 16.27400 22.73400
H  -3.93400 19.48900 23.08300
H  -4.08700 18.10200 22.01100
H  -3.04300 19.46100 21.53200
H  -0.79800 16.46000 21.31700
H  -1.45100 15.03600 22.07900
H  0.30300 16.36800 23.99000
H  0.88300 16.65400 22.35600
H  0.75400 14.97200 22.88200
H  -1.91200 12.13300 25.33800
H  -3.75800 12.20900 25.54500
H  -2.75700 11.26400 26.64200
H  -3.48400 13.99700 31.21300
H  -1.57800 12.53800 34.44800
H  -0.35500 13.68200 33.83100
H  -0.31000 11.96600 33.37400
Mg 47.05500 25.12900 28.53100
C  48.07500 27.41600 31.05200
C  46.19200 22.88900 30.94000
C  46.50700 22.95000 26.09700
C  48.56600 27.39100 26.20900
N  47.12900 25.12400 30.81900
C  47.49800 26.15800 31.62200
C  47.28200 25.74500 33.08700
C  47.09700 24.21800 32.98300
C  46.70500 24.05100 31.47100
C  48.27700 23.28700 33.28900
C  46.14300 26.55700 33.81400
C  46.60200 27.02500 35.22300
H  45.54700 27.41500 36.24100
N  46.41000 23.11400 28.55500
C  46.04100 22.40200 29.62400
C  45.52600 21.11600 29.16300
C  45.68700 21.07300 27.70800
C  46.24100 22.42100 27.36300
C  45.03000 20.06300 30.07500
C  45.39600 19.94800 26.76400
O  45.46900 20.09400 25.60400
C  44.99500 18.53800 27.16800
N  47.32300 25.20600 26.46100
C  46.91700 24.13700 25.62200
C  47.03500 24.55100 24.16100
C  47.95600 25.84200 24.21400
C  47.97300 26.21000 25.70500
C  47.59200 23.37200 23.29500
C  47.47600 27.07200 23.38400
C  47.66400 26.99300 21.81000
N  48.14700 27.00700 28.55800
C  48.68800 27.78000 27.55100
C  49.26000 28.97000 28.12600
C  49.01400 28.87900 29.44200
C  48.38100 27.64500 29.69700
C  49.95700 30.02400 27.34400
C  49.20700 29.59600 30.73500
O  49.74800 30.66400 30.97300
C  48.55900 28.63700 31.78100
C  49.51000 28.21500 32.81100
O  50.35500 27.32200 32.65000
O  49.37900 28.93700 33.96600
C  50.15900 28.42700 35.02800
H  46.07100 22.07100 31.65300
H  46.10800 22.33000 25.29100
H  49.02600 28.09200 25.50900
H  48.19800 25.90600 33.65600
H  46.27900 23.85000 33.60100
H  48.09100 22.76300 34.22600
H  49.18300 23.84600 33.52100
H  48.58000 22.57600 32.52100
H  45.24500 25.99400 34.06900
H  45.79700 27.35200 33.15300
H  47.17000 27.93200 35.01500
H  47.22900 26.25600 35.67400
H  45.78700 19.28000 30.11300
H  44.10900 19.76300 29.57600
H  44.76200 20.27700 31.11000
H  45.65900 17.99300 27.83900
H  44.84000 17.86500 26.32500
H  44.00800 18.77100 27.56900
H  46.03200 24.79500 23.81100
H  48.96300 25.57500 23.89400
H  47.96600 22.57300 23.93500
H  48.36000 23.62900 22.56500
H  46.76200 22.96600 22.71700
H  47.95200 28.00400 23.69100
H  46.40600 27.18700 23.56300
H  48.22700 27.78300 21.31200
H  46.64800 26.83800 21.44700
H  48.27500 26.13100 21.54400
H  50.35800 29.75900 26.36600
H  50.81100 30.23800 27.98700
H  49.37600 30.94700 27.35400
H  47.68200 29.08300 32.25100
H  51.16300 28.84100 34.93700
H  50.34800 27.35300 35.04900
H  49.67500 28.67500 35.97300

