158

Mg 29.85400 58.32900 40.88800
C  26.96900 56.54000 39.95500
C  31.68400 56.03800 38.91800
C  32.42500 60.40800 40.98400
C  27.73900 61.01800 42.04400
N  29.39300 56.43800 39.82400
C  28.14100 55.96300 39.44800
C  28.25100 54.77000 38.45100
C  29.75800 54.32000 38.76600
C  30.36200 55.66600 39.21200
C  29.96000 53.15100 39.70600
C  27.95800 55.18000 36.97100
C  27.06400 54.35700 36.10300
H  26.94200 54.56100 34.64600
N  31.85600 58.12700 40.28600
C  32.37700 57.18300 39.46700
C  33.77600 57.52500 39.14900
C  34.05400 58.80700 39.76500
C  32.71000 59.17600 40.38200
C  34.68200 56.48200 38.29900
C  35.30600 59.55000 39.65500
O  36.25700 59.09400 38.96200
C  35.60700 60.83100 40.41700
N  30.00500 60.33900 41.56000
C  31.26600 60.77600 41.66100
C  31.29200 62.22400 42.29800
C  29.73900 62.50100 42.49500
C  29.12900 61.25700 42.00000
C  32.09300 62.25000 43.60100
C  29.30600 63.82900 41.71100
C  28.39900 64.87200 42.46800
N  27.76300 58.71200 41.02400
C  27.08300 59.83600 41.56200
C  25.69000 59.53900 41.57200
C  25.58800 58.28200 40.95700
C  26.85500 57.82000 40.61000
C  24.59600 60.44000 42.07400
C  24.64100 57.25200 40.50000
O  23.44200 57.23500 40.52500
C  25.52100 56.07700 39.83500
C  25.30000 54.82300 40.65200
O  25.96200 54.57100 41.65900
O  24.45800 53.90300 40.07700
C  24.47000 52.51700 40.60700
H  32.11600 55.31000 38.22800
H  33.20600 61.17100 40.98700
H  27.13100 61.73700 42.59700
H  27.48800 54.04700 38.73800
H  30.22500 53.92600 37.86300
H  28.99300 52.86400 40.12100
H  30.57200 53.43700 40.56100
H  30.43000 52.26100 39.28700
H  28.92300 55.24900 36.47000
H  27.75100 56.24600 36.86900
H  26.07900 54.41000 36.56700
H  27.39700 53.33800 36.30400
H  34.84400 56.78300 37.26400
H  34.27300 55.47200 38.33100
H  35.64000 56.29200 38.78200
H  35.11500 61.68100 39.94400
H  36.69300 60.89800 40.35600
H  35.30200 60.77000 41.46200
H  31.73400 62.95300 41.61800
H  29.34100 62.48600 43.50900
H  32.63700 61.32400 43.78600
H  31.39700 62.38500 44.42800
H  32.77800 63.09600 43.66700
H  28.75000 63.57800 40.80800
H  30.16600 64.40900 41.37700
H  28.24100 64.63000 43.51900
H  27.51000 65.11400 41.88600
H  29.06400 65.73600 42.46000
H  24.90500 60.97500 42.97200
H  23.71600 59.82500 42.26200
H  24.53400 61.23100 41.32700
H  25.13600 55.92800 38.82600
H  25.46900 52.21000 40.91600
H  24.19400 51.82400 39.81200
H  23.71700 52.43000 41.38900
Mg 17.14400 51.99800 25.36600
C  18.94000 50.42000 27.98500
C  14.83800 53.09700 27.54500
C  15.29800 53.01200 22.77900
C  19.45800 50.37700 23.14800
N  16.92800 51.73800 27.56700
C  17.79200 51.06200 28.41400
C  17.43200 51.37700 29.89300
C  15.94600 52.09300 29.64000
C  15.89400 52.32900 28.16900
C  14.65600 51.36000 30.29000
C  18.43500 52.18800 30.67900
C  18.46000 52.04000 32.18900
H  17.37600 51.21900 32.86500
N  15.33200 52.97600 25.21200
C  14.56600 53.47500 26.17500
C  13.42400 54.19700 25.60100
C  13.51700 54.11000 24.15500
C  14.71800 53.31900 23.99100
C  12.31100 54.76600 26.56900
C  12.54600 54.74300 23.13300
O  12.66000 54.55800 21.94400
C  11.53800 55.65600 23.60900
N  17.44200 51.71300 23.33600
C  16.49400 52.27500 22.45600
C  16.86300 51.81900 20.98700
C  18.35500 51.28900 21.09800
C  18.45400 51.19500 22.58000
C  15.81900 50.71100 20.66900
C  19.44000 52.20000 20.50200
C  20.07600 53.33900 21.31000
N  18.90200 50.72500 25.46300
C  19.68900 50.16400 24.50000
C  20.80100 49.45200 25.08400
C  20.51300 49.48300 26.46600
C  19.33600 50.19700 26.60200
C  21.92900 48.72100 24.29300
C  20.96900 49.10100 27.82800
O  21.98200 48.50200 28.10300
C  19.99800 49.76800 28.77500
C  19.61500 48.80400 29.83400
O  18.80200 47.89100 29.74000
O  20.26500 49.06200 30.98300
C  19.79700 48.19600 32.10600
H  14.11100 53.45200 28.27800
H  14.72700 53.36600 21.91800
H  20.20700 49.92300 22.49700
H  17.34300 50.47500 30.49800
H  15.90400 53.05600 30.14900
H  14.18100 51.00900 29.37300
H  13.98800 51.99200 30.87500
H  15.04800 50.58200 30.94400
H  18.20000 53.23400 30.48300
H  19.35600 52.06700 30.10800
H  18.47700 53.03000 32.64400
H  19.39200 51.53800 32.44800
H  12.58200 55.78200 26.85600
H  12.35800 54.21800 27.50900
H  11.34300 54.65500 26.07800
H  10.78500 55.11900 24.18500
H  11.10600 56.16200 22.74600
H  12.03700 56.36500 24.26900
H  16.79200 52.69200 20.33800
H  18.33800 50.29800 20.64600
H  15.24000 50.96000 19.77900
H  15.14500 50.39600 21.46500
H  16.29500 49.78400 20.34900
H  19.11100 52.64200 19.56100
H  20.13100 51.47900 20.06500
H  21.10000 53.10000 21.59800
H  19.50200 53.61400 22.19500
H  20.20900 54.24700 20.72100
H  22.16200 49.15600 23.32100
H  21.74800 47.65900 24.12800
H  22.76900 48.94800 24.95000
H  20.59400 50.60100 29.14900
H  19.86000 48.80000 33.01200
H  20.40000 47.28800 32.11700
H  18.77900 47.81300 32.03300

