158

Mg -1.87500 17.84800 26.51300
C  -2.33200 15.49500 29.11100
C  -2.26400 20.36000 28.69500
C  -2.44700 19.94700 23.85300
C  -2.30500 15.12300 24.23000
N  -2.42300 17.87000 28.69500
C  -2.31300 16.84900 29.56000
C  -2.41100 17.37600 31.04200
C  -2.53100 18.90500 30.85500
C  -2.41500 19.09500 29.33300
C  -3.76500 19.52900 31.49600
C  -1.30600 16.74300 31.97600
C  -0.89600 17.52700 33.24500
H  -0.66000 16.70000 34.53800
N  -2.02900 19.92400 26.32800
C  -2.22000 20.79000 27.36400
C  -2.26700 22.14100 26.89700
C  -2.25700 22.04900 25.43200
C  -2.31400 20.57300 25.16600
C  -2.43500 23.35400 27.80700
C  -2.39400 23.05300 24.23600
O  -2.36200 22.83600 23.09300
C  -2.57400 24.50700 24.69200
N  -2.03600 17.65000 24.37700
C  -2.39600 18.61900 23.50300
C  -2.65700 18.11300 22.06900
C  -2.37700 16.58300 22.27200
C  -2.28300 16.43700 23.77700
C  -3.86900 18.58100 21.25800
C  -1.13400 16.15200 21.40600
C  0.19900 15.77600 22.14300
N  -2.07000 15.68000 26.55100
C  -2.18300 14.78600 25.56700
C  -2.19800 13.47700 26.09000
C  -2.21200 13.70700 27.47200
C  -2.16900 15.06800 27.73800
C  -2.17600 12.12800 25.41600
C  -2.33400 13.05900 28.74900
O  -2.50700 11.84200 29.00900
C  -2.42800 14.17200 29.84300
C  -1.40900 13.83400 30.82200
O  -0.19800 13.90500 30.64800
O  -2.08600 13.36600 31.83900
C  -1.25400 12.87800 32.90600
H  -2.19100 21.19800 29.39100
H  -2.92400 20.60000 23.11900
H  -2.57900 14.28600 23.58500
H  -3.30200 16.82900 31.34800
H  -1.67600 19.42000 31.29300
H  -4.39500 20.05400 30.77700
H  -3.49600 20.32500 32.19000
H  -4.32100 18.82300 32.11200
H  -0.41200 16.47500 31.41300
H  -1.67400 15.80500 32.39100
H  -1.48800 18.41900 33.44900
H  0.06400 17.91600 32.90300
H  -1.47700 23.87300 27.78000
H  -2.62200 22.83400 28.74600
H  -3.24400 24.00000 27.46600
H  -1.82200 24.65500 25.46700
H  -3.61600 24.40500 24.99300
H  -2.42900 25.07800 23.77500
H  -1.93200 18.59200 21.41100
H  -3.15200 15.90700 21.91300
H  -4.29600 19.44100 21.77300
H  -4.61900 17.80100 21.12400
H  -3.54000 18.82000 20.24700
H  -0.94500 16.88700 20.62400
H  -1.43100 15.20100 20.96500
H  0.25100 14.68800 22.14500
H  0.37100 16.11400 23.16600
H  1.09000 16.04900 21.57800
H  -1.30100 12.08800 24.76600
H  -3.15600 12.17700 24.94300
H  -2.06700 11.32500 26.14500
H  -3.44300 14.21100 30.23900
H  -0.93200 11.86600 32.66000
H  -1.92900 12.76300 33.75300
H  -0.38400 13.48700 33.15300
Mg 24.25800 -6.52100 46.87600
C  26.68600 -4.09000 45.66000
C  22.03000 -5.25600 44.48300
C  22.35200 -9.23900 47.24400
C  26.98300 -8.12600 48.40100
N  24.34300 -4.80100 45.34300
C  25.47400 -4.06400 44.95800
C  25.16000 -3.16900 43.78100
C  23.63900 -3.47200 43.47900
C  23.30000 -4.63400 44.44500
C  22.79700 -2.23200 43.46300
C  26.07900 -3.33700 42.58000
C  26.92700 -2.18100 42.15700
H  27.02100 -1.83600 40.64400
N  22.29800 -7.01600 46.15600
C  21.59200 -6.34400 45.27900
C  20.32900 -7.01600 45.12800
C  20.38000 -8.18800 45.87400
C  21.65400 -8.13900 46.54300
C  19.16200 -6.44800 44.27600
C  19.20600 -9.17200 45.94500
O  18.32100 -9.14800 45.10700
C  19.09100 -10.11700 47.10000
N  24.68700 -8.44900 47.72400
C  23.64600 -9.37700 47.81500
C  24.23300 -10.68400 48.53100
C  25.71700 -10.22600 48.90100
C  25.82500 -8.85600 48.33200
C  23.35500 -11.18800 49.69400
C  26.87400 -11.13500 48.42800
C  27.87300 -11.66400 49.52800
N  26.37400 -6.14000 47.12700
C  27.24600 -6.88300 47.80300
C  28.54400 -6.21600 47.84100
C  28.31800 -5.10100 47.04200
C  27.02600 -5.12400 46.56200
C  29.82700 -6.65100 48.49100
C  28.97200 -3.91600 46.43600
O  30.14400 -3.56200 46.49900
C  27.87600 -3.20400 45.54300
C  27.58800 -1.78700 45.96500
O  26.55000 -1.36900 46.42200
O  28.74400 -1.02100 45.79900
C  28.45500 0.37400 46.00000
H  21.32500 -4.87600 43.74100
H  21.81400 -10.18700 47.30600
H  27.82400 -8.57700 48.93300
H  25.16000 -2.11200 44.04600
H  23.54200 -3.89200 42.47800
H  23.35400 -1.29800 43.53200
H  22.14300 -2.34100 44.32900
H  22.22100 -2.34800 42.54500
H  25.50900 -3.58800 41.68600
H  26.73700 -4.19400 42.72200
H  27.94200 -2.46600 42.43400
H  26.70100 -1.20400 42.58600
H  18.43500 -6.13600 45.02600
H  18.76800 -7.20200 43.59500
H  19.52200 -5.70900 43.56100
H  18.18200 -10.71700 47.12500
H  19.49000 -9.78200 48.05700
H  19.84500 -10.82300 46.75000
H  24.28700 -11.47200 47.77900
H  25.68900 -10.04700 49.97600
H  23.93800 -11.29500 50.60800
H  22.88200 -12.10600 49.34600
H  22.59400 -10.43100 49.88800
H  27.46200 -10.66900 47.63700
H  26.41700 -11.96000 47.88100
H  27.67900 -12.72300 49.69700
H  27.54100 -11.35700 50.52000
H  28.93000 -11.44100 49.38300
H  30.40800 -5.84900 48.94600
H  30.43900 -6.96300 47.64400
H  29.74100 -7.39400 49.28500
H  28.31900 -3.21000 44.54700
H  28.79300 1.10100 45.26100
H  28.98700 0.67800 46.90200
H  27.43100 0.70000 46.18000

