158

Mg 6.54600 54.89000 41.29000
C  5.87900 51.40900 41.31600
C  9.52300 54.29800 39.95900
C  6.72000 58.23800 40.39100
C  2.98900 55.30900 41.66800
N  7.50900 53.05900 40.70600
C  7.19800 51.71400 40.90500
C  8.37700 50.76100 40.48900
C  9.57100 51.75600 40.36400
C  8.84000 53.13500 40.33100
C  10.57100 51.76100 41.53800
C  8.11100 50.00300 39.15100
C  7.68100 50.85200 37.91600
H  6.44700 50.57700 37.01900
N  8.01600 56.06400 40.35700
C  9.26000 55.60700 39.95300
C  10.04900 56.75100 39.57700
C  9.18300 57.88600 39.64100
C  7.93300 57.46500 40.15700
C  11.50800 56.60400 39.09900
C  9.63400 59.32300 39.35100
O  10.78400 59.47500 38.93500
C  8.73600 60.50300 39.44600
N  5.08100 56.54300 40.98600
C  5.47200 57.81300 40.86200
C  4.28900 58.79900 40.90200
C  3.09000 57.78000 40.78400
C  3.74100 56.43600 41.21000
C  4.28300 59.81200 42.13900
C  2.46800 57.82000 39.34200
C  1.20400 58.71700 39.31700
N  4.84500 53.73900 41.73600
C  3.52800 54.01500 42.00800
C  2.90700 52.82600 42.54600
C  3.76500 51.72500 42.23600
C  4.87900 52.37900 41.67900
C  1.54300 52.76200 43.19700
C  3.96800 50.27200 42.34900
O  3.19000 49.35900 42.72400
C  5.33400 50.02700 41.54800
C  4.91000 49.41700 40.28600
O  4.32600 50.00300 39.37600
O  5.28900 48.09400 40.23800
C  5.02300 47.37500 38.97300
H  10.50400 54.12900 39.50900
H  6.72800 59.29200 40.10500
H  1.93300 55.51400 41.85500
H  8.46000 50.04200 41.30400
H  10.14700 51.52800 39.46700
H  10.72400 50.73800 41.88300
H  10.29200 52.43600 42.34700
H  11.55100 51.99000 41.12100
H  7.32100 49.25600 39.21800
H  9.00100 49.42200 38.91100
H  8.59800 50.76000 37.33500
H  7.69700 51.88300 38.27100
H  11.62000 56.57300 38.01500
H  11.89500 55.67000 39.50700
H  12.20100 57.33700 39.51200
H  9.35100 61.36600 39.19300
H  8.26600 60.67400 40.41400
H  7.97400 60.34400 38.68300
H  4.42200 59.45100 40.03900
H  2.24900 58.07000 41.41400
H  3.44600 59.53000 42.77800
H  4.11700 60.85000 41.84900
H  5.16700 59.77100 42.77500
H  2.23500 56.81300 38.99700
H  3.13700 58.14000 38.54200
H  0.31300 58.11100 39.15500
H  1.28000 59.43500 38.50200
H  1.18000 59.41500 40.15400
H  1.83000 52.56300 44.22900
H  0.96200 51.94700 42.76400
H  1.13200 53.77100 43.15800
H  6.05500 49.43300 42.11100
H  4.47100 47.86900 38.17300
H  4.38700 46.53900 39.26200
H  5.97100 46.96200 38.62800
Mg -10.63400 16.64600 43.11600
C  -7.12800 17.23600 42.86700
C  -11.14800 19.94400 42.58900
C  -13.76100 15.97800 43.32500
C  -9.94700 13.20400 43.58600
N  -9.23000 18.42100 42.60100
C  -7.91500 18.42800 42.63600
C  -7.36600 19.83900 42.31400
C  -8.61200 20.76500 42.56100
C  -9.72600 19.70800 42.49000
C  -8.62600 21.56000 43.91700
C  -6.82100 20.04500 40.89900
C  -5.47200 20.84000 40.91700
H  -4.28800 20.08300 40.26500
N  -12.25400 17.73800 42.77100
C  -12.30300 19.11100 42.55400
C  -13.65600 19.52000 42.47400
C  -14.45900 18.40100 42.87300
C  -13.50400 17.32400 43.08000
C  -14.06900 20.91700 42.02000
C  -16.03700 18.36800 42.94000
O  -16.64300 19.28600 42.42400
C  -16.81100 17.21400 43.49800
N  -11.77000 14.72100 43.14700
C  -12.97300 14.83500 43.49800
C  -13.59800 13.46100 43.76700
C  -12.38600 12.50100 43.65500
C  -11.28200 13.49500 43.43100
C  -14.43400 13.41000 45.09400
C  -12.36700 11.48400 42.43400
C  -12.49500 10.00100 42.73400
N  -8.91100 15.37700 43.15700
C  -8.80900 14.02300 43.40100
C  -7.36500 13.72200 43.51400
C  -6.68200 14.89400 43.25300
C  -7.64200 15.94800 43.10000
C  -6.86900 12.31400 43.86300
C  -5.36000 15.51200 43.11700
O  -4.22900 15.00500 43.22700
C  -5.58600 17.01400 43.01000
C  -5.06800 17.50400 44.29500
O  -5.62900 17.35300 45.40100
O  -3.90600 18.15600 44.05500
C  -3.34800 18.65700 45.30400
H  -11.37600 20.97800 42.32400
H  -14.83200 15.77400 43.26200
H  -9.81000 12.20200 43.99900
H  -6.65900 20.25500 43.03200
H  -8.72200 21.52900 41.79200
H  -7.91500 21.08200 44.59100
H  -9.61600 21.62900 44.36800
H  -8.32600 22.58900 43.71900
H  -7.53700 20.66500 40.36000
H  -6.66600 19.03300 40.52600
H  -5.07200 21.09000 41.90000
H  -5.68200 21.79800 40.44100
H  -14.88300 21.28800 42.64300
H  -14.41000 20.69800 41.00800
H  -13.33200 21.71500 41.93300
H  -17.81900 17.47800 43.82100
H  -16.32700 16.85100 44.40500
H  -16.90800 16.42100 42.75700
H  -14.23700 13.30700 42.89800
H  -12.26200 12.02400 44.62700
H  -15.28400 14.07100 44.92600
H  -13.89400 13.82100 45.94700
H  -14.61900 12.35900 45.31800
H  -11.35200 11.61200 42.05700
H  -13.03100 11.80700 41.63200
H  -13.47900 9.75300 43.13100
H  -11.56500 9.80100 43.26700
H  -12.37300 9.52600 41.76000
H  -6.06900 12.40800 44.59700
H  -6.53200 11.73100 43.00500
H  -7.71300 11.83500 44.35800
H  -5.01600 17.42700 42.17800
H  -2.33900 19.04700 45.17700
H  -3.23000 17.82000 45.99100
H  -4.01000 19.46400 45.61700

