158

Mg 2.50500 -1.38700 43.59500
C  5.81900 -0.75600 43.27500
C  1.75100 1.27700 41.61900
C  -0.65600 -2.37600 43.77500
C  3.38800 -4.47700 45.35000
N  3.65300 0.14000 42.52900
C  5.01900 0.16400 42.51300
C  5.51100 1.28800 41.55600
C  4.18400 1.94200 41.03100
C  3.09100 1.12500 41.73000
C  4.11300 3.47100 41.36700
C  6.34100 0.74700 40.28000
C  7.56200 1.60500 39.82600
H  7.41300 2.50100 38.59300
N  0.68200 -0.53700 42.88300
C  0.58200 0.56900 42.11300
C  -0.86900 0.73700 41.69700
C  -1.60600 -0.29800 42.32800
C  -0.56000 -1.09900 43.10400
C  -1.38500 1.72800 40.60500
C  -3.07100 -0.49400 42.22700
O  -3.75500 0.22500 41.46700
C  -3.77400 -1.75000 42.75800
N  1.50600 -3.12700 44.47600
C  0.18900 -3.26100 44.36800
C  -0.34200 -4.51400 45.06900
C  0.95200 -5.22700 45.48400
C  2.01400 -4.21800 45.14200
C  -1.26900 -4.17800 46.19300
C  1.21600 -6.55300 44.72800
C  1.73200 -7.67700 45.61300
N  4.21100 -2.44200 44.29300
C  4.37600 -3.63000 44.93700
C  5.80200 -3.84800 45.12000
C  6.46100 -2.76500 44.50300
C  5.41200 -1.86300 43.98200
C  6.46400 -5.09900 45.89500
C  7.69700 -2.08200 44.16100
O  8.88100 -2.32500 44.35300
C  7.34900 -0.82000 43.43300
C  7.97500 0.29400 44.16400
O  7.67900 0.62800 45.29700
O  8.90400 0.96400 43.37300
C  9.30200 2.35000 43.83800
H  1.38900 1.96800 40.85500
H  -1.69800 -2.69300 43.86400
H  3.66300 -5.45900 45.74200
H  6.11700 2.01800 42.09300
H  4.00600 1.82100 39.96300
H  4.05700 4.13600 40.50500
H  4.91800 3.69100 42.06900
H  3.14400 3.67800 41.81900
H  5.60200 0.68100 39.48100
H  6.72600 -0.25800 40.45600
H  8.33100 0.85600 39.63600
H  7.96600 2.15200 40.67700
H  -1.85400 1.31500 39.71200
H  -0.52500 2.27800 40.22400
H  -1.96300 2.50800 41.10200
H  -4.81100 -1.72800 42.42300
H  -3.72200 -1.89900 43.83700
H  -3.18600 -2.50900 42.24300
H  -0.99700 -5.02900 44.36700
H  1.02700 -5.42100 46.55400
H  -0.98100 -3.18900 46.55000
H  -1.10300 -4.89400 46.99700
H  -2.31700 -4.23300 45.90100
H  1.96500 -6.25000 43.99600
H  0.32700 -6.84900 44.17100
H  2.70400 -8.03100 45.27000
H  1.10000 -8.56400 45.56600
H  1.87000 -7.42700 46.66400
H  6.12000 -6.05100 45.48900
H  6.08200 -5.02400 46.91300
H  7.55300 -5.05100 45.90100
H  7.88500 -0.81900 42.48400
H  9.68500 2.94200 43.00600
H  10.10500 2.13100 44.54200
H  8.55700 2.93900 44.37300
Mg 24.54300 -6.53600 46.49500
C  26.75400 -4.23100 44.96500
C  22.32100 -5.78800 43.95000
C  22.86100 -9.32000 47.17500
C  27.28000 -7.72400 48.41100
N  24.55600 -5.05200 44.74300
C  25.51500 -4.27100 44.27000
C  25.21400 -3.59300 42.92300
C  23.76100 -4.14000 42.69000
C  23.48500 -5.04500 43.83000
C  22.80100 -2.91700 42.64600
C  26.18200 -3.88800 41.71200
C  26.55000 -2.70100 40.86500
H  25.91600 -2.58300 39.52400
N  22.68500 -7.31100 45.93200
C  21.95300 -6.88100 44.80500
C  20.73400 -7.63400 44.70200
C  20.83700 -8.62900 45.59600
C  22.18700 -8.46500 46.25100
C  19.60600 -7.28600 43.73100
C  19.73500 -9.70500 45.97800
O  18.69900 -9.64100 45.35000
C  19.95700 -10.84200 46.99300
N  25.03200 -8.23600 47.67800
C  24.13000 -9.16000 47.88100
C  24.71500 -10.31800 48.80500
C  26.04600 -9.69600 49.33300
C  26.14600 -8.54300 48.42200
C  23.77800 -10.84100 49.90900
C  27.21900 -10.71900 49.42700
C  28.05600 -10.96100 48.14500
N  26.56500 -6.03700 46.71800
C  27.48800 -6.57600 47.58100
C  28.77200 -5.83700 47.46600
C  28.49900 -4.97600 46.44900
C  27.15100 -5.10600 46.03900
C  30.08900 -5.95200 48.26300
C  29.08500 -3.87700 45.67300
O  30.17400 -3.30800 45.76700
C  27.96300 -3.44700 44.61400
C  27.80900 -1.98000 44.69700
O  28.05600 -1.22600 43.72500
O  27.29700 -1.61300 45.92400
C  27.06400 -0.19800 46.15300
H  21.69000 -5.55000 43.09200
H  22.40100 -10.26500 47.47100
H  28.13000 -8.00400 49.03700
H  25.21300 -2.53500 43.18300
H  23.54300 -4.58100 41.71700
H  22.80600 -2.42900 41.67200
H  23.03300 -2.24400 43.47200
H  21.73400 -3.11400 42.75700
H  25.65300 -4.56300 41.04000
H  27.07100 -4.42000 42.05200
H  27.63800 -2.64800 40.88300
H  26.22800 -1.85100 41.46800
H  19.88800 -6.82100 42.78700
H  18.92600 -6.60200 44.23900
H  18.96700 -8.15800 43.58800
H  19.94400 -10.34000 47.96000
H  20.82100 -11.37400 46.59500
H  19.26500 -11.68200 46.93200
H  24.98800 -11.03300 48.02900
H  25.90800 -9.27600 50.33000
H  23.97700 -11.91200 49.86600
H  22.72100 -10.62600 49.75600
H  24.09800 -10.55200 50.91100
H  26.84000 -11.73000 49.57200
H  27.85700 -10.50200 50.28500
H  27.53800 -10.56600 47.27100
H  28.22300 -12.02100 47.95400
H  29.05500 -10.53600 48.24100
H  30.90800 -6.33700 47.65600
H  30.08500 -6.59300 49.14400
H  30.27300 -4.93500 48.61100
H  28.41800 -3.71400 43.66000
H  26.15600 0.24000 45.73800
H  27.86800 0.44400 45.79200
H  26.99700 -0.04800 47.23000

