158

Mg 45.00000 2.97000 46.56500
C  42.67500 5.66500 46.15500
C  42.49900 0.82000 45.98200
C  47.30500 0.64700 46.78100
C  47.55600 5.45500 46.26800
N  42.77000 3.22300 46.10000
C  42.07000 4.37900 45.94300
C  40.59000 4.12900 45.65700
C  40.48400 2.58200 45.83300
C  42.01800 2.13900 45.80100
C  39.76400 2.19800 47.21900
C  40.29000 4.59300 44.12100
C  38.98500 5.26700 43.94900
H  38.15700 4.94900 42.65400
N  44.95700 0.92700 46.43400
C  43.81900 0.21000 46.20700
C  44.10900 -1.23100 46.13400
C  45.55100 -1.29400 46.46600
C  46.01500 0.07600 46.65400
C  43.15500 -2.28700 45.70600
C  46.31800 -2.59400 46.70200
O  45.85600 -3.63600 46.48700
C  47.71600 -2.57200 47.21200
N  47.04500 3.00500 46.21100
C  47.74300 1.95200 46.72800
C  49.23000 2.27300 46.83800
C  49.41300 3.63000 46.09500
C  47.91700 4.10500 46.09500
C  49.71800 2.27800 48.35000
C  49.96900 3.46800 44.65500
C  51.47200 3.05900 44.44100
N  45.15500 5.10400 46.44000
C  46.24000 5.96200 46.44000
C  45.86200 7.32000 46.40300
C  44.44100 7.26700 46.33800
C  44.08600 5.88700 46.38000
C  46.74600 8.51300 46.35100
C  43.19100 8.02400 46.32600
O  43.00400 9.21500 46.43400
C  41.93700 7.01200 46.22300
C  41.14900 7.06100 47.50400
O  41.28000 6.28900 48.41400
O  40.07800 7.93500 47.45900
C  39.16100 7.76000 48.61700
H  41.70300 0.07400 45.93400
H  48.13000 -0.03900 46.98600
H  48.38600 6.16300 46.31600
H  39.96300 4.66400 46.37000
H  39.93800 2.15000 44.99500
H  38.91400 1.55600 46.98900
H  39.40500 3.12300 47.67000
H  40.49400 1.76400 47.90300
H  40.37300 3.77000 43.41200
H  41.06900 5.32400 43.90300
H  39.21900 6.33100 43.92200
H  38.30000 5.10500 44.78100
H  43.67500 -3.06200 45.14200
H  42.51700 -1.80300 44.96600
H  42.58100 -2.75100 46.50700
H  48.25200 -2.31600 46.29800
H  48.17600 -3.51800 47.49600
H  47.70800 -1.84300 48.02300
H  49.70500 1.46200 46.28500
H  49.99600 4.34000 46.68100
H  50.46500 3.02900 48.60600
H  50.04700 1.29600 48.69300
H  48.76600 2.49900 48.83100
H  49.61500 4.39700 44.20900
H  49.40500 2.65400 44.19900
H  52.17200 3.87600 44.26400
H  51.52200 2.29400 43.66700
H  51.76300 2.71900 45.43600
H  46.55200 9.20800 47.16800
H  46.45100 9.08200 45.47000
H  47.81900 8.31900 46.32400
H  41.21300 7.28900 45.45700
H  39.30800 8.41800 49.47400
H  39.10400 6.79000 49.11100
H  38.12900 7.99200 48.35300
Mg 7.14300 56.76400 41.18600
C  6.59700 53.41100 40.59500
C  10.48400 56.29700 40.00900
C  7.64200 60.13300 41.16000
C  3.83200 57.28300 41.87600
N  8.46000 55.05300 40.33200
C  8.02400 53.75500 40.34200
C  9.15400 52.85400 39.86300
C  10.36900 53.67400 40.36800
C  9.76100 55.07500 40.22900
C  10.87600 53.38300 41.79800
C  8.98800 52.52000 38.37400
C  10.36100 52.24300 37.57300
H  10.49900 50.96900 36.70800
N  8.81000 58.03300 40.63900
C  10.03200 57.62600 40.19600
C  10.88200 58.80500 40.04800
C  10.11000 59.87700 40.52200
C  8.79500 59.37900 40.74600
C  12.27600 58.68000 39.46200
C  10.69800 61.27700 40.73800
O  11.86300 61.53900 40.44400
C  9.95200 62.37200 41.45300
N  5.80000 58.47600 41.10800
C  6.27800 59.71800 41.30200
C  5.09100 60.74700 41.31000
C  3.94100 59.83500 41.59600
C  4.51500 58.45800 41.54300
C  5.15000 61.99700 42.28300
C  2.74400 60.15600 40.61300
C  1.26100 59.94000 40.93600
N  5.56600 55.61300 41.30700
C  4.23600 55.92200 41.71800
C  3.59100 54.71000 42.07400
C  4.45500 53.72900 41.61000
C  5.63500 54.27800 41.09400
C  2.27900 54.53100 42.81900
C  4.58200 52.26700 41.49700
O  3.79300 51.35100 41.80700
C  5.86700 52.04400 40.65400
C  5.46700 51.43400 39.35000
O  5.55600 52.01700 38.29600
O  5.00700 50.14200 39.58200
C  4.54600 49.50000 38.35200
H  11.56000 56.12200 39.94200
H  7.72700 61.21900 41.23800
H  2.80600 57.41600 42.22700
H  9.34200 51.95100 40.44400
H  11.30000 53.51900 39.82200
H  10.31200 52.56100 42.23900
H  10.89500 54.21800 42.49800
H  11.90900 53.05000 41.69400
H  8.44200 53.28200 37.81800
H  8.37100 51.63300 38.23100
H  11.16400 52.08200 38.29100
H  10.80000 53.02600 36.95500
H  12.78900 59.36800 40.13400
H  12.32600 58.96300 38.41100
H  12.78900 57.72200 39.54500
H  9.48000 61.93800 42.33400
H  9.29300 62.88900 40.75600
H  10.70400 63.11200 41.72300
H  5.12600 61.11500 40.28500
H  3.65800 60.01700 42.63300
H  6.14100 62.07900 42.73000
H  4.41400 61.93600 43.08400
H  5.03700 62.86600 41.63500
H  2.76700 59.36800 39.86100
H  2.89400 61.18100 40.27400
H  0.83200 59.13500 40.34000
H  0.70700 60.85100 40.71000
H  1.13100 59.75300 42.00200
H  1.63500 54.11100 42.04700
H  1.84200 55.40800 43.29700
H  2.41700 53.88600 43.68700
H  6.55000 51.32600 41.10700
H  3.93500 50.19600 37.77700
H  4.01500 48.58500 38.61400
H  5.34500 49.13500 37.70700

