158

Mg 41.47800 41.04000 27.51500
C  41.18400 43.44700 30.14500
C  42.50400 38.79700 29.84900
C  41.93900 38.88700 25.03400
C  40.95800 43.49800 25.32700
N  41.79200 41.12600 29.80900
C  41.53700 42.19100 30.64300
C  41.59900 41.74000 32.05000
C  42.25000 40.31800 31.95000
C  42.23500 40.07000 30.43900
C  43.69700 40.10100 32.48400
C  40.14200 41.68100 32.70400
C  40.13000 42.37400 34.08700
H  39.44700 41.72200 35.39500
N  42.18100 39.12600 27.43700
C  42.50900 38.32000 28.54300
C  42.70400 36.99900 28.15200
C  42.51900 36.95000 26.70300
C  42.17500 38.34300 26.32300
C  43.14800 35.87000 29.07300
C  42.56300 35.83000 25.75300
O  42.04300 35.89500 24.60400
C  43.27100 34.62900 26.15000
N  41.64100 41.28100 25.51700
C  41.71800 40.17400 24.62700
C  41.54400 40.55400 23.15200
C  41.23800 42.03000 23.31300
C  41.20400 42.29300 24.78800
C  42.81800 40.12600 22.34600
C  40.00400 42.54900 22.52300
C  38.64900 41.94100 22.80900
N  41.11900 43.05800 27.66500
C  40.96200 43.97700 26.64800
C  40.75800 45.29800 27.11800
C  40.74000 45.08300 28.49400
C  41.05400 43.76900 28.78400
C  40.33500 46.51700 26.39400
C  40.41400 45.73100 29.77400
O  40.11200 46.88800 30.01500
C  40.78600 44.62700 30.94800
C  41.93800 45.14300 31.74900
O  43.09300 44.95200 31.44200
O  41.54600 45.80100 32.84000
C  42.48000 46.41200 33.68700
H  42.73700 38.00000 30.55900
H  41.76400 38.13200 24.26400
H  40.77300 44.25800 24.56500
H  42.31200 42.41800 32.52000
H  41.62600 39.52400 32.36100
H  43.96500 40.97100 33.08400
H  44.40900 39.94500 31.67300
H  43.71300 39.18100 33.06700
H  39.73200 40.68600 32.87500
H  39.34800 42.14100 32.11500
H  39.61400 43.31700 33.90700
H  41.09500 42.81900 34.33200
H  42.66300 34.94300 28.76500
H  42.95400 35.96000 30.14200
H  44.22700 35.76300 28.96400
H  43.31300 33.95700 25.29300
H  42.69000 34.08400 26.89400
H  44.25400 34.95200 26.49200
H  40.61100 40.07300 22.85700
H  42.07000 42.65600 22.99100
H  43.71300 39.93500 22.93800
H  43.00900 40.93200 21.63800
H  42.59400 39.24200 21.74900
H  40.24300 42.38200 21.47300
H  40.02300 43.63500 22.61300
H  38.57600 41.32800 23.70800
H  38.41700 41.30100 21.95800
H  37.88200 42.70800 22.91300
H  41.19600 47.15100 26.18100
H  39.57500 47.01300 26.99700
H  39.85300 46.33700 25.43300
H  39.97000 44.49400 31.65700
H  43.34000 46.83000 33.16300
H  42.88300 45.84300 34.52500
H  41.88800 47.18000 34.18600
Mg -10.17600 17.20400 40.66300
C  -6.60100 16.93900 40.48400
C  -9.93800 20.55200 39.91400
C  -13.45200 17.20700 40.25300
C  -10.22000 13.54000 40.30700
N  -8.47100 18.55100 40.09500
C  -7.07100 18.23100 40.23500
C  -6.35700 19.57800 39.91500
C  -7.39600 20.64300 40.24700
C  -8.73000 19.89800 40.13100
C  -7.21200 21.28400 41.67200
C  -5.93200 19.57000 38.42200
C  -4.43700 19.41200 38.26700
H  -3.89200 18.33200 37.26700
N  -11.59300 18.68300 40.08600
C  -11.26100 19.97900 39.81200
C  -12.53500 20.68400 39.38300
C  -13.63000 19.79800 39.57200
C  -12.97700 18.50600 40.01800
C  -12.56600 22.07800 38.94500
C  -15.16300 20.01800 39.36900
O  -15.57000 21.18300 39.12500
C  -16.18300 18.97300 39.58400
N  -11.58600 15.66400 40.46400
C  -12.86000 15.93200 40.41400
C  -13.72100 14.68600 40.45800
C  -12.71200 13.51800 40.16400
C  -11.40900 14.27800 40.26900
C  -14.49400 14.58300 41.77400
C  -12.94900 12.94400 38.69000
C  -12.82900 11.37300 38.58400
N  -8.69800 15.55000 40.62100
C  -8.92100 14.18600 40.42400
C  -7.64700 13.54400 40.43000
C  -6.64800 14.58300 40.48800
C  -7.38400 15.77100 40.58200
C  -7.46000 12.04600 40.15100
C  -5.24900 14.95000 40.55000
O  -4.21000 14.29700 40.72400
C  -5.19700 16.50500 40.68600
C  -4.52900 16.80000 41.96100
O  -4.78000 16.34400 43.05900
O  -3.75800 17.87600 41.72400
C  -3.45600 18.66700 42.87000
H  -9.74300 21.62600 39.88300
H  -14.53800 17.32000 40.22400
H  -10.37200 12.50300 39.99900
H  -5.51000 19.77000 40.57300
H  -7.29600 21.43100 39.50100
H  -7.47400 22.33300 41.53000
H  -6.31800 20.97100 42.21100
H  -8.03300 20.93300 42.29700
H  -6.25900 20.56000 38.10600
H  -6.52800 18.83600 37.88000
H  -4.04700 18.99200 39.19500
H  -3.90700 20.29600 37.91300
H  -11.64900 22.46300 38.49800
H  -12.81800 22.75300 39.76300
H  -13.20400 21.95300 38.07000
H  -17.14100 19.27200 39.15800
H  -16.32200 19.00800 40.66500
H  -15.90700 18.07100 39.03800
H  -14.47000 14.85800 39.68500
H  -12.77500 12.67900 40.85600
H  -14.77000 13.54900 41.98200
H  -15.45900 15.07600 41.89700
H  -13.77500 14.82000 42.55800
H  -12.32400 13.50400 37.99400
H  -13.95600 13.19700 38.35800
H  -13.75600 10.81800 38.44100
H  -12.35500 10.98000 39.48300
H  -12.07500 11.22000 37.81200
H  -6.47600 11.71000 40.47800
H  -7.53000 12.03100 39.06300
H  -8.30000 11.52200 40.60700
H  -4.49500 16.75500 39.89100
H  -2.81200 19.48100 42.53700
H  -2.91400 18.02400 43.56300
H  -4.40700 18.96100 43.31500

