158

Mg -1.55500 17.28900 26.35100
C  -2.59900 15.25100 29.02700
C  -2.78400 20.04600 28.02000
C  -1.09700 19.01200 23.50000
C  -1.20500 14.30300 24.32800
N  -2.50600 17.61300 28.33800
C  -2.85800 16.61600 29.21800
C  -3.32500 17.31400 30.48500
C  -3.88700 18.64900 29.85900
C  -2.96800 18.85800 28.69000
C  -5.38000 18.65300 29.48100
C  -2.13300 17.53000 31.39300
C  -2.36600 17.09600 32.88700
H  -1.21400 16.67000 33.74100
N  -1.71700 19.25300 25.88300
C  -2.15100 20.23900 26.75300
C  -1.95100 21.48000 26.04700
C  -1.45100 21.20200 24.74100
C  -1.39500 19.79800 24.66600
C  -2.42700 22.81500 26.68800
C  -1.12900 22.12600 23.59300
O  -0.78800 21.75100 22.47500
C  -1.19400 23.53000 23.82500
N  -1.42100 16.66400 24.20000
C  -1.09400 17.65100 23.34500
C  -0.98500 17.07200 21.87400
C  -0.61800 15.54500 22.24100
C  -1.16600 15.46900 23.67900
C  -2.18000 17.32800 21.00400
C  0.89600 15.08100 22.20600
C  1.90700 15.86200 23.01300
N  -1.76700 15.25300 26.57900
C  -1.53500 14.14400 25.75800
C  -1.90800 12.97300 26.47000
C  -2.19500 13.32200 27.78300
C  -2.12900 14.71800 27.76000
C  -1.76300 11.59500 25.87200
C  -2.47400 12.78900 29.10900
O  -2.52400 11.63100 29.46400
C  -2.89800 14.01300 29.93800
C  -2.18000 13.94300 31.23800
O  -1.03300 14.18800 31.39700
O  -3.06700 13.55500 32.20400
C  -2.46800 12.99400 33.42600
H  -3.21100 20.94800 28.46200
H  -1.15700 19.48200 22.51700
H  -1.17300 13.47500 23.61700
H  -4.08200 16.65300 30.90800
H  -3.71800 19.48700 30.53600
H  -5.78200 17.64700 29.35600
H  -5.40700 19.17100 28.52300
H  -5.98100 19.03800 30.30600
H  -1.75200 18.55000 31.33500
H  -1.18500 17.12600 31.03800
H  -3.02800 16.23500 32.79600
H  -2.92400 17.90300 33.36100
H  -2.87800 22.80700 27.68000
H  -3.19300 23.20100 26.01600
H  -1.47800 23.34900 26.74400
H  -2.21600 23.76300 24.12500
H  -0.84000 24.09800 22.96500
H  -0.60200 23.73600 24.71700
H  -0.09300 17.50000 21.41700
H  -1.25200 14.89500 21.63700
H  -2.79800 18.05700 21.52900
H  -2.75700 16.40300 21.01400
H  -1.84200 17.58400 20.00000
H  1.03100 15.30300 21.14800
H  0.86000 14.00100 22.35400
H  1.45200 16.64900 23.61300
H  2.64000 16.28600 22.32700
H  2.36300 15.04900 23.57900
H  -2.12900 11.63800 24.84600
H  -2.19700 10.78400 26.45700
H  -0.71000 11.42900 25.64600
H  -3.95700 13.83900 30.13000
H  -1.72800 13.73200 33.73500
H  -1.90000 12.07600 33.27900
H  -3.16000 12.84700 34.25600
Mg 47.63500 45.15500 42.71600
C  44.17300 45.10000 42.74200
C  47.65700 41.76600 42.31200
C  51.02700 45.25100 42.22200
C  47.48100 48.63800 42.12100
N  46.10800 43.65700 42.66300
C  44.74900 43.81900 42.64600
C  44.02200 42.54800 42.63000
C  45.09900 41.44200 42.55800
C  46.42600 42.34900 42.41900
C  45.17800 40.34300 43.77100
C  42.88800 42.45500 41.51200
C  43.06600 43.35500 40.21700
H  43.69800 42.66400 38.98500
N  49.16300 43.73700 42.53200
C  48.92500 42.37200 42.32200
C  50.18300 41.65300 42.16100
C  51.20100 42.59200 42.22100
C  50.52900 43.94700 42.35100
C  50.33100 40.24200 41.76900
C  52.68600 42.38500 41.96000
O  53.06100 41.29400 41.64500
C  53.71400 43.48600 42.14200
N  49.07900 46.78500 42.21700
C  50.37200 46.54000 42.25000
C  51.13100 47.85600 42.35000
C  50.08200 48.97600 41.92700
C  48.78200 48.11300 42.12900
C  51.94100 48.11100 43.70200
C  50.08100 49.48400 40.48400
C  50.64900 50.89100 40.25100
N  46.18900 46.60100 42.58800
C  46.28200 47.97700 42.35000
C  44.92700 48.50100 42.31700
C  44.08900 47.39400 42.59900
C  44.93400 46.28400 42.69700
C  44.47400 49.97100 42.13400
C  42.69600 47.02800 42.72700
O  41.67600 47.71000 42.57700
C  42.68600 45.45200 42.89400
C  42.03300 45.06100 44.12700
O  40.94600 44.53100 44.14500
O  42.81800 45.24000 45.23800
C  42.22800 44.50700 46.41000
H  47.54800 40.68700 42.18800
H  52.10100 45.35800 42.05200
H  47.49900 49.72500 42.01600
H  43.62700 42.55000 43.64600
H  44.92900 40.79900 41.69400
H  46.10700 40.54900 44.30200
H  45.17400 39.37200 43.27500
H  44.35000 40.53900 44.45200
H  41.92400 42.76500 41.91500
H  42.74900 41.39800 41.28400
H  43.74000 44.20900 40.29000
H  42.05100 43.66600 39.96800
H  49.43500 40.01300 41.19200
H  50.47300 39.48400 42.54000
H  51.16500 40.04400 41.09600
H  53.71500 44.16100 41.28600
H  54.69400 43.01500 42.22800
H  53.47000 44.00700 43.06800
H  51.84500 47.87600 41.52600
H  49.93200 49.78800 42.63800
H  51.64700 49.00600 44.25000
H  52.99200 48.28100 43.46500
H  51.90600 47.33000 44.46200
H  49.14300 49.47000 39.92900
H  50.77700 48.80000 39.99800
H  51.08400 51.28700 41.16800
H  49.83300 51.47400 39.82200
H  51.40500 50.78300 39.47300
H  45.29200 50.63200 41.84700
H  44.11800 50.26000 43.12200
H  43.71700 50.12000 41.36400
H  42.09200 45.01800 42.08900
H  42.36000 43.43200 46.29000
H  41.20000 44.80700 46.61000
H  42.74000 44.82500 47.31800

