158

Mg 35.84300 0.54900 29.37500
C  33.85200 2.07200 31.99300
C  38.10500 -0.18200 31.70700
C  37.69700 -0.45300 26.78000
C  33.23100 1.34300 27.17800
N  35.92700 0.91200 31.68400
C  35.05600 1.52700 32.52100
C  35.53700 1.50000 33.97200
C  36.96100 0.76000 33.84500
C  37.03600 0.52400 32.29800
C  38.11100 1.63600 34.44600
C  34.49800 0.77800 34.93800
C  34.07200 1.57500 36.17400
H  35.08300 2.60800 36.81400
N  37.68200 -0.20700 29.31300
C  38.47500 -0.45500 30.34100
C  39.75900 -0.97600 29.88700
C  39.66400 -1.03700 28.44600
C  38.26100 -0.63200 28.12000
C  40.93400 -1.47400 30.84800
C  40.74100 -1.56000 27.39600
O  40.54500 -1.67100 26.16800
C  42.13600 -1.97800 27.95300
N  35.40100 0.13600 27.34600
C  36.37800 -0.09900 26.44700
C  35.79800 -0.04300 24.99700
C  34.29400 0.24600 25.19200
C  34.34600 0.65200 26.65000
C  36.59900 0.79100 23.96700
C  33.34500 -0.95700 24.85200
C  32.66800 -1.00000 23.43700
N  33.91200 1.42700 29.51200
C  33.02100 1.74500 28.48700
C  31.90000 2.55500 29.06400
C  32.15900 2.62600 30.40400
C  33.38600 1.95600 30.62500
C  30.66700 3.15300 28.30400
C  31.64200 3.22700 31.62300
O  30.65700 3.88900 31.82800
C  32.70200 2.88000 32.70300
C  33.08100 4.20700 33.23800
O  34.09100 4.83400 32.99700
O  32.23000 4.63100 34.25500
C  32.71300 5.76300 35.12200
H  38.79700 -0.41100 32.52100
H  38.42300 -0.69900 26.00300
H  32.56800 1.82200 26.45400
H  35.71700 2.53000 34.27900
H  36.96100 -0.19600 34.36800
H  37.76600 2.44100 35.09500
H  38.73400 1.95800 33.61200
H  38.64200 0.97900 35.13600
H  34.88300 -0.18500 35.27300
H  33.59300 0.63200 34.34700
H  33.74200 0.88700 36.95200
H  33.26000 2.21000 35.82000
H  40.62000 -1.46700 31.89200
H  41.72700 -0.72800 30.78900
H  41.33500 -2.46000 30.61400
H  42.80000 -2.08100 27.09500
H  41.94100 -2.82900 28.60600
H  42.52300 -1.23800 28.65300
H  35.97800 -1.04600 24.61200
H  33.84000 1.04900 24.61100
H  37.46800 1.17600 24.50100
H  36.12500 1.72100 23.65400
H  36.91000 0.19900 23.10600
H  32.62800 -1.01700 25.67100
H  34.01000 -1.81300 24.97300
H  32.87000 -1.93700 22.91900
H  33.03700 -0.15900 22.85100
H  31.58900 -0.97600 23.58700
H  29.75800 2.68400 28.68000
H  30.81100 3.10800 27.22400
H  30.60700 4.21900 28.52400
H  32.15900 2.47500 33.55700
H  33.70100 5.40300 35.40800
H  32.12700 5.96300 36.01900
H  32.77500 6.74100 34.64600
Mg -2.49700 35.71900 26.75900
C  -4.05600 33.67800 29.15900
C  -0.86800 37.22300 29.16300
C  -1.54500 37.83100 24.39800
C  -4.29500 33.80800 24.24900
N  -2.63100 35.50000 28.98700
C  -3.25000 34.63600 29.82600
C  -2.95700 34.92400 31.35700
C  -2.00300 36.20800 31.22900
C  -1.85300 36.32500 29.70400
C  -2.50200 37.51700 31.85000
C  -2.27400 33.66200 32.10000
C  -2.99100 33.18400 33.36800
H  -2.27800 33.20300 34.71400
N  -1.43400 37.32400 26.77900
C  -0.69900 37.69300 27.89800
C  0.09100 38.83800 27.51700
C  -0.02500 39.01800 26.12800
C  -1.05300 38.05800 25.67700
C  0.89600 39.62900 28.56300
C  0.65200 39.90500 25.21500
O  0.44500 40.02800 23.98400
C  1.80600 40.62000 25.83800
N  -2.86600 35.80500 24.63600
C  -2.29900 36.78300 23.86300
C  -2.46300 36.46100 22.37200
C  -3.33200 35.19200 22.30800
C  -3.55000 34.90500 23.81100
C  -3.04300 37.63100 21.50100
C  -2.73100 33.94100 21.54300
C  -2.55500 34.26600 20.03400
N  -3.97900 34.12400 26.66400
C  -4.42800 33.37900 25.57500
C  -5.14700 32.23000 26.06500
C  -5.01900 32.28200 27.49700
C  -4.35600 33.50000 27.76100
C  -5.74400 31.10500 25.25400
C  -5.27300 31.57600 28.71100
O  -5.75900 30.47800 28.94000
C  -4.72500 32.50400 29.85700
C  -5.94300 33.00400 30.56800
O  -6.87000 33.59900 30.05400
O  -5.91800 32.76500 31.81500
C  -6.93800 33.29500 32.67200
H  -0.12600 37.49700 29.91500
H  -1.17800 38.48000 23.60000
H  -4.68400 33.17300 23.45000
H  -3.94200 35.23700 31.70300
H  -1.03700 35.98400 31.68100
H  -3.43100 37.34800 32.39500
H  -2.79400 38.24900 31.09800
H  -1.87700 37.81600 32.69200
H  -1.23000 33.82900 32.36200
H  -2.21700 32.88300 31.34000
H  -3.49200 32.23700 33.16600
H  -3.88800 33.78900 33.49700
H  0.65200 39.43500 29.60700
H  0.67800 40.68400 28.39400
H  1.93200 39.32100 28.41800
H  1.43400 41.41700 26.48100
H  2.41800 40.98200 25.01200
H  2.42600 39.91900 26.39600
H  -1.53800 36.12900 21.90100
H  -4.36000 35.33000 21.97500
H  -3.14100 38.58600 22.01700
H  -4.05500 37.33500 21.22600
H  -2.34800 37.81100 20.68000
H  -3.40800 33.08900 21.61000
H  -1.83500 33.65700 22.09400
H  -2.52300 35.34600 19.89600
H  -3.48500 33.98200 19.54100
H  -1.67200 33.80300 19.59300
H  -5.56500 31.19800 24.18300
H  -6.82000 31.05500 25.42500
H  -5.31900 30.14100 25.53300
H  -4.11400 31.88200 30.51100
H  -7.45000 34.18400 32.30100
H  -6.42100 33.60000 33.58200
H  -7.65800 32.49200 32.82300

