158

Mg 35.34300 2.14400 29.70800
C  33.05100 3.26900 32.18700
C  37.83200 2.32000 32.12200
C  37.63600 1.67500 27.28600
C  32.78900 2.39300 27.29000
N  35.41700 2.66000 31.90600
C  34.37900 3.07300 32.71400
C  34.82300 3.29000 34.15800
C  36.32500 2.97200 34.10800
C  36.58000 2.63600 32.59900
C  37.22700 4.13700 34.69900
C  33.98700 2.41900 35.15900
C  34.49800 2.06800 36.58500
H  35.05300 3.19100 37.40000
N  37.40400 1.88700 29.73900
C  38.27900 1.94400 30.79500
C  39.61100 1.62300 30.40200
C  39.60900 1.35100 29.01600
C  38.18500 1.68900 28.59100
C  40.75200 1.58100 31.32900
C  40.78500 1.01200 28.16300
O  40.68500 0.86300 26.96400
C  42.15900 0.81000 28.74300
N  35.23500 1.92200 27.70300
C  36.29000 1.77800 26.86400
C  35.90900 1.86500 25.31900
C  34.39100 1.82600 25.44900
C  34.10300 2.03500 26.95200
C  36.42000 3.19600 24.73900
C  33.66600 0.49200 24.96900
C  32.58900 0.56300 23.87300
N  33.28700 2.68700 29.65900
C  32.37300 2.86100 28.60000
C  31.11000 3.38000 29.11600
C  31.37200 3.49000 30.54800
C  32.67900 3.06800 30.80200
C  29.90000 3.72100 28.30500
C  30.74600 3.96200 31.79800
O  29.61500 4.49700 31.98700
C  31.77200 3.62600 32.98500
C  31.96800 4.85900 33.85100
O  32.76400 5.83500 33.66200
O  31.18000 4.67500 35.03200
C  31.15100 5.81600 35.91200
H  38.70800 2.38000 32.77100
H  38.36200 1.53500 26.48200
H  32.03100 2.35600 26.50400
H  34.68400 4.34700 34.38600
H  36.60300 2.02100 34.56300
H  36.67000 4.88800 35.26000
H  37.66500 4.72900 33.89500
H  38.00100 3.80500 35.39100
H  33.78400 1.43800 34.73000
H  33.07700 3.01500 35.22400
H  35.22000 1.26900 36.41800
H  33.60900 1.70500 37.10100
H  41.69500 1.95400 30.92800
H  40.92700 0.54100 31.60400
H  40.56700 2.20600 32.20200
H  42.54300 1.78200 29.05300
H  42.77200 0.34200 27.97300
H  42.22400 0.08600 29.55500
H  36.42300 1.02400 24.85400
H  33.95900 2.69800 24.95900
H  35.70300 3.99500 24.54700
H  36.95200 2.98500 23.81100
H  37.17000 3.68900 25.35700
H  33.26200 -0.12300 25.77300
H  34.35700 -0.20200 24.48900
H  33.22600 0.43200 22.99900
H  32.15200 1.56100 23.91200
H  31.92700 -0.29700 23.97300
H  29.46700 4.43900 29.00100
H  29.19000 2.89600 28.23400
H  30.12600 4.24500 27.37700
H  31.29300 2.79900 33.51100
H  30.80900 5.55300 36.91300
H  30.64500 6.65400 35.43100
H  32.12900 6.26600 36.08500
Mg 46.75200 24.96200 28.19200
C  47.47500 27.34400 30.72300
C  46.00900 22.76000 30.80400
C  46.34700 22.69900 25.91300
C  48.00800 27.24400 25.81900
N  46.82900 25.06300 30.55100
C  46.99800 26.13000 31.31500
C  46.74600 25.90000 32.80200
C  46.21600 24.40200 32.76400
C  46.42300 24.01100 31.26000
C  46.81200 23.43200 33.77700
C  45.74500 26.96600 33.36100
C  44.97000 26.46700 34.62100
H  44.86000 27.45400 35.77800
N  46.20300 23.01400 28.34400
C  45.91400 22.28200 29.46400
C  45.59300 20.92100 29.13000
C  45.73100 20.89000 27.71800
C  46.09000 22.22300 27.25100
C  45.15300 19.81900 30.17200
C  45.64200 19.62100 26.82000
O  45.99400 19.56800 25.65900
C  45.29200 18.32700 27.47300
N  47.40500 24.84900 26.18700
C  46.95200 23.87100 25.38700
C  47.22600 24.11100 23.92200
C  47.56500 25.70600 23.87600
C  47.66900 25.96400 25.38700
C  48.47000 23.28600 23.48400
C  46.49500 26.61300 23.10300
C  45.21200 26.76800 23.89300
N  47.55900 26.81700 28.22900
C  48.02100 27.61200 27.16500
C  48.36500 28.93600 27.61100
C  48.25600 28.80800 29.04900
C  47.68200 27.59000 29.32500
C  48.79600 30.06600 26.69000
C  48.34100 29.53200 30.25000
O  48.48500 30.72600 30.60400
C  47.87400 28.63300 31.35700
C  49.04000 28.49100 32.27500
O  50.11200 28.10800 31.88700
O  48.77400 29.05600 33.50700
C  49.76000 28.74500 34.56200
H  45.58100 22.11500 31.57400
H  46.07300 21.91600 25.20400
H  48.39900 27.92400 25.05900
H  47.64100 26.03000 33.41000
H  45.14800 24.52300 32.94700
H  47.57700 23.89900 34.39800
H  47.48200 22.75100 33.25100
H  46.06600 22.83100 34.29700
H  45.06300 27.31800 32.58800
H  46.21300 27.88800 33.70500
H  45.52400 25.59500 34.96800
H  43.97600 26.24900 34.23200
H  44.33300 19.23300 29.75800
H  44.79000 20.32200 31.06800
H  46.00200 19.14600 30.28900
H  44.35800 18.44600 28.02200
H  46.06700 18.09700 28.20500
H  45.24800 17.50500 26.75900
H  46.31700 23.94900 23.34200
H  48.57000 25.92200 23.51300
H  48.34100 22.76200 22.53700
H  48.72400 22.53000 24.22700
H  49.31800 23.94200 23.28700
H  46.26100 26.16200 22.13900
H  46.97200 27.59200 23.05700
H  44.93400 25.86000 24.42800
H  44.36300 26.82900 23.21200
H  45.29700 27.57100 24.62600
H  48.53000 31.00800 27.17100
H  48.32100 30.12300 25.71000
H  49.87700 30.05900 26.55400
H  47.07700 29.19800 31.84000
H  49.32200 28.06600 35.29400
H  50.15600 29.61900 35.07900
H  50.64000 28.18600 34.24500

