158

Mg -2.37400 17.31000 26.63100
C  -2.52700 15.08300 29.15700
C  -2.56600 19.87400 28.81300
C  -2.36900 19.52100 23.86500
C  -2.86200 14.75900 24.26400
N  -2.47500 17.47500 28.75500
C  -2.46000 16.40700 29.62500
C  -2.46800 16.89700 31.15500
C  -2.72300 18.43300 30.93900
C  -2.53400 18.59200 29.38700
C  -4.00000 19.07300 31.56900
C  -1.22700 16.42300 32.02500
C  -0.70500 17.37800 33.11600
H  -0.37500 16.61600 34.40000
N  -2.40200 19.40200 26.41500
C  -2.48200 20.29300 27.44500
C  -2.41000 21.66100 26.89100
C  -2.25900 21.58900 25.50000
C  -2.28800 20.15200 25.18900
C  -2.51000 22.88700 27.76500
C  -1.97300 22.62400 24.47700
O  -1.82300 22.30700 23.29400
C  -1.90200 24.08500 24.83500
N  -2.71900 17.20000 24.30700
C  -2.57700 18.24700 23.48000
C  -2.60400 17.75400 22.00800
C  -2.83800 16.26000 22.12900
C  -2.84500 16.04000 23.64800
C  -3.76600 18.37100 21.08600
C  -1.93100 15.32400 21.22000
C  -2.51400 14.59800 19.96000
N  -2.63400 15.33900 26.66900
C  -2.72400 14.37400 25.66700
C  -2.70900 13.01600 26.32900
C  -2.59900 13.26700 27.64400
C  -2.58200 14.68200 27.80500
C  -2.75700 11.67100 25.76400
C  -2.41200 12.60600 28.98600
O  -2.15400 11.43400 29.33900
C  -2.45600 13.84000 30.02500
C  -1.22800 13.60100 30.83200
O  -0.09500 13.94800 30.63100
O  -1.68000 12.89200 31.88700
C  -0.75000 12.54300 33.02000
H  -2.66700 20.68800 29.53300
H  -2.40900 20.06600 22.91900
H  -3.00300 13.92300 23.57600
H  -3.35800 16.51000 31.65000
H  -1.82800 18.93100 31.31200
H  -4.66600 19.61200 30.89600
H  -3.57000 19.82900 32.22600
H  -4.50100 18.33100 32.19100
H  -0.43600 16.32600 31.28100
H  -1.27500 15.47100 32.55300
H  -1.47800 18.11900 33.31700
H  0.28100 17.75700 32.84500
H  -1.56000 23.37500 27.98300
H  -2.85600 22.55100 28.74300
H  -3.30700 23.57100 27.47200
H  -2.81600 24.39700 25.34100
H  -1.73800 24.70100 23.95100
H  -0.97800 24.21800 25.39800
H  -1.65200 18.06200 21.57700
H  -3.85700 15.96400 21.87800
H  -3.41200 18.47700 20.06100
H  -4.08000 19.33000 21.50000
H  -4.65000 17.73400 21.06500
H  -1.35200 14.63500 21.83400
H  -1.24400 16.03600 20.76400
H  -2.12600 13.58500 19.84900
H  -2.27800 15.24300 19.11400
H  -3.60200 14.57100 19.90400
H  -1.78300 11.18100 25.77100
H  -3.26700 11.75100 24.80400
H  -3.37200 11.04500 26.41000
H  -3.36900 13.72700 30.60900
H  0.01800 11.82100 32.74200
H  -1.18800 11.94100 33.81700
H  -0.21800 13.44100 33.33500
Mg 17.60600 -0.55900 27.31000
C  16.16600 1.07100 30.09000
C  19.36700 -2.57200 29.33000
C  18.68700 -1.78900 24.58600
C  15.80800 1.83800 25.28500
N  17.81700 -0.64300 29.53800
C  17.08300 0.05300 30.48700
C  17.62400 -0.34300 31.95600
C  18.65200 -1.55900 31.59400
C  18.61800 -1.67900 30.06100
C  20.09700 -1.38000 32.07000
C  16.54200 -0.72900 33.02200
C  16.56300 -0.04300 34.43400
H  17.84300 0.60500 34.99600
N  18.86200 -1.96000 27.03300
C  19.45700 -2.70600 27.98200
C  20.33600 -3.64800 27.28100
C  20.12000 -3.53700 25.89800
C  19.13000 -2.39800 25.77700
C  21.21300 -4.70300 28.03500
C  20.42200 -4.44500 24.76200
O  20.00200 -4.19100 23.64800
C  21.26800 -5.69800 25.03500
N  17.38300 0.07800 25.23700
C  17.86400 -0.69400 24.31600
C  17.77900 -0.14300 22.87100
C  16.67800 1.02700 23.15400
C  16.68500 1.04900 24.64400
C  19.24300 0.40500 22.41800
C  15.27000 0.79100 22.48100
C  14.20300 -0.09300 23.19700
N  16.21600 1.04400 27.54200
C  15.58200 1.90100 26.63600
C  14.71000 2.73200 27.31000
C  14.84600 2.43600 28.68500
C  15.79800 1.39700 28.72800
C  13.87300 3.69100 26.69800
C  14.39100 2.74900 30.04800
O  13.51700 3.52400 30.50100
C  15.33100 1.97500 30.98000
C  16.22700 2.82300 31.74000
O  17.29100 3.33100 31.41300
O  15.53600 3.13800 32.87400
C  16.21600 4.03700 33.78500
H  20.09300 -3.19100 29.86000
H  18.99700 -2.15400 23.60500
H  15.18000 2.50000 24.68300
H  18.27700 0.44600 32.32900
H  18.27400 -2.53200 31.90800
H  20.38700 -2.33900 32.49700
H  20.22600 -0.50500 32.70800
H  20.78600 -1.15400 31.25600
H  16.52500 -1.79600 33.24300
H  15.54400 -0.66300 32.58900
H  16.25500 -0.73700 35.21700
H  15.77300 0.68900 34.26600
H  22.14800 -4.76200 27.47900
H  20.64000 -5.62900 28.08800
H  21.56900 -4.32500 28.99300
H  22.28500 -5.32800 25.16600
H  21.19800 -6.28900 24.12200
H  21.02900 -6.28500 25.92300
H  17.45200 -0.94700 22.21100
H  17.04100 2.00200 22.82800
H  20.07100 0.21400 23.10100
H  19.17600 1.47500 22.22100
H  19.51600 -0.11200 21.49800
H  15.37600 0.40100 21.46900
H  14.87900 1.77400 22.22100
H  13.48700 -0.53100 22.50200
H  13.59500 0.59500 23.78300
H  14.69300 -0.93300 23.69000
H  14.40400 4.51600 26.22400
H  13.32800 4.21100 27.48600
H  13.23000 3.34200 25.89000
H  14.81900 1.29700 31.66300
H  15.54400 4.77200 34.22900
H  17.01900 4.58600 33.29300
H  16.71000 3.42700 34.54100

