158

Mg 35.57700 0.40500 29.78200
C  33.17500 1.68700 32.02300
C  37.85000 0.34400 32.42100
C  38.01400 -0.01300 27.62300
C  33.35000 1.23800 27.24600
N  35.56100 1.07100 31.99400
C  34.41000 1.42600 32.67500
C  34.63200 1.40400 34.25000
C  36.28600 1.29500 34.25500
C  36.61800 0.84000 32.80500
C  37.10200 2.61000 34.79200
C  33.82600 0.27900 35.01300
C  33.24400 0.60100 36.39300
H  34.05400 1.60100 37.32000
N  37.63100 -0.06400 29.99400
C  38.38800 -0.09900 31.14900
C  39.72700 -0.63600 30.88200
C  39.76400 -0.69600 29.44500
C  38.46100 -0.27100 28.91800
C  40.65000 -0.88100 31.96200
C  40.95600 -0.99700 28.60100
O  40.94700 -0.80700 27.36800
C  42.14900 -1.56800 29.18500
N  35.68500 0.58400 27.66400
C  36.81500 0.46200 27.03200
C  36.63700 0.68900 25.46200
C  35.16200 1.19500 25.51400
C  34.67400 0.91800 26.87500
C  37.69200 1.76000 24.89500
C  34.35500 0.55800 24.35700
C  33.47000 -0.69300 24.67500
N  33.65700 1.13300 29.57300
C  32.87400 1.40400 28.47200
C  31.62600 1.87900 28.86800
C  31.68900 2.00700 30.21200
C  32.95200 1.58400 30.62000
C  30.53900 2.35700 27.96500
C  31.00800 2.45900 31.41800
O  29.88600 3.04500 31.47700
C  31.88600 2.26000 32.60700
C  32.10500 3.49300 33.38600
O  32.71100 4.47800 32.91300
O  31.46400 3.39800 34.58900
C  31.57700 4.61900 35.39500
H  38.49200 0.40300 33.30200
H  38.72500 -0.13900 26.80400
H  32.65200 1.49100 26.44500
H  34.31600 2.40800 34.53700
H  36.58900 0.50600 34.94300
H  38.02400 2.25500 35.25300
H  36.48400 3.03100 35.58600
H  37.33200 3.35800 34.03400
H  34.49700 -0.56600 35.16000
H  32.99800 0.04200 34.34500
H  33.05900 -0.36700 36.85700
H  32.29700 1.09800 36.18200
H  40.88000 -1.91300 32.22800
H  40.38700 -0.42500 32.91600
H  41.56300 -0.36900 31.65800
H  42.93600 -0.95000 29.61700
H  42.52800 -2.24000 28.41500
H  41.86900 -2.28200 29.96000
H  36.78200 -0.34000 25.13400
H  35.14600 2.27900 25.40300
H  37.17800 2.54700 24.34400
H  38.28600 1.23000 24.15000
H  38.30800 2.16600 25.69800
H  35.08000 0.11000 23.67700
H  33.71100 1.29400 23.87700
H  33.70800 -1.16000 25.63100
H  33.61800 -1.42400 23.88000
H  32.42000 -0.40000 24.65100
H  30.61900 3.44200 27.90100
H  29.60100 2.11500 28.46500
H  30.50000 1.85100 27.00000
H  31.44300 1.54200 33.29700
H  31.45700 4.41200 36.45800
H  30.77600 5.25500 35.01800
H  32.55800 5.09200 35.33700
Mg 8.96300 47.69600 26.64400
C  6.61400 47.82000 29.42900
C  11.47100 48.23100 28.81600
C  11.07800 47.54600 24.11200
C  6.24400 47.47200 24.53700
N  9.00600 47.85500 28.88400
C  7.96800 47.94600 29.82600
C  8.60300 48.38800 31.16600
C  10.02700 48.84500 30.87700
C  10.21900 48.20700 29.44100
C  10.28500 50.36400 30.95400
C  8.44500 47.30300 32.30500
C  8.22000 47.86100 33.68200
H  8.12900 46.81600 34.77100
N  11.00000 47.73500 26.49100
C  11.88000 48.11600 27.49200
C  13.18500 48.16800 26.97600
C  13.11600 47.66300 25.63600
C  11.68300 47.64700 25.33600
C  14.37100 48.56800 27.73800
C  14.18200 47.21200 24.70500
O  13.99200 46.72300 23.60700
C  15.61300 47.35700 25.23600
N  8.72400 47.85500 24.63400
C  9.69900 47.62800 23.75200
C  9.15300 47.41700 22.33400
C  7.65200 47.45000 22.44300
C  7.50800 47.53600 24.01500
C  9.80000 48.21400 21.15800
C  7.06900 46.23600 21.82500
C  5.54800 46.39900 21.43200
N  6.88800 47.63400 26.85500
C  5.92100 47.56700 25.91900
C  4.67800 47.62400 26.58300
C  4.89400 47.66400 27.95800
C  6.27400 47.67900 28.05900
C  3.51600 47.78700 25.77300
C  4.21900 47.76300 29.23300
O  3.00800 47.76900 29.46700
C  5.36900 47.65500 30.27200
C  5.31000 46.30900 30.91000
O  5.89700 45.32300 30.51000
O  4.48500 46.42700 31.98600
C  4.46000 45.25300 32.92200
H  12.31400 48.45600 29.47300
H  11.70400 47.33000 23.24300
H  5.41200 47.15600 23.90500
H  7.94500 49.17200 31.54000
H  10.69500 48.28000 31.52700
H  9.40500 50.88200 30.57300
H  11.09600 50.69900 30.30700
H  10.50100 50.76800 31.94300
H  9.26600 46.58600 32.29900
H  7.54700 46.70400 32.15500
H  7.26300 48.37200 33.78700
H  9.06900 48.53100 33.82100
H  14.19800 48.78800 28.79100
H  14.79300 49.49900 27.36000
H  14.98700 47.67200 27.82200
H  15.79100 48.41800 25.41400
H  16.32500 46.99000 24.49700
H  15.80700 46.72300 26.10100
H  9.36500 46.36000 22.16900
H  7.28200 48.38400 22.01900
H  10.04600 47.49000 20.38100
H  10.65600 48.78100 21.52600
H  9.07600 48.98000 20.88100
H  7.13100 45.34900 22.45600
H  7.44900 45.97000 20.83900
H  5.09400 45.53600 21.91800
H  5.40800 46.27000 20.35900
H  5.26200 47.42800 21.65000
H  3.19400 46.84000 25.34000
H  3.62300 48.63300 25.09400
H  2.69300 48.04700 26.43800
H  5.20200 48.33100 31.11000
H  5.16700 44.45500 32.69400
H  3.50000 44.74600 32.82700
H  4.43400 45.50100 33.98300

