158

Mg -1.24400 17.61300 26.87300
C  -1.92400 15.35000 29.54200
C  -2.38100 20.08800 29.01300
C  -1.10400 19.74700 24.31000
C  -0.90100 14.97000 24.85600
N  -1.88200 17.70900 29.06400
C  -1.95400 16.68600 30.00800
C  -2.43700 17.22700 31.42000
C  -2.78900 18.75900 31.07000
C  -2.30400 18.84800 29.62800
C  -4.26600 19.08800 31.26500
C  -1.37900 17.01900 32.57000
C  -1.82300 16.32400 33.85100
H  -0.79100 16.15500 34.93700
N  -1.57400 19.64800 26.73900
C  -1.98100 20.50600 27.69100
C  -1.92900 21.81400 27.16800
C  -1.54700 21.70200 25.78200
C  -1.36400 20.29700 25.56500
C  -2.29300 23.13800 27.96700
C  -1.27900 22.83900 24.77300
O  -0.99000 22.69800 23.57900
C  -1.43000 24.29200 25.23200
N  -0.93200 17.47800 24.83400
C  -0.80600 18.40500 23.92100
C  -0.61400 17.91200 22.48400
C  -0.33700 16.37700 22.80600
C  -0.69900 16.26600 24.30900
C  -1.71700 18.29200 21.47100
C  1.13600 15.87000 22.56200
C  1.30400 14.39500 22.45300
N  -1.28700 15.58000 27.14600
C  -1.20300 14.61300 26.17800
C  -1.53400 13.29400 26.68500
C  -1.69400 13.51600 28.09700
C  -1.61500 14.91500 28.29400
C  -1.69400 12.09300 25.96700
C  -2.04300 12.97200 29.36800
O  -2.21500 11.83300 29.69200
C  -2.04000 14.11800 30.37900
C  -0.84500 13.91700 31.27300
O  0.30000 14.24200 30.92400
O  -1.24600 13.48700 32.51700
C  -0.14600 13.26200 33.52100
H  -2.83000 20.92100 29.55800
H  -0.99100 20.42100 23.45800
H  -0.79500 14.19000 24.09900
H  -3.29700 16.57800 31.58200
H  -2.27000 19.41600 31.76800
H  -4.82000 18.24700 31.68200
H  -4.77000 19.34100 30.33200
H  -4.42500 19.92800 31.94100
H  -1.01700 18.01100 32.83800
H  -0.52700 16.39700 32.29400
H  -2.31600 15.36800 33.67400
H  -2.56800 16.99900 34.27200
H  -2.91800 23.73900 27.30700
H  -1.39000 23.71400 28.16500
H  -2.80400 22.88600 28.89600
H  -1.19400 24.91600 24.37100
H  -0.77200 24.54200 26.06400
H  -2.48100 24.54200 25.38100
H  0.32800 18.31000 22.10700
H  -1.05200 15.83700 22.18500
H  -2.28700 19.10200 21.92600
H  -2.31800 17.40200 21.28300
H  -1.32500 18.61700 20.50700
H  1.63100 16.08400 23.51000
H  1.58300 16.50000 21.79400
H  1.95900 14.27700 21.59000
H  0.41300 13.79200 22.27900
H  1.89000 13.97300 23.26900
H  -1.76800 12.36500 24.91400
H  -2.59500 11.54700 26.24600
H  -0.78900 11.50000 26.09600
H  -2.99800 14.14200 30.89900
H  0.51200 12.43100 33.26900
H  -0.56500 12.94500 34.47600
H  0.45900 14.16800 33.57200
Mg 51.18700 45.53300 41.49100
C  48.36500 47.09000 39.91900
C  50.21600 42.60400 40.09000
C  54.32800 44.33600 41.93200
C  52.27900 48.71100 42.33300
N  49.43700 44.95300 40.13300
C  48.40600 45.71500 39.78100
C  47.23700 44.77000 39.27700
C  47.71500 43.35500 39.71100
C  49.25000 43.63800 39.95900
C  47.03800 42.89100 41.02900
C  46.84000 44.87500 37.79300
C  45.37800 44.79900 37.42800
H  44.86100 43.54500 36.70000
N  52.19400 43.67300 41.05800
C  51.62000 42.55800 40.43100
C  52.50400 41.40600 40.42300
C  53.72800 41.94300 40.91900
C  53.45100 43.34000 41.37200
C  52.09900 40.03600 39.96700
C  55.11600 41.25600 41.01500
O  55.25000 40.17700 40.38800
C  56.28000 41.77800 41.71000
N  53.12100 46.44300 41.99700
C  54.21100 45.73700 42.22300
C  55.45700 46.58300 42.52600
C  54.78900 47.92000 42.93900
C  53.31800 47.72300 42.38600
C  56.41000 45.97700 43.60900
C  55.45800 49.09600 42.34600
C  55.65300 50.16500 43.39100
N  50.36600 47.57500 41.39400
C  50.96800 48.68900 41.75600
C  50.01800 49.85200 41.59200
C  48.97000 49.27400 40.77400
C  49.30700 47.88000 40.68600
C  50.23700 51.23800 42.11200
C  47.71000 49.54900 40.01800
O  47.04400 50.57700 39.74100
C  47.32300 48.06800 39.44900
C  45.99100 47.67600 39.84300
O  44.97500 47.68000 39.13100
O  46.08000 47.55900 41.24800
C  44.70000 47.59500 41.81600
H  49.83400 41.60400 39.87400
H  55.34900 43.95000 41.89100
H  52.35800 49.70400 42.78200
H  46.35500 45.09900 39.82700
H  47.60000 42.57700 38.95700
H  46.61400 43.69300 41.63200
H  47.76500 42.57100 41.77600
H  46.40200 42.00900 40.95100
H  47.31100 44.06600 37.23500
H  47.23900 45.81400 37.40900
H  45.09500 45.71600 36.91100
H  44.87600 44.91300 38.38900
H  52.79300 39.22100 40.17400
H  51.75100 39.83000 38.95500
H  51.11900 39.83900 40.40200
H  56.08200 41.85400 42.77900
H  56.72200 42.65500 41.23600
H  57.12600 41.09200 41.68400
H  55.93900 46.72200 41.55900
H  54.70800 47.97100 44.02500
H  56.58100 46.60000 44.48800
H  57.39300 45.68600 43.23800
H  56.06900 44.98300 43.89700
H  54.80000 49.53600 41.59700
H  56.44400 48.86700 41.94100
H  55.94100 49.82200 44.38500
H  54.81600 50.86400 43.40100
H  56.50500 50.79600 43.13600
H  50.84500 51.77900 41.38700
H  50.65400 51.29000 43.11800
H  49.23600 51.66200 42.19400
H  47.31300 48.12900 38.36100
H  44.75400 48.17800 42.73500
H  44.33800 46.63300 42.17700
H  43.93200 48.09000 41.22200

