158

Mg 35.98100 49.33100 25.87600
C  35.85900 48.00400 29.01200
C  34.90800 52.43300 27.14400
C  35.83000 50.53300 22.75000
C  36.45700 46.08300 24.55300
N  35.43000 50.10400 27.85800
C  35.63900 49.40900 28.99300
C  35.59200 50.29000 30.28800
C  35.18500 51.71900 29.65600
C  35.12000 51.42600 28.15400
C  34.04800 52.56600 30.29600
C  36.90800 50.38100 31.07500
C  36.62300 50.25900 32.60200
H  35.23900 50.57800 33.23100
N  35.40500 51.21400 25.06200
C  34.97800 52.30800 25.72300
C  34.73000 53.38700 24.80300
C  34.98600 52.81700 23.53100
C  35.46300 51.48200 23.72700
C  34.29000 54.79800 25.22300
C  34.79400 53.47100 22.22600
O  35.05800 52.94600 21.13700
C  34.30100 54.91500 22.10000
N  36.01100 48.39900 23.92800
C  35.93800 49.15400 22.77600
C  36.21000 48.32900 21.55100
C  36.28700 46.86400 22.17800
C  36.29600 47.13600 23.65400
C  35.23100 48.43600 20.37200
C  37.56500 46.02600 21.73700
C  39.00300 46.59800 21.97500
N  36.13600 47.44400 26.59800
C  36.40100 46.22800 25.98500
C  36.63700 45.19200 26.92800
C  36.39800 45.83400 28.18800
C  36.09700 47.18900 27.92300
C  37.00800 43.74700 26.60600
C  36.52600 45.72600 29.67800
O  36.67000 44.78600 30.45400
C  36.12300 47.12700 30.20500
C  34.90500 46.92800 31.05200
O  33.81800 46.58200 30.65300
O  35.27000 46.90900 32.36200
C  34.21300 46.62400 33.33200
H  34.56100 53.43400 27.40900
H  35.96000 50.89200 21.72700
H  36.64200 45.06900 24.19100
H  34.79900 49.88300 30.91600
H  35.92700 52.50400 29.80300
H  33.79600 52.19300 31.28900
H  33.17400 52.57900 29.64500
H  34.30300 53.61500 30.44900
H  37.46600 51.29100 30.85600
H  37.53300 49.55600 30.73300
H  37.35700 50.94100 33.03200
H  36.99800 49.28100 32.90400
H  34.72900 55.58400 24.60800
H  34.59800 55.07700 26.23000
H  33.21000 54.84900 25.08200
H  33.47600 55.10000 22.78800
H  34.04200 55.00500 21.04500
H  35.04400 55.62900 22.45400
H  37.15100 48.70700 21.15100
H  35.45400 46.19100 21.97400
H  34.39500 49.09700 20.60100
H  34.80700 47.51200 19.97600
H  35.68500 49.05800 19.60000
H  37.40300 45.83300 20.67600
H  37.51200 45.07800 22.27200
H  38.95800 47.39300 22.72000
H  39.49500 46.87100 21.04100
H  39.67100 45.75800 22.16400
H  37.39200 43.62600 25.59300
H  36.29100 42.94200 26.77000
H  37.81900 43.42900 27.26000
H  36.86100 47.63700 30.82400
H  33.47800 47.42800 33.29000
H  34.59500 46.61300 34.35200
H  33.64100 45.70600 33.20200
Mg -1.42600 34.92600 27.38500
C  -2.80600 32.99200 29.97600
C  -0.17200 37.01000 29.58000
C  -0.90900 37.08700 24.73000
C  -2.94100 32.74800 25.16700
N  -1.66800 35.04100 29.57300
C  -2.13500 34.13000 30.46200
C  -1.66300 34.41500 31.87900
C  -0.71100 35.72400 31.70900
C  -0.86400 35.93300 30.16500
C  -1.27700 36.94400 32.54100
C  -0.78800 33.22700 32.45900
C  -1.18900 32.35800 33.62200
H  -0.54200 32.61200 34.96800
N  -0.66600 36.85400 27.18600
C  -0.11000 37.49200 28.21200
C  0.54900 38.68300 27.79200
C  0.30200 38.76300 26.38600
C  -0.48100 37.55400 26.05100
C  1.23600 39.51100 28.76700
C  0.80100 39.78000 25.40300
O  0.49700 39.67500 24.19200
C  1.84200 40.76500 25.70700
N  -1.65300 34.82900 25.21600
C  -1.51700 35.86500 24.36600
C  -1.90200 35.48300 22.92000
C  -2.18800 33.96800 23.05000
C  -2.29200 33.82700 24.60800
C  -3.01700 36.21000 22.21300
C  -1.18700 32.90500 22.45300
C  0.29500 33.20400 22.50800
N  -2.59500 33.20600 27.48900
C  -3.13400 32.45200 26.50700
C  -3.82600 31.27800 27.02700
C  -3.75100 31.45500 28.41400
C  -3.01400 32.64800 28.60000
C  -4.57200 30.26300 26.24400
C  -4.11100 30.93800 29.67800
O  -4.75300 29.95400 30.04500
C  -3.47300 31.84500 30.75900
C  -4.60100 32.42100 31.62100
O  -5.52000 33.10800 31.21300
O  -4.44200 32.04200 32.99000
C  -5.51000 32.42200 33.89100
H  0.47000 37.58400 30.25200
H  -0.66100 37.70500 23.86500
H  -3.40300 32.10100 24.41800
H  -2.37400 34.70800 32.65100
H  0.30200 35.53100 32.06300
H  -1.34400 37.82600 31.90500
H  -0.52600 37.10300 33.31500
H  -2.18800 36.69000 33.08300
H  0.17800 33.68200 32.67600
H  -0.60200 32.62500 31.56900
H  -1.29700 31.29100 33.42400
H  -2.20500 32.67200 33.86000
H  1.77500 40.34500 28.31800
H  1.99800 39.09400 29.42500
H  0.43700 39.98300 29.33900
H  2.18700 41.33400 24.84300
H  2.69700 40.12000 25.90600
H  1.55200 41.47700 26.48000
H  -0.97500 35.70200 22.39000
H  -3.13600 33.64500 22.62100
H  -3.49100 36.96500 22.84100
H  -3.78600 35.52600 21.85500
H  -2.68700 36.72400 21.31100
H  -1.42600 32.64200 21.42300
H  -1.43800 31.95200 22.91800
H  0.79500 32.37700 23.01300
H  0.47500 34.10500 23.09500
H  0.69600 33.16300 21.49500
H  -4.81600 29.39200 26.85300
H  -4.02200 30.00200 25.34000
H  -5.49100 30.81200 26.04000
H  -2.82000 31.16000 31.30100
H  -5.14900 33.10700 34.65800
H  -6.02400 31.60000 34.39100
H  -6.29800 32.81100 33.24700

