158

Mg 16.03400 52.52200 27.02300
C  17.76300 50.84500 29.63100
C  13.60100 53.16100 29.24300
C  14.28500 53.68300 24.40400
C  18.22300 50.94100 24.80300
N  15.82300 52.14400 29.18500
C  16.61400 51.45900 30.06100
C  16.24300 51.51300 31.55700
C  14.79400 52.12500 31.34000
C  14.70700 52.51100 29.83400
C  13.65900 51.14400 31.69400
C  17.26200 52.27900 32.47500
C  17.52700 51.68600 33.86600
H  16.73400 52.21000 35.02500
N  14.20800 53.45200 26.84200
C  13.33700 53.58800 27.89900
C  12.23700 54.47000 27.42000
C  12.34800 54.55700 25.97000
C  13.64300 53.88400 25.70400
C  11.06400 54.95200 28.33000
C  11.47300 55.09300 24.97500
O  11.70000 55.03000 23.79500
C  10.21600 55.79300 25.41800
N  16.17000 52.33800 24.91800
C  15.37000 52.90400 23.99500
C  16.00000 52.86200 22.60100
C  17.18200 51.92200 22.78600
C  17.19800 51.76700 24.29700
C  14.95500 52.44900 21.48900
C  18.56000 52.53900 22.08400
C  19.15100 53.71100 22.83100
N  17.71400 51.21500 27.13400
C  18.51300 50.74900 26.18600
C  19.71400 50.17700 26.78700
C  19.44300 50.18800 28.16800
C  18.21400 50.78900 28.31200
C  20.89500 49.43700 26.14600
C  19.96100 49.87800 29.40700
O  21.11700 49.54400 29.74800
C  18.92700 50.32900 30.51000
C  18.55100 49.18600 31.38500
O  17.91400 48.20500 31.12700
O  19.10200 49.44700 32.65500
C  19.02200 48.34100 33.62100
H  12.78100 53.33200 29.94500
H  13.93600 54.14100 23.47600
H  18.91600 50.47600 24.10000
H  16.20300 50.47300 31.88100
H  14.75300 53.05300 31.91000
H  12.95400 51.64600 32.35600
H  14.07700 50.18500 32.00000
H  13.08900 50.87500 30.80500
H  16.92500 53.30100 32.64800
H  18.18800 52.47500 31.93500
H  18.58400 51.71800 34.12700
H  17.26200 50.63200 33.77800
H  11.18400 54.79700 29.40300
H  10.18900 54.39000 28.00500
H  10.83500 55.97500 28.03000
H  10.41300 56.63900 26.07700
H  9.78100 55.07900 26.11700
H  9.54600 56.03900 24.59400
H  16.18200 53.93100 22.49400
H  16.91300 50.92700 22.43400
H  13.97100 52.15200 21.85200
H  15.33500 51.64600 20.85700
H  14.79000 53.26400 20.78400
H  18.39700 52.80600 21.04000
H  19.13200 51.61500 22.16400
H  19.05900 54.73200 22.46100
H  20.18900 53.52200 23.10400
H  18.64700 53.82900 23.79000
H  20.59200 49.23400 25.11900
H  21.02700 48.44300 26.57500
H  21.87200 49.91700 26.08800
H  19.40500 51.19600 30.96700
H  18.02900 47.96800 33.87300
H  19.49200 48.69700 34.53800
H  19.60100 47.47000 33.31400
Mg -1.42600 34.90300 26.05400
C  -3.00300 32.98900 28.45500
C  -0.15400 36.85200 28.45600
C  -0.30700 36.82500 23.57200
C  -2.84100 32.70700 23.52600
N  -1.59500 34.89100 28.26100
C  -2.17600 33.97600 29.03400
C  -2.06800 34.29400 30.52700
C  -1.34100 35.67900 30.51300
C  -1.02200 35.84700 28.97200
C  -1.97800 36.91300 31.05900
C  -1.20900 33.22100 31.30600
C  -2.02300 32.42900 32.38200
H  -1.36100 32.22200 33.71100
N  -0.34700 36.59300 26.00300
C  0.13400 37.26700 27.11000
C  0.95400 38.36300 26.69200
C  0.79800 38.45000 25.29600
C  -0.07200 37.32200 24.88500
C  1.69900 39.30400 27.74200
C  1.42900 39.49100 24.40400
O  1.28100 39.54300 23.20400
C  2.30100 40.54400 24.97600
N  -1.51900 34.79000 23.89900
C  -0.95600 35.71000 23.12700
C  -1.09100 35.35900 21.67100
C  -1.67700 33.94200 21.70700
C  -2.06800 33.82000 23.12700
C  -1.89700 36.43700 20.98100
C  -0.63500 32.88800 21.22500
C  0.35200 32.27700 22.20500
N  -2.73700 33.24300 25.92100
C  -3.14800 32.39400 24.87300
C  -4.05600 31.34900 25.37100
C  -4.07400 31.59200 26.80900
C  -3.20300 32.68200 27.03600
C  -4.83400 30.43500 24.53200
C  -4.71800 31.18500 28.11000
O  -5.64200 30.44900 28.33200
C  -3.80500 31.92500 29.17200
C  -4.77700 32.48100 30.12800
O  -5.37500 33.53700 29.97300
O  -4.94600 31.66700 31.21600
C  -5.65200 32.24100 32.37500
H  0.17600 37.63800 29.13800
H  0.19700 37.45700 22.83900
H  -3.26400 32.04100 22.77200
H  -3.07100 34.47500 30.91400
H  -0.46400 35.52600 31.14300
H  -3.04200 36.68300 31.00800
H  -1.81200 37.71700 30.34200
H  -1.71900 37.25400 32.06100
H  -0.32400 33.58300 31.82900
H  -0.88300 32.49200 30.56300
H  -2.26000 31.45600 31.95100
H  -2.93100 32.99700 32.57900
H  2.00900 38.73900 28.62200
H  0.93800 40.02300 28.04700
H  2.58400 39.84900 27.41600
H  1.82500 41.19900 25.70600
H  2.54100 41.10600 24.07400
H  3.24500 40.22700 25.41800
H  -0.08600 35.36400 21.24700
H  -2.52700 33.81200 21.03700
H  -2.17800 37.18700 21.72100
H  -2.80800 36.00800 20.56500
H  -1.21400 36.87800 20.25500
H  -0.12800 33.49100 20.47100
H  -1.26600 32.07400 20.86700
H  0.09300 32.50700 23.23900
H  1.41300 32.43900 22.01400
H  0.18300 31.20200 22.27000
H  -4.22100 30.00500 23.73900
H  -5.68500 30.96000 24.09900
H  -5.27900 29.62700 25.11400
H  -3.31800 31.10800 29.70400
H  -6.57800 32.69400 32.02200
H  -4.97400 32.94100 32.86200
H  -5.88500 31.45800 33.09600

