158

Mg 30.13500 57.32600 38.89300
C  27.22200 55.62300 37.95300
C  31.93300 54.53100 38.20300
C  32.92600 59.21000 38.43300
C  28.24800 60.27000 39.12300
N  29.56600 55.36300 38.26100
C  28.34400 54.85700 37.91600
C  28.40200 53.28900 37.72800
C  29.88100 52.98800 38.17100
C  30.52100 54.33400 38.20600
C  30.00700 52.07000 39.44400
C  28.09300 52.79100 36.24000
C  28.82400 53.57400 35.16400
H  27.93400 54.53200 34.35200
N  32.23700 56.90300 38.57100
C  32.70800 55.69700 38.29300
C  34.12500 55.78400 38.00700
C  34.46800 57.13500 38.09600
C  33.22600 57.84500 38.40200
C  35.07500 54.56400 37.68300
C  35.80500 57.72600 37.77200
O  36.74800 56.93100 37.74200
C  36.14600 59.08700 37.62700
N  30.51300 59.41000 38.81100
C  31.77200 59.95100 38.70400
C  31.76400 61.49800 38.68000
C  30.30200 61.82500 39.17000
C  29.62800 60.41300 38.98800
C  32.92000 62.12000 39.62200
C  29.65100 63.06000 38.44400
C  29.42400 64.32200 39.30800
N  28.04600 57.89500 38.72600
C  27.48000 59.13700 38.87900
C  25.99300 59.02100 38.72700
C  25.88700 57.59400 38.38100
C  27.13000 56.99600 38.33500
C  24.96400 60.14300 38.74600
C  24.93700 56.52900 38.13600
O  23.72000 56.61700 38.12200
C  25.75500 55.27100 37.69500
C  25.40100 54.19000 38.66400
O  25.36900 54.25700 39.91100
O  25.10500 53.10400 37.94600
C  24.59500 51.95700 38.69500
H  32.41800 53.55800 38.10000
H  33.71700 59.96200 38.42100
H  27.85700 61.26300 39.35600
H  27.59200 52.92500 38.36000
H  30.34600 52.39900 37.38000
H  30.39400 52.66700 40.27000
H  30.74100 51.29600 39.21800
H  29.00400 51.69200 39.64400
H  27.02300 52.95800 36.12000
H  28.35100 51.73700 36.13600
H  29.22200 52.83900 34.46300
H  29.66200 54.12400 35.59200
H  35.55000 54.76100 36.72200
H  34.60100 53.58900 37.56900
H  35.81000 54.41100 38.47400
H  36.56300 59.42500 38.57600
H  35.26400 59.65400 37.32800
H  36.77000 59.27200 36.75200
H  31.84500 61.86100 37.65500
H  30.32700 61.97700 40.24900
H  33.25300 61.28000 40.23100
H  32.63800 62.80700 40.42000
H  33.77900 62.44700 39.03600
H  28.71700 62.58700 38.14000
H  30.28100 63.45000 37.64500
H  30.06600 64.26900 40.18700
H  28.38100 64.24500 39.61600
H  29.50900 65.16100 38.61700
H  24.45500 60.21700 37.78400
H  25.59200 61.02700 38.85000
H  24.19400 60.19700 39.51500
H  25.50200 55.04400 36.65900
H  24.05300 52.28900 39.58100
H  25.43200 51.34100 39.02500
H  24.01600 51.23000 38.12600
Mg -2.47700 34.68100 25.94600
C  -4.29200 32.94500 28.56900
C  -0.86100 36.44200 28.47200
C  -0.86300 36.28700 23.62800
C  -4.35300 32.84700 23.63500
N  -2.63600 34.73700 28.26600
C  -3.34800 33.89200 29.06300
C  -3.02000 34.11400 30.57500
C  -2.05400 35.37100 30.49400
C  -1.76800 35.53900 28.98200
C  -2.60100 36.75600 31.13600
C  -2.38300 32.89100 31.18300
C  -2.90700 32.59000 32.57000
H  -1.92600 32.41400 33.77700
N  -1.03200 36.19000 26.00300
C  -0.53800 36.81300 27.10600
C  0.44300 37.74900 26.65500
C  0.61900 37.56100 25.27500
C  -0.43700 36.62900 24.89500
C  1.06200 38.74400 27.60000
C  1.55100 38.22700 24.32700
O  1.55500 38.04300 23.14000
C  2.76300 38.99000 24.87100
N  -2.65300 34.58000 23.86200
C  -1.83900 35.39700 23.11400
C  -2.16600 35.22200 21.55500
C  -3.19100 34.05100 21.63200
C  -3.40200 33.75600 23.10600
C  -2.62200 36.57300 20.92700
C  -2.81100 32.87900 20.68100
C  -1.78100 31.92100 21.23600
N  -4.09000 33.28400 26.04500
C  -4.65800 32.54600 24.96600
C  -5.59200 31.59200 25.49700
C  -5.49900 31.75600 26.86800
C  -4.50900 32.68600 27.22100
C  -6.38100 30.70300 24.59100
C  -6.01900 31.35400 28.17800
O  -6.95800 30.68600 28.47700
C  -5.18500 31.97100 29.27900
C  -6.12700 32.64600 30.14200
O  -6.67500 33.74300 29.98900
O  -6.42700 31.91300 31.29400
C  -7.13900 32.49900 32.39100
H  -0.33300 36.93900 29.28900
H  -0.29400 36.66800 22.77800
H  -4.79800 32.23700 22.84600
H  -3.95200 34.48500 31.00300
H  -1.10500 35.12300 30.97000
H  -3.68300 36.88400 31.15900
H  -2.31100 37.65400 30.59100
H  -2.20300 36.98500 32.12500
H  -1.30300 33.03900 31.19000
H  -2.43700 32.00100 30.55600
H  -3.43600 31.64700 32.42900
H  -3.64000 33.28800 32.97400
H  0.65600 38.75500 28.61100
H  1.02900 39.78200 27.26800
H  2.07800 38.34900 27.59700
H  3.61000 38.92700 24.18800
H  3.05500 38.26600 25.63100
H  2.35300 39.83900 25.41700
H  -1.16300 34.98000 21.20200
H  -4.14900 34.29400 21.17100
H  -3.69800 36.65600 20.77100
H  -2.08400 36.61900 19.98000
H  -2.20200 37.42000 21.46800
H  -2.32600 33.28400 19.79300
H  -3.66300 32.31800 20.29700
H  -1.42700 32.40400 22.14600
H  -0.94900 31.82100 20.53900
H  -2.34600 31.01500 21.45700
H  -5.89600 30.39100 23.66600
H  -7.29800 31.24700 24.36400
H  -6.47600 29.75300 25.11700
H  -4.67900 31.19600 29.85400
H  -7.81800 33.22000 31.93600
H  -6.46900 33.15100 32.95200
H  -7.55700 31.80000 33.11600

