158

Mg 54.22800 24.57600 44.21100
C  51.39000 26.82600 43.66900
C  52.16700 21.94700 43.56400
C  56.99500 22.80500 43.83200
C  56.16100 27.52400 44.12900
N  52.03900 24.47400 43.61500
C  51.06400 25.49000 43.49900
C  49.74100 24.79100 43.19800
C  50.00500 23.27200 43.49200
C  51.50900 23.20400 43.58700
C  49.40600 22.64000 44.78500
C  49.20900 25.19700 41.75800
C  50.30500 25.08900 40.67000
H  49.74200 24.63800 39.27000
N  54.49900 22.58100 43.92300
C  53.55500 21.67900 43.73200
C  54.24200 20.30400 43.77300
C  55.60200 20.58300 43.89600
C  55.78200 22.02800 43.89200
C  53.53600 19.01000 43.58100
C  56.62300 19.47300 43.99400
O  56.25200 18.32300 43.93300
C  58.01800 19.73000 44.13900
N  56.33700 25.07900 44.13200
C  57.25200 24.19400 43.93700
C  58.70500 24.75100 43.94700
C  58.45800 26.28300 43.83300
C  56.88100 26.32400 44.01700
C  59.57900 24.38500 45.27800
C  58.88500 26.84900 42.43600
C  60.41700 27.00900 42.20900
N  53.86300 26.74800 44.08600
C  54.79700 27.75100 44.19300
C  54.16500 28.95900 44.40100
C  52.78700 28.63500 44.13900
C  52.66100 27.30700 44.00900
C  54.75800 30.32700 44.65600
C  51.45500 29.19500 44.08400
O  51.03800 30.26300 44.35900
C  50.52100 28.00100 43.59800
C  50.18300 28.50700 42.18200
O  50.87300 28.56300 41.15800
O  48.89900 28.92000 42.21900
C  48.36500 29.42600 40.95000
H  51.55100 21.04900 43.48500
H  57.91400 22.29700 43.53500
H  56.79400 28.39800 44.29700
H  49.04900 25.11600 43.97500
H  49.68700 22.69700 42.62200
H  50.23300 22.38400 45.44800
H  48.85600 21.76500 44.43800
H  48.70300 23.31300 45.27500
H  48.89500 26.23900 41.80700
H  48.32300 24.59600 41.55100
H  51.10000 24.48400 41.10600
H  50.74800 26.06600 40.47400
H  53.64300 18.39800 44.47600
H  54.03500 18.39000 42.83600
H  52.45600 19.15400 43.53700
H  58.57100 18.85000 44.46700
H  58.18800 20.47000 44.92200
H  58.29300 20.11200 43.15600
H  59.21900 24.37400 43.06400
H  59.02900 26.74500 44.63800
H  60.55500 24.06600 44.91000
H  59.06200 23.65100 45.89600
H  59.78800 25.19400 45.97800
H  58.44500 27.83300 42.27200
H  58.47100 26.23200 41.63900
H  60.84300 27.96300 41.89900
H  60.95600 26.22900 41.67200
H  60.82400 26.90100 43.21400
H  54.05600 30.79900 45.34300
H  54.63300 30.92700 43.75500
H  55.79500 30.24900 44.98400
H  49.68600 27.85300 44.28200
H  47.31200 29.70600 40.94000
H  48.35800 28.78400 40.06900
H  48.94600 30.32700 40.75600
Mg 47.50400 25.31400 28.51700
C  48.46500 27.61700 31.06700
C  46.50000 23.18300 30.74100
C  47.21700 23.04200 25.86300
C  48.54700 27.74300 26.15500
N  47.61800 25.34600 30.62700
C  47.98900 26.37000 31.49200
C  47.64000 26.10400 32.95300
C  47.00100 24.63200 32.78200
C  47.05700 24.36700 31.30300
C  47.68600 23.45000 33.54200
C  46.63200 27.13800 33.54500
C  46.92100 27.81000 34.89200
H  45.73500 28.00900 35.82400
N  46.91400 23.47300 28.37000
C  46.52300 22.74700 29.42100
C  46.11700 21.42800 29.10100
C  46.24700 21.32900 27.66000
C  46.80400 22.65400 27.15700
C  45.58900 20.33200 29.97500
C  45.71300 20.25300 26.75600
O  45.87500 20.39400 25.59200
C  44.87500 19.08600 27.30400
N  47.86600 25.36900 26.36600
C  47.56800 24.32600 25.51200
C  47.96300 24.71500 24.06800
C  48.09900 26.22900 24.20300
C  48.14700 26.48000 25.67200
C  49.24700 23.91500 23.61400
C  46.99200 27.10000 23.52800
C  47.56300 28.25100 22.70500
N  48.19900 27.32200 28.51800
C  48.68300 28.15400 27.51300
C  49.24800 29.35800 28.05800
C  49.13400 29.18300 29.43400
C  48.56200 27.93900 29.68800
C  49.87100 30.44200 27.16700
C  49.48500 29.79600 30.69200
O  50.06900 30.83500 30.86000
C  49.10200 28.78000 31.81300
C  50.27800 28.47000 32.72300
O  51.28400 27.90200 32.28800
O  50.11300 29.14800 33.93300
C  51.30100 29.14000 34.80200
H  46.20200 22.38200 31.42000
H  46.97000 22.36300 25.04500
H  48.79800 28.48700 25.39600
H  48.49000 25.95300 33.61800
H  45.96400 24.48200 33.08100
H  48.56400 23.01900 33.06000
H  46.93300 22.67000 33.65700
H  48.01100 23.77600 34.53000
H  45.69300 26.58700 33.59400
H  46.38000 27.99600 32.92200
H  47.38400 28.78200 34.72600
H  47.55400 27.07800 35.39600
H  44.53400 20.08300 29.86500
H  45.82100 20.57300 31.01300
H  46.29900 19.57800 29.63500
H  44.63000 18.53500 26.39600
H  43.91600 19.47000 27.65100
H  45.44800 18.41900 27.94900
H  47.12200 24.43400 23.43400
H  49.07000 26.53100 23.81200
H  50.01400 24.52400 23.13800
H  48.90500 23.09600 22.98100
H  49.73800 23.40600 24.44400
H  46.41900 27.50700 24.36100
H  46.25100 26.58300 22.91800
H  48.29100 27.83700 22.00800
H  47.80200 29.14300 23.28400
H  46.77600 28.47200 21.98300
H  49.43300 30.56300 26.17700
H  50.95200 30.34000 27.07200
H  49.83300 31.40900 27.67000
H  48.19900 29.15000 32.29800
H  52.19500 29.33600 34.21200
H  51.48700 28.16500 35.25400
H  51.01200 29.96700 35.45100

