158

Mg 49.55300 34.20000 25.74500
C  47.37500 33.03700 28.19300
C  49.62200 37.22500 27.33100
C  51.50700 35.33100 23.26500
C  48.99200 31.29300 23.95700
N  48.58700 35.02900 27.59600
C  47.90100 34.34400 28.51800
C  47.68400 35.15400 29.83000
C  48.05700 36.56600 29.34100
C  48.72800 36.29500 27.96300
C  46.78900 37.47100 29.15000
C  48.69100 34.68000 30.98200
C  48.03400 34.38900 32.31100
H  46.89900 35.33400 32.81100
N  50.49100 36.04000 25.36900
C  50.36500 37.16500 26.17200
C  51.14500 38.19900 25.48000
C  51.60400 37.74100 24.27800
C  51.18300 36.32600 24.27100
C  51.32900 39.53800 26.04400
C  52.31600 38.44100 23.12400
O  52.79600 37.85600 22.13400
C  52.60200 39.91800 23.21500
N  50.02100 33.46500 23.68600
C  50.99000 34.11900 22.95200
C  51.44700 33.22100 21.80800
C  50.71400 31.87300 22.10100
C  49.92000 32.20000 23.36900
C  51.09800 33.71300 20.38800
C  51.74000 30.63300 22.35500
C  52.10700 29.78100 21.16000
N  48.35600 32.50000 25.90100
C  48.17500 31.39500 25.11100
C  47.22100 30.44700 25.65200
C  46.79300 31.07200 26.86100
C  47.55800 32.30600 27.00600
C  46.79600 29.18100 24.97100
C  46.00000 30.98000 28.09700
O  45.22900 30.12000 28.52800
C  46.40300 32.24300 28.99600
C  46.96200 31.54300 30.19400
O  48.05300 31.15000 30.32200
O  46.02400 31.37800 31.13600
C  46.51900 30.66300 32.35800
H  49.54000 38.15400 27.89900
H  52.22000 35.62700 22.49200
H  48.80800 30.38400 23.38000
H  46.65600 35.08500 30.18500
H  48.68000 37.12400 30.04100
H  45.90600 37.12600 29.68700
H  46.57200 37.45000 28.08200
H  46.92500 38.51900 29.41600
H  49.49300 35.38800 31.19000
H  49.08900 33.68900 30.76700
H  48.87700 34.58700 32.97300
H  47.74300 33.40300 32.67200
H  51.03800 39.53200 27.09400
H  50.68500 40.26300 25.54500
H  52.34100 39.90900 25.88500
H  53.35100 40.04000 23.99700
H  51.71500 40.43300 23.58400
H  53.01300 40.28500 22.27500
H  52.52600 33.13900 21.94300
H  49.99300 31.75500 21.29300
H  51.04400 32.93700 19.62400
H  51.84200 34.46900 20.13900
H  50.13300 34.20900 20.48400
H  51.24300 30.07800 23.15100
H  52.60500 31.10600 22.81900
H  53.17700 29.94600 21.03300
H  51.56500 30.24600 20.33700
H  51.75800 28.75300 21.24900
H  45.87600 28.94800 25.50700
H  47.54200 28.38700 24.93300
H  46.50100 29.54900 23.98900
H  45.50800 32.84500 29.15800
H  46.93300 31.51500 32.89800
H  47.22100 29.84800 32.18400
H  45.69600 30.32800 32.98900
Mg -5.97700 25.19400 26.01900
C  -4.63000 26.51100 29.16400
C  -7.65500 22.83800 27.97100
C  -6.48700 23.60000 23.38400
C  -3.81300 27.48700 24.50100
N  -6.10600 24.73600 28.30300
C  -5.47600 25.38400 29.34700
C  -5.92500 24.83100 30.79300
C  -6.64400 23.44300 30.29300
C  -6.88000 23.65400 28.76000
C  -5.86500 22.18000 30.64600
C  -6.74500 25.96000 31.47600
C  -6.65100 26.15500 32.99400
H  -6.07800 24.98400 33.77600
N  -7.15300 23.56300 25.64300
C  -7.80700 22.70800 26.54400
C  -8.51800 21.76600 25.85000
C  -8.23800 21.90300 24.43500
C  -7.26500 23.02800 24.43200
C  -9.44000 20.78000 26.57700
C  -8.75000 21.14100 23.27900
O  -8.30300 21.43300 22.14000
C  -9.86900 20.16300 23.42200
N  -5.33200 25.57700 24.24500
C  -5.63300 24.71100 23.25000
C  -4.91700 25.03600 21.89100
C  -4.22500 26.40200 22.33800
C  -4.51000 26.55700 23.81100
C  -3.92900 23.92700 21.47000
C  -4.74600 27.54000 21.41700
C  -3.73400 28.56000 20.93400
N  -4.66500 26.81900 26.67900
C  -3.95300 27.68700 25.88600
C  -3.24700 28.64500 26.71200
C  -3.42400 28.22300 27.99500
C  -4.30200 27.08000 27.92200
C  -2.42300 29.75900 26.09200
C  -3.09200 28.48200 29.35900
O  -2.44000 29.33400 29.89400
C  -3.93300 27.41300 30.17100
C  -2.99300 26.65500 31.07400
O  -2.19300 25.82400 30.70800
O  -3.16700 26.94100 32.37200
C  -2.34200 26.39500 33.38300
H  -8.14800 22.14200 28.65300
H  -6.56100 23.03500 22.45300
H  -3.27500 28.23300 23.91300
H  -4.99900 24.58100 31.31000
H  -7.58200 23.35000 30.84000
H  -4.88800 22.38500 31.08300
H  -5.74000 21.60400 29.72800
H  -6.47000 21.55800 31.30500
H  -7.80600 25.78100 31.30300
H  -6.45100 26.95600 31.14600
H  -7.67200 26.30200 33.34500
H  -5.98400 26.98600 33.22100
H  -10.50400 20.86600 26.35600
H  -9.38900 20.73900 27.66500
H  -9.03900 19.79800 26.32700
H  -9.59800 19.36900 24.11700
H  -9.99900 19.68300 22.45200
H  -10.77200 20.66300 23.77000
H  -5.72000 25.17500 21.16700
H  -3.15600 26.33900 22.13200
H  -4.09500 23.74500 20.40800
H  -4.10100 22.99500 22.00900
H  -2.91600 24.30300 21.61700
H  -5.41400 28.17100 22.00400
H  -5.22100 27.24400 20.48200
H  -4.15800 29.56300 20.98600
H  -3.41300 28.23300 19.94500
H  -2.95300 28.53700 21.69300
H  -2.99200 30.33200 25.36000
H  -1.56400 29.31900 25.58500
H  -2.09200 30.39000 26.91800
H  -4.59200 28.02400 30.78900
H  -1.96900 25.41700 33.07900
H  -2.78700 26.11100 34.33700
H  -1.50000 27.04900 33.60900

