158

Mg 53.91600 23.98500 44.82900
C  50.93200 25.79100 44.00800
C  52.28100 21.16800 43.96700
C  56.81500 22.31000 45.24300
C  55.58100 27.00400 45.44000
N  51.92600 23.60800 43.97100
C  50.85200 24.42800 43.72700
C  49.69300 23.66300 43.24400
C  49.97300 22.15500 43.72200
C  51.49200 22.34700 43.91300
C  49.15600 21.69700 45.00100
C  49.55500 23.91800 41.69100
C  48.20900 23.94600 41.04200
H  48.03800 23.23600 39.68600
N  54.44800 22.08000 44.54300
C  53.64800 21.01300 44.27400
C  54.32100 19.79700 44.35900
C  55.58900 20.11600 44.82500
C  55.66300 21.56700 44.82300
C  53.68400 18.46800 43.94900
C  56.65600 19.05900 45.24500
O  56.37800 17.85500 45.19100
C  57.93900 19.42000 45.86400
N  55.99200 24.57700 45.08800
C  57.00600 23.69500 45.30700
C  58.24000 24.46400 45.69100
C  57.80900 25.96200 45.85600
C  56.34300 25.83800 45.38800
C  59.03300 23.76000 46.91700
C  58.78500 27.03700 45.14700
C  59.24900 28.22400 46.04300
N  53.41600 25.97900 44.69300
C  54.20700 27.08400 45.14600
C  53.24200 28.24100 45.17500
C  51.98900 27.75800 44.80100
C  52.13600 26.35600 44.46400
C  53.71700 29.62800 45.62500
C  50.56800 28.13100 44.66200
O  50.05200 29.22600 44.82900
C  49.87900 26.93300 43.96900
C  49.43900 27.36500 42.69800
O  50.11300 27.58600 41.70000
O  48.03500 27.34600 42.63400
C  47.51000 27.90500 41.39500
H  51.70000 20.27300 43.73800
H  57.72000 21.72400 45.41000
H  55.99000 27.92400 45.86400
H  48.79900 23.95800 43.79300
H  49.69400 21.47100 42.92000
H  49.74400 21.90400 45.89500
H  48.78800 20.67400 44.92200
H  48.31900 22.35500 45.23600
H  50.23300 23.21100 41.21400
H  49.89600 24.93100 41.47900
H  47.80800 24.95000 40.90100
H  47.55600 23.42200 41.74000
H  54.50000 17.79300 43.69300
H  52.98200 18.59000 43.12400
H  53.19200 18.12800 44.86100
H  58.66100 19.92900 45.22700
H  58.36900 18.49100 46.23900
H  57.59500 20.05900 46.67700
H  58.85100 24.39300 44.79100
H  57.73700 26.12000 46.93200
H  58.51800 22.93000 47.40200
H  59.32800 24.50000 47.66000
H  59.91200 23.39200 46.38700
H  58.43600 27.45700 44.20300
H  59.68300 26.50800 44.82800
H  58.89100 29.16200 45.61900
H  60.33400 28.28900 46.12300
H  58.83700 28.16900 47.05000
H  54.79500 29.68900 45.77200
H  53.18900 29.84400 46.55400
H  53.30500 30.38300 44.95600
H  48.96200 26.72000 44.51900
H  48.11200 27.68700 40.51300
H  47.42800 28.98400 41.52700
H  46.55100 27.40100 41.27900
Mg 6.58800 54.32700 41.41200
C  6.23200 50.81700 41.14600
C  9.72100 53.84900 39.84400
C  6.66600 57.50100 40.89800
C  3.19200 54.51200 42.15800
N  7.72500 52.50000 40.39300
C  7.40200 51.19800 40.48200
C  8.62100 50.37100 40.01800
C  9.81300 51.38500 39.97300
C  9.04800 52.64600 40.07200
C  10.95900 51.13400 40.96300
C  8.34200 49.49300 38.74900
C  7.15700 49.85700 37.80000
H  6.40700 48.79600 37.05900
N  7.98700 55.51900 40.51200
C  9.15500 55.17300 39.99900
C  9.98800 56.37800 39.87900
C  9.15700 57.50000 40.12000
C  7.88400 56.86000 40.55500
C  11.44200 56.42800 39.49100
C  9.57700 58.95900 40.05500
O  10.71700 59.31800 39.77100
C  8.60100 60.11400 40.30900
N  5.09500 55.73000 41.27400
C  5.41800 56.97900 41.26000
C  4.28100 57.92600 41.63600
C  3.09200 56.97300 41.63800
C  3.84800 55.63100 41.72000
C  4.54700 58.66200 42.99900
C  2.37000 57.02800 40.24700
C  0.80200 57.15300 40.36700
N  5.08600 53.00900 41.89500
C  3.84000 53.24100 42.34400
C  3.29300 52.01200 42.82200
C  4.21200 51.01100 42.43100
C  5.30000 51.70100 41.80700
C  2.01500 51.79300 43.54500
C  4.53600 49.61700 42.45100
O  3.88900 48.70900 42.97700
C  5.72500 49.40500 41.58700
C  5.29200 48.50800 40.45500
O  4.50200 48.79500 39.54600
O  5.92000 47.27900 40.61200
C  5.44100 46.12800 39.84000
H  10.69400 53.74100 39.36000
H  6.58700 58.57400 41.08200
H  2.16200 54.58700 42.51200
H  8.81800 49.72500 40.87300
H  10.28300 51.42700 38.99000
H  10.67600 50.32100 41.63100
H  11.12600 52.01000 41.59000
H  11.90200 50.88200 40.47900
H  8.20600 48.44000 38.99500
H  9.23600 49.66200 38.14800
H  7.65800 50.52200 37.09700
H  6.52800 50.57200 38.33000
H  11.90100 57.21400 38.89300
H  11.72100 55.45300 39.09000
H  12.06000 56.36800 40.38700
H  8.44000 60.12300 41.38700
H  7.70900 60.00400 39.69200
H  9.11400 61.01000 39.95800
H  4.12400 58.75900 40.95000
H  2.42500 56.99800 42.49900
H  5.62200 58.76900 43.14400
H  3.92500 58.32300 43.82800
H  4.23100 59.67200 42.73900
H  2.41100 55.99800 39.89300
H  2.75500 57.75200 39.52800
H  0.57700 58.21900 40.34300
H  0.48700 56.75500 41.33100
H  0.33500 56.71300 39.48600
H  1.43000 51.02300 43.04100
H  1.37600 52.67400 43.48800
H  2.37400 51.42200 44.50500
H  6.48300 48.97000 42.23800
H  6.07200 45.26800 40.06400
H  5.39100 46.21800 38.75500
H  4.48900 45.85700 40.29500

