158

Mg 25.07400 -7.46100 47.82400
C  26.79500 -4.95500 46.10900
C  22.49800 -7.18300 45.63800
C  23.70500 -10.10000 49.40800
C  28.14500 -8.15500 49.49900
N  24.75600 -6.04900 46.13000
C  25.60100 -5.17700 45.47900
C  24.93000 -4.45600 44.33200
C  23.59700 -5.29100 44.16800
C  23.51500 -6.18800 45.47200
C  22.30100 -4.43600 43.75200
C  25.89100 -4.21400 43.11400
C  26.12600 -2.72800 42.79800
H  25.54400 -2.39500 41.48100
N  23.29900 -8.47100 47.57500
C  22.39000 -8.21000 46.62200
C  21.30100 -9.12100 46.81100
C  21.59800 -9.91200 47.90900
C  22.88600 -9.47600 48.41600
C  20.05400 -9.17500 45.87600
C  20.69500 -10.93300 48.40700
O  19.59900 -11.10800 47.87200
C  21.00000 -11.61000 49.75400
N  25.79300 -8.89600 49.35100
C  25.01000 -9.84700 49.81800
C  25.79000 -10.87600 50.74500
C  27.27000 -10.36800 50.53200
C  27.03500 -9.06400 49.76900
C  25.47500 -10.60500 52.22500
C  28.21400 -11.29900 49.66500
C  29.64100 -11.48500 50.17100
N  27.05200 -6.73300 47.82000
C  28.13400 -7.05000 48.62700
C  29.26800 -6.13900 48.30500
C  28.77700 -5.26600 47.34300
C  27.43400 -5.68800 47.03800
C  30.55800 -6.12700 48.96500
C  29.10900 -4.07900 46.64400
O  30.12900 -3.35800 46.58400
C  27.86700 -3.86300 45.75300
C  27.46600 -2.49900 46.32200
O  26.66100 -2.45200 47.23700
O  28.08600 -1.49200 45.76600
C  27.55300 -0.11500 46.02900
H  21.75300 -7.11000 44.84200
H  23.40500 -10.97900 49.98100
H  29.07800 -8.25400 50.05700
H  24.56900 -3.50000 44.71000
H  23.85300 -5.93800 43.32900
H  21.47200 -4.96200 44.22400
H  22.26900 -4.36300 42.66500
H  22.38500 -3.46000 44.22800
H  25.46700 -4.70500 42.23800
H  26.86700 -4.68700 43.22300
H  27.17800 -2.47300 42.91900
H  25.65200 -2.04300 43.50200
H  19.29700 -8.82700 46.57900
H  19.87400 -10.20100 45.55500
H  20.07900 -8.41900 45.09200
H  21.68500 -12.43200 49.54800
H  20.06500 -12.02900 50.12800
H  21.36800 -10.89800 50.49300
H  25.50800 -11.89000 50.46300
H  27.73100 -10.14300 51.49400
H  26.12300 -9.84400 52.66000
H  25.47600 -11.55200 52.76400
H  24.50900 -10.13400 52.41100
H  28.30100 -10.86100 48.67100
H  27.73500 -12.27200 49.55000
H  29.95700 -12.49900 50.41600
H  29.77900 -11.05500 51.16300
H  30.38200 -11.10000 49.47000
H  30.45500 -5.96500 50.03800
H  31.28600 -5.48100 48.47500
H  31.01000 -7.08700 48.71800
H  28.15500 -3.62700 44.72900
H  26.47800 -0.15000 46.20700
H  27.67300 0.35100 45.05100
H  28.01600 0.40800 46.86500
Mg 7.66100 53.42900 41.10100
C  7.07700 49.97400 40.66100
C  10.75600 52.94700 40.00400
C  7.83600 56.75800 40.52000
C  4.20400 53.83600 41.86100
N  8.72100 51.62500 40.31300
C  8.40700 50.29600 40.27900
C  9.61500 49.39000 40.07000
C  10.76400 50.43800 40.16300
C  10.07300 51.80800 40.11300
C  11.78500 50.33100 41.33300
C  9.68400 48.30200 38.96100
C  9.77700 48.84200 37.55000
H  8.48300 48.62400 36.77100
N  9.17500 54.73400 40.43200
C  10.36200 54.27400 40.11000
C  11.27400 55.39900 39.93600
C  10.46100 56.60300 40.07400
C  9.10000 56.08100 40.41800
C  12.72800 55.26200 39.68400
C  10.99000 57.97600 39.84700
O  12.13600 58.23400 39.47200
C  10.04300 59.13000 39.86400
N  6.13100 55.04400 41.00500
C  6.52200 56.33700 40.89400
C  5.36100 57.27600 41.14200
C  4.21200 56.35300 41.71800
C  4.85700 54.99100 41.43900
C  5.76500 58.56500 42.02900
C  2.84900 56.59300 41.00800
C  1.74500 56.88300 42.06000
N  5.95200 52.17900 41.22400
C  4.64000 52.47700 41.64700
C  3.90100 51.24400 41.79700
C  4.83600 50.24400 41.43500
C  6.04200 50.84700 41.07600
C  2.51000 51.04000 42.26200
C  4.98800 48.74700 41.26300
O  4.21400 47.77200 41.42000
C  6.38600 48.58500 40.76200
C  6.23800 47.85100 39.54300
O  5.76600 48.42300 38.54800
O  6.68100 46.54500 39.57300
C  6.53100 45.79300 38.30600
H  11.76800 52.80700 39.61800
H  7.88500 57.82500 40.29300
H  3.12600 53.90500 42.01800
H  9.49400 48.75800 40.94900
H  11.36700 50.35200 39.25900
H  12.54400 49.85900 40.70900
H  11.48400 49.55200 42.03300
H  12.23200 51.22300 41.77100
H  8.80300 47.67200 39.07900
H  10.53500 47.63300 39.09300
H  10.69600 48.45600 37.10700
H  9.93500 49.91900 37.49300
H  12.98000 54.94000 38.67400
H  13.01300 54.45900 40.36500
H  13.31500 56.13700 39.96500
H  10.53500 60.06900 39.60900
H  9.64500 59.13400 40.87900
H  9.18500 58.80900 39.27400
H  5.04500 57.59700 40.15000
H  4.16500 56.40500 42.80600
H  6.60100 58.32800 42.68700
H  4.98000 58.74900 42.76200
H  5.97900 59.45500 41.43800
H  2.55800 55.64100 40.56400
H  2.91100 57.33100 40.20800
H  1.63000 57.93000 42.34300
H  1.89700 56.46200 43.05400
H  0.81200 56.45900 41.68700
H  2.38500 50.01500 42.61100
H  1.88900 51.27200 41.39700
H  2.12700 51.56000 43.14000
H  6.91800 47.94000 41.46100
H  5.95200 46.30900 37.54000
H  6.04800 44.86300 38.60500
H  7.49900 45.38500 38.01400

