158

Mg 1.69200 -1.82200 44.17300
C  4.98500 -0.62700 43.62800
C  0.50500 0.93500 42.34500
C  -1.33000 -3.06200 44.36200
C  3.12700 -4.80600 45.28000
N  2.63500 -0.21800 42.92100
C  3.99500 0.09300 42.86800
C  4.28700 1.26400 41.94800
C  2.83600 1.95600 41.78800
C  1.92400 0.88800 42.40900
C  2.77300 3.21000 42.66500
C  4.87000 0.75500 40.61700
C  5.99100 1.67100 40.02200
H  5.73500 2.25200 38.65700
N  -0.18600 -1.11900 43.43600
C  -0.47600 -0.01900 42.75700
C  -1.88400 0.12200 42.58500
C  -2.46100 -1.06200 43.10000
C  -1.33200 -1.81000 43.71200
C  -2.59000 1.21700 41.89600
C  -3.93200 -1.34400 43.02900
O  -4.74200 -0.54700 42.49800
C  -4.48000 -2.63600 43.58300
N  1.02200 -3.78600 44.47600
C  -0.30000 -3.96600 44.80900
C  -0.60600 -5.18700 45.47400
C  0.81500 -5.82500 45.74500
C  1.79900 -4.78400 45.05100
C  -1.41400 -5.05100 46.80500
C  1.01000 -7.23900 45.21400
C  0.97800 -7.32700 43.69000
N  3.71000 -2.59700 44.42200
C  4.05800 -3.83800 44.86200
C  5.46400 -3.87000 45.09000
C  5.95300 -2.59500 44.63900
C  4.80100 -1.93100 44.21400
C  6.22600 -5.03400 45.71400
C  7.08800 -1.71300 44.39500
O  8.28800 -1.84500 44.51000
C  6.46500 -0.37800 43.79000
C  6.78600 0.81300 44.57400
O  6.12000 1.20800 45.50800
O  7.92200 1.34900 44.06300
C  8.36200 2.69700 44.55700
H  0.16400 1.89700 41.95600
H  -2.28900 -3.54400 44.56300
H  3.71900 -5.62300 45.69900
H  4.94500 1.87300 42.56800
H  2.57900 2.13700 40.74500
H  3.75100 3.68800 42.72400
H  2.47400 3.13900 43.71100
H  2.08900 3.95500 42.26000
H  4.11400 0.44500 39.89600
H  5.48900 -0.07000 40.97100
H  6.93200 1.12100 40.04400
H  6.18800 2.53200 40.66000
H  -3.23200 0.77800 41.13200
H  -1.95700 1.92600 41.36200
H  -3.21300 1.75300 42.61200
H  -4.10100 -3.48100 43.00900
H  -5.56100 -2.67200 43.44700
H  -4.29800 -2.86000 44.63400
H  -1.13700 -5.72400 44.68700
H  1.04700 -5.96800 46.80000
H  -1.36300 -4.00200 47.09500
H  -0.93700 -5.67100 47.56400
H  -2.44500 -5.40400 46.76200
H  0.31800 -8.01900 45.53100
H  1.96400 -7.66100 45.52900
H  0.31900 -8.04500 43.20300
H  1.99700 -7.52700 43.35800
H  0.66400 -6.43500 43.14800
H  5.78500 -5.25300 46.68700
H  7.28700 -4.78100 45.72400
H  6.09300 -5.83400 44.98600
H  6.93700 -0.23400 42.81800
H  7.68200 3.35900 44.01900
H  9.41800 2.83500 44.32500
H  8.21500 2.75400 45.63500
Mg 5.16500 53.64600 41.89400
C  4.66800 50.24400 41.12300
C  7.99500 53.64500 40.16300
C  5.38900 57.09100 42.51000
C  1.94300 53.64300 43.30900
N  6.12900 52.11300 40.59500
C  5.77800 50.88000 40.49300
C  6.71800 50.18100 39.50400
C  7.98200 51.04700 39.69500
C  7.35900 52.39900 40.11000
C  9.07200 50.60000 40.67800
C  6.16100 50.05600 38.03200
C  6.74700 48.95700 37.16100
H  5.97000 48.34900 36.04700
N  6.51600 55.12900 41.46700
C  7.60900 54.90100 40.68200
C  8.46000 56.06000 40.61600
C  7.74300 57.08100 41.38500
C  6.46800 56.44200 41.83100
C  9.79200 56.18300 39.88200
C  8.27300 58.43000 41.74500
O  9.43500 58.76100 41.45300
C  7.45400 59.50200 42.56300
N  3.73800 55.33100 42.55700
C  4.12900 56.55000 42.86800
C  2.98100 57.26400 43.60600
C  1.93200 56.18000 43.80300
C  2.52000 54.96000 43.20600
C  3.56400 57.83400 44.89700
C  0.50600 56.62500 43.25700
C  -0.69500 56.64500 44.27100
N  3.55000 52.32800 42.03400
C  2.43400 52.41300 42.77600
C  1.79600 51.16700 42.81900
C  2.68200 50.26300 42.28900
C  3.69500 51.03500 41.74200
C  0.37400 50.82600 43.12100
C  2.95000 48.84900 42.02800
O  2.43100 47.80900 42.22600
C  4.33500 48.79600 41.24800
C  4.20400 48.09600 39.96900
O  3.43000 48.42800 39.08300
O  4.90100 46.98300 39.94300
C  4.47400 45.94000 38.98400
H  9.02000 53.66100 39.78400
H  5.50000 58.14200 42.78500
H  0.96000 53.77900 43.76400
H  6.91800 49.15700 39.82100
H  8.50000 51.16400 38.74300
H  8.88500 49.59100 41.04300
H  9.15700 51.29900 41.51000
H  10.00200 50.48500 40.12100
H  6.60600 50.97500 37.64900
H  5.08600 50.23200 37.99100
H  6.88900 48.10700 37.82800
H  7.67000 49.34500 36.73100
H  9.83800 57.15500 39.39300
H  9.90100 55.37200 39.16200
H  10.54600 56.16100 40.66900
H  8.13700 60.33700 42.71500
H  7.26200 59.22300 43.59900
H  6.55700 59.82900 42.03600
H  2.52300 58.11500 43.10100
H  1.79200 55.83800 44.82900
H  4.46700 57.25200 45.08200
H  2.98400 57.61000 45.79200
H  3.79800 58.89300 44.79000
H  0.20800 55.80900 42.59900
H  0.61700 57.47800 42.58700
H  -0.30700 56.29400 45.22700
H  -1.39400 55.87000 43.95500
H  -1.06100 57.63600 44.53700
H  -0.14400 51.28600 43.96300
H  0.12600 49.77800 43.28900
H  -0.17500 51.22500 42.26700
H  4.97600 48.25600 41.94500
H  5.34700 45.43100 38.57600
H  3.96100 46.32900 38.10500
H  3.95600 45.26100 39.66200

