158

Mg 16.52900 51.18000 25.92100
C  18.55000 49.63000 28.47000
C  14.20300 51.80400 28.14800
C  14.56500 52.39000 23.27100
C  18.78300 49.87500 23.56400
N  16.42300 50.63700 28.09100
C  17.37100 50.24900 28.94700
C  16.97600 50.53000 30.38600
C  15.46900 50.93800 30.27800
C  15.37900 51.18100 28.73900
C  14.37200 50.00800 30.82400
C  17.93100 51.59000 30.97100
C  17.71200 52.07000 32.42100
H  16.68900 51.32800 33.35000
N  14.70500 51.95800 25.72400
C  13.91300 52.17300 26.80600
C  12.76400 52.94200 26.38900
C  12.75800 53.04000 24.92300
C  14.05900 52.42500 24.59900
C  11.76100 53.38600 27.38300
C  11.78300 53.79000 24.06000
O  11.86300 53.74400 22.82500
C  10.61200 54.53400 24.61100
N  16.69900 51.12100 23.72200
C  15.87200 51.83000 22.92100
C  16.40600 51.77800 21.38500
C  17.76200 51.05100 21.48000
C  17.72800 50.62600 22.97400
C  15.41300 51.33700 20.23700
C  18.93800 51.97000 21.05800
C  19.42600 53.07700 21.99200
N  18.31700 50.05800 25.98800
C  19.15500 49.68200 24.90900
C  20.33300 49.11000 25.46000
C  20.18500 49.04000 26.85600
C  18.91700 49.57400 27.12900
C  21.47400 48.64100 24.67700
C  20.76600 48.59200 28.06800
O  21.75100 47.96600 28.29800
C  19.65600 48.94200 29.13400
C  19.16500 47.90100 30.05900
O  18.59300 46.84900 29.73700
O  19.54600 48.29100 31.35200
C  19.21000 47.47200 32.44400
H  13.52200 51.91500 28.99500
H  14.05200 52.74000 22.37300
H  19.52500 49.49500 22.85900
H  17.20400 49.64100 30.97400
H  15.28900 51.80700 30.91200
H  14.35200 49.10300 30.21700
H  13.40400 50.47900 30.65300
H  14.41500 49.76400 31.88500
H  17.80500 52.47200 30.34400
H  18.92800 51.14900 30.94800
H  17.49800 53.13500 32.32500
H  18.63500 51.96900 32.99200
H  11.89600 53.05400 28.41200
H  10.74400 53.15500 27.06500
H  11.75800 54.46900 27.50300
H  10.95600 55.13100 25.45500
H  10.08500 53.62100 24.88700
H  10.13400 55.14500 23.84400
H  16.58300 52.84500 21.24900
H  17.83700 50.10800 20.93700
H  15.11500 52.13200 19.55300
H  14.50600 50.97700 20.72200
H  15.71000 50.53200 19.56400
H  18.54800 52.59600 20.25500
H  19.74600 51.28700 20.79600
H  18.73500 53.14500 22.83200
H  19.66100 54.05300 21.56600
H  20.37600 52.75500 22.41800
H  21.85700 49.36000 23.95200
H  21.02100 47.79700 24.15600
H  22.24800 48.20400 25.30700
H  20.08400 49.80300 29.64700
H  19.14100 48.02700 33.38000
H  19.97200 46.72900 32.68100
H  18.31200 46.86900 32.30700
Mg -6.35100 25.48500 26.82200
C  -5.30000 27.37800 29.59300
C  -8.00100 23.45400 28.95900
C  -7.26500 23.61600 24.13100
C  -4.37900 27.49600 24.68000
N  -6.41000 25.34700 29.11300
C  -6.04100 26.25500 30.03200
C  -6.70300 26.01200 31.37300
C  -7.32000 24.61500 31.16500
C  -7.29600 24.48200 29.62200
C  -6.51700 23.46600 31.92000
C  -7.58100 27.15600 31.84200
C  -7.88300 27.19700 33.38000
H  -7.27100 26.01500 34.31600
N  -7.55900 23.77700 26.59000
C  -8.17900 23.08800 27.59700
C  -9.00400 22.10200 26.92900
C  -8.70900 22.07200 25.51300
C  -7.76100 23.15200 25.36200
C  -9.88600 21.26500 27.67200
C  -9.27900 21.15300 24.44100
O  -8.92000 21.07400 23.25700
C  -10.48400 20.31500 24.79800
N  -5.82300 25.42000 24.72500
C  -6.33700 24.57300 23.75300
C  -5.73700 24.80700 22.38800
C  -5.15300 26.23300 22.57300
C  -5.07000 26.41700 24.12800
C  -4.66400 23.72700 21.86800
C  -5.98700 27.38500 21.87000
C  -5.28000 28.00600 20.64700
N  -5.09200 27.10100 26.99200
C  -4.36100 27.87600 26.06400
C  -3.69300 28.97800 26.87300
C  -3.99800 28.80000 28.14200
C  -4.87400 27.67000 28.22300
C  -2.78900 30.11500 26.28100
C  -3.85600 29.42400 29.45700
O  -3.27700 30.46300 29.77300
C  -4.65700 28.47200 30.41300
C  -3.77000 27.98700 31.49900
O  -3.00200 27.03600 31.50800
O  -4.00000 28.78500 32.57200
C  -3.11500 28.59400 33.69000
H  -8.42000 22.68000 29.60500
H  -7.58500 22.93000 23.34400
H  -3.82500 28.11900 23.97400
H  -5.81400 25.86100 31.98500
H  -8.33800 24.49900 31.53600
H  -5.89400 23.02600 31.14100
H  -7.23600 22.69400 32.19400
H  -5.96700 23.76900 32.81100
H  -8.47700 27.09200 31.22500
H  -7.18300 28.08800 31.44200
H  -8.96400 27.06700 33.40800
H  -7.78200 28.21300 33.76400
H  -9.83000 20.24300 27.29900
H  -10.94000 21.54400 27.64400
H  -9.58000 21.19800 28.71600
H  -11.11400 20.81700 25.53300
H  -10.34200 19.29300 25.15100
H  -11.11600 20.19800 23.91800
H  -6.51400 24.84600 21.62500
H  -4.14500 26.27000 22.16200
H  -3.81400 24.30400 21.50500
H  -5.20300 23.20600 21.07600
H  -4.35300 23.00700 22.62500
H  -6.30200 28.15300 22.57600
H  -6.84000 26.89100 21.40500
H  -5.89400 27.87900 19.75500
H  -4.27600 27.64000 20.43200
H  -5.24400 29.07500 20.85600
H  -1.82900 29.70200 25.97200
H  -2.59700 30.83300 27.07800
H  -3.38800 30.48700 25.45000
H  -5.51000 29.04700 30.77300
H  -3.23700 29.46900 34.32800
H  -2.06400 28.53600 33.40700
H  -3.45600 27.73600 34.26900

