158

Mg 24.08300 -4.68400 45.58600
C  26.24700 -2.40100 44.23200
C  21.51100 -3.54400 43.37300
C  22.23800 -7.46000 46.15400
C  26.67000 -5.99300 47.43500
N  24.01200 -3.27900 43.90800
C  25.06500 -2.37200 43.56000
C  24.65000 -1.33400 42.53100
C  23.09500 -1.59800 42.47200
C  22.85100 -2.89200 43.28600
C  22.20000 -0.39700 42.85200
C  25.40200 -1.54700 41.15700
C  25.24800 -0.46600 40.16600
H  24.59900 -0.79500 38.76900
N  22.16000 -5.39200 44.88700
C  21.30100 -4.79400 43.99000
C  20.11900 -5.53000 43.82300
C  20.32700 -6.73200 44.62200
C  21.63100 -6.59200 45.30800
C  18.88300 -5.05400 42.89000
C  19.24800 -7.83900 44.70200
O  18.10200 -7.79000 44.16200
C  19.42400 -9.11100 45.53400
N  24.48500 -6.55700 46.55100
C  23.49600 -7.45100 46.78200
C  23.98400 -8.64200 47.60600
C  25.42400 -8.02000 48.19300
C  25.49400 -6.72000 47.41400
C  22.95200 -8.98200 48.69600
C  26.65400 -8.96100 48.01500
C  26.49600 -10.44100 48.44800
N  26.01600 -4.26500 45.92100
C  26.93700 -4.90000 46.65900
C  28.16200 -4.13300 46.64200
C  27.89800 -3.08700 45.75400
C  26.60600 -3.33400 45.23800
C  29.41300 -4.46000 47.34900
C  28.45700 -1.86700 45.09900
O  29.49900 -1.26400 45.19600
C  27.38600 -1.47200 44.05400
C  27.23500 0.00500 44.08900
O  26.74600 0.55400 45.06400
O  27.71300 0.70600 42.97900
C  27.50200 2.13900 42.93800
H  20.69700 -3.22400 42.72000
H  21.64100 -8.34600 46.38000
H  27.62800 -6.23300 47.90000
H  24.80300 -0.29900 42.83600
H  22.86300 -1.84400 41.43600
H  21.69800 -0.50800 43.81300
H  21.44200 -0.35200 42.07000
H  22.66900 0.58700 42.83200
H  25.06600 -2.44500 40.63800
H  26.42400 -1.73900 41.48300
H  26.27200 -0.15300 39.96400
H  24.74600 0.31800 40.73400
H  18.23900 -5.78300 42.39800
H  19.23800 -4.36700 42.12100
H  18.15000 -4.56400 43.53000
H  18.59200 -9.80800 45.43200
H  19.54100 -8.97800 46.61000
H  20.30400 -9.68800 45.25300
H  24.13800 -9.54000 47.00600
H  25.44300 -7.80300 49.26100
H  23.46000 -8.68600 49.61400
H  22.69800 -10.03500 48.56900
H  21.99800 -8.47100 48.56500
H  27.49200 -8.58900 48.60500
H  26.89400 -8.77500 46.96800
H  25.49800 -10.69200 48.80700
H  27.27100 -10.68700 49.17500
H  26.58200 -11.10300 47.58600
H  29.25000 -4.68000 48.40400
H  30.16500 -3.67900 47.24600
H  29.77400 -5.37000 46.86900
H  27.84300 -1.65400 43.08100
H  26.46900 2.46600 42.81900
H  27.94500 2.55500 42.03300
H  27.95500 2.66300 43.77900
Mg -4.99200 25.89300 25.67100
C  -3.82400 27.41200 28.66400
C  -6.76700 23.70000 27.62100
C  -5.75200 24.31100 22.88400
C  -2.60700 27.93800 23.90700
N  -5.23500 25.66400 27.90200
C  -4.74300 26.39400 28.97300
C  -5.29400 25.88800 30.31000
C  -6.07800 24.59600 29.90200
C  -5.96100 24.56500 28.36000
C  -5.64000 23.31700 30.59400
C  -6.22700 26.96600 31.05900
C  -5.86300 27.34500 32.57400
H  -5.35300 26.13300 33.41100
N  -6.08100 24.27800 25.31400
C  -6.81900 23.53600 26.24100
C  -7.63400 22.63000 25.49800
C  -7.45700 22.76200 24.09500
C  -6.40800 23.86600 24.00700
C  -8.58200 21.61900 26.17900
C  -8.16700 22.11100 22.92800
O  -7.79000 22.22400 21.74800
C  -9.52600 21.40000 23.14100
N  -4.20900 26.12200 23.68100
C  -4.72700 25.32600 22.70100
C  -4.01700 25.65700 21.33200
C  -3.27900 27.02000 21.62400
C  -3.37900 27.04800 23.14300
C  -3.13800 24.50300 20.84000
C  -3.94700 28.19500 20.90400
C  -2.97400 28.82500 19.89000
N  -3.54300 27.43300 26.16300
C  -2.69200 28.13000 25.36400
C  -1.89100 29.03300 26.14800
C  -2.35000 28.81800 27.42600
C  -3.35700 27.80200 27.40300
C  -0.83900 30.13400 25.70400
C  -2.15800 29.24300 28.75600
O  -1.44900 30.05500 29.24200
C  -3.12200 28.36900 29.59800
C  -2.29600 27.64200 30.56800
O  -1.49900 26.77400 30.36300
O  -2.60500 28.09300 31.91000
C  -1.62800 27.61300 32.87600
H  -7.29600 23.02400 28.29600
H  -5.98400 23.88600 21.90600
H  -1.89600 28.65100 23.48400
H  -4.40900 25.65200 30.90100
H  -7.12900 24.73600 30.15300
H  -6.49400 22.84600 31.08200
H  -4.85300 23.54300 31.31400
H  -5.21500 22.69200 29.80900
H  -7.24600 26.58000 31.09300
H  -6.29200 27.90000 30.50100
H  -6.83600 27.71400 32.89800
H  -5.13400 28.13900 32.41100
H  -9.55800 22.10400 26.20700
H  -8.24500 21.30300 27.16600
H  -8.66300 20.68100 25.63000
H  -9.28300 20.35200 23.31500
H  -9.99100 21.46700 22.15700
H  -10.16900 21.94400 23.83300
H  -4.78200 25.75800 20.56300
H  -2.24200 26.88000 21.31700
H  -2.09700 24.81800 20.90400
H  -3.47700 24.22400 19.84200
H  -3.27500 23.71800 21.58400
H  -4.26100 28.89900 21.67500
H  -4.81800 27.85400 20.34400
H  -3.31000 28.48200 18.91100
H  -1.92100 28.55400 19.96000
H  -3.00300 29.91100 19.98200
H  -0.19700 30.51500 26.49800
H  -1.31900 30.94000 25.14900
H  -0.15700 29.67400 24.99000
H  -3.83400 28.98000 30.15200
H  -2.02200 26.68700 33.29500
H  -1.65800 28.29800 33.72300
H  -0.57600 27.49700 32.61400

