158

Mg 24.40100 -5.30100 46.30200
C  26.51700 -2.98200 44.36800
C  21.81800 -4.49200 44.28700
C  23.03700 -8.15400 47.28700
C  27.47700 -6.28000 47.88600
N  24.27400 -4.09000 44.43100
C  25.16800 -3.07800 44.00800
C  24.53100 -2.34900 42.85800
C  23.02200 -2.47000 43.21000
C  22.99800 -3.73100 44.00800
C  22.37800 -1.28400 44.06300
C  24.93100 -2.82600 41.39500
C  25.57800 -1.72200 40.49100
H  25.43000 -1.83800 38.96500
N  22.59400 -6.07400 45.99300
C  21.62700 -5.62200 45.09900
C  20.52500 -6.58900 45.08100
C  20.82800 -7.61700 46.03700
C  22.17800 -7.30500 46.51000
C  19.41000 -6.59200 44.04500
C  19.98800 -8.84800 46.33300
O  18.87800 -8.97100 45.79100
C  20.35700 -9.91600 47.25900
N  25.17400 -6.96300 47.45900
C  24.36800 -7.99300 47.72600
C  24.98700 -8.94600 48.75600
C  26.33600 -8.22000 49.17000
C  26.33500 -7.07900 48.12300
C  24.05200 -9.53500 49.88000
C  27.58500 -9.20900 49.11200
C  28.58000 -9.08000 50.25700
N  26.53600 -4.67500 46.37200
C  27.57600 -5.17600 47.06800
C  28.77800 -4.36600 46.79700
C  28.38400 -3.53400 45.77400
C  27.05000 -3.77400 45.50900
C  30.13200 -4.56800 47.49900
C  28.74600 -2.41600 44.91100
O  29.76600 -1.78200 44.90500
C  27.64300 -2.11900 43.83900
C  27.39200 -0.67100 43.99800
O  27.17800 -0.03400 45.04000
O  27.49200 -0.07100 42.73600
C  27.27500 1.40900 42.74200
H  20.96700 -4.09400 43.72900
H  22.70000 -9.16200 47.53900
H  28.29700 -6.39200 48.59900
H  24.67000 -1.26800 42.84700
H  22.41700 -2.51200 42.30400
H  23.10400 -0.53200 44.36900
H  21.78700 -1.62800 44.91200
H  21.62900 -0.79400 43.44100
H  24.20700 -3.42300 40.84200
H  25.69100 -3.55100 41.68700
H  26.65100 -1.65800 40.67400
H  25.10900 -0.85200 40.95000
H  19.60100 -7.24900 43.19700
H  19.25100 -5.57300 43.69000
H  18.50100 -7.00300 44.48400
H  19.58800 -10.68700 47.29900
H  20.49800 -9.48900 48.25200
H  21.22700 -10.42300 46.84100
H  25.25300 -9.83800 48.18900
H  26.26500 -7.69200 50.12100
H  24.56600 -9.55100 50.84100
H  23.92300 -10.60600 49.72100
H  23.12600 -8.96100 49.92800
H  28.10100 -9.18000 48.15200
H  27.05000 -10.15500 49.20300
H  28.33300 -9.85800 50.97900
H  28.53200 -8.09600 50.72200
H  29.60000 -9.30600 49.94500
H  30.21000 -4.11200 48.48600
H  30.93200 -4.13700 46.89700
H  30.24800 -5.64500 47.61400
H  28.05300 -2.38800 42.86600
H  26.46100 1.58900 43.44400
H  27.04500 1.77800 41.74200
H  28.21500 1.88900 43.01200
Mg -11.06800 16.87400 41.27700
C  -7.58600 16.17600 41.86900
C  -10.14200 20.18000 41.10800
C  -14.16400 17.58300 40.27700
C  -11.66100 13.43900 41.06900
N  -8.99100 17.97000 41.28800
C  -7.77000 17.48800 41.48500
C  -6.74100 18.54600 41.34400
C  -7.63300 19.83600 41.67200
C  -9.03000 19.33500 41.30400
C  -7.52400 20.31000 43.13000
C  -6.25100 18.54000 39.82900
C  -5.00900 17.77300 39.47700
H  -5.05800 16.36900 38.82100
N  -12.05100 18.64200 40.73100
C  -11.43600 19.86800 40.63100
C  -12.44000 20.80300 40.07800
C  -13.66400 20.08300 39.93000
C  -13.36500 18.69500 40.34200
C  -12.03600 22.21400 39.75900
C  -14.92700 20.71700 39.33100
O  -15.01000 21.89900 39.07500
C  -16.23900 19.96500 39.18300
N  -12.64900 15.69800 40.77600
C  -13.84800 16.24100 40.54800
C  -14.98300 15.17700 40.73300
C  -14.21000 13.77700 40.73800
C  -12.70800 14.34600 40.84500
C  -15.75600 15.45300 42.01300
C  -14.41700 12.89400 39.46200
C  -14.76600 11.42700 39.66000
N  -9.86400 15.09600 41.55600
C  -10.27700 13.77000 41.46700
C  -9.14300 12.94600 41.74800
C  -8.10000 13.85500 42.07000
C  -8.56900 15.14400 41.78100
C  -9.17300 11.46100 41.85700
C  -6.78600 13.97200 42.50500
O  -6.03400 13.05100 42.79100
C  -6.38600 15.55900 42.51400
C  -6.34300 16.01500 43.96400
O  -7.24800 16.59600 44.52800
O  -5.15400 15.72800 44.54600
C  -4.94200 16.18400 45.90400
H  -9.94100 21.25000 41.19000
H  -15.22100 17.63500 40.00700
H  -11.81900 12.36100 41.00500
H  -5.83200 18.41700 41.93200
H  -7.61800 20.59500 40.89000
H  -6.69500 19.83000 43.64900
H  -8.43300 20.27500 43.73000
H  -7.32700 21.36900 42.96700
H  -6.08300 19.52600 39.39400
H  -6.95400 17.99300 39.20100
H  -4.51800 17.66700 40.44500
H  -4.31900 18.38700 38.89900
H  -11.56600 22.20300 38.77500
H  -11.39400 22.65400 40.52100
H  -12.82800 22.96300 39.75600
H  -16.11700 19.01500 38.66400
H  -16.72300 20.64300 38.48000
H  -16.67500 19.79300 40.16700
H  -15.62200 15.30300 39.85800
H  -14.44200 13.28800 41.68400
H  -16.29800 14.59200 42.40500
H  -16.60800 16.05600 41.70100
H  -15.22100 15.97400 42.80700
H  -13.49200 13.01900 38.89900
H  -15.22800 13.27800 38.84400
H  -13.93000 10.78200 39.39100
H  -15.59100 11.11500 39.01900
H  -15.13900 11.11800 40.63700
H  -8.37100 11.25600 42.56500
H  -9.00500 10.85500 40.96600
H  -10.11100 11.24900 42.37100
H  -5.37000 15.78600 42.19200
H  -4.43000 17.14600 45.94600
H  -4.21100 15.48100 46.30100
H  -5.82000 16.23000 46.54800

