158

Mg -10.77000 17.74700 41.47000
C  -7.36400 17.06100 41.44100
C  -10.03600 21.03200 40.66500
C  -14.01200 18.31400 41.13900
C  -11.27300 14.35100 41.37100
N  -8.85400 18.91000 41.19700
C  -7.60500 18.44600 41.21100
C  -6.57300 19.59400 40.87100
C  -7.50600 20.87900 41.12000
C  -8.90000 20.26500 41.01500
C  -7.28900 21.70300 42.42800
C  -6.16400 19.35800 39.40800
C  -4.68500 18.94900 39.17400
H  -4.41100 17.91000 38.12000
N  -11.92000 19.45300 40.99600
C  -11.40300 20.69200 40.68900
C  -12.52100 21.59600 40.49600
C  -13.70000 20.86900 40.76400
C  -13.24000 19.49500 41.04300
C  -12.33500 23.07800 40.01200
C  -15.14000 21.43900 40.60900
O  -15.34200 22.59700 40.40700
C  -16.38200 20.52500 40.76100
N  -12.41800 16.53100 40.93200
C  -13.66000 16.97100 41.08500
C  -14.70900 15.84100 41.17300
C  -13.79500 14.53800 41.04100
C  -12.37700 15.19400 41.19900
C  -15.59700 15.90100 42.48000
C  -13.85800 13.73100 39.74900
C  -13.80100 12.19700 39.80100
N  -9.64000 16.01300 41.45600
C  -9.94300 14.70800 41.38600
C  -8.79400 13.92100 41.51000
C  -7.74300 14.74500 41.50800
C  -8.31000 16.03300 41.50700
C  -8.68100 12.39100 41.60800
C  -6.31100 14.80900 41.53500
O  -5.45400 13.91500 41.50200
C  -6.02700 16.37400 41.47100
C  -5.28900 16.75900 42.74700
O  -4.11300 16.58900 42.91600
O  -6.15000 17.04400 43.80000
C  -5.53600 16.88700 45.12700
H  -9.78300 22.05900 40.39300
H  -15.09100 18.45000 41.04200
H  -11.47000 13.27700 41.38900
H  -5.80100 19.47800 41.63200
H  -7.30800 21.59400 40.32200
H  -6.26400 21.72600 42.79900
H  -7.97000 21.27600 43.16500
H  -7.67100 22.70200 42.21600
H  -6.27400 20.23400 38.76900
H  -6.89000 18.64400 39.01900
H  -4.30300 18.77600 40.18000
H  -4.23200 19.83700 38.73200
H  -12.59900 23.70100 40.86600
H  -13.02000 23.38400 39.22100
H  -11.30500 23.27100 39.71300
H  -16.15900 19.71100 40.07200
H  -17.33900 20.95300 40.46000
H  -16.48400 20.15400 41.78000
H  -15.39300 15.91100 40.32700
H  -14.00300 13.89600 41.89700
H  -15.68200 14.89500 42.89000
H  -16.61900 16.17900 42.22200
H  -15.10500 16.70200 43.03200
H  -13.13000 14.06300 39.00900
H  -14.82800 13.81600 39.25900
H  -14.81500 11.79800 39.81000
H  -13.19600 11.90500 40.65900
H  -13.40300 11.87500 38.83800
H  -9.63100 11.86800 41.49500
H  -8.08200 12.02500 42.44200
H  -8.14500 12.18300 40.68200
H  -5.44300 16.76900 40.64000
H  -6.19800 17.37500 45.84200
H  -4.62700 17.47200 45.26900
H  -5.34700 15.83900 45.36100
Mg -5.62500 25.69700 25.94500
C  -4.36300 27.26400 28.90800
C  -7.38900 23.50100 27.88500
C  -6.29500 23.93900 23.26200
C  -3.30400 27.63300 24.26300
N  -5.75200 25.33700 28.09900
C  -5.22800 26.18300 29.18000
C  -5.81900 25.70000 30.48600
C  -6.44700 24.31000 30.10100
C  -6.60300 24.37700 28.61700
C  -5.48800 23.09000 30.45500
C  -6.77600 26.73900 31.03000
C  -6.86100 27.02800 32.55300
H  -6.27200 26.02900 33.57900
N  -6.78300 24.08700 25.55600
C  -7.48500 23.28200 26.48300
C  -8.12700 22.23200 25.80200
C  -7.85400 22.35800 24.39300
C  -6.96200 23.52800 24.32600
C  -8.86300 21.06200 26.46300
C  -8.21600 21.50300 23.13800
O  -7.80600 21.63300 22.02200
C  -9.29200 20.47000 23.29800
N  -4.87400 25.70700 24.11100
C  -5.24600 24.84600 23.11800
C  -4.54100 25.12800 21.80300
C  -3.57900 26.31100 22.09400
C  -3.94600 26.62400 23.57100
C  -3.84800 23.78500 21.21200
C  -3.58600 27.44000 20.97500
C  -4.64800 28.55400 21.08400
N  -4.19100 27.27200 26.43200
C  -3.40300 27.98500 25.57500
C  -2.77300 29.05100 26.29900
C  -3.07200 28.77900 27.66300
C  -3.93300 27.66800 27.66000
C  -1.96200 30.16500 25.78400
C  -2.84400 29.11000 29.04400
O  -2.19100 30.02200 29.47500
C  -3.63500 28.14200 29.94000
C  -2.66800 27.44200 30.79600
O  -1.50200 27.25000 30.47600
O  -3.16000 27.36600 32.11700
C  -2.11900 27.31000 33.18500
H  -7.78800 22.72500 28.54100
H  -6.62100 23.58400 22.28200
H  -2.50800 28.12900 23.70400
H  -5.07000 25.60400 31.27200
H  -7.41300 24.06600 30.54300
H  -4.65600 23.46900 31.04800
H  -5.05100 22.72700 29.52500
H  -5.96800 22.30700 31.04200
H  -7.77400 26.34900 30.83000
H  -6.71300 27.69300 30.50600
H  -7.89600 27.10700 32.88300
H  -6.31500 27.95800 32.70900
H  -9.84600 21.53100 26.46500
H  -8.57600 20.89500 27.50200
H  -9.01800 20.08500 26.00400
H  -9.92700 20.43400 22.41200
H  -9.99900 20.77600 24.06900
H  -8.84800 19.48300 23.42200
H  -5.31900 25.50100 21.13700
H  -2.56500 25.92600 22.19700
H  -4.21600 23.70100 20.18900
H  -4.25700 22.90200 21.70400
H  -2.77000 23.92800 21.27900
H  -3.75300 27.01500 19.98500
H  -2.57500 27.84600 20.95700
H  -4.93600 28.86100 22.09000
H  -5.46700 28.22400 20.44500
H  -4.19100 29.40100 20.57300
H  -1.63100 30.88300 26.53400
H  -2.72800 30.68200 25.20500
H  -1.13900 29.96600 25.09700
H  -4.36800 28.73500 30.48800
H  -2.10400 26.36500 33.72800
H  -2.36700 28.11200 33.88000
H  -1.18900 27.59000 32.69100

