158

Mg 6.04700 54.29000 41.40000
C  5.55000 50.73700 41.22700
C  9.25700 53.60300 40.30400
C  6.40900 57.40100 41.14300
C  2.61900 54.60100 42.06400
N  7.15100 52.35600 40.55500
C  6.74500 51.06900 40.64000
C  7.78100 50.12600 40.12800
C  9.06500 50.97700 40.27200
C  8.44800 52.40500 40.37000
C  10.01500 50.53600 41.45400
C  7.42600 49.65000 38.67100
C  6.82700 50.63300 37.63400
H  5.89600 50.00700 36.55500
N  7.67100 55.39900 40.85200
C  8.90000 54.95800 40.44400
C  9.70300 56.15800 40.28000
C  8.95000 57.27900 40.51900
C  7.58700 56.72100 40.79600
C  11.14800 56.09100 39.85900
C  9.45700 58.77200 40.60200
O  10.65500 59.00000 40.39200
C  8.51100 59.91200 40.95100
N  4.65500 55.73500 41.37500
C  5.10400 57.00400 41.44000
C  4.03200 58.01200 41.89200
C  2.80700 57.12900 41.79700
C  3.36800 55.66500 41.76600
C  4.33900 58.60800 43.37400
C  1.82100 57.41200 40.68900
C  1.93600 56.77100 39.30500
N  4.41300 52.94900 41.63500
C  3.12700 53.26000 42.07200
C  2.49100 51.97000 42.47400
C  3.40000 50.99500 42.05900
C  4.55200 51.64200 41.65300
C  1.05300 51.77000 42.96700
C  3.62300 49.60700 42.13900
O  2.90700 48.64900 42.42600
C  5.03000 49.37600 41.50100
C  4.75000 48.50200 40.33500
O  4.05000 48.88900 39.40200
O  5.23400 47.24600 40.63000
C  4.46700 46.24400 39.83500
H  10.30000 53.28300 40.26200
H  6.45600 58.47000 41.36300
H  1.56700 54.74900 42.31800
H  7.84800 49.22600 40.74000
H  9.56600 50.86000 39.31100
H  11.02000 50.40100 41.05400
H  9.66100 49.55000 41.75500
H  10.01000 51.27300 42.25800
H  6.73600 48.80900 38.75200
H  8.35300 49.34400 38.18600
H  7.62600 51.05000 37.02000
H  6.33800 51.44300 38.17500
H  11.52800 55.06900 39.85100
H  11.59500 56.60500 40.71000
H  11.36800 56.62100 38.93200
H  9.02900 60.84700 41.16500
H  8.07200 59.64900 41.91400
H  7.74500 60.05300 40.18900
H  4.01600 58.81500 41.15500
H  2.19900 57.04300 42.69800
H  4.86000 57.91700 44.03700
H  3.35400 58.84600 43.77600
H  4.84300 59.57400 43.33300
H  1.74700 58.48400 40.50800
H  0.87900 57.14600 41.16800
H  1.05600 56.14400 39.16800
H  2.92600 56.33500 39.17300
H  1.87900 57.57600 38.57300
H  1.05600 50.71500 43.24200
H  0.41100 51.78000 42.08600
H  0.66200 52.37800 43.78200
H  5.46500 48.80700 42.32300
H  4.94300 46.24900 38.85400
H  3.41400 46.52300 39.82900
H  4.69200 45.29700 40.32500
Mg -5.86300 25.76300 26.81100
C  -4.74000 27.33300 29.84300
C  -7.50100 23.59100 28.78300
C  -6.49000 24.00000 24.03000
C  -3.46400 27.67800 25.09200
N  -5.95700 25.46800 29.17800
C  -5.56400 26.25900 30.18700
C  -6.15500 25.86800 31.49500
C  -6.84300 24.51900 31.06900
C  -6.80500 24.50900 29.55300
C  -6.31700 23.21800 31.64900
C  -7.13500 26.91300 32.09800
C  -7.02100 27.30100 33.62000
H  -6.43500 26.19400 34.49800
N  -7.02600 24.10800 26.36900
C  -7.59900 23.30500 27.32300
C  -8.35600 22.33000 26.63200
C  -8.00900 22.40300 25.22300
C  -7.11600 23.54100 25.14500
C  -9.15200 21.21200 27.40900
C  -8.30500 21.49300 24.08500
O  -7.80700 21.62200 22.97800
C  -9.33400 20.41600 24.26800
N  -5.08500 25.88700 24.83100
C  -5.50100 24.98500 23.88500
C  -4.62100 25.19900 22.61000
C  -3.80900 26.49400 22.88300
C  -4.06400 26.62200 24.38100
C  -3.71700 24.03000 22.11600
C  -4.21700 27.63000 21.94900
C  -5.34100 28.66600 22.49100
N  -4.48300 27.27600 27.28400
C  -3.63300 28.00900 26.46500
C  -2.93400 28.96600 27.27700
C  -3.44800 28.82400 28.58700
C  -4.27300 27.76000 28.54300
C  -1.88900 29.82600 26.62000
C  -3.44300 29.33900 29.96400
O  -2.99600 30.33600 30.46500
C  -4.24700 28.34700 30.82700
C  -3.26400 27.83200 31.83700
O  -2.45700 26.93200 31.67200
O  -3.44400 28.47100 33.05000
C  -2.46000 28.22000 34.08600
H  -8.14100 22.92700 29.36700
H  -6.51900 23.31000 23.18400
H  -2.78900 28.22200 24.42900
H  -5.28500 25.55100 32.07000
H  -7.90400 24.60900 31.30300
H  -5.46400 22.81800 31.09900
H  -7.14200 22.50700 31.60500
H  -6.08600 23.44300 32.69000
H  -8.15500 26.64000 31.82800
H  -6.90700 27.84700 31.58400
H  -8.01800 27.63800 33.90600
H  -6.40700 28.19400 33.73300
H  -10.14900 21.13100 26.97500
H  -9.34800 21.42300 28.46000
H  -8.59600 20.27400 27.40300
H  -9.15000 19.75100 25.11200
H  -9.32300 19.84400 23.34000
H  -10.34900 20.81200 24.24500
H  -5.43900 25.32900 21.90100
H  -2.78500 26.21700 22.63100
H  -2.65100 24.11700 22.32600
H  -3.99200 23.75800 21.09700
H  -3.95700 23.16800 22.73800
H  -4.61600 27.23400 21.01500
H  -3.37800 28.29300 21.73800
H  -5.95400 29.04200 21.67100
H  -4.94700 29.48200 23.09600
H  -6.12200 28.24100 23.12100
H  -2.33100 30.31000 25.75000
H  -1.03000 29.19400 26.39200
H  -1.55200 30.59200 27.31800
H  -5.05400 28.91100 31.29400
H  -2.91700 28.23900 35.07600
H  -1.55800 28.80400 33.90100
H  -2.19700 27.16200 34.06800

