158

Mg 43.35900 3.76300 47.91700
C  40.89900 6.12800 47.19700
C  40.99500 1.23000 47.53300
C  45.80500 1.26500 48.02600
C  45.76900 6.23400 47.95100
N  41.23800 3.74300 47.26500
C  40.35400 4.84500 47.24100
C  38.85100 4.39300 47.15400
C  39.00100 2.85500 47.50300
C  40.47500 2.57200 47.38900
C  38.24700 2.31900 48.71300
C  38.31100 4.77300 45.73100
C  36.96400 5.53900 45.62700
H  36.82900 6.51600 44.53600
N  43.39000 1.62400 47.82300
C  42.29900 0.80900 47.62800
C  42.64800 -0.54700 47.56000
C  44.04800 -0.58800 47.66600
C  44.51800 0.78900 47.86000
C  41.68100 -1.69000 47.24900
C  44.88200 -1.81200 47.58000
O  44.40100 -2.86500 47.24200
C  46.41900 -1.88200 47.84700
N  45.52000 3.73300 47.73900
C  46.25700 2.60300 47.98400
C  47.77800 2.92000 48.04800
C  47.69200 4.45600 48.33000
C  46.25300 4.85200 47.94900
C  48.68000 2.12900 49.14000
C  48.74300 5.37600 47.51300
C  49.97000 5.91200 48.28300
N  43.39100 5.73900 47.65700
C  44.46200 6.64900 47.71000
C  43.94500 7.96300 47.61100
C  42.60100 7.77800 47.32600
C  42.26300 6.39100 47.34400
C  44.61000 9.26500 47.58800
C  41.27900 8.52800 47.16500
O  41.00400 9.65500 47.32600
C  40.19600 7.45600 46.90300
C  39.04100 7.76900 47.89100
O  39.19700 7.61800 49.10500
O  37.97500 8.43000 47.22400
C  36.80700 8.61600 48.08600
H  40.14600 0.54500 47.48500
H  46.55200 0.46900 47.98400
H  46.55200 6.89800 48.32300
H  38.32800 4.97900 47.91000
H  38.48300 2.33800 46.69500
H  37.86800 3.14700 49.31200
H  38.84400 1.65500 49.33700
H  37.47500 1.59100 48.46300
H  38.38500 3.84400 45.16600
H  39.08000 5.38100 45.25400
H  36.77600 5.99300 46.60100
H  36.21800 4.75100 45.52900
H  40.62700 -1.43800 47.36400
H  41.93800 -2.50100 47.93100
H  41.81800 -2.15400 46.27300
H  46.90700 -1.37700 47.01200
H  46.69900 -2.93500 47.83000
H  46.58300 -1.55500 48.87400
H  48.14600 2.76800 47.03400
H  47.72600 4.63600 49.40500
H  48.18000 1.38700 49.76200
H  49.20500 2.76100 49.85600
H  49.39500 1.58100 48.52500
H  48.26100 6.28000 47.14000
H  49.11200 4.87500 46.61800
H  50.93900 5.41600 48.22000
H  49.78200 5.82600 49.35300
H  50.06900 6.92100 47.88300
H  45.05600 9.35300 48.57800
H  43.99600 10.13000 47.33800
H  45.39600 9.16000 46.83900
H  39.82400 7.55600 45.88300
H  35.97900 8.17900 47.52900
H  36.74200 9.68800 48.27100
H  36.87100 8.18000 49.08300
Mg 46.95100 34.75300 26.71600
C  45.20900 33.27700 29.47800
C  47.28300 37.57700 28.69900
C  48.07500 36.37000 24.05600
C  46.45800 31.90200 24.81200
N  46.42500 35.29900 29.05600
C  45.64200 34.58600 29.89500
C  45.29800 35.38700 31.13500
C  45.94600 36.84600 30.80400
C  46.52400 36.60300 29.40800
C  44.95700 38.10600 30.85900
C  45.91700 34.80100 32.43200
C  45.84400 35.71000 33.66200
H  47.07000 36.28800 34.20900
N  47.59300 36.69200 26.47800
C  47.77700 37.65500 27.41800
C  48.51900 38.77200 26.82100
C  48.80300 38.32700 25.51200
C  48.11400 37.11900 25.25800
C  48.82500 39.99100 27.62800
C  49.79300 39.02800 24.53600
O  49.99100 38.57700 23.34900
C  50.53900 40.16900 25.04100
N  47.16900 34.23200 24.69400
C  47.66400 35.09000 23.78100
C  47.70200 34.35800 22.34200
C  47.51200 32.79300 22.67100
C  47.03200 32.93200 24.17900
C  46.60800 35.00300 21.43800
C  48.67700 31.82400 22.49100
C  49.86600 31.84400 23.45100
N  46.08300 32.96900 26.97100
C  46.02800 31.87400 26.18200
C  45.32300 30.75700 26.90400
C  44.91700 31.31100 28.09000
C  45.46700 32.62000 28.16900
C  44.86400 29.46100 26.27700
C  44.23200 31.03400 29.30900
O  43.58500 29.99600 29.66700
C  44.32700 32.31600 30.21600
C  44.75700 31.90900 31.51700
O  45.91800 31.73200 31.82500
O  43.69900 31.73100 32.32600
C  44.02900 31.12200 33.64400
H  47.46600 38.41800 29.37100
H  48.49500 36.92400 23.21400
H  46.45700 30.85500 24.49900
H  44.22000 35.35000 31.29100
H  46.69900 37.07700 31.55700
H  45.44700 38.88200 31.44700
H  44.02800 37.80100 31.34100
H  44.64500 38.40900 29.85900
H  46.91700 34.42300 32.21900
H  45.28800 33.97600 32.76700
H  45.53000 35.09600 34.50600
H  45.10700 36.49200 33.47600
H  48.39500 40.86200 27.13400
H  49.90300 40.12800 27.70100
H  48.34100 39.97700 28.60500
H  49.84500 40.84900 25.53500
H  51.15500 40.60300 24.25400
H  51.19400 39.60400 25.70400
H  48.67100 34.50200 21.86400
H  46.78500 32.30000 22.02600
H  46.08000 35.83400 21.90700
H  45.85500 34.27000 21.15000
H  47.12200 35.27900 20.51800
H  49.16900 32.12500 21.56600
H  48.30000 30.82700 22.26600
H  50.81600 31.52400 23.02300
H  49.55200 31.24500 24.30700
H  49.97900 32.87500 23.78700
H  43.84800 29.34100 26.65400
H  45.49800 28.66600 26.66900
H  44.77300 29.55400 25.19500
H  43.31400 32.71800 30.22900
H  43.20600 30.62900 34.16200
H  44.18300 31.99900 34.27300
H  44.88500 30.44900 33.70400

