158

Mg 8.92400 48.86300 26.68500
C  6.44700 48.45600 29.17900
C  11.20100 49.52600 29.07800
C  10.99600 49.11000 24.22000
C  6.29900 48.12400 24.29200
N  8.81000 48.98200 28.92200
C  7.75500 48.78100 29.70900
C  8.06500 49.04200 31.21800
C  9.47000 49.64600 31.15400
C  9.91700 49.32200 29.64300
C  9.60800 51.19000 31.42300
C  7.89500 47.87900 32.20000
C  8.82700 47.85900 33.46100
H  8.40600 47.25700 34.84000
N  10.81200 49.23600 26.63100
C  11.63800 49.52600 27.72300
C  12.97200 49.60700 27.28500
C  13.00000 49.41600 25.87700
C  11.56500 49.26900 25.50500
C  14.16200 49.81400 28.16300
C  14.16600 49.42400 24.87200
O  14.04000 49.36000 23.66400
C  15.52600 49.43400 25.36500
N  8.63000 48.86600 24.57800
C  9.71200 48.91000 23.79500
C  9.39700 48.54000 22.29900
C  7.94500 48.04300 22.38200
C  7.58200 48.36900 23.83100
C  9.74100 49.47300 21.12400
C  7.77400 46.49900 22.12200
C  7.14300 46.05200 20.79000
N  6.77900 48.52000 26.66000
C  5.91000 48.13100 25.62700
C  4.60900 47.97100 26.20600
C  4.73800 48.09800 27.53300
C  6.06700 48.37300 27.81700
C  3.39600 47.50700 25.53200
C  4.05600 48.06700 28.75700
O  2.85300 48.01400 29.01900
C  5.09200 48.35300 29.90000
C  5.09400 47.24400 30.87300
O  5.65600 46.14000 30.75700
O  4.37300 47.66700 32.00100
C  4.29300 46.67100 33.11000
H  11.97600 49.60000 29.84400
H  11.64100 49.11400 23.33900
H  5.68800 47.81800 23.44000
H  7.30300 49.76500 31.51000
H  10.20500 49.11200 31.75600
H  8.64300 51.61900 31.69400
H  9.97300 51.69100 30.52600
H  10.32900 51.26300 32.23800
H  8.15700 46.99300 31.62300
H  6.84600 47.91400 32.49500
H  9.06000 48.88800 33.73300
H  9.78700 47.39500 33.23200
H  13.97900 49.93800 29.23000
H  14.78000 50.64900 27.83400
H  14.81900 48.96700 27.96100
H  15.79500 50.16900 26.12400
H  16.12700 49.77200 24.52000
H  15.81200 48.44300 25.71600
H  10.07900 47.69600 22.20100
H  7.21100 48.65800 21.86100
H  10.49500 48.94900 20.53800
H  10.02100 50.43700 21.55000
H  8.82600 49.66600 20.56400
H  7.26000 46.09400 22.99500
H  8.78100 46.12300 21.94300
H  6.06400 45.95100 20.90200
H  7.50600 45.06800 20.49300
H  7.36400 46.62800 19.89200
H  3.07300 46.63000 26.09300
H  3.73700 47.37900 24.50500
H  2.67200 48.31500 25.63400
H  4.82600 49.25500 30.45200
H  4.62600 47.18500 34.01100
H  4.97700 45.82400 33.04800
H  3.32100 46.19600 33.24200
Mg -11.43400 16.00500 42.82000
C  -7.86400 16.03700 42.37000
C  -11.48900 19.21000 41.93300
C  -14.98300 15.90100 42.54800
C  -11.28200 12.51000 42.97000
N  -9.84000 17.37000 41.95000
C  -8.42900 17.23600 41.97300
C  -7.73700 18.62600 41.84700
C  -8.97700 19.57800 41.90800
C  -10.19500 18.63300 41.96500
C  -8.90700 20.58000 43.05800
C  -6.78300 18.82800 40.57500
C  -5.28200 19.16500 40.83500
H  -4.87600 20.26500 39.91600
N  -12.96200 17.34600 42.12600
C  -12.74200 18.68100 41.84800
C  -14.01700 19.33100 41.53300
C  -15.04600 18.35700 41.71400
C  -14.34100 17.08000 42.17500
C  -14.03000 20.80100 40.95900
C  -16.46700 18.66800 41.64500
O  -16.82800 19.83800 41.43100
C  -17.60500 17.62200 41.73200
N  -12.93400 14.44800 42.61500
C  -14.29100 14.71200 42.72100
C  -14.96300 13.42600 43.19000
C  -13.83400 12.33700 42.89600
C  -12.55800 13.17000 42.87400
C  -15.38700 13.60200 44.67000
C  -13.94900 11.57800 41.57800
C  -14.65300 10.20200 41.56700
N  -9.89200 14.52100 43.02000
C  -9.97400 13.15500 43.04100
C  -8.67600 12.57000 42.98100
C  -7.82500 13.67400 42.84700
C  -8.58800 14.86300 42.77400
C  -8.41100 11.17800 42.90300
C  -6.40900 14.06800 42.70300
O  -5.43100 13.33600 42.82500
C  -6.39700 15.68300 42.42600
C  -5.67800 16.33800 43.56500
O  -6.13700 16.90300 44.55800
O  -4.33100 16.11600 43.35300
C  -3.40500 16.74900 44.32800
H  -11.38800 20.28900 41.79900
H  -16.05700 15.95300 42.74000
H  -11.31800 11.42100 43.03500
H  -7.15000 18.81000 42.74700
H  -8.96400 20.18100 40.99900
H  -9.62300 20.18700 43.78000
H  -9.28100 21.52700 42.66800
H  -7.92500 20.67300 43.52200
H  -7.28700 19.44000 39.82800
H  -6.77400 17.85300 40.08800
H  -4.64100 18.30800 40.63100
H  -5.13200 19.36100 41.89700
H  -14.25800 20.65200 39.90300
H  -13.02000 21.20200 41.03300
H  -14.70700 21.49800 41.45300
H  -18.54300 18.01400 41.33700
H  -17.74500 17.33300 42.77300
H  -17.33100 16.80900 41.06000
H  -15.89700 13.24000 42.66000
H  -13.63100 11.65300 43.72000
H  -16.47600 13.62300 44.62200
H  -15.05400 14.51800 45.15600
H  -15.01900 12.75900 45.25400
H  -12.92800 11.53000 41.20000
H  -14.59600 12.17000 40.93100
H  -13.92700 9.43300 41.30100
H  -15.47600 10.07200 40.86400
H  -14.94300 10.22600 42.61700
H  -9.10500 10.86300 43.68300
H  -7.47300 10.77400 43.28400
H  -8.72500 10.76300 41.94600
H  -5.86500 15.74100 41.47700
H  -2.89500 15.91500 44.81100
H  -3.90400 17.36600 45.07500
H  -2.66000 17.31400 43.76800

