158

Mg 25.87600 2.02000 28.81100
C  27.57100 1.79900 31.93500
C  22.94200 2.37200 30.66100
C  24.22500 1.88200 26.00700
C  28.85700 1.02900 27.13700
N  25.30500 2.02600 31.13300
C  26.21800 2.08700 32.12700
C  25.49800 2.37300 33.48900
C  23.97400 2.50300 33.05400
C  24.01700 2.34300 31.55100
C  22.97200 1.57300 33.74900
C  26.04500 3.60600 34.16600
C  25.36000 4.01500 35.51700
H  26.32600 4.12300 36.67700
N  23.82100 2.16400 28.43100
C  22.76300 2.30300 29.28000
C  21.53000 2.43900 28.51900
C  21.95700 2.22600 27.14200
C  23.37500 2.15500 27.15000
C  20.15500 2.62900 29.19500
C  21.03500 2.21700 25.87500
O  21.40300 2.01000 24.72900
C  19.63400 2.43800 26.09500
N  26.49600 1.38800 26.89900
C  25.59100 1.56400 25.90200
C  26.16500 1.29600 24.52000
C  27.68800 1.30500 24.80800
C  27.72800 1.28900 26.37000
C  25.59600 -0.03100 24.01700
C  28.37300 2.58500 24.17700
C  29.74100 2.46400 23.47000
N  27.91300 1.56900 29.36200
C  28.94300 1.10200 28.59000
C  30.14800 0.94900 29.48500
C  29.70700 1.19400 30.79200
C  28.35100 1.57400 30.64300
C  31.50600 0.65600 29.08200
C  30.04000 1.13800 32.19800
O  31.14000 0.82400 32.69200
C  28.81100 1.63100 32.92000
C  28.44500 0.78500 34.10000
O  27.76800 -0.17400 34.03000
O  28.87700 1.31000 35.32400
C  28.41300 0.67800 36.52800
H  22.10300 2.70800 31.27300
H  23.68400 1.90200 25.05800
H  29.84900 0.92300 26.69300
H  25.60200 1.46800 34.08700
H  23.69700 3.54100 33.24000
H  22.12400 2.09800 34.18800
H  23.47300 1.01700 34.54100
H  22.55600 0.82500 33.07500
H  25.99500 4.37900 33.39900
H  27.10300 3.41500 34.34600
H  24.64000 3.25900 35.83000
H  24.83800 4.96700 35.42500
H  20.25000 2.68100 30.27900
H  19.52600 1.74200 29.11500
H  19.61100 3.47900 28.78100
H  19.10300 1.54400 26.42400
H  19.14000 2.90900 25.24500
H  19.65400 3.29300 26.77100
H  25.74900 1.99800 23.79600
H  28.14200 0.39300 24.42100
H  25.05300 0.15400 23.09100
H  24.95200 -0.34800 24.83800
H  26.44200 -0.71500 23.94900
H  28.56600 3.32600 24.95300
H  27.69400 3.13500 23.52500
H  30.20400 1.47800 23.52100
H  30.46000 3.15100 23.91500
H  29.70900 2.78800 22.42900
H  32.18200 1.28100 29.66700
H  31.59700 0.76200 28.00100
H  31.71600 -0.38600 29.32200
H  29.11800 2.59700 33.32200
H  27.98200 1.49700 37.10300
H  29.33700 0.27500 36.94400
H  27.76600 -0.19700 36.46200
Mg -12.83400 16.12200 41.58200
C  -9.96600 14.23700 40.98100
C  -11.53100 18.64200 39.50100
C  -15.78800 17.79200 41.66900
C  -14.43800 13.16700 42.47900
N  -11.07100 16.33100 40.31000
C  -9.98300 15.48800 40.26200
C  -8.80800 15.98900 39.40100
C  -9.32900 17.41600 39.07800
C  -10.76900 17.50500 39.60500
C  -8.32200 18.55800 39.77400
C  -8.40400 15.05500 38.12100
C  -6.93600 14.72600 37.96300
H  -6.25800 15.65900 36.95500
N  -13.48200 18.08000 40.89100
C  -12.80500 18.94000 40.06200
C  -13.54700 20.15500 39.86500
C  -14.81400 19.96000 40.61200
C  -14.74300 18.56200 41.12400
C  -13.11100 21.31100 38.89300
C  -15.95900 20.97400 40.66300
O  -15.79600 22.04500 40.06200
C  -17.10800 20.79300 41.52700
N  -14.94600 15.54200 41.95600
C  -15.90900 16.41300 42.11500
C  -17.24900 15.68500 42.22700
C  -16.80400 14.18300 42.47900
C  -15.29500 14.27700 42.22500
C  -18.01200 16.35800 43.38900
C  -17.50100 13.23900 41.43200
C  -18.05000 11.91900 42.07300
N  -12.30300 14.15100 41.85000
C  -13.04800 13.03700 42.23700
C  -12.19100 11.94400 42.57900
C  -10.90400 12.38900 42.18000
C  -11.05800 13.70600 41.60400
C  -12.58400 10.68100 43.20600
C  -9.42800 12.10500 42.13600
O  -8.84000 11.18500 42.66400
C  -8.80800 13.23800 41.10900
C  -7.52700 13.81600 41.63500
O  -7.46100 14.65600 42.53700
O  -6.38900 13.19700 41.04200
C  -5.11600 13.88600 41.28200
H  -11.09600 19.49700 38.97900
H  -16.73300 18.28000 41.42200
H  -14.87400 12.25900 42.90200
H  -8.08500 15.99000 40.21700
H  -9.45000 17.67200 38.02600
H  -8.86100 19.01900 40.60100
H  -7.96400 19.29800 39.05700
H  -7.37500 18.08100 40.02600
H  -9.00400 15.41100 37.28400
H  -8.83400 14.09000 38.38800
H  -6.85200 13.64900 37.81600
H  -6.56400 15.00800 38.94800
H  -13.48200 21.14200 37.88200
H  -12.02500 21.37600 38.82500
H  -13.41500 22.28600 39.27300
H  -17.37000 21.79900 41.85700
H  -16.89700 20.24600 42.44600
H  -18.00700 20.40900 41.04400
H  -17.90300 15.82400 41.36600
H  -17.04500 13.90900 43.50600
H  -17.86500 15.79300 44.31000
H  -19.05800 16.41900 43.09000
H  -17.81500 17.41100 43.59200
H  -16.69000 12.92400 40.77500
H  -18.18400 13.87100 40.86500
H  -19.09100 11.93400 41.75100
H  -18.03200 11.94400 43.16200
H  -17.61000 10.97900 41.74100
H  -12.92100 10.90000 44.21800
H  -11.77800 9.94800 43.23800
H  -13.38400 10.22200 42.62500
H  -8.67200 12.59800 40.23700
H  -4.73900 13.61800 42.26900
H  -5.25400 14.95900 41.14300
H  -4.41200 13.61800 40.49500

