158

Mg 17.23900 -1.34100 28.40200
C  16.16600 0.64400 30.97900
C  19.46500 -2.96400 30.65300
C  18.89400 -2.79700 25.84300
C  15.68200 0.76600 26.16600
N  17.79900 -1.18500 30.53700
C  17.08000 -0.32900 31.43300
C  17.53800 -0.67100 32.92500
C  18.74300 -1.70100 32.75700
C  18.71500 -1.93700 31.18500
C  20.11200 -1.23000 33.26600
C  16.30000 -1.15700 33.81400
C  16.30200 -0.83600 35.33500
H  17.63800 -0.79400 36.06300
N  18.78600 -2.87700 28.32300
C  19.53400 -3.45600 29.31500
C  20.37000 -4.54000 28.81000
C  20.18100 -4.55200 27.35400
C  19.29500 -3.37400 27.12500
C  21.29700 -5.30800 29.75900
C  20.74000 -5.54400 26.30600
O  20.42400 -5.41800 25.12300
C  21.64500 -6.68500 26.69800
N  17.29500 -0.99100 26.32300
C  18.04500 -1.78400 25.49700
C  17.76700 -1.39200 23.95400
C  16.63500 -0.28800 24.02400
C  16.48900 -0.20800 25.57800
C  19.07700 -0.89900 23.21100
C  15.35600 -0.66000 23.25800
C  14.09500 -1.22200 23.98700
N  16.10700 0.41600 28.49600
C  15.49100 1.13500 27.53300
C  14.73500 2.20000 28.15400
C  15.02800 2.07100 29.52300
C  15.90500 0.93400 29.63800
C  13.82400 3.24700 27.48400
C  14.67100 2.67400 30.77100
O  13.91500 3.55500 31.14500
C  15.33700 1.69300 31.78000
C  16.26000 2.55900 32.66700
O  17.20100 3.16700 32.29800
O  15.92100 2.52400 33.98900
C  16.83500 3.24100 34.92300
H  20.02900 -3.43800 31.46000
H  19.35400 -3.29100 24.98400
H  15.05600 1.42800 25.56400
H  17.85600 0.26300 33.38700
H  18.47200 -2.62400 33.26900
H  20.43600 -1.83600 34.11300
H  19.98800 -0.20000 33.60000
H  20.83400 -1.18800 32.45000
H  16.44000 -2.23800 33.81600
H  15.41100 -0.84400 33.26600
H  15.67300 -1.65800 35.67700
H  15.70000 0.07200 35.38200
H  22.33700 -5.26800 29.43400
H  20.94000 -6.33100 29.87400
H  21.29600 -4.80000 30.72300
H  22.02500 -6.68000 27.72000
H  22.51000 -6.70200 26.03400
H  20.94000 -7.50800 26.58900
H  17.39700 -2.29300 23.46500
H  16.97900 0.70000 23.72000
H  18.94300 0.08300 22.75700
H  19.35000 -1.67200 22.49200
H  19.85800 -0.76200 23.95900
H  15.58000 -1.31900 22.42000
H  15.13300 0.28300 22.76100
H  13.26700 -0.51400 24.02100
H  14.38100 -1.52600 24.99400
H  13.79700 -2.04700 23.34000
H  12.92600 3.17700 28.09800
H  13.57700 3.06100 26.43900
H  14.39900 4.16800 27.57900
H  14.57400 1.20700 32.38700
H  16.22300 3.83500 35.60200
H  17.50900 3.90600 34.38300
H  17.45100 2.59400 35.54800
Mg 56.00800 23.10200 44.36500
C  53.77100 25.60400 43.24600
C  53.92600 20.69200 43.18900
C  58.43400 20.82000 44.69800
C  58.27500 25.58700 45.27400
N  54.06900 23.13600 43.29600
C  53.31300 24.24200 43.03100
C  51.90400 23.82700 42.53000
C  51.90400 22.26000 42.81500
C  53.40300 21.97500 43.17400
C  50.94100 21.75800 43.93600
C  51.64400 24.14800 41.03300
C  50.26300 24.60700 40.81000
H  49.49700 23.84100 39.73000
N  56.12200 21.02300 44.05400
C  55.14600 20.27100 43.63500
C  55.54800 18.92600 43.71100
C  56.95900 18.90900 44.01000
C  57.23600 20.25700 44.24900
C  54.69100 17.67700 43.36000
C  57.80800 17.60100 44.16200
O  57.36500 16.48600 44.02800
C  59.19200 17.69800 44.62200
N  58.05300 23.21200 44.87300
C  58.79800 22.14900 44.95100
C  60.23600 22.53000 45.41500
C  60.07700 23.99900 45.87400
C  58.74500 24.27100 45.38700
C  60.92500 21.66200 46.53800
C  61.20000 24.98500 45.22700
C  61.98300 25.89800 46.18300
N  56.06700 25.23100 44.32300
C  57.00000 26.04200 44.74300
C  56.53600 27.39900 44.57900
C  55.23200 27.27800 44.04300
C  55.03700 25.89500 43.82500
C  57.29100 28.57900 44.98600
C  54.12300 27.98400 43.58500
O  53.95500 29.21200 43.60100
C  53.09200 26.93800 43.07100
C  52.74900 27.32700 41.59400
O  53.36300 27.11400 40.55600
O  51.52500 27.87100 41.63600
C  51.05700 28.53000 40.37400
H  53.16900 19.93500 42.97100
H  59.21800 20.06200 44.65700
H  58.93500 26.37900 45.63400
H  51.09100 24.23100 43.13300
H  51.64200 21.75800 41.88400
H  51.52900 21.59500 44.83900
H  50.64500 20.75300 43.63300
H  50.06000 22.38200 44.08600
H  51.88600 23.26400 40.44300
H  52.32100 24.92600 40.67800
H  50.35100 25.67300 40.59900
H  49.65300 24.75500 41.70200
H  54.58300 17.16700 44.31700
H  55.16800 17.01600 42.63700
H  53.69600 17.90700 42.98100
H  59.93200 17.97100 43.87000
H  59.47800 16.66100 44.79800
H  59.23200 18.06200 45.64900
H  60.88400 22.43000 44.54400
H  60.12900 23.98800 46.96200
H  61.95100 21.42900 46.25300
H  60.46800 20.67200 46.53500
H  60.90200 22.15700 47.50800
H  60.74700 25.62500 44.47000
H  61.86800 24.33100 44.66700
H  61.46600 25.94200 47.14200
H  62.14800 26.90500 45.80000
H  62.98100 25.51300 46.39700
H  58.20600 28.62700 44.39500
H  57.52900 28.45800 46.04300
H  56.68800 29.45500 44.74900
H  52.21600 26.78400 43.70100
H  51.72200 28.31400 39.53900
H  51.04700 29.59800 40.59100
H  50.02500 28.26300 40.14600

