158

Mg -1.76700 18.17000 27.13700
C  -2.13400 16.12200 30.01100
C  -2.56700 20.81100 28.99000
C  -1.26700 20.01400 24.52300
C  -1.64800 15.24500 25.22400
N  -2.09700 18.38100 29.24200
C  -2.17600 17.49300 30.28100
C  -2.31000 18.15000 31.58700
C  -2.90100 19.51900 31.20000
C  -2.48400 19.59500 29.71700
C  -4.47300 19.58100 31.41000
C  -0.99800 18.16900 32.42000
C  -1.00600 17.58700 33.78800
H  0.28700 17.35600 34.65600
N  -1.69600 20.18900 26.85500
C  -2.11100 21.19300 27.72200
C  -1.85600 22.47100 27.14700
C  -1.36100 22.23000 25.84700
C  -1.37200 20.79200 25.64700
C  -2.15100 23.76000 27.96400
C  -1.08500 23.26000 24.77200
O  -0.77500 23.02700 23.61100
C  -1.12900 24.73100 25.20700
N  -1.51700 17.72200 25.15400
C  -1.40700 18.65900 24.25400
C  -1.34700 18.03000 22.86700
C  -1.33100 16.55500 23.08200
C  -1.60800 16.45200 24.54500
C  -2.43500 18.68300 21.92600
C  -0.16700 15.70400 22.52800
C  -0.47300 14.82600 21.30700
N  -1.87200 16.09100 27.49800
C  -1.68800 15.03100 26.57900
C  -1.69900 13.80900 27.26300
C  -1.88100 14.15900 28.65700
C  -1.98300 15.58200 28.71200
C  -1.66700 12.39100 26.70500
C  -2.18800 13.67700 29.96700
O  -2.31600 12.50600 30.38100
C  -2.11600 14.88700 30.86800
C  -0.92200 14.76300 31.72900
O  0.21300 14.98400 31.47400
O  -1.25900 14.22200 32.92100
C  -0.30500 13.61500 33.82600
H  -3.02800 21.65600 29.50500
H  -1.04000 20.59300 23.62500
H  -1.65300 14.34200 24.61000
H  -3.03900 17.53400 32.11500
H  -2.47500 20.39700 31.68600
H  -4.82800 19.40800 30.39500
H  -4.73800 20.52500 31.88700
H  -5.02100 18.81200 31.95400
H  -0.54300 19.15500 32.51100
H  -0.22500 17.69000 31.81800
H  -1.53200 16.63600 33.70000
H  -1.63100 18.28200 34.34900
H  -2.62100 23.55500 28.92700
H  -2.95400 24.15600 27.34300
H  -1.37000 24.50100 27.79600
H  -2.15100 25.01000 25.46400
H  -0.99800 25.47900 24.42600
H  -0.42400 24.98100 26.00000
H  -0.35900 18.23800 22.45600
H  -2.21300 16.08600 22.64500
H  -3.00200 19.44700 22.45600
H  -3.18800 17.96100 21.60800
H  -2.03900 19.13600 21.01700
H  0.16900 15.03000 23.31500
H  0.72300 16.29600 22.31200
H  -0.44200 13.77000 21.57700
H  0.26900 15.13500 20.57000
H  -1.42400 15.01000 20.80800
H  -1.05200 12.28300 25.81100
H  -2.71700 12.10000 26.71800
H  -1.13900 11.80800 27.46000
H  -3.00700 14.94300 31.49400
H  -0.36200 12.52800 33.77800
H  -0.44100 13.89700 34.87000
H  0.69100 13.96000 33.54900
Mg 36.09100 2.10700 31.05000
C  33.58800 3.32400 33.22800
C  38.39500 2.38900 33.48600
C  38.53100 1.55600 28.79600
C  33.82900 2.76100 28.41600
N  35.98100 2.91000 33.04700
C  34.84900 3.11800 33.84800
C  35.19900 3.14700 35.38600
C  36.83600 3.13800 35.39300
C  37.12100 2.80900 33.88300
C  37.51500 4.47000 35.93500
C  34.44400 1.90600 36.06300
C  33.99700 2.20500 37.53500
H  34.78700 3.29100 38.39800
N  38.16900 1.72800 31.22200
C  38.87800 1.85200 32.33400
C  40.24700 1.41800 32.03100
C  40.24200 1.09700 30.64900
C  38.97000 1.43900 30.14300
C  41.34300 1.33700 33.09300
C  41.34600 0.68200 29.74300
O  41.24600 0.58600 28.53600
C  42.80800 0.47700 30.32600
N  36.17200 2.19900 28.94200
C  37.24400 1.75300 28.24900
C  36.97100 1.71900 26.75000
C  35.48600 1.93300 26.60900
C  35.11500 2.34800 28.03800
C  37.94200 2.72200 25.96500
C  34.69900 0.63000 26.28100
C  33.48100 0.91300 25.41900
N  34.08700 2.78900 30.77100
C  33.30100 2.99100 29.67400
C  31.99800 3.34800 30.12500
C  32.05800 3.45900 31.50400
C  33.34700 3.20000 31.84500
C  30.82800 3.57700 29.25200
C  31.30900 3.79100 32.68200
O  30.16700 4.18800 32.76700
C  32.27400 3.79400 33.85300
C  32.37400 5.20800 34.36600
O  32.71300 6.19000 33.79000
O  32.04300 5.20000 35.70000
C  31.86400 6.53500 36.30700
H  39.02500 2.45100 34.37500
H  39.27900 1.39600 28.01600
H  33.10400 2.90600 27.61300
H  34.80800 4.08100 35.79000
H  37.21200 2.25900 35.91700
H  36.76200 5.25000 36.04300
H  38.21500 4.83900 35.18600
H  38.14300 4.28800 36.80700
H  35.14100 1.07200 35.97500
H  33.54100 1.66700 35.50200
H  34.11500 1.22500 37.99800
H  32.94200 2.43600 37.39000
H  42.15000 0.63000 32.89700
H  40.85000 1.06400 34.02600
H  41.84500 2.29400 33.23500
H  43.55600 0.36800 29.54100
H  42.72100 -0.26100 31.12300
H  42.98600 1.38500 30.90200
H  37.18900 0.71400 26.38700
H  35.32200 2.79300 25.95900
H  38.59500 3.28200 26.63500
H  37.27400 3.40600 25.44200
H  38.50500 2.14500 25.23200
H  34.28900 0.11600 27.15000
H  35.37400 -0.12900 25.88500
H  33.52800 1.88600 24.93000
H  32.56900 0.69800 25.97700
H  33.60700 0.25000 24.56300
H  29.99500 2.94000 29.55100
H  31.04800 3.31500 28.21700
H  30.66000 4.65400 29.25300
H  32.05900 3.05100 34.62100
H  31.69800 6.44700 37.38000
H  30.99800 6.90500 35.75700
H  32.74200 7.13700 36.07100

