158

Mg 47.23300 24.51300 27.52100
C  48.32400 26.80400 30.04500
C  46.54700 22.25400 30.06300
C  46.50200 22.42900 25.02300
C  48.67200 26.73900 25.21700
N  47.27600 24.62500 29.83600
C  47.74100 25.69500 30.63400
C  47.57300 25.27000 32.13400
C  47.22700 23.69400 32.09600
C  46.97100 23.50000 30.56000
C  48.30400 22.73200 32.75000
C  46.57600 26.13100 32.94000
C  46.29700 25.65700 34.38800
H  46.81400 26.54500 35.60500
N  46.57900 22.62200 27.50400
C  46.40000 21.78800 28.66000
C  46.12400 20.44100 28.15800
C  46.06400 20.49400 26.70300
C  46.30300 21.88200 26.32800
C  46.01200 19.30400 29.15600
C  45.80500 19.29900 25.77400
O  45.65800 19.42900 24.54600
C  45.68900 17.89900 26.30700
N  47.68100 24.53200 25.42200
C  47.20500 23.57700 24.57800
C  47.33800 24.04500 23.13200
C  48.02500 25.44500 23.13200
C  48.11600 25.57500 24.68300
C  48.00700 23.04800 22.14900
C  47.28100 26.57400 22.45100
C  48.13700 27.71100 21.77800
N  48.31300 26.40300 27.47300
C  48.82200 27.16400 26.49900
C  49.53500 28.36300 26.99000
C  49.29000 28.17700 28.41900
C  48.57400 27.04400 28.63300
C  50.20500 29.48900 26.19500
C  49.51700 28.91200 29.62000
O  50.09500 29.91900 29.86400
C  48.81300 28.05600 30.74800
C  49.79800 27.83400 31.83500
O  50.69800 26.96300 31.80900
O  49.51000 28.60000 32.94500
C  50.37200 28.52200 34.15200
H  46.30900 21.50500 30.82200
H  46.24200 21.75700 24.20200
H  48.95600 27.52700 24.51700
H  48.55800 25.43500 32.57200
H  46.24400 23.44000 32.49200
H  48.76700 22.24600 31.89100
H  47.79700 21.99500 33.37300
H  48.92500 23.26800 33.46700
H  45.65300 26.23700 32.37100
H  46.96900 27.14500 33.01200
H  46.69600 24.66100 34.58200
H  45.23200 25.64100 34.62200
H  46.57100 19.47400 30.07600
H  46.51000 18.39700 28.81300
H  45.00400 18.95600 29.37700
H  44.96700 17.96500 27.12100
H  46.70700 17.62400 26.58600
H  45.34900 17.25200 25.49900
H  46.28900 24.19100 22.87200
H  49.05800 25.43200 22.78600
H  48.42700 23.62600 21.32600
H  47.26600 22.36700 21.73200
H  48.66300 22.30800 22.60700
H  46.67800 27.11600 23.17900
H  46.70000 26.16000 21.62800
H  47.70200 28.61600 22.20100
H  48.06800 27.54200 20.70400
H  49.19600 27.69700 22.03600
H  49.65900 29.71600 25.27900
H  51.22500 29.24200 25.90000
H  50.20100 30.30100 26.92200
H  47.95700 28.59800 31.15000
H  49.93300 27.90600 34.93700
H  50.69600 29.48700 34.54100
H  51.25900 27.96700 33.84700
Mg 9.12200 47.92500 26.25300
C  7.14700 48.01300 29.26300
C  11.72500 49.20200 28.01800
C  10.66900 47.97700 23.40100
C  5.95100 47.30600 24.49800
N  9.35100 48.68300 28.43200
C  8.49100 48.43100 29.51300
C  9.13300 49.02000 30.86700
C  10.60500 49.39900 30.34700
C  10.59900 49.15100 28.84500
C  11.19900 50.74100 30.90500
C  9.20000 48.00000 32.02200
C  8.53300 48.46000 33.41300
H  8.39200 47.39600 34.49400
N  10.94700 48.38700 25.82700
C  11.92700 49.00200 26.65500
C  13.16500 48.98800 25.92100
C  12.99500 48.55400 24.64600
C  11.47300 48.32300 24.55700
C  14.49700 49.31800 26.60800
C  13.96800 48.30600 23.48100
O  13.63800 47.71900 22.43800
C  15.42700 48.79400 23.66300
N  8.34200 47.88400 24.08900
C  9.28400 47.75200 23.18500
C  8.61300 47.38200 21.82400
C  7.16300 47.05200 22.21700
C  7.05900 47.47700 23.69300
C  8.74700 48.52800 20.81400
C  6.76500 45.63900 21.85400
C  7.60500 44.47800 22.49300
N  6.99600 47.71600 26.65700
C  5.83400 47.47300 25.86300
C  4.69100 47.38300 26.72200
C  5.13100 47.50300 27.99100
C  6.59100 47.75800 27.95400
C  3.33800 47.06200 26.20600
C  4.70300 47.60600 29.38100
O  3.58600 47.48400 29.83400
C  6.01900 47.76700 30.22300
C  6.34400 46.65000 31.07400
O  6.99500 45.68700 30.73400
O  5.61200 46.61700 32.25900
C  5.55000 45.31800 32.99900
H  12.58600 49.41200 28.65600
H  11.22600 47.99600 22.46200
H  5.03400 47.01300 23.98200
H  8.55800 49.86800 31.23800
H  11.23800 48.56200 30.63900
H  11.42200 51.32200 30.01000
H  12.14900 50.63100 31.43000
H  10.44400 51.29800 31.46000
H  10.21400 47.68100 32.26300
H  8.73100 47.06400 31.71900
H  7.53700 48.87300 33.24700
H  9.22400 49.16100 33.88100
H  14.92700 50.15800 26.06200
H  15.03500 48.37100 26.60700
H  14.39300 49.66400 27.63700
H  16.00900 48.71100 22.74500
H  15.83900 48.31300 24.55000
H  15.62800 49.82900 23.93800
H  9.26300 46.56700 21.50700
H  6.51700 47.75200 21.68800
H  8.33100 49.41400 21.29500
H  8.15900 48.35200 19.91300
H  9.80100 48.63800 20.56200
H  6.79100 45.58700 20.76500
H  5.71900 45.40600 22.05300
H  8.23400 44.89900 23.27700
H  8.14100 43.94100 21.71000
H  6.97400 43.70600 22.93300
H  2.79000 47.95800 25.91600
H  2.70300 46.61600 26.97100
H  3.41600 46.28400 25.44700
H  6.11500 48.72800 30.72900
H  5.73700 45.60800 34.03300
H  6.32300 44.59000 32.75400
H  4.57500 44.87600 32.79100

