158

Mg 1.96200 -1.94600 44.53200
C  5.09800 -0.67600 44.03100
C  0.64300 0.49700 42.56100
C  -1.04700 -3.53600 44.73200
C  3.37400 -4.69000 46.19200
N  2.83700 -0.29600 43.40600
C  4.13100 0.07200 43.32600
C  4.33500 1.23400 42.43300
C  2.87200 1.67600 42.13700
C  2.02900 0.52800 42.67100
C  2.46500 3.05600 42.69500
C  5.10400 0.95200 41.08800
C  6.07300 2.12400 40.58800
H  5.77900 2.89000 39.34900
N  0.04100 -1.59700 43.61300
C  -0.32000 -0.47200 42.96300
C  -1.81400 -0.49300 42.76900
C  -2.27800 -1.77400 43.21200
C  -1.08100 -2.35200 43.88800
C  -2.62200 0.65600 41.97800
C  -3.63500 -2.41800 43.05100
O  -4.58500 -1.80100 42.55800
C  -3.88300 -3.86400 43.36500
N  1.25500 -3.97600 45.21000
C  -0.04200 -4.25400 45.35600
C  -0.26800 -5.65000 45.90600
C  1.15100 -5.98100 46.47400
C  1.99800 -4.83000 45.94000
C  -1.38400 -5.66300 46.91900
C  1.73100 -7.35500 46.08900
C  2.54400 -8.04500 47.23900
N  3.84000 -2.58300 45.07000
C  4.25000 -3.73100 45.76100
C  5.69800 -3.65200 45.90100
C  6.03700 -2.50400 45.21300
C  4.92700 -1.85300 44.79700
C  6.37800 -4.67800 46.59100
C  7.12900 -1.63300 44.81900
O  8.34800 -1.76800 45.01200
C  6.59100 -0.49500 43.98900
C  7.09200 0.80400 44.58900
O  6.97200 1.14300 45.74200
O  7.59700 1.55000 43.64200
C  8.18900 2.84700 43.98900
H  0.20700 1.35500 42.04400
H  -2.02200 -3.98400 44.93300
H  3.69600 -5.51300 46.83400
H  4.77600 2.05800 42.99400
H  2.66100 1.80200 41.07500
H  2.30200 3.75800 41.87700
H  3.23900 3.45400 43.35100
H  1.51700 2.86400 43.19800
H  4.35300 0.88200 40.30100
H  5.63100 0.00000 41.15200
H  7.05000 1.70000 40.35300
H  6.17200 2.91800 41.32800
H  -3.34000 1.06900 42.68600
H  -3.02500 0.28400 41.03600
H  -2.02700 1.53200 41.72100
H  -2.96500 -4.36700 43.06100
H  -4.70200 -4.27100 42.77200
H  -4.12600 -4.05400 44.41100
H  -0.57400 -6.33200 45.11300
H  1.10100 -5.87200 47.55800
H  -2.12200 -6.41700 46.64500
H  -1.94900 -4.73800 47.03700
H  -1.08400 -5.91000 47.93700
H  2.30100 -7.29900 45.16100
H  0.88000 -7.98400 45.82700
H  3.55100 -8.38700 47.00100
H  1.95700 -8.91700 47.52900
H  2.54200 -7.37000 48.09500
H  6.68500 -5.39400 45.82800
H  5.73400 -5.06300 47.38200
H  7.31100 -4.36600 47.05900
H  6.98800 -0.60700 42.98000
H  9.10100 2.96300 43.40300
H  8.47400 3.01100 45.02800
H  7.57100 3.69000 43.67800
Mg 25.06500 2.04800 29.83400
C  27.56100 2.11400 32.51100
C  22.73700 2.32900 32.01700
C  22.98400 1.97100 27.18800
C  27.82800 1.32900 27.60600
N  25.21200 2.33300 31.96700
C  26.21500 2.45100 32.88800
C  25.67300 2.48200 34.32000
C  24.16200 2.47300 34.04000
C  24.01100 2.35600 32.58200
C  23.39200 1.52400 34.97400
C  26.20800 3.72800 35.16600
C  26.91600 3.39900 36.48100
H  26.88200 4.39500 37.62900
N  23.08500 2.16800 29.62400
C  22.22900 2.29400 30.64600
C  20.85000 2.20300 30.16800
C  20.90500 1.95600 28.77500
C  22.38400 2.04700 28.46300
C  19.68600 2.15200 31.12100
C  19.80600 1.66600 27.73900
O  20.04400 1.51600 26.57400
C  18.44800 1.58200 28.06200
N  25.32500 1.66100 27.71100
C  24.32300 1.72900 26.79500
C  24.77500 1.54900 25.35200
C  26.31600 1.54500 25.56500
C  26.54400 1.48100 27.04800
C  24.10300 0.30300 24.61100
C  27.19300 2.57100 24.72200
C  27.82600 3.77600 25.47000
N  27.25100 1.78700 29.99800
C  28.11600 1.47700 29.00400
C  29.46600 1.39000 29.63300
C  29.25300 1.57000 30.99500
C  27.93100 1.94000 31.13600
C  30.77600 1.04800 28.96000
C  29.86900 1.53200 32.32400
O  31.05200 1.24300 32.69400
C  28.78100 1.95800 33.35400
C  28.68500 0.89900 34.41300
O  27.94100 -0.04100 34.41400
O  29.33800 1.38000 35.58000
C  29.04500 0.69600 36.80900
H  21.99000 2.47300 32.80100
H  22.30600 1.84000 26.34200
H  28.51200 1.01400 26.81600
H  25.91400 1.52800 34.78900
H  23.91000 3.48200 34.36700
H  22.60700 2.10800 35.45400
H  24.06800 1.05200 35.68700
H  22.93300 0.78100 34.32100
H  25.41900 4.44000 35.40800
H  26.94300 4.20700 34.51900
H  27.96900 3.30700 36.21400
H  26.50800 2.43100 36.77000
H  19.12300 1.22100 31.05000
H  18.93000 2.86100 30.78400
H  19.95900 2.27800 32.16900
H  18.44200 0.61600 28.56800
H  17.82100 1.55600 27.17000
H  18.00000 2.36500 28.67300
H  24.40800 2.49300 24.94900
H  26.69600 0.59500 25.19200
H  23.29700 -0.01300 25.27300
H  24.86300 -0.46800 24.48400
H  23.77500 0.76700 23.68100
H  26.55600 3.03400 23.96900
H  28.00100 2.12200 24.14500
H  28.88900 3.53800 25.51100
H  27.47000 3.88100 26.49500
H  27.74800 4.72600 24.94000
H  30.63500 1.14600 27.88400
H  31.07800 0.05000 29.27800
H  31.50800 1.82300 29.18900
H  29.09500 2.90600 33.79100
H  29.95000 0.35400 37.31200
H  28.34400 -0.13800 36.84200
H  28.55500 1.38500 37.49800

