158

Mg 36.18500 1.13500 29.23900
C  33.96000 2.31300 31.84100
C  38.72300 1.51100 31.56400
C  38.12400 0.54300 26.80900
C  33.33200 1.54000 27.02900
N  36.35400 1.86600 31.48400
C  35.27100 2.10600 32.31100
C  35.68500 2.13700 33.82600
C  37.23700 2.16200 33.57300
C  37.48600 1.75800 32.16000
C  37.92300 3.42800 34.21700
C  35.26500 0.87700 34.61100
C  34.71400 1.08200 36.04800
H  35.03600 2.29700 36.92700
N  38.17500 0.83200 29.16300
C  39.05100 1.00500 30.21800
C  40.40300 0.61200 29.79500
C  40.30000 0.37300 28.34000
C  38.83500 0.55500 28.04000
C  41.57500 0.38700 30.70700
C  41.35400 0.08800 27.25200
O  41.14000 0.09600 26.05400
C  42.73300 -0.13100 27.65800
N  35.74600 1.19300 27.13000
C  36.79300 0.87700 26.41200
C  36.39000 0.56400 24.97600
C  34.84100 0.64500 25.01600
C  34.55000 1.17200 26.42700
C  37.02000 1.51200 23.88000
C  33.96800 -0.69200 24.71800
C  32.85500 -0.52400 23.62800
N  34.12200 1.87300 29.32100
C  33.08900 1.89100 28.40900
C  31.84400 2.47000 28.97600
C  32.08400 2.58200 30.34900
C  33.47200 2.19200 30.54300
C  30.63100 2.79800 28.17100
C  31.58200 3.00400 31.55900
O  30.54500 3.52800 31.78400
C  32.68800 2.66200 32.64500
C  32.77200 3.90500 33.48400
O  33.59100 4.73100 33.27000
O  31.89300 3.84800 34.52400
C  32.25600 4.83200 35.55000
H  39.56700 1.46500 32.25600
H  38.67800 0.11900 25.96900
H  32.51500 1.52800 26.30400
H  35.27000 3.04700 34.25800
H  37.68500 1.39500 34.20500
H  38.51500 3.19700 35.10300
H  37.10900 4.04900 34.59200
H  38.52000 3.97000 33.48400
H  35.99500 0.06800 34.65100
H  34.36600 0.58100 34.07100
H  35.10700 0.21400 36.57800
H  33.62800 1.01700 35.98400
H  42.17500 1.29200 30.80500
H  42.18600 -0.47500 30.43900
H  41.21300 0.14900 31.70700
H  43.52300 -0.21500 26.91200
H  42.81100 -1.10700 28.13800
H  43.08200 0.70700 28.26200
H  36.68000 -0.45700 24.73000
H  34.43900 1.42200 24.36600
H  38.09100 1.66900 24.01400
H  36.55000 2.49400 23.94800
H  37.01400 1.03000 22.90200
H  33.51800 -1.05200 25.64400
H  34.60500 -1.49700 24.35200
H  31.90500 -0.93300 23.97300
H  33.11800 -1.06600 22.71900
H  32.72600 0.54400 23.45000
H  30.23800 3.77800 28.44200
H  29.90200 2.00200 28.32700
H  30.95900 2.98000 27.14800
H  32.37900 1.70200 33.05800
H  31.74200 5.78800 35.45500
H  33.31000 5.05000 35.72500
H  31.97900 4.18100 36.37900
Mg 0.91600 43.03900 26.42000
C  2.97300 43.22800 29.11700
C  -1.77600 42.57400 28.82700
C  -1.38000 42.42600 23.95800
C  3.47600 43.35300 24.20500
N  0.65500 42.70800 28.70800
C  1.70900 42.91000 29.61300
C  1.26500 42.71700 31.00500
C  -0.20900 42.24500 30.78400
C  -0.51000 42.52200 29.30900
C  -0.51600 40.75900 31.21900
C  1.33100 44.10000 31.71200
C  1.14200 44.25300 33.19700
H  0.91900 42.93600 34.01200
N  -1.33000 42.61300 26.37400
C  -2.19100 42.57500 27.45800
C  -3.55300 42.27800 26.99700
C  -3.42000 42.17900 25.54900
C  -1.97500 42.44000 25.21600
C  -4.75600 42.12400 27.94000
C  -4.44800 41.69700 24.61500
O  -4.19700 41.39900 23.46800
C  -5.84400 41.59000 25.14200
N  1.06500 42.67700 24.48400
C  -0.00500 42.46700 23.64800
C  0.44200 42.50800 22.16600
C  1.89800 43.03100 22.21000
C  2.18300 43.07100 23.70300
C  0.30700 41.13100 21.44700
C  2.03100 44.41900 21.52500
C  1.94800 45.68800 22.39900
N  2.81700 43.29600 26.54200
C  3.82500 43.48300 25.61600
C  5.13600 43.71000 26.27500
C  4.82000 43.63900 27.60000
C  3.41300 43.36900 27.74700
C  6.58100 43.77600 25.69700
C  5.33500 43.79600 28.96300
O  6.43900 44.12300 29.33300
C  4.23900 43.45000 29.90900
C  4.64100 42.18600 30.54600
O  4.63700 41.10200 30.11100
O  5.00300 42.52000 31.81700
C  5.71800 41.54900 32.68300
H  -2.63500 42.36600 29.46900
H  -2.05800 42.37500 23.10300
H  4.39600 43.61400 23.67900
H  1.89900 41.95600 31.46000
H  -0.87400 42.86100 31.38900
H  -1.10700 40.28900 30.43300
H  -0.96700 40.75000 32.21100
H  0.36100 40.18000 31.50800
H  0.50700 44.71600 31.34900
H  2.28200 44.55600 31.43900
H  0.33900 44.92000 33.51000
H  2.11100 44.58200 33.57300
H  -5.45000 42.91000 27.63900
H  -4.48000 42.26500 28.98500
H  -5.18500 41.12800 27.82900
H  -5.98000 40.65500 25.68500
H  -6.46300 41.55000 24.24600
H  -6.16000 42.48200 25.68300
H  -0.34300 43.15100 21.76800
H  2.52400 42.27400 21.73800
H  1.24700 40.62000 21.23800
H  -0.27200 41.13800 20.52300
H  -0.29300 40.40400 21.99400
H  1.25400 44.45600 20.76100
H  2.95200 44.33400 20.94900
H  1.27100 46.37200 21.88700
H  2.95700 46.08800 22.49400
H  1.67000 45.63200 23.45100
H  7.18000 43.16400 26.37100
H  6.89800 44.81800 25.75100
H  6.58100 43.37100 24.68600
H  4.10700 44.31300 30.56200
H  6.60400 42.02300 33.10500
H  6.11300 40.71500 32.10300
H  5.11300 41.05000 33.44100

