158

Mg -1.95400 16.95400 27.33700
C  -2.76300 14.77500 30.01100
C  -2.00100 19.48600 29.65600
C  -1.38900 19.08000 24.76800
C  -2.32700 14.31200 25.10600
N  -2.26900 17.08700 29.59700
C  -2.50000 16.09900 30.51400
C  -2.35900 16.59400 31.96700
C  -2.21700 18.18000 31.76300
C  -2.20100 18.26700 30.23100
C  -3.40700 18.95600 32.39700
C  -1.10100 15.97200 32.66200
C  -0.61700 16.70800 33.96400
H  -0.38700 15.82400 35.25100
N  -1.77300 19.03000 27.28300
C  -1.83900 19.91600 28.36200
C  -1.74900 21.31900 27.84500
C  -1.61900 21.17000 26.41400
C  -1.54100 19.71500 26.07900
C  -1.70600 22.57900 28.72900
C  -1.62800 22.28000 25.38700
O  -1.62200 22.03100 24.18200
C  -1.70000 23.74900 25.79000
N  -1.84200 16.74600 25.29200
C  -1.56500 17.72100 24.43700
C  -1.58300 17.33800 22.97200
C  -1.60300 15.81400 23.08900
C  -1.96900 15.56600 24.56300
C  -2.78600 17.87200 22.15000
C  -0.40200 15.08800 22.43800
C  0.83700 15.03300 23.31000
N  -2.48600 14.99200 27.46100
C  -2.67100 14.02700 26.46200
C  -3.15000 12.79100 27.04100
C  -3.10200 12.99000 28.40600
C  -2.73400 14.34900 28.66100
C  -3.46700 11.55300 26.11200
C  -3.35800 12.38900 29.71000
O  -3.60700 11.26300 29.97000
C  -3.07000 13.46500 30.79300
C  -1.92100 13.06400 31.54200
O  -0.73100 13.14000 31.17900
O  -2.29500 12.58700 32.77800
C  -1.27900 12.10500 33.68500
H  -1.84200 20.29800 30.36700
H  -1.08800 19.80900 24.01300
H  -2.32900 13.46000 24.42300
H  -3.17900 16.37800 32.65100
H  -1.31300 18.57100 32.23000
H  -3.21800 19.50600 33.31900
H  -4.23700 18.28900 32.63100
H  -3.90600 19.56400 31.64300
H  -0.33100 16.00800 31.89100
H  -1.23700 14.96200 33.04800
H  -1.34100 17.49000 34.19300
H  0.33200 17.07100 33.57000
H  -1.73300 22.35500 29.79500
H  -2.64800 23.08800 28.52200
H  -0.82100 23.14400 28.44000
H  -2.73300 23.89200 26.10700
H  -1.30400 24.45600 25.06200
H  -1.00700 24.02100 26.58600
H  -0.59300 17.58400 22.58700
H  -2.49500 15.41300 22.60900
H  -3.52300 18.31000 22.82300
H  -3.35800 17.15400 21.56300
H  -2.43000 18.65600 21.48000
H  -0.23000 15.53500 21.45900
H  -0.81800 14.08600 22.32800
H  0.73400 15.73600 24.13700
H  1.70800 15.38800 22.75800
H  0.95500 13.97600 23.55000
H  -3.89700 11.92200 25.18000
H  -4.21100 10.91200 26.58500
H  -2.55200 10.97500 25.98400
H  -3.96700 13.57500 31.40200
H  -1.43100 11.03900 33.85700
H  -1.15700 12.58900 34.65400
H  -0.28800 12.11300 33.23000
Mg 1.94700 42.46800 25.53900
C  2.85600 42.55400 28.96300
C  -1.13800 41.18300 26.48400
C  1.46700 41.53400 22.32600
C  5.31400 43.34300 24.70800
N  0.96000 42.01400 27.55000
C  1.51400 42.30000 28.78900
C  0.45200 41.96000 29.93800
C  -0.71600 41.30100 29.15000
C  -0.31600 41.48600 27.60900
C  -1.01800 39.84000 29.54400
C  0.03200 43.37300 30.63300
C  -0.22800 43.30300 32.15900
H  -1.02500 42.12900 32.72800
N  0.30100 41.61100 24.57700
C  -0.85700 41.16200 25.09700
C  -1.67200 40.59300 24.06200
C  -0.93000 40.68800 22.80300
C  0.32500 41.31200 23.18500
C  -3.07100 40.01600 24.34300
C  -1.42100 40.35700 21.35900
O  -0.73800 40.48200 20.40400
C  -2.83200 39.99900 21.11100
N  3.15300 42.52200 23.78600
C  2.75200 42.04800 22.58100
C  3.72800 42.31300 21.40700
C  4.81700 43.20200 22.16200
C  4.42300 43.05200 23.67800
C  4.20100 41.05800 20.66000
C  4.87300 44.59000 21.65000
C  3.61100 45.44200 21.75600
N  3.69000 42.86000 26.55500
C  5.03600 43.14900 26.11900
C  5.89200 43.31300 27.22900
C  5.09200 43.04300 28.34600
C  3.72800 42.85700 27.86900
C  7.40100 43.64600 27.25000
C  5.19400 42.91200 29.78600
O  6.18500 42.98200 30.48700
C  3.64200 42.68400 30.24100
C  3.70700 41.43100 31.06000
O  3.98500 40.35300 30.56600
O  3.43800 41.63000 32.38900
C  3.72200 40.50400 33.25400
H  -2.10600 40.72500 26.69600
H  1.32400 41.21200 21.29300
H  6.36900 43.57500 24.55000
H  0.96900 41.26400 30.59900
H  -1.61500 41.90300 29.28300
H  -0.36500 39.48300 30.34100
H  -0.86900 39.30500 28.60600
H  -1.99700 39.74400 30.01300
H  -0.90700 43.68500 30.17700
H  0.81500 44.13100 30.60100
H  -0.75400 44.18100 32.53200
H  0.73800 43.30000 32.66300
H  -3.85500 40.74400 24.13700
H  -3.13500 39.58400 25.34100
H  -3.22600 39.11300 23.75200
H  -2.95000 38.93600 21.31800
H  -3.02000 40.06700 20.04000
H  -3.51100 40.67200 21.63400
H  3.26300 42.98400 20.68500
H  5.78700 42.77800 21.90200
H  3.49900 40.83300 19.85800
H  4.28400 40.28000 21.41800
H  5.16400 41.20800 20.17000
H  5.10800 44.43300 20.59700
H  5.66100 45.02500 22.26500
H  2.67800 44.87900 21.78400
H  3.57700 45.95000 20.79300
H  3.62900 46.11800 22.61100
H  7.78400 43.27600 28.20100
H  7.47200 44.72800 27.35800
H  7.98100 43.23200 26.42400
H  3.35600 43.56400 30.81600
H  4.78300 40.57600 33.49000
H  3.49800 39.49800 32.89800
H  3.05600 40.71200 34.09200

