158

Mg 44.33200 4.93900 47.45300
C  42.30300 7.65300 46.50400
C  41.74300 2.84100 46.50400
C  46.57600 2.48400 47.32200
C  47.03200 7.25400 47.14900
N  42.19300 5.26900 46.80000
C  41.63500 6.43100 46.42400
C  40.30700 6.26200 45.75400
C  39.98400 4.73500 46.12100
C  41.39500 4.18800 46.52400
C  38.95800 4.60700 47.31200
C  40.31000 6.52700 44.23700
C  39.47000 7.71000 43.71600
H  40.11900 8.55900 42.60600
N  44.08300 2.86400 47.22800
C  43.01000 2.27100 46.73900
C  43.35900 0.84800 46.51600
C  44.70000 0.68500 46.93500
C  45.23900 2.01500 47.22500
C  42.42200 -0.18800 46.07300
C  45.42600 -0.65700 47.01600
O  44.92700 -1.70900 46.63500
C  46.74800 -0.79400 47.57800
N  46.53000 4.86600 47.16100
C  47.19100 3.73800 47.25300
C  48.66800 3.88100 47.16200
C  48.87500 5.44200 47.18300
C  47.42100 5.92200 47.16300
C  49.48700 3.13900 48.18500
C  49.59000 6.10400 45.92400
C  50.71500 5.31900 45.19300
N  44.60700 7.06800 47.07800
C  45.77700 7.80200 47.11500
C  45.41500 9.17500 47.08300
C  44.03900 9.20800 46.81000
C  43.61000 7.88800 46.83800
C  46.28300 10.40900 47.13700
C  42.91200 9.97900 46.50100
O  42.86200 11.15400 46.13500
C  41.69600 9.00200 46.36700
C  40.82600 9.13500 47.54400
O  40.93900 8.68800 48.67900
O  39.73800 9.89800 47.28200
C  38.71000 10.28100 48.34000
H  40.98100 2.20700 46.04400
H  47.39400 1.80300 47.07600
H  47.86900 7.95300 47.09200
H  39.55000 6.91000 46.19600
H  39.52200 4.08200 45.38000
H  39.36200 4.33700 48.28700
H  38.23700 3.81700 47.10300
H  38.39200 5.53900 47.30200
H  39.98000 5.62700 43.71900
H  41.29900 6.74600 43.83300
H  39.23100 8.36600 44.55200
H  38.53600 7.31000 43.32100
H  41.59000 0.27200 45.54100
H  42.02100 -0.73200 46.92800
H  42.96800 -0.83800 45.38900
H  47.44600 -0.45400 46.81200
H  46.84800 -1.84300 47.85900
H  46.81000 -0.21900 48.50200
H  49.00000 3.48700 46.20200
H  49.43300 5.89300 48.00400
H  50.17700 3.83400 48.66300
H  50.11000 2.35500 47.75400
H  48.87600 2.85100 49.04200
H  50.17000 6.95900 46.27200
H  48.81700 6.46300 45.24400
H  51.60300 5.92000 45.00100
H  50.17900 4.90100 44.34100
H  50.92000 4.51500 45.90000
H  46.29300 10.79900 48.15500
H  45.89600 11.24700 46.55900
H  47.25200 9.99700 46.85500
H  41.13500 9.25600 45.46800
H  37.75900 10.41800 47.82600
H  38.89800 11.23100 48.84000
H  38.65600 9.52700 49.12500
Mg 26.98500 51.02600 25.67900
C  25.34600 52.32500 28.43200
C  29.45100 49.78100 27.80100
C  28.77800 50.16400 23.07700
C  24.85700 52.85300 23.54200
N  27.40600 51.18600 27.85700
C  26.50200 51.60700 28.78700
C  26.91600 51.24700 30.25400
C  28.24000 50.53100 30.00200
C  28.41900 50.53100 28.46600
C  29.44900 51.21100 30.68700
C  25.82800 50.40400 31.07400
C  25.21800 51.23900 32.26900
H  25.29700 50.61700 33.67900
N  28.89700 50.22200 25.46900
C  29.67100 49.61800 26.42700
C  30.72700 48.85600 25.81200
C  30.46500 48.82600 24.40100
C  29.32400 49.85600 24.25300
C  31.92200 48.31100 26.60500
C  31.10300 48.06600 23.26000
O  30.68900 48.05800 22.13800
C  32.28400 47.12400 23.59300
N  26.85500 51.45400 23.62100
C  27.66500 50.90300 22.74500
C  27.27700 51.05800 21.23700
C  26.06300 52.05000 21.43800
C  25.79800 52.07200 22.93900
C  28.42000 51.76800 20.46600
C  24.79900 51.63700 20.64900
C  24.54800 52.50900 19.35400
N  25.32800 52.23600 25.88300
C  24.58200 52.93900 24.97700
C  23.54700 53.65000 25.70100
C  23.78400 53.39200 27.02600
C  24.94900 52.57100 27.09200
C  22.42500 54.37800 25.09300
C  23.25900 53.58100 28.32900
O  22.33100 54.30600 28.63800
C  24.24200 52.93500 29.36000
C  24.85400 54.02000 30.25700
O  26.02300 54.44700 30.07600
O  24.12000 54.27100 31.40500
C  24.83800 55.15100 32.41300
H  30.11000 49.20700 28.45600
H  29.30600 49.83800 22.17900
H  24.21900 53.54400 22.98800
H  27.12800 52.17300 30.78900
H  28.17800 49.49900 30.34600
H  29.71400 52.17100 30.24400
H  30.29900 50.54300 30.54500
H  29.18300 51.38500 31.72900
H  26.30900 49.56100 31.56900
H  24.96000 49.97100 30.57600
H  24.16000 51.34600 32.02800
H  25.74100 52.19100 32.35400
H  32.26100 48.97400 27.40100
H  32.76300 48.50700 25.94100
H  31.82800 47.24200 26.79300
H  31.92400 46.47700 24.39300
H  33.13400 47.79500 23.71600
H  32.50800 46.46100 22.75800
H  27.02300 50.04500 20.92700
H  26.38500 53.07000 21.22700
H  28.10500 52.74300 20.09200
H  28.47500 51.16400 19.56000
H  29.37000 51.87300 20.98900
H  23.94100 51.53800 21.31400
H  25.10200 50.65000 20.30000
H  24.44800 51.91700 18.44500
H  25.28500 53.28200 19.13500
H  23.60700 53.05600 19.41300
H  21.85600 53.70000 24.45700
H  22.82900 55.11100 24.39500
H  21.81200 54.81600 25.88100
H  23.69100 52.13800 29.86000
H  24.72800 56.20300 32.14900
H  25.90100 54.91000 32.41200
H  24.49800 55.06300 33.44400

