158

Mg 47.34200 44.37700 43.13000
C  43.92700 43.58000 43.09300
C  47.95700 41.12400 42.68000
C  50.48100 45.32400 42.65700
C  46.34000 47.86100 42.95200
N  46.12300 42.57800 42.70100
C  44.79500 42.46400 42.80000
C  44.24400 41.06300 42.65100
C  45.55200 40.29100 43.05600
C  46.63900 41.37100 42.72200
C  45.45400 39.64300 44.50000
C  43.62100 40.70200 41.32400
C  43.81400 41.55700 40.06200
H  43.65300 40.89800 38.69500
N  49.09400 43.30200 42.70500
C  49.09700 41.98200 42.56700
C  50.52100 41.63900 42.25900
C  51.27100 42.86700 42.18100
C  50.33600 43.93000 42.43400
C  50.98700 40.17800 41.96900
C  52.75000 42.99800 41.93600
O  53.45600 42.00700 41.96700
C  53.35900 44.35500 41.98100
N  48.25100 46.31700 42.69000
C  49.57700 46.43800 42.79900
C  49.99500 47.93500 42.84500
C  48.70600 48.67100 42.85900
C  47.68400 47.52400 42.89600
C  50.88700 48.40200 44.00500
C  48.49500 49.77500 41.74900
C  48.30200 51.14900 42.41000
N  45.54300 45.55500 43.11700
C  45.31700 46.92100 43.03300
C  43.89900 47.11700 42.81800
C  43.35400 45.83500 43.05500
C  44.37400 44.90800 43.05300
C  43.12200 48.42700 42.48600
C  42.09400 45.16400 43.13600
O  40.99300 45.72800 43.26700
C  42.39100 43.62400 43.04800
C  41.81400 43.10900 44.25200
O  42.19300 43.38300 45.35300
O  40.69200 42.36200 43.99200
C  39.78300 42.04200 45.11400
H  48.18100 40.07800 42.90200
H  51.48300 45.75800 42.63900
H  46.04500 48.90800 42.85500
H  43.43900 40.87800 43.36100
H  45.85000 39.49600 42.37200
H  44.45400 39.49200 44.90600
H  46.08100 40.09500 45.26900
H  45.78500 38.62100 44.31300
H  42.55800 40.52600 41.48500
H  44.08800 39.75700 41.04400
H  44.69900 42.19200 40.11700
H  43.00100 42.28200 40.10100
H  51.19400 40.24400 40.90100
H  50.10700 39.56500 42.16200
H  51.88100 39.88500 42.51800
H  52.82800 44.98000 41.26300
H  54.43500 44.34300 41.80200
H  53.36000 44.74400 43.00000
H  50.44700 48.07500 41.86300
H  48.46100 49.03200 43.85900
H  50.63500 49.27200 44.61100
H  51.92100 48.53700 43.68900
H  50.84400 47.55500 44.69000
H  47.65700 49.54600 41.09100
H  49.31600 49.81900 41.03400
H  48.59800 51.08200 43.45700
H  47.29100 51.52200 42.24700
H  48.93100 51.89400 41.92100
H  42.76900 48.42000 41.45500
H  43.77800 49.29500 42.54700
H  42.28200 48.48600 43.17700
H  41.93700 43.30200 42.11100
H  40.13400 41.09900 45.53400
H  38.74100 42.03100 44.79600
H  39.85000 42.79800 45.89700
Mg 16.43700 51.46100 25.15200
C  18.08100 50.54500 28.03400
C  13.76600 52.49000 27.06500
C  14.63400 51.75300 22.35300
C  19.04900 49.76900 23.32500
N  16.01300 51.50300 27.35400
C  16.87200 51.14200 28.33900
C  16.26000 51.61200 29.72000
C  14.77700 52.02200 29.36300
C  14.81000 51.98800 27.83700
C  13.61600 51.29100 30.11200
C  17.30200 52.61700 30.40900
C  17.80300 52.33500 31.84600
H  16.94300 51.60300 32.81200
N  14.50400 52.14600 24.80200
C  13.58200 52.53600 25.69800
C  12.32700 53.01700 25.06600
C  12.55700 52.71000 23.66100
C  13.94200 52.12200 23.52000
C  11.06200 53.63000 25.63500
C  11.65300 52.92500 22.48000
O  11.96400 52.71100 21.31800
C  10.22700 53.41600 22.63000
N  16.82000 50.92600 23.10100
C  15.91300 51.17200 22.11600
C  16.44700 50.78700 20.62000
C  17.92800 50.39000 21.02900
C  17.91000 50.31900 22.57300
C  15.62700 49.66600 19.92200
C  19.08500 51.21400 20.45700
C  19.35000 52.65700 20.97100
N  18.27400 50.41700 25.49500
C  19.22300 49.77800 24.69300
C  20.19400 49.18300 25.57300
C  19.85400 49.54700 26.86100
C  18.64400 50.23600 26.77800
C  21.28800 48.23000 25.08100
C  20.18100 49.37700 28.25900
O  21.11100 48.80400 28.77800
C  19.05400 50.01900 29.03300
C  18.48500 48.86700 29.89300
O  17.67700 48.03600 29.49200
O  19.13600 48.86900 31.10300
C  18.64800 47.85500 32.00800
H  12.90500 52.73700 27.68900
H  14.15100 51.83300 21.37600
H  19.97700 49.32100 22.96200
H  16.20300 50.71700 30.33900
H  14.52800 53.07300 29.51100
H  13.98600 50.77300 30.99700
H  12.99200 50.61000 29.53500
H  12.94600 52.04900 30.51900
H  16.74700 53.55100 30.31200
H  18.14400 52.83500 29.75200
H  18.18300 53.20400 32.38300
H  18.71000 51.75200 31.69100
H  11.26600 53.79300 26.69300
H  10.19900 52.97900 25.50000
H  10.79100 54.65800 25.39400
H  10.40400 54.45000 22.92700
H  9.73100 52.68000 23.26300
H  9.73100 53.32700 21.66400
H  16.37300 51.60900 19.90800
H  18.17100 49.36600 20.74600
H  15.11000 50.17000 19.10500
H  14.82600 49.31200 20.57100
H  16.25400 48.80300 19.69300
H  18.89900 51.19500 19.38300
H  19.88900 50.52000 20.70000
H  20.28500 52.64000 21.53200
H  18.44400 52.98700 21.48000
H  19.44000 53.35100 20.13500
H  21.12700 47.79300 24.09500
H  21.26900 47.41500 25.80300
H  22.20100 48.81900 25.16500
H  19.47600 50.74300 29.73000
H  17.64000 47.45400 31.90500
H  18.63700 48.32100 32.99400
H  19.36300 47.03200 32.03400

