158

Mg 35.38200 48.60100 25.57000
C  36.08500 46.93500 28.52100
C  34.00500 51.19000 27.35000
C  34.57100 50.28400 22.61700
C  36.58400 45.92300 23.67400
N  34.98400 48.97300 27.70900
C  35.43700 48.15600 28.75100
C  35.16000 48.87900 30.12900
C  34.27700 50.19000 29.77000
C  34.41100 50.13100 28.20900
C  32.75600 50.17100 30.14500
C  36.44900 49.19000 30.92400
C  36.54200 49.18400 32.43500
H  35.22500 49.15900 33.27600
N  34.43500 50.45400 25.07200
C  33.99800 51.41900 25.97900
C  33.58600 52.65400 25.27300
C  33.73600 52.34400 23.86600
C  34.27900 50.95300 23.82600
C  33.01700 53.81300 26.07000
C  33.38600 53.26800 22.69900
O  33.59000 52.99000 21.53100
C  32.86900 54.66000 22.87100
N  35.45200 48.06600 23.50000
C  35.11400 48.97400 22.47900
C  35.37900 48.33800 21.07200
C  36.20100 47.06000 21.37700
C  36.05600 47.00000 22.95200
C  34.06700 48.12400 20.28800
C  37.68700 47.27800 20.96800
C  38.59400 48.09900 21.88800
N  36.17200 46.75400 25.95200
C  36.62900 45.75600 25.11400
C  37.24800 44.68400 25.99400
C  36.94800 45.07700 27.32200
C  36.33400 46.34500 27.26100
C  37.91400 43.48300 25.37000
C  37.16400 44.67200 28.65700
O  37.73600 43.74800 29.10100
C  36.56300 45.93100 29.53700
C  35.51000 45.30700 30.38500
O  34.37700 44.99400 30.03800
O  36.03200 45.15500 31.68000
C  35.12000 44.78900 32.80400
H  33.53600 51.91300 28.02000
H  34.44700 50.84100 21.68600
H  36.98000 45.05000 23.15200
H  34.53600 48.21200 30.72400
H  34.78600 51.11300 30.04700
H  32.17900 50.14800 29.22100
H  32.52600 51.00200 30.81200
H  32.66700 49.26600 30.74700
H  36.76200 50.16300 30.54500
H  37.24200 48.59000 30.47600
H  37.10200 50.02900 32.83600
H  37.12300 48.27200 32.57900
H  32.74600 54.71000 25.51300
H  33.78200 54.01300 26.82100
H  32.09400 53.55000 26.58700
H  31.79600 54.53800 23.02000
H  32.83200 55.02900 21.84600
H  33.44000 55.28500 23.55900
H  35.93500 49.03700 20.44700
H  35.75900 46.18500 20.90000
H  33.79200 47.07100 20.24500
H  34.24500 48.45800 19.26600
H  33.28800 48.62200 20.86600
H  37.79100 47.74200 19.98700
H  37.93900 46.22700 20.82200
H  38.15800 49.09200 21.99600
H  39.50500 48.21500 21.30100
H  38.97300 47.63100 22.79700
H  38.48800 42.98100 26.14800
H  38.45100 43.77200 24.46700
H  37.00100 42.93800 25.13300
H  37.33300 46.43800 30.11800
H  35.22900 45.51600 33.60900
H  35.57000 43.84400 33.10800
H  34.08700 44.61300 32.50200
Mg -12.54600 16.80400 42.32100
C  -9.65900 14.78900 41.61300
C  -10.98600 19.39000 40.70900
C  -15.53500 18.22800 41.96300
C  -14.24400 13.81900 43.22500
N  -10.54400 16.98300 41.22200
C  -9.53600 16.12800 41.15900
C  -8.31900 16.69900 40.43500
C  -8.72800 18.19800 40.56800
C  -10.23900 18.18900 40.78100
C  -7.88200 18.91500 41.73100
C  -8.09000 16.07300 39.04000
C  -6.64600 15.90400 38.57900
H  -6.33200 16.82500 37.46000
N  -13.13100 18.58900 41.56300
C  -12.35400 19.59700 41.01000
C  -13.10300 20.74700 40.71400
C  -14.44500 20.47600 41.10600
C  -14.42100 19.04300 41.58000
C  -12.58200 21.99900 40.19600
C  -15.66800 21.44900 41.07800
O  -15.62800 22.48400 40.45500
C  -16.96500 21.04000 41.63600
N  -14.61100 16.10200 42.83100
C  -15.62100 16.96800 42.52300
C  -16.99200 16.33800 42.79700
C  -16.55600 14.91000 43.32200
C  -15.04100 14.94700 43.14100
C  -18.06200 17.08900 43.62200
C  -17.30900 13.58200 42.83800
C  -17.89500 12.71200 43.99500
N  -12.15200 14.71900 42.41700
C  -12.87900 13.65400 42.86000
C  -12.10300 12.40400 42.79100
C  -10.79100 12.82900 42.37400
C  -10.90100 14.22500 42.09200
C  -12.51600 10.99500 43.17500
C  -9.43200 12.37400 42.14200
O  -8.92100 11.28000 42.35600
C  -8.67600 13.56700 41.51300
C  -7.50700 13.80700 42.43000
O  -7.48600 13.99400 43.66400
O  -6.44000 13.75500 41.56000
C  -5.12600 14.02300 42.10900
H  -10.50000 20.34700 40.51000
H  -16.46100 18.70200 41.62900
H  -14.76700 12.89100 43.46600
H  -7.40200 16.54200 41.00200
H  -8.56400 18.76000 39.64900
H  -7.13400 19.48000 41.17400
H  -7.42600 18.29800 42.50500
H  -8.56200 19.65600 42.15200
H  -8.38000 16.88400 38.37200
H  -8.61500 15.15700 38.77100
H  -6.43400 14.87800 38.27900
H  -5.89300 16.15400 39.32700
H  -12.93700 22.09600 39.17000
H  -11.50500 22.15600 40.25700
H  -13.02900 22.73200 40.86700
H  -17.56600 21.94700 41.69800
H  -16.86400 20.55500 42.60700
H  -17.55300 20.39900 40.97900
H  -17.58100 16.12400 41.90500
H  -16.60000 15.01500 44.40600
H  -17.62300 18.02100 43.97900
H  -18.28100 16.44900 44.47700
H  -18.92500 17.27500 42.98300
H  -16.76700 12.90100 42.18200
H  -18.16500 13.84900 42.21900
H  -18.97400 12.85000 43.91900
H  -17.52700 13.01800 44.97400
H  -17.60300 11.66800 43.88400
H  -12.68700 10.95100 44.25000
H  -11.80000 10.33300 42.68600
H  -13.49700 10.84300 42.72400
H  -8.23100 13.46100 40.52300
H  -5.03300 13.62600 43.12100
H  -4.88900 15.07900 42.23600
H  -4.26500 13.62400 41.57400

