158

Mg 36.37300 49.74900 24.70000
C  36.22500 48.06700 27.77100
C  35.34900 52.65000 26.23000
C  35.97200 51.23400 21.58400
C  36.99600 46.67800 23.12700
N  35.76400 50.21400 26.71300
C  35.99000 49.42800 27.83400
C  35.74200 50.31700 29.15300
C  35.28000 51.72400 28.58300
C  35.47600 51.55000 27.09600
C  33.98600 52.22500 29.09800
C  37.09800 50.39300 29.95600
C  37.14900 50.51000 31.49300
H  35.93300 50.76600 32.31400
N  35.75300 51.70900 23.99000
C  35.48400 52.74300 24.81000
C  35.17600 53.91100 24.03300
C  35.39100 53.58900 22.65300
C  35.75100 52.11000 22.67700
C  34.74200 55.31700 24.60100
C  35.16900 54.32500 21.34000
O  35.28500 53.76400 20.22000
C  34.66600 55.76900 21.42800
N  36.51100 49.03000 22.66000
C  36.34600 49.87400 21.60700
C  36.77100 49.15200 20.29700
C  37.22300 47.75400 20.82500
C  36.79700 47.76900 22.25000
C  35.70500 49.09900 19.21700
C  38.79900 47.46400 20.69700
C  39.28400 46.04500 20.37900
N  36.60800 47.75800 25.24700
C  36.78300 46.61300 24.52100
C  36.90100 45.51300 25.39400
C  36.71600 45.96700 26.68300
C  36.50400 47.32800 26.57700
C  37.15700 44.11400 24.98100
C  36.60600 45.62700 28.09000
O  36.76900 44.56600 28.65900
C  36.28700 47.03200 28.83500
C  35.07200 46.90500 29.70900
O  33.96300 47.06600 29.35500
O  35.44700 46.41500 30.97300
C  34.32000 46.36400 31.94000
H  35.11700 53.56900 26.77400
H  35.75600 51.61300 20.58300
H  37.36200 45.71700 22.76000
H  34.95300 49.80800 29.70700
H  35.97300 52.50500 28.89200
H  33.80100 51.78500 30.07800
H  33.11700 52.23600 28.44000
H  34.25900 53.26200 29.29300
H  37.67900 51.22700 29.56300
H  37.66700 49.50200 29.69000
H  37.86600 51.30900 31.68000
H  37.68700 49.70400 31.99300
H  35.53800 56.04100 24.42700
H  34.43100 55.24200 25.64300
H  33.86400 55.60400 24.02200
H  35.36600 56.42500 21.94600
H  33.65000 55.78300 21.82200
H  34.58500 56.04900 20.37800
H  37.56600 49.71100 19.80200
H  36.70100 46.93600 20.32800
H  35.85900 49.87400 18.46700
H  34.70300 49.31300 19.58700
H  35.55700 48.11000 18.78500
H  39.32100 47.75400 21.60800
H  39.13800 48.26800 20.04200
H  39.99400 46.18000 19.56300
H  38.45600 45.42500 20.03400
H  39.70100 45.49300 21.22200
H  37.91100 43.98200 24.20400
H  36.20100 43.65900 24.72100
H  37.67200 43.67700 25.83600
H  37.06600 47.21800 29.57500
H  34.56700 46.04700 32.95300
H  33.51200 45.80500 31.46700
H  33.90500 47.36900 32.01900
Mg 25.60200 51.70900 26.55300
C  23.17100 52.53900 29.03500
C  27.72600 50.69500 29.14100
C  28.08400 51.24600 24.41100
C  23.53700 52.94400 24.03800
N  25.49100 51.77400 28.85900
C  24.35600 52.00500 29.56900
C  24.66200 51.60300 30.98500
C  26.13100 51.06500 31.02100
C  26.51800 51.18100 29.57400
C  27.10800 51.72200 32.10800
C  23.67000 50.60100 31.58000
C  22.98700 51.06500 32.83400
H  23.14200 50.25600 34.11600
N  27.63900 51.08300 26.74100
C  28.28300 50.68200 27.89400
C  29.66700 50.35900 27.55100
C  29.80400 50.38200 26.12600
C  28.47000 50.92800 25.72100
C  30.55000 49.66900 28.58700
C  31.01000 49.97900 25.26200
O  31.12100 50.06000 24.00800
C  32.32200 49.40200 25.93600
N  25.75300 52.00800 24.52000
C  26.87600 51.76500 23.94500
C  26.66000 51.89400 22.43500
C  25.23600 52.42600 22.29400
C  24.76100 52.41700 23.67700
C  27.70300 52.82100 21.66000
C  24.36500 51.55000 21.35800
C  23.36100 52.30100 20.48200
N  23.76000 52.53600 26.48800
C  23.06200 53.06700 25.37000
C  21.74300 53.51200 25.88800
C  21.79400 53.33500 27.29100
C  22.97100 52.71600 27.60600
C  20.63800 53.98400 25.06800
C  20.97200 53.42100 28.45000
O  19.80600 53.75200 28.51000
C  21.82400 52.90400 29.62100
C  22.10000 54.01700 30.53300
O  22.56200 55.10300 30.22200
O  21.51300 53.64900 31.71800
C  21.26500 54.87200 32.54900
H  28.40700 50.32700 29.91100
H  28.80400 51.18300 23.59200
H  22.91400 53.41000 23.27200
H  24.63700 52.53200 31.55500
H  26.24100 49.98500 30.92400
H  27.55500 50.93300 32.71300
H  26.51800 52.44100 32.67800
H  27.85500 52.27000 31.53400
H  24.18000 49.66500 31.81000
H  22.94500 50.47400 30.77600
H  21.91700 51.05900 32.62700
H  23.21500 52.11200 33.03100
H  30.59100 48.58600 28.47000
H  30.39500 49.91500 29.63700
H  31.54700 50.02500 28.33000
H  32.05300 48.55500 26.56600
H  32.81000 50.20500 26.48800
H  33.06700 49.05600 25.21800
H  26.73100 50.87600 22.05100
H  25.25500 53.45700 21.94100
H  27.13000 53.55100 21.08800
H  28.41300 52.28300 21.03300
H  28.31500 53.38200 22.36600
H  23.94200 50.77700 22.00000
H  25.01000 51.04300 20.64100
H  23.48400 52.07800 19.42200
H  23.37700 53.37200 20.68600
H  22.36900 51.95100 20.76700
H  19.78800 53.63100 25.65100
H  20.68000 53.55300 24.06800
H  20.44600 55.05300 24.97500
H  21.36100 52.03400 30.08600
H  21.45100 55.84900 32.10300
H  21.70300 54.84700 33.54600
H  20.21800 54.88600 32.84900

