158

Mg 0.12600 8.03500 26.90500
C  0.48000 10.18100 29.69000
C  0.57300 5.30200 29.26400
C  -0.25700 5.97900 24.45500
C  0.07200 10.82100 24.81500
N  0.36800 7.77700 29.24400
C  0.33600 8.82700 30.10000
C  0.30600 8.30200 31.54500
C  0.80900 6.83600 31.38000
C  0.56400 6.59500 29.88300
C  2.27500 6.58800 31.81300
C  -1.12900 8.58400 32.14700
C  -1.45800 7.77400 33.41700
H  -0.35900 7.56300 34.40600
N  0.11600 6.03600 26.85900
C  0.23100 5.06800 27.95800
C  0.14500 3.71400 27.33100
C  -0.21300 3.88900 25.96900
C  -0.06700 5.36800 25.64100
C  0.45800 2.40600 28.08100
C  -0.46400 2.82300 24.89200
O  -0.81800 3.10500 23.79200
C  -0.51100 1.35100 25.19000
N  0.15600 8.33900 24.92500
C  -0.10100 7.31400 24.06200
C  -0.42400 7.79800 22.60100
C  -0.46200 9.37100 22.75900
C  -0.05100 9.52000 24.25000
C  0.45200 7.16100 21.53800
C  -1.96200 9.95500 22.59700
C  -2.05500 11.41900 22.07600
N  0.39200 10.00900 27.04600
C  0.30400 11.10000 26.15500
C  0.62100 12.32100 26.82800
C  0.73400 11.95100 28.15700
C  0.46400 10.60200 28.28000
C  0.76600 13.71600 26.24600
C  0.99400 12.50800 29.43100
O  1.20100 13.68600 29.72700
C  0.75400 11.43500 30.46000
C  1.93000 11.40500 31.36600
O  2.97100 10.80700 31.20000
O  1.52200 12.04600 32.50200
C  2.37900 11.92300 33.67600
H  0.91300 4.51900 29.94600
H  -0.41300 5.32700 23.59300
H  0.06500 11.70300 24.17100
H  0.98900 8.98800 32.04600
H  0.11300 6.15200 31.86600
H  2.80600 7.48900 32.12000
H  2.88200 6.03000 31.10000
H  2.29900 5.96100 32.70400
H  -1.87200 8.12700 31.49400
H  -1.34900 9.64500 32.27200
H  -1.85300 6.80600 33.10700
H  -2.28000 8.18700 34.00200
H  -0.47500 1.90500 28.33700
H  0.99500 2.55700 29.01800
H  1.09100 1.85200 27.38800
H  0.42000 0.96000 25.60000
H  -0.72200 0.79300 24.27800
H  -1.29200 1.12600 25.91700
H  -1.36700 7.27600 22.43500
H  0.13600 10.03300 22.13300
H  1.31100 6.72500 22.04800
H  0.78300 7.90300 20.81000
H  -0.11700 6.39000 21.01800
H  -2.39500 9.87000 23.59300
H  -2.71900 9.37400 22.07000
H  -2.59600 11.33100 21.13400
H  -1.08800 11.89600 21.91900
H  -2.59600 12.06200 22.77000
H  0.64500 13.63500 25.16600
H  1.71800 14.17400 26.51300
H  -0.05500 14.32300 26.62900
H  -0.21900 11.55800 30.93500
H  3.43600 11.73700 33.48500
H  1.94900 11.30500 34.46300
H  2.35700 12.92800 34.09800
Mg 23.75400 -3.90800 45.30100
C  25.84900 -1.38100 44.02200
C  21.29800 -2.91000 43.16300
C  22.43800 -6.92800 45.57200
C  26.73200 -5.22300 46.91100
N  23.66600 -2.35900 43.68400
C  24.62200 -1.45800 43.34900
C  24.17400 -0.58100 42.19700
C  22.56000 -0.75000 42.25100
C  22.49400 -2.15000 43.05100
C  21.61400 0.17100 43.10200
C  24.85600 -1.13400 40.91500
C  25.11600 -0.07700 39.89200
H  25.27000 -0.39000 38.37600
N  22.02300 -4.81300 44.55100
C  21.10100 -4.17300 43.74900
C  20.00100 -5.05400 43.49500
C  20.33800 -6.25900 44.21100
C  21.62200 -6.05300 44.84200
C  18.86400 -4.73800 42.60000
C  19.40900 -7.42400 44.20100
O  18.36900 -7.50600 43.55300
C  19.86200 -8.63100 44.95900
N  24.53800 -5.80700 46.12100
C  23.70900 -6.82500 46.07500
C  24.29000 -7.99400 46.88000
C  25.68100 -7.52300 47.33100
C  25.67500 -6.04800 46.79400
C  23.43600 -8.77300 48.03300
C  26.88500 -8.27900 46.77200
C  27.65900 -9.01200 47.88600
N  25.76500 -3.32400 45.65400
C  26.78000 -3.89000 46.41100
C  27.97200 -3.01500 46.31500
C  27.62600 -2.03500 45.42800
C  26.30200 -2.23900 44.98600
C  29.30500 -3.38300 47.01900
C  28.25500 -0.94100 44.71300
O  29.38400 -0.38200 44.79700
C  27.14300 -0.46200 43.71700
C  26.76400 0.92300 44.08100
O  25.99200 1.20700 44.98300
O  27.50900 1.82000 43.33000
C  27.31700 3.27000 43.47900
H  20.42300 -2.46000 42.68900
H  22.13500 -7.95900 45.77000
H  27.59300 -5.75200 47.32500
H  24.44800 0.43700 42.47200
H  22.21300 -1.07200 41.27000
H  20.76900 0.50900 42.50100
H  22.14200 1.08500 43.37400
H  21.36400 -0.28400 44.06000
H  24.16500 -1.87900 40.52000
H  25.82100 -1.53900 41.22200
H  26.00500 0.48900 40.17000
H  24.27600 0.61400 39.82100
H  19.07100 -5.06000 41.57900
H  18.69400 -3.66200 42.56700
H  17.90900 -5.09600 42.98600
H  19.22600 -9.51600 44.96900
H  19.89400 -8.35100 46.01200
H  20.83800 -8.94000 44.58500
H  24.48800 -8.76400 46.13400
H  25.71200 -7.50300 48.42100
H  22.63100 -8.06500 48.22800
H  23.93100 -8.88700 48.99800
H  23.09300 -9.74900 47.69100
H  27.57500 -7.62500 46.23800
H  26.65300 -9.06400 46.05200
H  27.40700 -10.03900 47.61900
H  27.43000 -8.61700 48.87600
H  28.73200 -8.84600 47.79200
H  29.26700 -4.43200 47.31400
H  29.55800 -2.83100 47.92400
H  30.10700 -3.27800 46.28800
H  27.55100 -0.53200 42.70900
H  26.51600 3.47400 44.19000
H  27.20900 3.75700 42.51000
H  28.13100 3.75400 44.02000

