158

Mg 44.56200 4.04500 47.29700
C  42.40700 6.75400 47.00800
C  41.74500 1.88100 47.21800
C  46.61800 1.42000 47.22300
C  47.23500 6.23900 47.26800
N  42.37700 4.33200 47.01000
C  41.75700 5.49900 46.86800
C  40.32200 5.26800 46.68700
C  39.93600 3.77200 47.02600
C  41.41300 3.21100 47.11000
C  39.03900 3.56100 48.24000
C  40.01600 5.60800 45.14400
C  39.06300 6.67600 44.80100
H  39.42100 7.64300 43.66800
N  44.20900 2.00200 47.28200
C  43.05700 1.30600 47.28200
C  43.29500 -0.11800 47.08900
C  44.69800 -0.27100 47.19100
C  45.22000 1.10700 47.17600
C  42.30500 -1.15900 46.79900
C  45.44000 -1.60500 47.11100
O  44.88100 -2.67500 47.24900
C  46.88300 -1.73600 46.81200
N  46.67300 3.86400 47.25800
C  47.30000 2.65700 47.18800
C  48.86100 2.84500 47.20100
C  49.02200 4.37900 47.11500
C  47.59400 4.89700 47.25700
C  49.50800 2.34800 48.48100
C  49.62500 4.92000 45.76800
C  51.10300 5.43000 45.89600
N  44.83100 6.17400 47.12300
C  45.98600 6.90100 47.15100
C  45.56000 8.30200 47.14100
C  44.17100 8.34300 47.14200
C  43.77500 6.97700 47.12000
C  46.48000 9.55500 47.28000
C  42.97300 9.17700 47.16000
O  42.84200 10.36300 47.20900
C  41.80700 8.16000 47.05200
C  40.91100 8.25400 48.27100
O  41.07200 7.62000 49.33000
O  40.01500 9.25200 48.04900
C  39.01200 9.52500 49.05300
H  40.82900 1.28900 47.18200
H  47.32300 0.58700 47.18400
H  48.04600 6.95500 47.42000
H  39.70800 5.95800 47.26600
H  39.58400 3.14200 46.20900
H  38.57500 2.57500 48.23200
H  38.35600 4.40100 48.37300
H  39.76000 3.63300 49.05400
H  39.66500 4.73000 44.60200
H  40.95600 5.85500 44.65100
H  38.99100 7.42400 45.59000
H  38.12300 6.16500 44.59200
H  42.31100 -1.68900 45.84600
H  41.28300 -0.88200 47.05800
H  42.53400 -2.01800 47.42900
H  46.98200 -1.00100 46.01300
H  47.24700 -2.65800 46.35800
H  47.53200 -1.47500 47.64800
H  49.17600 2.19800 46.38100
H  49.47900 4.86100 47.97900
H  50.16700 1.52000 48.22200
H  48.75200 1.94700 49.15600
H  50.14900 3.10600 48.93200
H  48.92700 5.69300 45.44500
H  49.67000 4.13100 45.01700
H  51.61900 5.41700 44.93600
H  51.64800 4.75900 46.56000
H  51.09600 6.46400 46.24100
H  46.78800 9.75700 48.30600
H  46.08000 10.47400 46.85100
H  47.34200 9.27800 46.67300
H  41.30400 8.41900 46.12000
H  38.76100 10.58600 49.03700
H  39.34400 9.30700 50.06700
H  38.06000 9.01800 48.89400
Mg -0.26100 33.97700 26.74000
C  -2.31900 32.39400 29.05400
C  1.15700 35.76300 29.23000
C  1.05300 36.03700 24.33600
C  -1.82400 32.17000 24.22900
N  -0.57700 34.09200 28.91100
C  -1.39300 33.26400 29.59000
C  -1.25700 33.67800 31.11200
C  -0.23400 34.88300 31.08400
C  0.28600 34.82700 29.66900
C  -0.72200 36.26200 31.48800
C  -0.81900 32.47700 31.96300
C  -0.35600 32.72300 33.41800
H  -0.72700 31.84200 34.57800
N  1.08700 35.68200 26.77500
C  1.57400 36.18900 27.88300
C  2.52400 37.19900 27.51200
C  2.52600 37.35100 26.08000
C  1.50500 36.39800 25.64100
C  3.28600 37.96000 28.45600
C  3.26000 38.35000 25.16600
O  3.16900 38.31200 23.92400
C  4.28200 39.36900 25.64200
N  -0.60800 34.26600 24.67800
C  0.17500 35.10700 23.90000
C  0.08600 34.77500 22.42800
C  -0.80600 33.47800 22.33400
C  -1.06000 33.24000 23.82200
C  -0.40800 35.93800 21.51700
C  -0.12300 32.20600 21.72900
C  0.95300 31.55900 22.60800
N  -1.78500 32.66000 26.60100
C  -2.29700 31.96700 25.52200
C  -3.35800 31.00300 25.93300
C  -3.32900 31.12700 27.33200
C  -2.43800 32.16400 27.68000
C  -4.06100 30.01100 25.13700
C  -3.93700 30.58400 28.57600
O  -4.79700 29.74700 28.72500
C  -3.17800 31.32000 29.77600
C  -4.16900 31.81600 30.73500
O  -4.88300 32.78500 30.58200
O  -3.98400 31.13600 31.93900
C  -4.87500 31.50000 33.05000
H  1.58900 36.47500 29.93600
H  1.72700 36.55600 23.65200
H  -2.25100 31.56800 23.42400
H  -2.17700 34.06800 31.54800
H  0.66100 34.69600 31.67700
H  -1.41000 36.18300 32.33100
H  -1.26700 36.66400 30.63500
H  0.16400 36.84100 31.74900
H  0.01300 32.02100 31.42700
H  -1.57700 31.70000 32.05700
H  -0.53100 33.76600 33.68200
H  0.72200 32.56600 33.46200
H  2.84400 38.92200 28.71500
H  4.31000 38.16200 28.14000
H  3.38100 37.37300 29.36900
H  4.01900 39.68500 26.65100
H  4.20000 40.26700 25.02800
H  5.27200 38.91300 25.63800
H  1.07800 34.42700 22.14100
H  -1.67600 33.55600 21.68300
H  -0.09900 36.90900 21.90400
H  -1.49300 35.86100 21.45000
H  -0.13200 35.74400 20.48000
H  0.27400 32.39300 20.73100
H  -0.81100 31.36200 21.68200
H  1.86600 31.35300 22.04900
H  0.64700 30.60600 23.03800
H  1.28900 32.29600 23.33700
H  -3.54300 29.73700 24.21800
H  -5.01500 30.32200 24.71300
H  -4.30200 29.21600 25.84300
H  -2.48500 30.61200 30.23000
H  -4.16600 31.65500 33.86300
H  -5.62700 30.75000 33.29200
H  -5.45700 32.41500 32.93700

