158

Mg -3.22600 16.69500 27.03400
C  -3.63000 14.79700 30.03100
C  -4.23300 19.46000 29.01100
C  -3.49700 18.60900 24.30600
C  -3.50300 13.82400 25.23900
N  -3.62400 17.09700 29.37100
C  -3.66100 16.12300 30.38700
C  -3.73000 16.78000 31.74400
C  -4.11600 18.23000 31.35500
C  -4.04800 18.30000 29.81300
C  -5.41300 18.69300 31.94600
C  -2.39500 16.53900 32.45700
C  -1.89200 17.51900 33.54100
H  -1.40300 16.91300 34.98800
N  -3.41100 18.70100 26.74700
C  -3.76500 19.74100 27.66400
C  -3.66700 21.02300 26.98500
C  -3.32700 20.76200 25.64100
C  -3.46000 19.28300 25.49100
C  -4.03300 22.30600 27.71200
C  -2.93300 21.68500 24.48300
O  -2.73000 21.31500 23.27400
C  -2.59200 23.05900 24.83400
N  -3.65600 16.23200 24.98900
C  -3.64300 17.23500 24.05000
C  -3.73100 16.64800 22.63500
C  -3.63600 15.07400 22.92800
C  -3.59200 15.01200 24.46000
C  -4.96900 17.15100 21.74500
C  -2.46600 14.40400 22.19100
C  -1.05400 14.31700 22.85300
N  -3.44000 14.69500 27.47500
C  -3.43200 13.62800 26.61300
C  -3.48200 12.42100 27.37900
C  -3.51200 12.82600 28.70300
C  -3.53900 14.27900 28.73900
C  -3.52600 10.98300 26.83600
C  -3.55400 12.33200 30.08000
O  -3.56200 11.22700 30.52500
C  -3.58200 13.63800 30.99400
C  -2.29900 13.53800 31.61300
O  -1.20200 13.82600 31.17800
O  -2.49700 13.01200 32.90400
C  -1.49400 13.08700 33.93300
H  -4.54700 20.31900 29.60800
H  -3.52000 19.23300 23.41000
H  -3.58400 12.83700 24.77900
H  -4.50600 16.32200 32.35700
H  -3.40700 18.86800 31.88300
H  -6.18600 18.39300 31.23900
H  -5.32300 19.73400 32.25500
H  -5.36200 18.23300 32.93300
H  -1.68200 16.51200 31.63300
H  -2.48200 15.53300 32.86800
H  -2.60000 18.28600 33.85600
H  -1.07000 18.01300 33.02400
H  -3.09900 22.85800 27.82100
H  -4.54100 22.19800 28.67100
H  -4.65300 22.86500 27.01100
H  -3.33500 23.67300 25.34300
H  -2.40500 23.61300 23.91400
H  -1.68500 22.99700 25.43500
H  -2.81800 17.03100 22.18100
H  -4.51400 14.59800 22.49100
H  -4.63500 17.61800 20.81800
H  -5.59800 17.82600 22.32600
H  -5.62700 16.31200 21.52100
H  -2.36200 14.98000 21.27100
H  -2.79500 13.42900 21.83100
H  -0.38400 14.98000 22.30500
H  -0.78500 13.27200 22.69500
H  -1.02800 14.61100 23.90200
H  -4.52300 10.60100 26.61300
H  -3.11400 10.27500 27.55600
H  -3.00100 11.10500 25.88900
H  -4.35700 13.63100 31.76000
H  -1.70900 13.84000 34.69100
H  -0.52400 13.36500 33.52100
H  -1.50400 12.06400 34.30900
Mg 7.32700 3.05600 27.59200
C  8.87900 1.98600 30.52100
C  5.38500 5.24400 29.50700
C  5.58000 3.86900 24.68500
C  9.14400 0.74900 25.75300
N  7.18500 3.55500 29.79200
C  8.01700 3.06200 30.76600
C  7.67800 3.73700 32.08000
C  6.48000 4.70400 31.75100
C  6.29000 4.49500 30.23800
C  5.15700 4.62000 32.53100
C  8.94900 4.45500 32.70700
C  8.69000 5.36200 33.97900
H  9.60300 5.11200 35.21600
N  5.79700 4.46400 27.13700
C  5.09500 5.20900 28.11600
C  4.10100 5.98500 27.42700
C  4.26900 5.73600 26.03000
C  5.18900 4.61600 25.87100
C  3.16400 7.01000 28.16800
C  3.67900 6.41300 24.79500
O  4.06300 6.20000 23.65300
C  2.89500 7.69100 25.05900
N  7.33900 2.38600 25.51800
C  6.54900 2.81900 24.53300
C  6.70700 2.04300 23.24500
C  7.85900 1.01000 23.52200
C  8.18900 1.41400 25.03500
C  5.43400 1.36000 22.71700
C  9.07700 1.20800 22.63800
C  9.64600 -0.10800 22.05600
N  8.80800 1.72100 27.97900
C  9.42900 0.87800 27.11900
C  10.31200 0.08900 27.98200
C  10.15600 0.45800 29.29500
C  9.23300 1.47800 29.21600
C  11.21900 -1.05400 27.57700
C  10.49200 0.14700 30.70100
O  11.17500 -0.73600 31.19000
C  9.67300 1.18800 31.57200
C  8.93400 0.54500 32.70800
O  7.77100 0.04100 32.60700
O  9.56700 0.80900 33.85800
C  8.91300 0.73500 35.12300
H  4.71500 5.86400 30.10600
H  4.91600 4.01900 23.83100
H  9.73900 -0.06000 25.32200
H  7.42400 3.05300 32.89100
H  6.84800 5.72700 31.81400
H  4.44700 4.15300 31.84900
H  4.76600 5.60900 32.77000
H  5.27700 4.02800 33.43900
H  9.41800 5.04200 31.91700
H  9.66600 3.68100 32.98300
H  7.63200 5.53100 34.17700
H  8.99000 6.40000 33.84000
H  3.50200 8.01800 27.92700
H  3.16500 6.92400 29.25500
H  2.16100 7.01600 27.74100
H  3.50800 8.28000 25.74100
H  1.89100 7.50200 25.43700
H  2.79800 8.27700 24.14500
H  7.02200 2.74000 22.46800
H  7.56900 -0.03800 23.44800
H  4.57000 1.87500 23.13700
H  5.43900 0.30700 22.99800
H  5.25300 1.58300 21.66500
H  9.85100 1.82600 23.09200
H  8.90200 1.78900 21.73200
H  10.36200 0.10700 21.26200
H  8.76200 -0.65400 21.72900
H  10.21000 -0.61900 22.83600
H  12.29200 -0.86000 27.54400
H  10.93500 -1.55100 26.64900
H  10.99100 -1.84300 28.29300
H  10.44300 1.78300 32.06400
H  9.35400 -0.01100 35.78500
H  7.86100 0.46000 35.04700
H  9.01500 1.67000 35.67500

