158

Mg 24.82600 1.64900 30.15100
C  26.95200 1.04900 32.79300
C  22.10800 1.53400 32.26700
C  22.79800 1.71700 27.33500
C  27.49000 1.00400 27.86300
N  24.54600 1.29100 32.36800
C  25.57300 1.30100 33.23600
C  25.08900 1.64800 34.61500
C  23.53600 1.55700 34.48800
C  23.35600 1.49600 32.96400
C  22.78500 0.32100 35.12500
C  25.60500 3.03400 35.05400
C  26.76100 2.99900 36.09100
H  26.42500 3.94300 37.29900
N  22.70700 1.58400 29.86200
C  21.79900 1.47500 30.81900
C  20.46400 1.47100 30.24800
C  20.63500 1.58700 28.84000
C  22.09700 1.71400 28.63900
C  19.22300 1.28200 31.09700
C  19.50100 1.77700 27.74200
O  19.65500 2.23600 26.59600
C  18.11500 1.25900 28.08700
N  25.10200 1.56700 27.91800
C  24.14000 1.64900 27.02000
C  24.63700 1.74900 25.62200
C  26.18400 1.64800 25.81500
C  26.26900 1.43800 27.29200
C  24.05000 0.81500 24.56100
C  26.93800 2.86900 25.15500
C  26.96500 4.14600 26.05200
N  26.89700 1.07600 30.23700
C  27.78700 0.93600 29.23800
C  29.10100 0.71700 29.88100
C  28.81000 0.68800 31.26700
C  27.40000 0.88000 31.46000
C  30.45700 0.62000 29.18000
C  29.36900 0.61200 32.65300
O  30.55700 0.59200 32.98800
C  28.17200 0.91800 33.66100
C  28.05500 -0.23000 34.57900
O  27.54700 -1.26700 34.36000
O  28.64400 0.04500 35.77200
C  28.36100 -0.93800 36.88600
H  21.26700 1.67400 32.94900
H  22.19800 1.74600 26.42400
H  28.29400 0.91300 27.12900
H  25.34300 0.89100 35.35800
H  22.97400 2.44600 34.77400
H  23.37400 -0.35000 35.75000
H  22.30500 -0.31600 34.38100
H  22.04800 0.78400 35.78100
H  24.76600 3.65500 35.36800
H  25.92800 3.64700 34.21200
H  27.66200 3.42400 35.64900
H  27.00300 1.97800 36.38500
H  18.47800 2.00000 30.75600
H  19.42000 1.56200 32.13200
H  18.81400 0.27500 31.18300
H  18.06400 0.28700 28.57900
H  17.59600 1.28800 27.12900
H  17.70700 2.04700 28.72000
H  24.51900 2.76300 25.23800
H  26.42200 0.67500 25.38400
H  23.53300 1.28800 23.72700
H  23.45500 0.10900 25.14000
H  24.86300 0.21600 24.15000
H  26.61000 3.13200 24.14900
H  27.96900 2.54100 25.02700
H  26.33800 4.08000 26.94200
H  26.60000 4.92500 25.38300
H  27.99000 4.42700 26.29600
H  30.54200 1.32900 28.35600
H  30.57800 -0.38200 28.76800
H  31.17800 0.88300 29.95400
H  28.40800 1.82300 34.22100
H  27.44800 -0.56200 37.34800
H  29.24900 -0.92200 37.51900
H  28.15600 -1.93700 36.50100
Mg 34.46700 3.28200 30.12500
C  32.37600 3.91000 32.81100
C  37.21000 3.11800 32.43200
C  36.60200 2.77700 27.54900
C  31.87600 3.73500 28.00100
N  34.76400 3.48300 32.26100
C  33.67700 3.57700 33.21000
C  34.13100 3.42100 34.71400
C  35.70200 3.45000 34.59600
C  35.95900 3.42700 33.03900
C  36.31500 4.72700 35.25300
C  33.52900 2.16300 35.37600
C  32.67300 2.54100 36.65800
H  33.38000 3.44500 37.72200
N  36.54100 2.88100 30.00100
C  37.47900 2.87400 31.06400
C  38.75000 2.41500 30.57600
C  38.67500 2.38800 29.12800
C  37.22400 2.68400 28.83400
C  40.00600 2.07700 31.41200
C  39.76400 2.11000 28.10800
O  39.62000 2.00100 26.94100
C  41.22000 1.94800 28.64200
N  34.28900 3.40800 27.99000
C  35.31900 3.10400 27.17000
C  34.79300 2.93900 25.70800
C  33.23700 2.81200 25.88100
C  33.08100 3.31300 27.37400
C  35.23100 3.96500 24.64600
C  32.69800 1.37100 25.80400
C  31.43400 1.24300 24.89600
N  32.49700 3.92000 30.27300
C  31.55000 4.11300 29.32000
C  30.25900 4.37000 29.97700
C  30.60900 4.34100 31.36800
C  31.88300 4.04200 31.46900
C  28.94300 4.41700 29.39600
C  29.98300 4.42000 32.63700
O  28.86400 4.70200 33.00900
C  31.13000 4.19200 33.66900
C  31.27200 5.38200 34.47500
O  31.85500 6.42200 34.13600
O  30.58100 5.26700 35.68800
C  30.67200 6.45800 36.53800
H  38.05700 2.99400 33.11100
H  37.30200 2.62100 26.72500
H  30.96300 3.77400 27.40400
H  33.60800 4.25700 35.17900
H  36.12900 2.58300 35.10100
H  35.51000 5.26500 35.75300
H  36.97000 5.28700 34.58600
H  36.95300 4.35900 36.05800
H  34.29700 1.43500 35.63800
H  32.79400 1.70800 34.71200
H  32.30900 1.59600 37.06400
H  31.83700 3.09200 36.22800
H  40.28100 1.02500 31.33500
H  39.76100 2.14400 32.47200
H  40.81500 2.79500 31.27500
H  41.60300 2.81400 29.18200
H  41.75000 1.74600 27.71200
H  41.14300 1.04500 29.24600
H  35.13100 1.99900 25.27100
H  32.78400 3.49700 25.16500
H  34.36000 4.57000 24.39300
H  35.61700 3.48100 23.74900
H  35.93200 4.64500 25.13100
H  32.51700 0.90700 26.77400
H  33.47800 0.76500 25.34200
H  30.72500 0.69500 25.51700
H  31.55200 0.60400 24.02000
H  30.95400 2.18100 24.61800
H  28.95700 4.44100 28.30600
H  28.33300 5.24200 29.76500
H  28.35100 3.56400 29.72700
H  30.80600 3.36700 34.30400
H  31.70600 6.57400 36.86300
H  30.13400 6.12400 37.42600
H  30.24900 7.40700 36.20900

