158

Mg 43.09800 4.46600 47.89100
C  40.97100 7.21300 48.08100
C  40.15600 2.50100 47.29900
C  44.97300 2.05400 46.86500
C  45.91500 6.71000 47.98800
N  40.82200 4.87200 47.67000
C  40.26600 6.03500 48.02100
C  38.71100 5.90300 48.00100
C  38.47000 4.39100 47.89400
C  39.90100 3.85500 47.61100
C  37.66500 3.70500 49.08500
C  37.93200 6.72700 46.89600
C  38.62800 7.16300 45.58000
H  38.25100 6.50400 44.20300
N  42.61200 2.48800 47.35500
C  41.36200 1.85700 47.24100
C  41.66700 0.49600 46.88200
C  43.03600 0.39100 46.46400
C  43.61700 1.68000 46.85400
C  40.53300 -0.56300 46.65700
C  43.79300 -0.72900 45.68400
O  43.07100 -1.60100 45.29200
C  45.27400 -0.73900 45.20600
N  45.16500 4.42300 47.39700
C  45.67600 3.23200 47.20300
C  47.22300 3.29200 47.25200
C  47.54200 4.81000 47.41000
C  46.13700 5.33400 47.70000
C  47.90100 2.41900 48.31800
C  48.26900 5.50600 46.22800
C  49.76900 5.24600 46.19800
N  43.46400 6.51700 47.98400
C  44.65500 7.34000 48.00600
C  44.29800 8.63700 48.23300
C  42.83700 8.74500 48.20000
C  42.37200 7.36200 48.07800
C  45.20100 9.83400 48.44100
C  41.72000 9.55800 48.26900
O  41.60000 10.74800 48.37300
C  40.43700 8.61200 48.19500
C  39.55800 8.80700 49.32800
O  39.64500 8.27500 50.38400
O  38.54100 9.74000 49.09500
C  37.40000 9.99000 49.97100
H  39.32400 1.84600 47.03300
H  45.64700 1.23200 46.61400
H  46.78900 7.29700 48.27800
H  38.19700 6.19500 48.91700
H  37.92200 4.23200 46.96500
H  36.85500 4.36400 49.39600
H  38.43600 3.64200 49.85200
H  37.34300 2.68100 48.89200
H  37.47700 7.57300 47.41200
H  37.11100 6.12700 46.50400
H  39.70200 7.06100 45.73600
H  38.30300 8.20400 45.55900
H  40.11300 -0.57000 45.65100
H  39.63800 -0.45300 47.26900
H  41.04200 -1.51300 46.81400
H  45.93000 -0.87100 46.06600
H  45.48400 0.24200 44.77900
H  45.54500 -1.52600 44.50100
H  47.68700 3.05200 46.29500
H  48.16800 5.00100 48.28100
H  48.43300 1.59300 47.84500
H  47.12200 2.02400 48.97000
H  48.70600 2.97000 48.80400
H  48.10000 6.58200 46.27300
H  47.88200 5.10000 45.29300
H  50.37100 6.14500 46.06400
H  50.10300 4.55100 45.42800
H  50.05700 4.71800 47.10700
H  44.69200 10.50100 47.74500
H  46.25900 9.80500 48.17700
H  45.13600 10.11800 49.49100
H  39.89200 8.93400 47.30800
H  37.57800 9.47100 50.91300
H  36.65700 9.38400 49.45100
H  37.10600 11.03400 50.08000
Mg 10.11900 47.78200 25.95800
C  7.87600 47.72800 28.58900
C  12.42800 49.19600 28.15100
C  12.56500 47.95300 23.48600
C  7.74800 47.03000 23.72600
N  10.07300 48.65500 28.13100
C  9.11600 48.21700 29.00200
C  9.67200 48.65200 30.41800
C  10.77200 49.72500 30.18300
C  11.13100 49.23900 28.72600
C  10.34200 51.20400 30.25300
C  10.22600 47.37700 31.22100
C  9.77100 47.34300 32.68900
H  10.03300 46.07400 33.58300
N  12.17700 48.36800 25.90700
C  12.95300 48.79800 26.91300
C  14.34500 48.76200 26.58200
C  14.46000 48.35600 25.19500
C  13.06400 48.14900 24.78500
C  15.51100 49.09100 27.50800
C  15.61600 48.18100 24.25000
O  15.54800 47.97000 23.02800
C  16.99700 48.29000 24.70300
N  10.12900 47.61200 23.88500
C  11.22500 47.67600 23.06700
C  10.89000 47.52200 21.63100
C  9.38100 47.18500 21.71900
C  9.04900 47.18600 23.19000
C  11.23300 48.88000 20.80000
C  9.02400 45.86300 21.05600
C  8.76900 44.55400 21.93100
N  8.13300 47.43300 26.07600
C  7.27000 47.07100 25.04200
C  5.92600 46.91400 25.66600
C  6.13100 47.08900 27.05100
C  7.48400 47.42300 27.19600
C  4.63300 46.60300 24.88800
C  5.49900 47.09200 28.37100
O  4.37300 46.73100 28.71800
C  6.56200 47.58700 29.37800
C  6.74600 46.59400 30.51400
O  7.36900 45.54600 30.44700
O  6.00000 47.03800 31.48300
C  6.00300 46.30600 32.82000
H  13.20500 49.64700 28.77300
H  13.28900 48.00800 22.67000
H  6.91400 46.87300 23.03900
H  8.89100 49.15600 30.98700
H  11.57000 49.59100 30.91300
H  9.29000 51.33100 30.51000
H  10.49000 51.66300 29.27500
H  10.98000 51.73500 30.95900
H  11.31100 47.48200 31.23400
H  9.96700 46.51300 30.61000
H  8.68300 47.40200 32.68200
H  10.09500 48.23800 33.22100
H  15.31500 49.46200 28.51400
H  16.02900 49.97800 27.14300
H  16.25100 48.29900 27.62600
H  17.44800 47.33200 24.96000
H  17.14900 49.09300 25.42500
H  17.62400 48.53700 23.84600
H  11.49700 46.71900 21.21300
H  8.84700 48.01100 21.24900
H  10.98300 49.85500 21.22000
H  10.78100 48.81600 19.81000
H  12.28200 49.05800 20.56700
H  9.70800 45.68300 20.22700
H  8.04400 46.00000 20.59900
H  9.54800 43.83700 21.67200
H  7.75200 44.16500 21.86800
H  8.93200 44.63800 23.00600
H  4.29800 47.50300 24.37100
H  3.87000 46.34300 25.62100
H  4.87200 45.76600 24.23200
H  6.15700 48.50400 29.80600
H  5.35600 45.43300 32.74100
H  5.53300 46.94100 33.57100
H  6.90600 45.86400 33.24300

