158

Mg 8.64300 3.85900 28.04900
C  9.77500 2.29600 30.97300
C  6.52000 5.73000 29.98200
C  7.24600 5.01000 25.08400
C  10.44900 1.44400 26.15400
N  8.32100 3.97100 30.22600
C  8.92100 3.31600 31.23000
C  8.30200 3.74300 32.63300
C  7.25900 4.77200 32.22100
C  7.33900 4.82100 30.68700
C  5.75600 4.64500 32.70600
C  9.44400 4.11900 33.69400
C  9.18600 5.17400 34.71300
H  9.58400 4.90300 36.17400
N  7.20200 5.24500 27.61500
C  6.42200 5.89600 28.54100
C  5.56800 6.86100 27.83800
C  5.79200 6.70000 26.47300
C  6.75300 5.59000 26.36100
C  4.50000 7.63100 28.57200
C  5.15100 7.42200 25.27300
O  5.49900 7.16200 24.14900
C  4.16200 8.57700 25.46400
N  8.65600 3.17400 25.95500
C  8.09900 3.93100 24.97800
C  8.67200 3.50300 23.61400
C  9.95200 2.71000 24.01700
C  9.68700 2.39900 25.44700
C  7.61300 2.73800 22.82100
C  11.32300 3.43000 23.91400
C  11.25600 4.96700 23.83300
N  9.91900 2.18100 28.44400
C  10.56100 1.31200 27.57500
C  11.18500 0.24200 28.40400
C  11.03900 0.66600 29.73200
C  10.13800 1.76400 29.68900
C  11.87700 -1.03600 27.91000
C  11.35700 0.35100 31.08600
O  12.08000 -0.58800 31.52200
C  10.53200 1.37600 32.07300
C  9.60000 0.50300 32.81300
O  8.50800 0.15300 32.43600
O  10.16000 0.27700 34.02800
C  9.44400 -0.72000 34.86800
H  6.07600 6.46500 30.65700
H  6.94100 5.47000 24.14200
H  11.20100 0.88700 25.59200
H  7.79000 2.85100 32.99300
H  7.52100 5.74400 32.64000
H  5.64600 5.37900 33.50400
H  5.62600 3.64400 33.11700
H  5.01000 4.85600 31.93900
H  10.37400 4.38500 33.19200
H  9.64500 3.23700 34.30200
H  8.09800 5.17300 34.65200
H  9.55100 6.15000 34.39400
H  4.35600 7.43600 29.63500
H  3.60700 7.27500 28.05800
H  4.74400 8.67900 28.40000
H  3.60300 8.72000 24.54000
H  4.64500 9.54000 25.63100
H  3.47200 8.42900 26.29400
H  8.98700 4.41300 23.10400
H  9.97800 1.77800 23.45200
H  6.75800 2.45900 23.43600
H  8.02900 1.86800 22.31300
H  7.15600 3.49800 22.18700
H  11.74200 3.32500 22.91300
H  12.09800 3.16300 24.63300
H  11.19200 5.37900 22.82600
H  12.09700 5.52000 24.25100
H  10.35500 5.27500 24.36200
H  12.83500 -0.75200 27.47400
H  11.20700 -1.65100 27.30900
H  12.15500 -1.52500 28.84300
H  11.26600 1.91800 32.67000
H  9.30200 -1.70200 34.41500
H  8.44700 -0.36400 35.12500
H  10.07200 -0.80500 35.75500
Mg 35.30300 49.01000 25.93800
C  35.72100 47.02600 28.78200
C  34.03900 51.55000 28.00400
C  34.50300 50.77500 23.26000
C  36.48400 46.40900 24.05100
N  34.89200 49.23400 28.16100
C  35.27500 48.31200 29.10100
C  35.09900 48.89100 30.47700
C  34.35400 50.24600 30.21600
C  34.39300 50.41100 28.68000
C  32.92300 50.37100 30.89500
C  36.41700 49.11500 31.27300
C  36.34200 48.94800 32.80200
H  34.99400 48.92800 33.48100
N  34.45300 50.88300 25.62500
C  34.05900 51.80300 26.58600
C  33.83300 53.11000 26.03300
C  33.87800 52.92100 24.59800
C  34.30700 51.49100 24.43900
C  33.60700 54.41000 26.84400
C  33.70900 53.97600 23.53700
O  33.85900 53.70000 22.36800
C  33.31900 55.43500 23.93600
N  35.44700 48.68700 23.91700
C  34.93500 49.46400 23.00200
C  34.96500 48.83800 21.62700
C  35.74000 47.50500 21.87800
C  35.97100 47.57200 23.38100
C  33.63700 48.66700 20.85500
C  37.03000 47.26000 21.05900
C  38.32100 47.81300 21.68600
N  35.89600 47.03800 26.31600
C  36.39500 46.12000 25.44700
C  36.75400 44.94300 26.08600
C  36.55700 45.15300 27.46900
C  36.07600 46.49500 27.53000
C  37.28600 43.65400 25.38300
C  36.52900 44.67600 28.84000
O  36.79100 43.57500 29.37600
C  36.03000 45.93800 29.74800
C  34.85700 45.49200 30.53900
O  33.71400 45.40000 30.08800
O  35.25300 45.27900 31.86200
C  34.14700 44.84600 32.67800
H  33.84900 52.37000 28.69900
H  34.19300 51.33100 22.37300
H  36.99800 45.66500 23.44000
H  34.50800 48.12600 30.98300
H  34.92800 50.98200 30.77900
H  32.14000 50.63800 30.18500
H  32.90600 51.23600 31.55800
H  32.66600 49.45100 31.41900
H  36.75700 50.12400 31.03600
H  37.18800 48.46600 30.85600
H  37.06900 49.59000 33.29900
H  36.77300 47.94800 32.85500
H  32.73400 54.98100 26.52800
H  34.46300 55.08200 26.77200
H  33.45100 54.14900 27.89100
H  34.00100 55.74300 24.72900
H  32.30900 55.41500 24.34400
H  33.44700 56.12100 23.09900
H  35.51200 49.49000 20.94600
H  35.06800 46.65200 21.78800
H  33.54500 47.63000 20.53000
H  33.44800 49.36000 20.03500
H  32.81000 48.78400 21.55500
H  36.90700 47.85700 20.15600
H  37.04700 46.18600 20.87200
H  39.06800 47.31200 21.07100
H  38.42200 47.59300 22.74900
H  38.48500 48.87000 21.47600
H  37.37200 42.88500 26.15000
H  38.16200 43.91500 24.78900
H  36.43400 43.33700 24.78200
H  36.83300 46.23800 30.42100
H  33.31400 45.54600 32.74300
H  34.46900 44.73800 33.71400
H  33.72500 43.85300 32.52500

