158

Mg 47.65000 34.01000 26.92000
C  45.80100 32.55600 29.50600
C  48.07500 36.81400 29.07400
C  49.04600 35.81000 24.37400
C  46.95500 31.47900 24.85000
N  46.93500 34.65500 29.02800
C  46.24100 33.81800 29.91000
C  46.08900 34.55700 31.27300
C  46.44300 35.97900 30.82100
C  47.25300 35.78300 29.58200
C  45.21300 36.86800 30.61100
C  47.02700 33.99700 32.31000
C  46.49400 33.97600 33.75800
H  45.62200 35.06600 34.33100
N  48.65200 35.93800 26.77900
C  48.72200 36.86800 27.80200
C  49.55700 37.90400 27.30500
C  49.80800 37.71200 25.95000
C  49.13500 36.47200 25.62700
C  50.06600 39.06200 28.22100
C  50.51300 38.58000 24.87400
O  50.64600 38.26200 23.72000
C  51.29900 39.74800 25.40500
N  47.87500 33.78500 24.94300
C  48.55400 34.62600 24.03900
C  48.60200 34.01300 22.67000
C  48.25100 32.45600 23.00000
C  47.65400 32.56200 24.37400
C  47.97100 34.73500 21.47000
C  49.44800 31.48500 23.00700
C  49.30100 30.28600 22.07500
N  46.61000 32.37600 27.08500
C  46.42300 31.40100 26.15700
C  45.71700 30.30800 26.80800
C  45.48400 30.66700 28.14200
C  46.06500 31.95500 28.23500
C  45.25400 29.02200 26.15900
C  44.83200 30.26100 29.35100
O  44.26000 29.23800 29.61700
C  44.85600 31.51200 30.21500
C  45.21400 31.14500 31.64500
O  46.32800 30.88900 32.01900
O  44.07600 30.89800 32.35200
C  44.39600 30.30900 33.68600
H  48.32500 37.61000 29.78000
H  49.61000 36.30600 23.58200
H  46.82900 30.63400 24.17100
H  45.07900 34.40000 31.65200
H  47.06500 36.36100 31.63100
H  44.24200 36.40900 30.80100
H  45.09400 37.22900 29.59000
H  45.16100 37.68700 31.32800
H  47.94200 34.57400 32.44200
H  47.39300 33.00000 32.06500
H  47.43100 34.05400 34.30900
H  46.12900 32.95900 33.89900
H  51.08900 39.42500 28.12400
H  50.18000 38.69100 29.24000
H  49.36900 39.87600 28.02300
H  50.60100 40.43600 25.88200
H  51.63600 40.17900 24.46300
H  52.11300 39.65000 26.12400
H  49.68500 34.07100 22.56500
H  47.42900 32.17700 22.33900
H  47.80800 34.13800 20.57300
H  48.55600 35.59500 21.14300
H  46.94100 34.99400 21.71600
H  49.67800 31.21700 24.03800
H  50.34400 32.05800 22.76600
H  49.45800 29.45500 22.76300
H  50.04600 30.44400 21.29500
H  48.35500 30.16400 21.54900
H  45.54700 28.23700 26.85600
H  45.79000 28.86400 25.22300
H  44.17300 28.96900 26.03300
H  43.86100 31.94000 30.33600
H  44.89700 31.02300 34.34000
H  44.98500 29.39600 33.60400
H  43.47100 29.99400 34.16900
Mg -9.52500 40.32300 42.42100
C  -8.24400 37.25900 41.41200
C  -6.67300 41.74900 41.02400
C  -10.80700 43.30900 43.14800
C  -12.55000 38.75900 43.26400
N  -7.87800 39.64000 41.01100
C  -7.49600 38.30100 40.87600
C  -6.18800 38.06300 40.11500
C  -5.53500 39.48200 40.35200
C  -6.75200 40.35900 40.85800
C  -4.42000 39.62400 41.41700
C  -6.38000 37.78400 38.64400
C  -5.69800 36.42900 38.16800
H  -4.68800 36.34300 37.03800
N  -8.80100 42.30500 42.14200
C  -7.58300 42.70300 41.57600
C  -7.59200 44.15200 41.62500
C  -8.71300 44.61700 42.35400
C  -9.53000 43.42300 42.51500
C  -6.60900 44.94900 40.79900
C  -8.91800 46.05500 42.81400
O  -8.27100 47.02900 42.40800
C  -9.93800 46.39000 43.85900
N  -11.34000 40.91000 43.28100
C  -11.71400 42.23600 43.39900
C  -13.17200 42.43300 43.92300
C  -13.66700 40.94700 43.90500
C  -12.46400 40.11500 43.49500
C  -13.33900 43.26200 45.21400
C  -14.99600 40.74600 43.05200
C  -16.23000 39.86700 43.56400
N  -10.24300 38.46000 42.51000
C  -11.45900 37.97900 42.90900
C  -11.41500 36.51700 42.80700
C  -10.14400 36.23300 42.29700
C  -9.49100 37.44000 42.04600
C  -12.42700 35.61800 43.25800
C  -9.26300 35.11400 41.86500
O  -9.39800 33.90100 41.80600
C  -7.90200 35.81400 41.37800
C  -6.85300 35.40800 42.38300
O  -6.52700 36.02600 43.42300
O  -6.22600 34.21900 41.99800
C  -5.45100 33.62900 43.03800
H  -5.73400 42.19100 40.68300
H  -11.21000 44.23200 43.56800
H  -13.44200 38.21000 43.57200
H  -5.55700 37.32600 40.61000
H  -5.18000 39.91400 39.41600
H  -3.53800 40.04900 40.93900
H  -4.19400 38.65000 41.85100
H  -4.69200 40.29000 42.23600
H  -6.15100 38.60200 37.96100
H  -7.44600 37.58700 38.52700
H  -6.51900 35.73300 37.99200
H  -5.32800 35.90900 39.05100
H  -5.75200 44.45100 40.34500
H  -6.21700 45.79100 41.37100
H  -7.19500 45.45200 40.03000
H  -10.89900 46.36900 43.34600
H  -9.88700 47.39800 44.27200
H  -9.85100 45.70200 44.70100
H  -13.60800 42.96700 43.07900
H  -13.84500 40.68500 44.94800
H  -14.32200 43.18800 45.67800
H  -13.06700 44.29100 44.97900
H  -12.62000 42.93500 45.96500
H  -14.66400 40.31000 42.11000
H  -15.42700 41.73700 42.91100
H  -17.10100 40.52000 43.62600
H  -16.03200 39.48500 44.56500
H  -16.33800 38.94800 42.98800
H  -13.20700 35.58100 42.49800
H  -12.85800 36.11600 44.12700
H  -12.06600 34.59800 43.39100
H  -7.54000 35.54000 40.38700
H  -6.18500 33.24800 43.74700
H  -4.70900 34.22900 43.56600
H  -4.80000 32.91200 42.53800

