158

Mg 1.80800 -0.91200 44.66400
C  5.11700 0.04100 43.77100
C  0.65100 1.84500 42.97300
C  -1.11300 -2.32100 44.88900
C  3.32500 -3.90800 46.05000
N  2.78500 0.72700 43.47400
C  4.15900 0.89300 43.29400
C  4.43400 2.17800 42.49000
C  3.05800 2.81400 42.33700
C  2.10200 1.73700 42.92300
C  2.89300 4.15700 43.10100
C  5.25800 2.03300 41.12900
C  6.02900 3.25900 40.61500
H  5.80700 3.84300 39.22500
N  -0.06600 -0.24000 44.17100
C  -0.35100 0.92200 43.49800
C  -1.80100 1.01300 43.32600
C  -2.36500 -0.15500 43.92300
C  -1.18400 -0.95700 44.43200
C  -2.46000 2.15300 42.50300
C  -3.88600 -0.49900 43.88100
O  -4.69300 0.30200 43.33300
C  -4.42000 -1.74700 44.40500
N  1.19500 -2.86800 45.44000
C  -0.09600 -3.18000 45.34900
C  -0.34800 -4.62900 45.79000
C  1.06200 -5.06600 46.36900
C  1.95500 -3.87600 45.98700
C  -1.53300 -4.74600 46.80500
C  1.57200 -6.50000 45.93000
C  2.22900 -7.34400 47.01800
N  3.73700 -1.81200 44.82000
C  4.23500 -2.98300 45.44100
C  5.64900 -3.09300 45.38500
C  6.01000 -1.87700 44.82700
C  4.87200 -1.12200 44.48200
C  6.55000 -4.23700 45.80600
C  7.18300 -1.07600 44.43500
O  8.38700 -1.42800 44.48600
C  6.60800 0.27100 43.83100
C  7.07900 1.38700 44.63200
O  6.71300 1.56800 45.76900
O  8.01300 2.25500 43.97800
C  8.35300 3.59200 44.60600
H  0.40700 2.71200 42.35600
H  -2.07200 -2.84200 44.90300
H  3.84000 -4.73000 46.55200
H  5.11200 2.80100 43.07400
H  2.78900 3.05800 41.31000
H  2.10400 4.15700 43.85300
H  2.82200 4.89100 42.29800
H  3.81400 4.38200 43.63900
H  4.56400 1.67600 40.36800
H  5.92500 1.18400 41.28000
H  7.09700 3.11500 40.78000
H  5.72000 4.14300 41.17300
H  -3.30900 2.52300 43.07900
H  -2.75100 1.80700 41.51200
H  -1.83500 3.03700 42.37500
H  -5.42800 -1.53300 44.76300
H  -3.88500 -2.00300 45.32000
H  -4.32400 -2.56500 43.69200
H  -0.47700 -5.17100 44.85400
H  0.94700 -5.11100 47.45200
H  -1.98900 -3.76900 46.96900
H  -1.42800 -5.26100 47.75900
H  -2.25100 -5.34900 46.24800
H  2.35800 -6.45300 45.17600
H  0.69900 -7.05900 45.59200
H  1.95900 -8.38000 46.81400
H  1.99900 -7.16500 48.06900
H  3.29000 -7.22000 46.79900
H  6.29600 -4.63900 46.78700
H  7.55900 -3.87900 46.00900
H  6.42500 -5.01100 45.04900
H  7.13700 0.29800 42.87800
H  8.80800 4.30500 43.91900
H  8.87200 3.44200 45.55300
H  7.46800 4.12200 44.95700
Mg 10.32800 48.09800 25.83700
C  8.11500 48.38100 28.49200
C  12.51600 49.94500 27.63000
C  12.53600 47.99000 23.24900
C  7.74500 47.32200 23.72500
N  10.28900 48.96800 27.81900
C  9.34400 48.92400 28.75600
C  9.74500 49.56200 30.09700
C  10.94400 50.43400 29.59000
C  11.28200 49.79300 28.23700
C  10.68100 51.91600 29.41200
C  10.20200 48.53900 31.12400
C  9.55800 48.73700 32.56900
H  9.70600 47.54400 33.52600
N  12.28800 48.68900 25.55100
C  13.02100 49.43500 26.40000
C  14.42900 49.60200 25.93900
C  14.39800 49.07600 24.62500
C  13.06500 48.52300 24.45900
C  15.45700 50.24000 26.77000
C  15.45800 49.09600 23.60100
O  15.30000 48.59300 22.47200
C  16.73900 49.86400 23.87800
N  10.26400 47.61400 23.81500
C  11.27300 47.62000 22.90300
C  10.82600 47.19400 21.48400
C  9.28600 46.92700 21.72800
C  9.04700 47.42000 23.20500
C  11.15600 48.32600 20.36200
C  8.84900 45.43500 21.50800
C  9.55300 44.30100 22.30900
N  8.36200 47.77000 26.02900
C  7.45000 47.49000 25.09700
C  6.13000 47.27600 25.66900
C  6.33700 47.59900 27.05700
C  7.72000 47.92900 27.16200
C  4.86700 46.88700 24.87200
C  5.73500 47.75800 28.30600
O  4.56600 47.73400 28.61900
C  6.80100 48.23100 29.30800
C  7.00700 47.19200 30.36900
O  7.85700 46.33000 30.22700
O  6.06600 47.23400 31.42400
C  6.34000 46.41800 32.60400
H  13.21500 50.59500 28.15900
H  13.12200 47.63400 22.39900
H  6.93400 47.03000 23.05400
H  8.94200 50.17400 30.50700
H  11.89500 50.43500 30.12300
H  9.69000 52.16900 29.78700
H  10.75800 52.20200 28.36300
H  11.41700 52.55600 29.89900
H  11.24800 48.59000 31.42600
H  9.87900 47.54700 30.80600
H  8.50400 48.58400 32.33400
H  9.81300 49.70600 32.99800
H  15.83500 51.14400 26.29400
H  16.23500 49.47800 26.72000
H  15.24400 50.52200 27.80100
H  17.39000 49.90300 23.00400
H  17.19600 49.39100 24.74700
H  16.62600 50.90500 24.17900
H  11.23400 46.20100 21.29300
H  8.64400 47.51600 21.07300
H  11.94600 47.99800 19.68600
H  11.55300 49.16600 20.93000
H  10.25500 48.62900 19.82800
H  9.01400 45.10100 20.48300
H  7.80700 45.31900 21.80500
H  8.86400 43.73300 22.93500
H  10.30400 44.60400 23.03800
H  10.05600 43.69900 21.55300
H  5.02500 46.31700 23.95600
H  4.20700 47.70200 24.57700
H  4.11600 46.39100 25.48700
H  6.43600 49.15700 29.75300
H  6.86900 45.47600 32.46000
H  5.33800 46.07300 32.85800
H  6.74200 47.11900 33.33700

