158

Mg 17.51900 -1.77000 27.22900
C  16.55200 0.15800 29.98200
C  19.32500 -3.68200 29.35500
C  18.85800 -3.18800 24.63700
C  15.53100 0.27500 25.21200
N  17.93900 -1.68800 29.42200
C  17.41500 -0.87200 30.39200
C  17.95700 -1.27300 31.78100
C  18.96500 -2.33600 31.46800
C  18.71300 -2.61400 30.00600
C  20.38500 -2.05100 31.94700
C  16.87700 -1.80900 32.74800
C  16.86900 -1.32700 34.18800
H  18.04000 -0.56900 34.72400
N  18.81300 -3.37300 27.02700
C  19.37800 -4.09900 28.05900
C  20.14400 -5.28300 27.50400
C  19.88900 -5.15800 26.09300
C  19.16300 -3.86500 25.84500
C  20.90800 -6.32900 28.29500
C  20.19300 -6.11100 24.98500
O  19.94500 -5.89200 23.80100
C  20.58500 -7.60500 25.35400
N  17.47200 -1.22300 25.29700
C  18.11700 -2.01200 24.38300
C  17.93700 -1.47100 22.94900
C  16.90700 -0.38500 23.05900
C  16.52700 -0.43800 24.58900
C  19.24400 -0.94200 22.30000
C  15.65900 -0.67700 22.10500
C  15.02200 0.58000 21.50700
N  16.30000 -0.02200 27.45800
C  15.53700 0.64800 26.55000
C  14.86000 1.77300 27.13200
C  15.15600 1.56700 28.56500
C  16.07500 0.48800 28.66800
C  14.05900 2.80600 26.49800
C  14.89500 2.02700 29.93800
O  14.26300 2.98400 30.32800
C  15.89600 1.11700 30.88200
C  16.79800 2.11100 31.51400
O  17.79700 2.55600 30.97500
O  16.50600 2.33100 32.81800
C  17.25000 3.40000 33.45800
H  20.01800 -4.20400 30.01900
H  19.15100 -3.51000 23.63600
H  14.92000 0.87700 24.53500
H  18.45600 -0.36200 32.10800
H  18.69500 -3.21200 32.05800
H  20.51600 -1.02900 32.30100
H  21.06200 -2.05200 31.09200
H  20.74200 -2.80700 32.64600
H  16.71500 -2.88600 32.72600
H  15.96100 -1.32700 32.40700
H  16.60800 -2.25200 34.70300
H  15.94600 -0.76700 34.33400
H  21.15500 -5.90700 29.26900
H  21.80600 -6.79900 27.89300
H  20.14000 -7.07700 28.48800
H  19.80300 -8.12900 25.90500
H  21.56100 -7.60100 25.84000
H  20.81000 -8.03100 24.37600
H  17.50000 -2.31800 22.42000
H  17.37200 0.59400 22.93800
H  19.02500 -0.07800 21.67200
H  19.76600 -1.69000 21.70400
H  19.84500 -0.64500 23.16000
H  14.95500 -1.30700 22.64800
H  15.99000 -1.18000 21.19700
H  15.37000 1.55800 21.84000
H  13.93800 0.48000 21.56900
H  15.30700 0.62500 20.45600
H  14.49000 3.80500 26.56300
H  13.25600 2.91200 27.22700
H  13.65800 2.45900 25.54500
H  15.37300 0.66600 31.72500
H  18.23700 3.52300 33.01100
H  17.52800 3.09600 34.46700
H  16.65800 4.30100 33.62000
Mg 26.50400 50.93600 26.76100
C  24.21400 51.85100 29.42300
C  28.70400 50.10500 29.06500
C  28.74800 50.38600 24.13200
C  24.37500 52.34800 24.63800
N  26.53800 51.21000 29.04600
C  25.48300 51.39300 29.90400
C  25.90900 51.33700 31.36700
C  27.48300 51.03400 31.25900
C  27.58800 50.72200 29.72400
C  28.49000 52.13200 31.69100
C  25.11300 50.13200 32.11700
C  24.62400 50.31700 33.61900
H  25.58700 50.53800 34.83400
N  28.47500 50.27300 26.62700
C  29.25900 49.95500 27.71900
C  30.57300 49.50100 27.25500
C  30.52600 49.64500 25.88300
C  29.22400 50.14200 25.46000
C  31.60800 49.02700 28.27500
C  31.66300 49.26100 24.92800
O  31.55400 49.46900 23.73700
C  32.97500 48.67700 25.51400
N  26.60500 51.25100 24.69300
C  27.49700 50.91500 23.83400
C  27.06800 51.20500 22.38400
C  25.62600 51.63400 22.53400
C  25.57600 51.81400 24.05900
C  28.03000 52.23000 21.57500
C  24.47900 50.68600 22.18100
C  23.29800 51.31400 21.50200
N  24.74400 51.90000 26.92200
C  24.00500 52.48700 25.93600
C  22.73500 53.00300 26.38200
C  22.84200 52.80300 27.78100
C  24.03500 52.09300 28.08500
C  21.61800 53.41700 25.52600
C  22.12100 52.91000 29.01800
O  20.99000 53.26900 29.23300
C  22.93200 52.21900 30.03800
C  23.13900 53.16600 31.13000
O  23.74900 54.20700 30.99000
O  22.37100 52.89100 32.27400
C  22.44600 53.84300 33.40700
H  29.37200 49.83200 29.88500
H  29.44600 50.20100 23.31300
H  23.64900 52.73100 23.91800
H  25.65400 52.25100 31.90300
H  27.72900 50.09800 31.76100
H  28.00200 52.66500 32.50700
H  28.78400 52.79900 30.88100
H  29.28600 51.46200 32.01600
H  25.71400 49.22300 32.15300
H  24.27400 49.86200 31.47600
H  24.12800 49.38100 33.87700
H  23.86700 51.08900 33.75700
H  32.62200 49.39000 28.10600
H  31.75100 47.94800 28.22900
H  31.26500 49.26800 29.28100
H  33.71000 48.48600 24.73200
H  32.76800 47.66800 25.86900
H  33.34400 49.39900 26.24200
H  27.05500 50.20100 21.96100
H  25.45800 52.48700 21.87600
H  28.93900 52.58500 22.06100
H  27.48700 53.11400 21.24100
H  28.39700 51.69300 20.70000
H  24.11300 50.12400 23.04000
H  24.85100 49.92000 21.50000
H  23.07300 50.67800 20.64600
H  23.41800 52.37600 21.29000
H  22.38700 51.26500 22.09700
H  20.82700 53.83900 26.14600
H  21.28900 52.57500 24.91600
H  21.97300 54.24300 24.91000
H  22.39500 51.34600 30.40900
H  23.42200 53.73500 33.88000
H  21.63000 53.69300 34.11500
H  22.30600 54.87700 33.09300

