158

Mg -1.66000 17.12400 26.15300
C  -1.95400 14.89600 28.72900
C  -2.10700 19.77200 28.37200
C  -1.50800 19.34800 23.49400
C  -1.63600 14.60100 23.85300
N  -2.01200 17.29700 28.35600
C  -2.07200 16.24500 29.23000
C  -2.50700 16.77800 30.68400
C  -2.16300 18.31300 30.52300
C  -2.09800 18.48500 28.98900
C  -3.21200 19.20900 31.32200
C  -1.64600 16.03600 31.74800
C  -1.26400 16.61400 33.15600
H  -1.22900 15.73600 34.40400
N  -1.84100 19.21000 26.01900
C  -1.96100 20.15500 27.01900
C  -1.96700 21.52500 26.51600
C  -1.96400 21.43800 25.15200
C  -1.82900 19.92800 24.81000
C  -2.19200 22.68900 27.40800
C  -2.01400 22.55300 24.09200
O  -2.09300 22.25300 22.90300
C  -1.91500 23.99000 24.53500
N  -1.67300 17.00500 23.97000
C  -1.53200 18.03000 23.09000
C  -1.10600 17.58400 21.70100
C  -0.93100 15.97600 21.89600
C  -1.46400 15.87000 23.32300
C  -2.02200 18.11200 20.57900
C  0.50200 15.39500 21.68200
C  0.57000 14.28300 20.66500
N  -1.90200 15.15300 26.19400
C  -1.91900 14.24400 25.17900
C  -2.04300 12.93400 25.70700
C  -1.98000 13.12800 27.14700
C  -1.97500 14.52900 27.34200
C  -2.15600 11.68200 24.91700
C  -1.94600 12.43700 28.38800
O  -1.93800 11.26500 28.60800
C  -2.06900 13.51600 29.44300
C  -0.96800 13.33700 30.40600
O  0.17500 13.70000 30.23200
O  -1.46400 12.63500 31.54000
C  -0.55500 12.37300 32.61000
H  -2.18600 20.57200 29.11100
H  -1.46300 20.05600 22.66400
H  -1.33100 13.83400 23.13700
H  -3.54800 16.46200 30.73500
H  -1.19500 18.63000 30.91100
H  -3.81500 19.84600 30.67600
H  -2.67100 19.79600 32.06400
H  -3.90700 18.62300 31.92200
H  -0.66700 15.89100 31.29000
H  -2.19400 15.10900 31.91800
H  -1.90500 17.44300 33.45700
H  -0.25500 17.01300 33.05300
H  -3.01800 23.33600 27.11100
H  -1.25400 23.24100 27.44800
H  -2.54800 22.47500 28.41600
H  -1.02400 24.05900 25.15800
H  -2.86000 24.26800 25.00300
H  -1.78700 24.38200 23.52600
H  -0.17900 18.13500 21.54200
H  -1.64000 15.52700 21.20100
H  -2.80700 18.71500 21.03500
H  -2.32200 17.15000 20.16300
H  -1.57200 18.63000 19.73200
H  0.78100 14.92000 22.62200
H  1.17900 16.19000 21.37100
H  -0.38700 13.91800 20.29200
H  1.05600 13.42000 21.12000
H  1.26200 14.47800 19.84600
H  -1.28600 11.06500 25.14100
H  -2.33600 11.84400 23.85400
H  -3.06100 11.28100 25.37400
H  -3.02700 13.41600 29.95400
H  -1.21200 12.27300 33.47300
H  0.29500 13.05400 32.66600
H  -0.16700 11.37200 32.42300
Mg 0.49100 43.59800 26.29700
C  2.51500 42.78300 29.00000
C  -2.27400 43.04300 28.32100
C  -1.50400 43.64800 23.54000
C  3.27400 43.71000 24.30400
N  0.15800 42.88500 28.34400
C  1.11800 42.66800 29.30800
C  0.55400 42.57700 30.67300
C  -0.95300 42.41200 30.36300
C  -1.04900 42.82300 28.86700
C  -1.48900 40.96400 30.74600
C  0.87000 43.88400 31.47000
C  1.62300 43.76300 32.80200
H  1.38500 42.52700 33.64200
N  -1.61400 43.41400 25.95000
C  -2.56800 43.26000 26.92200
C  -3.86300 43.34300 26.27800
C  -3.67300 43.58600 24.87900
C  -2.23700 43.54600 24.75200
C  -5.14700 43.00900 26.97900
C  -4.64500 43.91400 23.79500
O  -4.41000 44.09500 22.59400
C  -6.08900 43.97800 24.10000
N  0.78800 43.77400 24.27200
C  -0.15400 43.72400 23.29500
C  0.52000 43.89200 21.87900
C  2.03500 44.18500 22.21900
C  2.06700 43.87000 23.72200
C  0.32600 42.81500 20.82000
C  2.61000 45.59500 21.90300
C  4.16200 45.69100 21.80900
N  2.57800 43.34600 26.57400
C  3.55600 43.42100 25.64400
C  4.80800 43.29200 26.37800
C  4.46000 42.97400 27.67600
C  3.10600 43.07300 27.74200
C  6.15300 43.41400 25.74300
C  4.95700 42.55300 28.94500
O  6.07400 42.27100 29.31200
C  3.69600 42.54900 29.86900
C  3.78800 41.29300 30.69600
O  3.13000 40.26600 30.59500
O  4.67100 41.39600 31.75500
C  4.85200 40.15500 32.54100
H  -3.11200 42.90300 29.00800
H  -2.06400 43.79000 22.61400
H  4.15200 43.66800 23.65600
H  0.92700 41.69100 31.18900
H  -1.49900 43.18800 30.89900
H  -2.57600 40.91800 30.81900
H  -1.00400 40.61500 31.65800
H  -1.23900 40.26000 29.95200
H  -0.00200 44.53400 31.53800
H  1.63000 44.43500 30.91600
H  1.24500 44.53200 33.47600
H  2.67500 43.93300 32.57600
H  -5.43500 42.08700 26.47500
H  -5.94400 43.74500 26.87300
H  -5.08900 42.71800 28.02800
H  -6.42100 42.94200 24.16000
H  -6.63200 44.45000 23.28000
H  -6.41200 44.40600 25.04900
H  0.14800 44.80400 21.41200
H  2.76600 43.47900 21.82800
H  -0.54200 42.21600 21.09600
H  1.15800 42.11800 20.72200
H  0.04700 43.30600 19.88800
H  2.31800 46.31200 22.67000
H  2.26400 45.99500 20.95000
H  4.68300 44.74400 21.66700
H  4.56600 46.19600 22.68700
H  4.49000 46.25300 20.93400
H  6.05100 43.24200 24.67200
H  6.70800 42.60500 26.21800
H  6.64700 44.37100 25.91400
H  3.90100 43.43500 30.47000
H  5.08800 39.24800 31.98400
H  4.18400 40.03900 33.39500
H  5.75000 40.25300 33.15000

