158

Mg 1.36600 8.47500 26.90400
C  2.01000 10.20400 29.98700
C  1.37400 5.49400 28.72600
C  1.16600 6.88600 24.00300
C  2.07300 11.47600 25.27300
N  1.75800 7.94600 29.11500
C  1.74300 8.82000 30.18200
C  1.35700 8.20400 31.48900
C  1.35500 6.64400 31.10600
C  1.48600 6.66500 29.57700
C  2.41100 5.84400 31.92400
C  -0.06700 8.73000 31.96900
C  -0.38800 8.52100 33.45100
H  0.77000 8.02700 34.28900
N  1.37600 6.47600 26.42200
C  1.36600 5.37300 27.29500
C  1.20500 4.22200 26.61400
C  0.90600 4.56600 25.27900
C  1.13400 6.02900 25.16300
C  1.16100 2.90100 27.27000
C  0.48000 3.65600 24.09400
O  0.16600 4.09200 22.97000
C  0.51800 2.16400 24.24300
N  1.82300 9.04300 24.96300
C  1.55000 8.22800 23.92600
C  1.50900 8.99000 22.59600
C  1.70200 10.45600 23.03100
C  1.83600 10.32900 24.53600
C  2.63100 8.52200 21.58800
C  0.48100 11.37300 22.63000
C  -0.89200 10.95900 23.17100
N  1.85500 10.47300 27.48400
C  2.06200 11.60400 26.71200
C  2.32900 12.80300 27.56200
C  2.29300 12.31600 28.86700
C  2.01900 10.88100 28.73100
C  2.44300 14.24000 27.17200
C  2.33800 12.62600 30.26700
O  2.71300 13.68300 30.79300
C  2.16500 11.31400 31.02400
C  3.31100 11.12200 32.01400
O  4.45800 10.99200 31.71300
O  2.83100 11.39600 33.27900
C  3.87900 11.31300 34.31900
H  1.29200 4.59700 29.34200
H  0.89600 6.31500 23.11200
H  2.34500 12.42800 24.81100
H  2.15400 8.33900 32.22000
H  0.38600 6.25700 31.42200
H  3.27600 6.48500 32.09600
H  2.77600 4.98200 31.36600
H  1.89600 5.49200 32.81800
H  -0.80400 8.03400 31.56600
H  -0.27300 9.78700 31.80300
H  -1.24400 7.85600 33.57200
H  -0.71300 9.42500 33.96700
H  0.24300 2.33200 27.12600
H  1.43500 2.79700 28.32000
H  1.80300 2.28100 26.64500
H  1.49800 1.87300 24.62200
H  0.33300 1.63300 23.31000
H  -0.26500 1.88600 24.94900
H  0.53100 8.78700 22.16100
H  2.56200 10.93200 22.56200
H  3.19900 9.31400 21.09900
H  2.29100 7.94500 20.72800
H  3.25100 7.78700 22.10100
H  0.39900 11.37200 21.54400
H  0.59200 12.41500 22.93000
H  -0.62600 10.35300 24.03800
H  -1.39100 10.41800 22.36700
H  -1.48100 11.76700 23.60400
H  1.73100 14.89500 27.67600
H  2.34400 14.28900 26.08800
H  3.43900 14.61700 27.40200
H  1.30600 11.31200 31.69500
H  4.20700 12.31800 34.58400
H  4.72100 10.70000 33.99600
H  3.46200 10.84800 35.21200
Mg 47.36900 25.82800 28.32500
C  48.03000 27.98500 30.91900
C  47.25100 23.17400 30.40400
C  47.54200 23.79400 25.55000
C  48.47800 28.52200 26.07200
N  47.46300 25.65500 30.38800
C  47.68600 26.68300 31.33700
C  47.68200 26.14100 32.75300
C  47.43100 24.59500 32.51900
C  47.34300 24.43300 30.97700
C  48.38300 23.58000 33.31800
C  46.75500 26.85700 33.66300
C  46.08200 26.18600 34.89400
H  45.73100 27.07900 36.09000
N  47.08600 23.82000 28.06200
C  47.14400 22.89200 29.02700
C  47.07000 21.57200 28.40800
C  47.00500 21.80900 27.05600
C  47.29500 23.22300 26.81800
C  46.85800 20.29500 29.20200
C  46.88000 20.76600 25.93000
O  46.99800 21.02400 24.71700
C  46.43600 19.39900 26.22600
N  48.13000 26.06300 26.15200
C  47.94700 25.08700 25.20000
C  47.94800 25.63700 23.67800
C  48.10000 27.20200 23.91900
C  48.24300 27.27000 25.45700
C  49.07700 25.01500 22.76100
C  46.84300 27.95300 23.42600
C  47.17100 29.26300 22.69000
N  48.11200 27.80700 28.42200
C  48.52500 28.77300 27.47500
C  48.91800 30.02500 28.16600
C  48.66800 29.72700 29.50700
C  48.20200 28.40000 29.63200
C  49.42500 31.22900 27.60300
C  48.71300 30.26500 30.80900
O  48.93400 31.37600 31.22800
C  48.21900 29.17100 31.81200
C  49.34200 28.89600 32.75700
O  50.32600 28.23200 32.60200
O  49.03900 29.54400 33.93200
C  49.90800 29.15600 35.07000
H  47.03900 22.41400 31.15800
H  47.56100 23.24700 24.60500
H  48.54800 29.40500 25.43300
H  48.70800 26.19900 33.11700
H  46.42300 24.45600 32.91000
H  49.21100 24.20900 33.64500
H  48.74300 22.74000 32.72300
H  47.92500 23.16100 34.21300
H  45.97000 27.27600 33.03300
H  47.23900 27.75100 34.05600
H  46.78000 25.44300 35.28000
H  45.15600 25.83600 34.43700
H  47.47000 19.51500 28.74900
H  45.80300 20.03500 29.12900
H  47.12200 20.48000 30.24300
H  47.27900 18.98300 26.77600
H  46.32200 18.88000 25.27400
H  45.45000 19.40400 26.69000
H  46.91000 25.47500 23.38700
H  49.06000 27.41600 23.45100
H  49.75200 24.49800 23.44400
H  49.64600 25.76100 22.20600
H  48.65200 24.33100 22.02600
H  46.20900 28.27900 24.25000
H  46.30900 27.37500 22.67100
H  46.51400 29.38900 21.82900
H  48.20900 29.43300 22.40700
H  47.00300 30.13600 23.32100
H  49.57900 31.23000 26.52400
H  50.33000 31.51000 28.14100
H  48.67800 31.97700 27.86800
H  47.29900 29.48800 32.30500
H  49.96800 29.99800 35.76000
H  50.95400 28.92900 34.86400
H  49.49600 28.26900 35.55000

