158

Mg 24.11700 -5.21200 45.22300
C  26.34200 -3.10700 43.53900
C  21.71800 -4.20600 43.01400
C  22.19100 -7.99000 46.01700
C  26.87200 -6.59300 46.88100
N  24.14700 -3.94400 43.41400
C  25.09700 -3.06200 43.04000
C  24.62700 -2.08500 41.90600
C  23.09300 -2.34600 41.97600
C  22.95300 -3.58400 42.82500
C  22.22100 -1.11400 42.45200
C  25.29300 -2.25200 40.49100
C  25.24100 -1.03100 39.61400
H  24.85500 -1.27600 38.09800
N  22.13300 -5.96700 44.64200
C  21.31400 -5.36100 43.74300
C  20.08800 -6.09600 43.70000
C  20.13300 -7.11300 44.69000
C  21.52500 -7.08300 45.17100
C  18.93900 -5.60000 42.78600
C  18.99500 -8.03700 45.11800
O  17.90200 -7.93700 44.52300
C  19.15700 -9.01200 46.27900
N  24.48100 -7.05600 46.13800
C  23.57200 -8.03400 46.45000
C  24.21700 -9.10000 47.28500
C  25.58700 -8.58000 47.74600
C  25.67700 -7.37400 46.78400
C  23.31900 -9.73700 48.44200
C  26.78600 -9.57700 47.61500
C  27.59100 -9.79800 48.90200
N  26.21700 -4.78000 45.39100
C  27.18400 -5.42700 46.13600
C  28.50400 -4.78500 45.96900
C  28.21400 -3.81400 44.92900
C  26.82700 -3.89500 44.62700
C  29.76000 -5.17200 46.60800
C  28.76200 -2.80600 44.04900
O  29.93400 -2.44700 43.93000
C  27.54400 -2.21500 43.21400
C  27.29000 -0.84000 43.69300
O  26.60800 -0.53600 44.65600
O  27.93900 0.13400 42.87500
C  27.87400 1.49600 43.47400
H  20.97500 -3.70400 42.39000
H  21.70700 -8.88300 46.41700
H  27.70200 -7.00300 47.45900
H  24.87100 -1.07000 42.22000
H  22.73600 -2.62900 40.98700
H  22.89100 -0.25600 42.51200
H  21.77600 -1.40300 43.40400
H  21.38200 -0.97500 41.77000
H  24.82600 -3.13000 40.04500
H  26.33400 -2.54700 40.62200
H  26.23100 -0.60600 39.78000
H  24.53300 -0.43300 40.18900
H  18.31300 -4.85000 43.27000
H  18.17900 -6.36600 42.63100
H  19.33000 -5.08300 41.90900
H  18.17000 -9.17900 46.71000
H  19.76400 -8.56800 47.06800
H  19.57400 -9.96000 45.94000
H  24.43400 -9.94700 46.63500
H  25.56800 -8.20400 48.76900
H  24.07400 -10.05200 49.16200
H  22.69100 -10.51800 48.01400
H  22.71900 -8.94200 48.88600
H  27.48000 -9.17700 46.87600
H  26.38700 -10.55200 47.33400
H  28.66800 -9.78900 48.73600
H  27.24100 -10.79100 49.18500
H  27.16400 -9.04500 49.56300
H  30.63000 -4.98400 45.98000
H  29.76000 -6.18000 47.02400
H  29.88900 -4.45500 47.41900
H  27.77500 -2.33200 42.15500
H  27.01600 1.89100 44.01900
H  27.94800 2.22200 42.66400
H  28.68900 1.52600 44.19700
Mg 0.76300 42.87300 25.02500
C  2.26800 42.97800 28.06000
C  -2.11200 41.47100 26.55000
C  -0.47000 41.91100 21.96400
C  3.79900 43.63200 23.46800
N  0.11200 42.39800 26.99400
C  0.89700 42.64000 28.09300
C  0.13000 42.54400 29.44700
C  -1.21800 41.88300 28.97100
C  -1.10600 41.85300 27.46900
C  -1.49300 40.47400 29.61100
C  0.00000 43.90200 30.21800
C  0.49700 43.72000 31.60500
H  -0.56200 43.70700 32.66000
N  -1.05600 41.93800 24.31500
C  -2.05800 41.40700 25.11700
C  -3.04500 40.83500 24.27300
C  -2.65200 40.99800 22.96600
C  -1.36200 41.71400 23.00300
C  -4.28100 40.06100 24.79100
C  -3.32500 40.62000 21.67300
O  -2.88000 40.81400 20.51400
C  -4.60000 39.83700 21.74700
N  1.48100 42.95600 23.02600
C  0.82500 42.47400 21.92100
C  1.74500 42.36500 20.69900
C  2.98700 43.09700 21.11300
C  2.76200 43.26100 22.60300
C  1.91600 40.93400 20.02300
C  3.28600 44.46300 20.43800
C  2.41300 45.69600 20.75400
N  2.57500 43.47000 25.55800
C  3.76500 43.71500 24.90900
C  4.90000 43.98300 25.79900
C  4.33300 43.60300 27.03400
C  2.96400 43.36200 26.85400
C  6.34000 44.37300 25.35100
C  4.61100 43.37800 28.44400
O  5.68600 43.40600 28.98200
C  3.28600 43.11000 29.17600
C  3.48000 41.91800 30.03300
O  3.71200 40.80900 29.67600
O  3.65900 42.30300 31.34000
C  4.13400 41.40200 32.39700
H  -2.95000 41.11000 27.15000
H  -0.76300 41.66400 20.94200
H  4.69800 43.98900 22.96200
H  0.51000 41.76000 30.10100
H  -2.06900 42.51600 29.22300
H  -1.80100 39.81100 28.80300
H  -2.32600 40.50900 30.31300
H  -0.62600 39.97900 30.05100
H  -1.01000 44.30900 30.25600
H  0.57400 44.75600 29.85800
H  1.14400 44.57500 31.79700
H  1.23200 42.93100 31.76800
H  -5.22600 40.59400 24.68000
H  -4.22600 39.68700 25.81300
H  -4.43700 39.14400 24.22200
H  -4.41800 38.83300 22.12900
H  -4.77200 39.71700 20.67800
H  -5.34700 40.48900 22.19900
H  1.24700 43.06200 20.02500
H  3.81800 42.39200 21.07600
H  2.95300 40.66700 19.82000
H  1.46900 41.00400 19.03200
H  1.31300 40.22900 20.59500
H  3.37200 44.42200 19.35300
H  4.26100 44.81600 20.77300
H  1.82800 45.61200 19.83800
H  2.95700 46.63200 20.88300
H  1.69600 45.50900 21.55300
H  6.69600 45.15600 26.02000
H  6.40100 44.70700 24.31500
H  7.08200 43.62500 25.63200
H  3.17600 44.00800 29.78500
H  5.08400 41.79700 32.75600
H  4.22900 40.34900 32.13200
H  3.51600 41.41800 33.29500

