158

Mg 47.89100 24.93900 29.56000
C  49.08100 27.11400 32.08000
C  46.96400 22.72100 32.16000
C  47.30300 22.59300 27.29000
C  49.37400 26.90500 27.17200
N  47.94700 25.03400 31.71400
C  48.42400 26.05600 32.55900
C  48.19800 25.73400 34.02900
C  47.78600 24.21000 34.08800
C  47.53300 23.96100 32.56700
C  48.72600 23.17100 34.78800
C  47.22200 26.73500 34.80800
C  47.82300 27.27300 36.18700
H  46.82400 27.65500 37.30100
N  46.99600 22.97400 29.68500
C  46.74500 22.23700 30.89800
C  46.08200 20.96000 30.44500
C  46.22900 20.88900 29.03400
C  46.81500 22.19600 28.59700
C  45.57200 19.93800 31.42200
C  45.67200 19.85200 28.02800
O  45.84000 19.91400 26.82200
C  44.87300 18.74600 28.48000
N  48.26500 24.78300 27.48300
C  47.98200 23.68500 26.81700
C  48.58500 23.79800 25.39900
C  49.00100 25.21000 25.35700
C  48.86300 25.65100 26.72400
C  49.80300 22.78100 25.21300
C  48.26900 26.08300 24.37100
C  46.74200 26.13100 24.47600
N  48.87900 26.74900 29.55800
C  49.47900 27.42000 28.46700
C  49.92800 28.74200 29.01200
C  49.82500 28.66600 30.38800
C  49.18800 27.45400 30.71300
C  50.51400 29.92100 28.21900
C  50.20800 29.27600 31.65100
O  50.75300 30.35300 31.87500
C  49.78600 28.25100 32.77200
C  50.97000 27.90000 33.61400
O  51.89700 27.18100 33.33700
O  50.88300 28.62200 34.79200
C  51.91400 28.39600 35.74800
H  46.53600 22.11600 32.96200
H  47.10100 21.88800 26.48000
H  49.83000 27.46200 26.35100
H  49.16700 25.94900 34.47900
H  46.83100 24.16200 34.61100
H  49.38700 23.68800 35.48300
H  49.31700 22.51800 34.14600
H  48.09600 22.58700 35.45900
H  46.27200 26.30600 35.12500
H  47.09500 27.49000 34.03200
H  48.33800 28.13500 35.76400
H  48.56700 26.56300 36.55100
H  45.85800 18.89800 31.26800
H  44.49700 19.96100 31.24600
H  45.81300 20.23100 32.44400
H  45.37700 17.95200 29.03100
H  44.26800 18.25600 27.71700
H  44.08200 19.07300 29.15400
H  47.86400 23.43500 24.66700
H  50.05500 25.25300 25.08300
H  50.77400 23.25300 25.06600
H  49.60500 22.44300 24.19600
H  49.88300 21.94700 25.91000
H  48.51300 25.72800 23.37000
H  48.64600 27.10200 24.45600
H  46.28600 25.77900 23.55000
H  46.55000 27.20400 24.46400
H  46.37000 25.59100 25.34800
H  50.45600 29.61300 27.17600
H  51.55300 30.13800 28.46900
H  49.97500 30.86500 28.30000
H  49.18700 28.83100 33.47400
H  51.44300 27.72200 36.46400
H  52.07200 29.28600 36.35600
H  52.86700 28.03700 35.36100
Mg 35.55600 48.90500 24.99100
C  36.08400 47.39000 28.11300
C  33.95900 51.45300 26.71300
C  34.67600 50.04000 22.06000
C  37.08200 46.12100 23.46900
N  34.88800 49.23400 27.16600
C  35.43500 48.58800 28.26800
C  35.04000 49.27300 29.61200
C  34.13100 50.37300 28.98700
C  34.30300 50.36800 27.50100
C  32.62400 50.24600 29.39400
C  36.27800 49.85100 30.41100
C  36.31700 49.16700 31.80600
H  35.02800 48.86900 32.56300
N  34.55100 50.57400 24.46700
C  34.13800 51.57800 25.26400
C  33.58300 52.67200 24.36900
C  33.60300 52.17900 23.09500
C  34.24300 50.83400 23.17100
C  33.10500 53.97900 24.88400
C  33.21900 52.85200 21.70300
O  33.24700 52.29500 20.57400
C  32.63100 54.19900 21.71000
N  35.86500 48.26400 23.02000
C  35.36800 48.89200 21.96800
C  35.80700 48.26500 20.59800
C  36.62100 47.03100 21.13000
C  36.53300 47.09400 22.63300
C  34.65300 47.92400 19.61300
C  38.13600 47.03900 20.67400
C  38.97700 48.16900 21.33800
N  36.34200 47.08300 25.60300
C  36.95300 46.03000 24.90800
C  37.34200 44.96400 25.78900
C  37.03000 45.44400 27.02500
C  36.47200 46.77000 26.84900
C  37.86900 43.63800 25.32100
C  37.06000 45.12100 28.45400
O  37.43400 44.10300 29.02800
C  36.56300 46.41100 29.20600
C  35.37200 45.91200 29.93600
O  34.24500 45.76500 29.49000
O  35.82400 45.28800 31.13600
C  34.91600 44.70100 32.10800
H  33.48200 52.25400 27.28200
H  34.38500 50.34400 21.05300
H  37.49400 45.21400 23.02200
H  34.40300 48.52300 30.08100
H  34.42900 51.35800 29.34600
H  32.56600 49.51200 30.19700
H  31.98400 49.86900 28.59700
H  32.15600 51.17400 29.72300
H  36.12600 50.93000 30.44400
H  37.16900 49.65600 29.81400
H  37.02400 49.83900 32.29100
H  36.91900 48.26600 31.68700
H  32.03500 53.87900 24.70200
H  33.54100 54.84800 24.39200
H  33.29300 54.10600 25.95000
H  32.00600 54.42100 22.57500
H  31.91000 54.24400 20.89400
H  33.44000 54.90700 21.53000
H  36.50300 48.99400 20.18400
H  36.26700 46.03100 20.88100
H  33.72900 48.45700 19.83500
H  34.40100 46.87000 19.73300
H  35.02600 47.99300 18.59100
H  38.05300 47.32100 19.62400
H  38.56200 46.05300 20.86000
H  39.56900 47.68300 22.11400
H  38.25300 48.90200 21.69400
H  39.54500 48.66200 20.54900
H  38.90800 43.52500 25.63300
H  37.89300 43.57700 24.23300
H  37.40200 42.82100 25.87100
H  37.39300 46.82600 29.77700
H  35.04200 43.61900 32.06000
H  33.89100 44.93000 31.81700
H  35.23700 45.08000 33.07800

