158

Mg 53.25600 24.20400 44.88700
C  50.75300 26.48800 44.26000
C  51.17700 21.74900 43.82600
C  55.96100 22.06100 44.82600
C  55.47200 26.86400 45.65500
N  51.26600 24.19400 43.83600
C  50.41700 25.23300 43.83200
C  49.01100 24.86000 43.39400
C  49.09600 23.23900 43.59300
C  50.59400 23.03100 43.79600
C  48.25100 22.63500 44.79900
C  48.54100 25.31900 42.02900
C  49.59600 25.30800 40.97100
H  50.43500 24.05200 40.63000
N  53.56900 22.14300 44.33500
C  52.55800 21.33500 43.97600
C  53.17200 19.99400 43.90700
C  54.55100 20.04300 44.17900
C  54.77500 21.46700 44.50900
C  52.44000 18.78800 43.44900
C  55.54000 18.84400 44.05500
O  55.08800 17.73000 43.86800
C  57.02200 19.00800 43.96900
N  55.45500 24.47300 44.92300
C  56.34800 23.40600 45.14400
C  57.78100 23.93800 45.58400
C  57.56700 25.43300 45.72200
C  56.05100 25.60300 45.46200
C  58.41800 23.28400 46.78100
C  58.44500 26.23700 44.85600
C  57.92300 26.53900 43.43600
N  53.17300 26.24100 45.13700
C  54.10000 27.18100 45.49300
C  53.45500 28.47500 45.52400
C  52.12300 28.22700 45.20900
C  52.01400 26.85300 44.84400
C  54.09200 29.81900 45.76800
C  50.88500 28.90400 44.98500
O  50.55700 30.04800 45.25700
C  50.00200 27.84800 44.23800
C  49.73400 28.31000 42.88800
O  50.57500 28.43800 42.04700
O  48.43200 28.58900 42.63700
C  48.02900 29.00600 41.32300
H  50.47800 20.94000 43.60300
H  56.81000 21.38400 44.93600
H  56.17700 27.58400 46.07500
H  48.33000 25.21000 44.17000
H  48.79900 22.61200 42.75200
H  47.45000 23.33800 45.03100
H  48.92100 22.52200 45.65200
H  47.70100 21.73300 44.53000
H  47.96300 26.24200 42.07700
H  47.76000 24.61100 41.74900
H  50.18500 26.21200 41.13000
H  49.12900 25.53300 40.01200
H  52.92900 18.10100 42.75800
H  51.55100 19.16200 42.94100
H  51.98500 18.23900 44.27400
H  57.44200 19.81000 43.36200
H  57.44300 18.10200 43.53200
H  57.42800 19.14900 44.97100
H  58.40300 23.70400 44.72100
H  57.71500 25.73100 46.76000
H  57.66000 22.59100 47.14800
H  58.58200 24.01200 47.57600
H  59.41700 22.98200 46.46700
H  59.38300 25.68800 44.93700
H  58.54700 27.18700 45.37900
H  58.63600 26.26000 42.66000
H  57.74700 27.60500 43.29000
H  57.00000 25.99300 43.24200
H  55.16500 29.79000 45.57700
H  53.79500 30.03200 46.79500
H  53.68500 30.61400 45.14300
H  49.02600 27.83800 44.72300
H  48.11600 28.13800 40.67000
H  48.67900 29.82000 41.00000
H  47.02000 29.41300 41.37900
Mg 36.53800 49.49900 24.93100
C  36.62400 47.52200 28.01900
C  35.01900 52.07400 26.78800
C  35.76600 50.90700 22.07000
C  37.60600 46.54000 23.27100
N  35.79700 49.71700 27.13700
C  36.10900 48.84800 28.21600
C  35.81700 49.60900 29.51700
C  35.19800 50.95000 29.06100
C  35.26000 50.91400 27.52300
C  33.66400 51.18400 29.45800
C  37.02700 49.77200 30.45700
C  36.82100 49.42600 32.02200
H  35.37900 49.17500 32.54900
N  35.65300 51.29900 24.46500
C  35.13600 52.22000 25.36000
C  34.81200 53.38800 24.64300
C  34.90800 53.09400 23.23000
C  35.43600 51.74800 23.14400
C  34.38300 54.66200 25.41000
C  34.53800 53.94600 21.98900
O  34.62900 53.48400 20.86900
C  34.13000 55.33900 22.17400
N  36.62600 48.73300 22.98900
C  36.32700 49.60600 21.96500
C  36.59600 48.96300 20.57200
C  37.36600 47.59100 20.98100
C  37.15700 47.58500 22.52000
C  35.28800 48.65300 19.76000
C  38.83300 47.52500 20.53000
C  39.77300 48.42200 21.41500
N  37.16400 47.48200 25.49800
C  37.55500 46.43100 24.67500
C  37.74600 45.19000 25.46600
C  37.43500 45.65400 26.80500
C  37.08900 47.03200 26.77100
C  38.16300 43.80500 24.99000
C  37.47600 45.24300 28.23000
O  37.94300 44.20300 28.71600
C  36.90800 46.43400 29.04700
C  35.75700 46.11900 29.99300
O  34.65500 46.62600 29.92100
O  36.13800 45.17600 30.94100
C  35.09800 44.81000 32.01200
H  34.69500 52.89900 27.42700
H  35.57100 51.24800 21.05100
H  38.07000 45.71400 22.72800
H  35.11500 49.04400 30.13100
H  35.77800 51.79000 29.44300
H  33.37000 50.26000 29.95600
H  33.05300 51.42200 28.58800
H  33.55200 52.01300 30.15700
H  37.38500 50.79300 30.31800
H  37.87600 49.23700 30.03000
H  37.23600 50.31200 32.50400
H  37.48500 48.61800 32.32600
H  33.31000 54.53200 25.55700
H  34.47700 55.52300 24.74900
H  34.88900 54.82900 26.36100
H  33.96000 55.80100 21.20200
H  35.00100 55.91000 22.49600
H  33.22800 55.47000 22.77200
H  37.20500 49.60100 19.93200
H  36.79600 46.76300 20.55900
H  34.44100 49.04900 20.31900
H  35.18900 47.58300 19.57700
H  35.32500 49.13600 18.78300
H  39.01700 47.98000 19.55700
H  39.20000 46.49900 20.52500
H  39.24900 48.99000 22.18400
H  40.28500 49.19700 20.84500
H  40.54400 47.79700 21.86600
H  39.22700 43.82200 24.75000
H  37.53000 43.42600 24.18800
H  37.94700 43.14000 25.82600
H  37.72300 46.72000 29.71200
H  35.17900 43.80400 32.42500
H  34.11400 44.93100 31.56000
H  35.23400 45.46500 32.87300

