158

Mg 36.53100 2.46000 30.66300
C  33.67000 3.46500 32.59300
C  38.28400 2.79100 33.66800
C  39.20700 1.91400 28.95800
C  34.54000 2.66300 27.84500
N  35.97900 3.21400 32.82700
C  34.80600 3.37200 33.38600
C  34.83800 3.56100 34.91500
C  36.42300 3.63400 35.13500
C  36.95900 3.19700 33.77600
C  36.96800 5.08800 35.43100
C  34.06700 2.38200 35.62600
C  33.55300 2.43600 37.13600
H  34.21100 3.44500 38.07100
N  38.49800 2.26800 31.34700
C  39.05500 2.33500 32.54600
C  40.43400 1.93000 32.51700
C  40.75200 1.80900 31.14300
C  39.46400 2.04000 30.40900
C  41.23300 1.60300 33.70000
C  42.11700 1.45100 30.48000
O  42.32400 1.35000 29.29000
C  43.36500 1.24700 31.36700
N  36.83000 2.32800 28.67000
C  38.05700 2.08700 28.20600
C  38.00100 2.01000 26.69900
C  36.46200 2.16800 26.36900
C  35.89700 2.41400 27.73700
C  38.77200 3.15400 26.06100
C  35.75400 1.08000 25.58200
C  35.59700 -0.27300 26.29800
N  34.48800 2.91400 30.28900
C  33.83200 2.91200 29.06900
C  32.40800 3.23600 29.21200
C  32.34300 3.40500 30.60900
C  33.61400 3.24900 31.16800
C  31.36100 3.15400 28.19100
C  31.40300 3.68500 31.73800
O  30.18700 3.85800 31.68200
C  32.25500 3.64000 33.06900
C  32.06700 4.90600 33.89600
O  32.62300 5.96300 33.70800
O  31.18800 4.75700 34.95600
C  31.29200 5.82000 35.98200
H  38.81700 2.72500 34.61800
H  40.03700 1.61600 28.31400
H  33.91500 2.76900 26.95500
H  34.44400 4.55200 35.14100
H  36.81300 2.98000 35.91500
H  37.25900 5.09900 36.48100
H  36.25300 5.89500 35.27000
H  37.79800 5.29600 34.75500
H  34.74400 1.53200 35.70900
H  33.26900 1.99400 34.99300
H  33.70600 1.46900 37.61300
H  32.48600 2.64800 37.08000
H  41.56800 0.56700 33.65500
H  40.72200 1.72700 34.65400
H  42.13900 2.18900 33.85300
H  43.38200 0.32000 31.94100
H  43.28400 2.11700 32.01900
H  44.25900 1.23200 30.74300
H  38.33900 1.08100 26.23900
H  36.28800 3.11700 25.86200
H  39.84100 3.02000 26.22400
H  38.41200 4.03100 26.60000
H  38.60800 3.29000 24.99200
H  36.26100 0.95000 24.62600
H  34.77300 1.48900 25.34000
H  35.86000 -0.28100 27.35500
H  36.12700 -1.09300 25.81400
H  34.54600 -0.56200 26.26500
H  31.33700 3.95800 27.45600
H  30.39700 3.11700 28.69800
H  31.55100 2.16600 27.77100
H  31.89100 2.78200 33.63500
H  30.79000 6.75800 35.74400
H  32.32700 6.00700 36.26800
H  30.74100 5.47000 36.85500
Mg 55.30500 23.42300 45.10900
C  53.16700 25.98800 44.18600
C  53.40700 21.14500 43.61400
C  58.02000 21.31800 45.13300
C  57.50100 25.95500 46.39600
N  53.44800 23.57000 43.99100
C  52.65000 24.75700 43.79500
C  51.31800 24.29400 43.12400
C  51.29800 22.75500 43.34300
C  52.77500 22.41000 43.66600
C  50.29400 22.13100 44.40500
C  51.21000 24.74800 41.59400
C  49.74400 25.05300 41.11700
H  49.23600 24.39900 39.77300
N  55.68700 21.51000 44.42500
C  54.71200 20.76300 43.89100
C  55.26900 19.45800 43.62200
C  56.63000 19.53100 43.98700
C  56.82900 20.85200 44.49900
C  54.49300 18.40300 42.74400
C  57.52800 18.30100 43.77400
O  57.08000 17.25900 43.40700
C  58.96300 18.37500 43.93300
N  57.41000 23.49700 45.81300
C  58.34300 22.47500 45.74500
C  59.65200 22.86600 46.52800
C  59.47300 24.39600 46.78700
C  58.02100 24.69400 46.30300
C  59.81400 22.03200 47.77400
C  60.62600 25.28100 46.34500
C  60.48300 25.85500 44.94200
N  55.38900 25.53400 45.37600
C  56.30700 26.37400 45.91800
C  55.88000 27.73500 45.88600
C  54.61800 27.66700 45.21100
C  54.37400 26.27300 44.87000
C  56.74800 28.99700 46.19300
C  53.48600 28.49100 44.69100
O  53.26200 29.69900 44.60100
C  52.55700 27.43500 43.98600
C  52.50200 27.81700 42.54500
O  53.48900 27.81000 41.80100
O  51.20400 28.01700 42.13900
C  51.19400 28.43000 40.72400
H  52.75500 20.38100 43.18500
H  58.77300 20.56600 45.37700
H  58.09300 26.72600 46.89400
H  50.59400 24.86400 43.70600
H  51.03800 22.26800 42.40300
H  50.87300 21.39300 44.96000
H  49.46600 21.57200 43.96900
H  49.87800 22.87100 45.08900
H  51.53500 23.94800 40.92900
H  51.88100 25.55800 41.30600
H  49.60900 26.11800 40.93300
H  48.94100 24.80300 41.81100
H  55.16000 17.83900 42.09300
H  53.67900 18.87500 42.19400
H  54.04600 17.78500 43.52400
H  59.31300 19.34800 43.58700
H  59.43300 17.51800 43.45000
H  59.27600 18.31000 44.97500
H  60.51300 22.67900 45.88700
H  59.42800 24.64900 47.84600
H  60.78300 21.53400 47.74500
H  58.99200 21.32300 47.87200
H  59.75200 22.61200 48.69500
H  61.61700 24.82700 46.34300
H  60.60700 26.16000 46.98900
H  59.79200 25.24200 44.36300
H  61.48800 25.80900 44.52200
H  60.12000 26.88000 44.87000
H  57.61900 28.93200 45.54200
H  57.06900 28.91500 47.23200
H  56.18500 29.89600 45.94300
H  51.55900 27.67100 44.35600
H  52.13300 28.87500 40.39300
H  50.29900 29.05100 40.73200
H  50.94300 27.62200 40.03700

