158

Mg 8.55800 4.35600 27.52900
C  9.79300 2.52700 30.37800
C  6.64900 6.22700 29.43700
C  7.38700 5.92400 24.72100
C  10.45000 2.09100 25.47900
N  8.23900 4.27400 29.70500
C  9.03400 3.62500 30.68000
C  8.64400 4.14500 32.05900
C  7.57500 5.22100 31.73400
C  7.48500 5.29600 30.19500
C  6.14500 4.98600 32.44700
C  9.78500 4.51600 33.06200
C  9.35300 4.70500 34.48700
H  10.16600 3.94100 35.55300
N  7.09700 5.81000 27.15100
C  6.55500 6.56600 28.06100
C  5.69400 7.64000 27.53200
C  5.85200 7.50600 26.11300
C  6.82500 6.41500 25.89200
C  4.80300 8.55300 28.38200
C  5.24900 8.28700 24.93700
O  5.42900 8.08600 23.72500
C  4.46900 9.49200 25.26900
N  8.82500 3.98800 25.43700
C  8.31600 4.80700 24.46500
C  8.91300 4.56100 23.03400
C  9.83700 3.34000 23.31500
C  9.76700 3.13000 24.84600
C  7.80000 4.30400 22.00700
C  11.30300 3.65900 22.95400
C  12.09500 2.47500 22.44700
N  9.91200 2.71900 27.77800
C  10.50800 1.85300 26.83900
C  11.25400 0.79300 27.51100
C  10.96000 1.02200 28.89200
C  10.12500 2.15800 29.04100
C  12.05600 -0.23800 26.87900
C  11.24300 0.53100 30.23700
O  11.84100 -0.45900 30.65700
C  10.54900 1.54800 31.20400
C  9.67900 0.94100 32.26800
O  8.75100 0.17400 32.04400
O  10.24500 1.27900 33.48800
C  9.54400 0.63300 34.61300
H  6.18900 6.86900 30.19100
H  7.21500 6.45900 23.78500
H  11.08000 1.45800 24.85100
H  8.13600 3.30000 32.52200
H  7.80800 6.21200 32.12500
H  5.60900 4.20900 31.90200
H  5.62100 5.94100 32.40500
H  6.29800 4.65800 33.47500
H  10.19400 5.45500 32.68900
H  10.65900 3.86600 33.05900
H  8.32400 4.35200 34.55800
H  9.42800 5.76500 34.72800
H  4.72300 8.36200 29.45200
H  3.78400 8.27000 28.11500
H  4.82400 9.62400 28.17900
H  4.13200 10.09700 24.42700
H  5.07700 10.19000 25.84500
H  3.58500 9.23900 25.85400
H  9.49400 5.47000 22.87300
H  9.45100 2.48500 22.76100
H  6.79300 4.52500 22.36000
H  7.70300 3.23400 21.82100
H  8.02900 4.89600 21.12200
H  11.84500 3.95800 23.85100
H  11.29100 4.47100 22.22700
H  11.59300 1.50800 22.44900
H  12.91900 2.30400 23.14000
H  12.41400 2.53600 21.40700
H  13.05500 0.18200 26.76400
H  11.75200 -0.50300 25.86700
H  12.10600 -1.09900 27.54600
H  11.39500 2.04400 31.67900
H  8.67400 1.14600 35.02500
H  10.38600 0.74300 35.29600
H  9.31600 -0.40200 34.35700
Mg 48.50800 16.67200 29.61500
C  46.19000 16.07000 32.17200
C  50.33800 18.64400 31.89100
C  50.64400 17.39500 27.18100
C  46.25300 15.25900 27.37000
N  48.18800 17.39700 31.69600
C  47.32400 16.74200 32.54900
C  47.78700 17.03300 33.99800
C  48.72900 18.27700 33.89600
C  49.13500 18.08600 32.39500
C  47.95200 19.68300 34.09700
C  48.41600 15.72700 34.63100
C  48.12400 15.36900 36.07800
H  48.11800 16.54600 37.05300
N  50.27400 17.68500 29.57700
C  50.90100 18.47900 30.63000
C  52.21200 18.96100 30.18300
C  52.39200 18.48200 28.85600
C  51.03700 17.88200 28.44500
C  53.05600 19.80300 31.13600
C  53.57800 18.72200 27.88400
O  53.55300 18.39000 26.70000
C  54.84000 19.28000 28.40700
N  48.48100 16.47000 27.59700
C  49.48000 16.74300 26.73000
C  49.28400 16.18800 25.31500
C  47.97800 15.41000 25.47500
C  47.54200 15.66900 26.91300
C  49.20300 17.34500 24.20600
C  48.09900 13.82800 25.19200
C  47.03300 13.19300 24.26500
N  46.49800 15.87600 29.72900
C  45.76100 15.31000 28.69100
C  44.54500 14.78700 29.24500
C  44.67000 15.07500 30.63400
C  45.84400 15.70200 30.82100
C  43.46800 14.08500 28.51300
C  44.09500 14.84800 31.95600
O  43.05200 14.33300 32.35300
C  45.03900 15.56300 33.00100
C  44.38100 16.64900 33.73600
O  43.99200 17.71600 33.22900
O  44.31900 16.31800 35.06200
C  43.71000 17.27100 35.95700
H  50.89900 19.22600 32.62500
H  51.33400 17.43000 26.33500
H  45.55000 14.71500 26.73600
H  46.87300 17.28900 34.53300
H  49.56500 18.19000 34.59100
H  47.94500 20.22200 33.15000
H  48.44500 20.29100 34.85600
H  46.96400 19.42300 34.47800
H  49.49100 15.90200 34.59000
H  48.24300 14.87500 33.97400
H  48.99400 14.77500 36.35700
H  47.20100 14.79700 36.17600
H  54.02500 19.99100 30.67300
H  53.28100 19.27700 32.06400
H  52.51000 20.69900 31.43200
H  54.56400 20.32200 28.57200
H  55.60200 19.24300 27.62900
H  55.03700 18.60500 29.24000
H  50.14400 15.56300 25.07400
H  47.14900 15.85300 24.92300
H  49.29400 18.36400 24.58100
H  48.32300 17.15500 23.59300
H  50.00400 17.24600 23.47300
H  48.06900 13.27800 26.13300
H  49.09100 13.70900 24.75700
H  47.50500 12.84700 23.34600
H  46.31400 13.96400 23.98700
H  46.54400 12.29500 24.64200
H  43.83800 13.41700 27.73500
H  42.67300 14.65800 28.03700
H  42.99100 13.47200 29.27800
H  45.31300 14.82000 33.75100
H  43.62900 18.33500 35.73400
H  44.19500 17.18600 36.92900
H  42.68600 16.95300 36.15300

