158

Mg 16.81700 52.08500 25.99800
C  18.42200 50.48400 28.70100
C  14.71100 53.37000 28.25400
C  15.36800 53.38500 23.45100
C  19.16900 50.31900 23.84200
N  16.51000 51.86100 28.30300
C  17.29600 51.18000 29.17600
C  16.82000 51.41900 30.67400
C  15.50400 52.25700 30.38300
C  15.56300 52.55900 28.92500
C  14.09800 51.71300 30.80200
C  17.87600 52.29500 31.37000
C  18.28500 51.82700 32.88200
H  17.61200 52.56800 33.95800
N  15.17600 53.21100 25.80500
C  14.50900 53.72500 26.87400
C  13.42800 54.55500 26.39900
C  13.64600 54.67200 25.00100
C  14.73200 53.73600 24.66100
C  12.47000 55.34300 27.19700
C  12.84800 55.38500 23.91500
O  13.14500 55.39200 22.71100
C  11.55000 56.21800 24.24500
N  17.07100 51.70200 23.92100
C  16.40000 52.47300 23.07800
C  16.90500 52.34200 21.64300
C  18.21200 51.46800 21.79000
C  18.17100 51.13200 23.26400
C  15.88500 52.10100 20.47600
C  19.55300 52.28600 21.42200
C  19.84000 53.62600 22.08300
N  18.48200 50.69300 26.16300
C  19.34300 50.11900 25.20000
C  20.41900 49.47300 25.88700
C  20.12300 49.52700 27.23500
C  18.92000 50.22100 27.34400
C  21.56100 48.89300 25.12500
C  20.55800 49.25000 28.61600
O  21.49300 48.65300 29.01700
C  19.43500 49.85900 29.62100
C  18.82000 48.90700 30.51800
O  17.92300 48.13600 30.23000
O  19.53300 48.97800 31.65400
C  19.14900 48.12100 32.77700
H  13.99300 53.87500 28.90200
H  14.97900 53.74300 22.49600
H  19.92700 49.87800 23.19100
H  16.59000 50.51700 31.24100
H  15.49500 53.26700 30.79300
H  13.78800 51.17100 29.90800
H  13.43300 52.51300 31.12800
H  14.23100 51.03100 31.64200
H  17.41200 53.24000 31.65500
H  18.79000 52.54400 30.83300
H  19.34700 52.02200 33.02700
H  18.12400 50.75100 32.95700
H  11.45700 54.94000 27.19600
H  12.56100 56.35300 26.79700
H  12.79900 55.33400 28.23600
H  10.89400 55.60900 24.86700
H  11.21800 56.52300 23.25200
H  11.70400 57.07400 24.90200
H  17.23100 53.33300 21.32600
H  18.13000 50.55500 21.20000
H  15.76100 52.96600 19.82500
H  14.90800 52.00000 20.94900
H  16.03900 51.17700 19.91800
H  19.64300 52.28100 20.33600
H  20.38700 51.63800 21.69100
H  20.22700 54.28100 21.30200
H  20.49100 53.43700 22.93600
H  18.91500 54.01600 22.50700
H  21.21400 48.17600 24.38100
H  22.21800 48.40400 25.84400
H  22.05100 49.71400 24.60100
H  19.80200 50.67600 30.24300
H  18.26600 47.49700 32.64100
H  18.93000 48.64000 33.71100
H  19.97400 47.48200 33.09100
Mg -1.73300 34.56600 26.33300
C  -3.28900 32.62600 28.86600
C  -0.67200 36.74900 28.73900
C  -0.74400 36.59000 23.89700
C  -3.45600 32.55800 23.98100
N  -2.21700 34.87200 28.59700
C  -2.60000 33.79700 29.37800
C  -2.35600 34.15000 30.83300
C  -1.68000 35.62700 30.73600
C  -1.44500 35.73600 29.27900
C  -2.46200 36.75400 31.37600
C  -1.40500 33.11200 31.53900
C  -2.04700 32.47600 32.76000
H  -1.11100 32.15900 33.97000
N  -0.79700 36.47800 26.28000
C  -0.35800 37.19400 27.33900
C  0.61900 38.19800 26.91000
C  0.55700 38.15600 25.46700
C  -0.33400 37.03400 25.17900
C  1.41800 39.04400 27.92100
C  1.37900 38.98800 24.37000
O  1.46000 38.76400 23.18300
C  2.17900 40.15800 24.84400
N  -2.18700 34.63100 24.15700
C  -1.61700 35.53700 23.41600
C  -1.81500 35.29600 21.85500
C  -2.39500 33.82200 21.95600
C  -2.69200 33.66300 23.46500
C  -2.49600 36.43900 21.02200
C  -1.47000 32.73800 21.40800
C  -0.14400 32.42300 22.17700
N  -3.09000 32.90300 26.30700
C  -3.60200 32.14500 25.33500
C  -4.21100 30.98600 25.82900
C  -4.16400 31.19900 27.21100
C  -3.44700 32.31300 27.48000
C  -5.05200 30.00800 25.11300
C  -4.54300 30.61100 28.47400
O  -5.18300 29.64700 28.75200
C  -3.92700 31.44700 29.58800
C  -4.92100 31.89700 30.57200
O  -5.77200 32.78000 30.43100
O  -4.74500 31.29200 31.76500
C  -5.60600 31.65400 32.92500
H  -0.19900 37.18800 29.62000
H  -0.49900 37.31200 23.11500
H  -3.88500 31.86300 23.25600
H  -3.32300 34.11300 31.33500
H  -0.68500 35.66400 31.17900
H  -3.30800 36.32900 31.91600
H  -2.90200 37.41400 30.62900
H  -1.85500 37.35200 32.05600
H  -0.44400 33.54200 31.82000
H  -1.23100 32.37300 30.75700
H  -2.50000 31.53700 32.44200
H  -2.85400 33.01800 33.25400
H  2.46200 39.08000 27.60900
H  1.42000 38.53400 28.88400
H  1.03000 40.06100 27.98800
H  1.50400 40.72900 25.48200
H  2.56200 40.64700 23.94800
H  2.94400 39.79300 25.53000
H  -0.77000 35.25600 21.54900
H  -3.35600 33.79300 21.44100
H  -1.95400 36.64600 20.09900
H  -2.46300 37.37500 21.58100
H  -3.53600 36.20800 20.78900
H  -1.21200 32.83200 20.35300
H  -1.99700 31.79300 21.53900
H  -0.17800 31.42600 22.61700
H  0.05300 33.04400 23.05100
H  0.62300 32.46300 21.40300
H  -5.00400 29.97900 24.02400
H  -6.10500 30.23300 25.27900
H  -4.76800 29.04600 25.53900
H  -3.27600 30.79900 30.17400
H  -4.94600 32.11400 33.66000
H  -6.10700 30.71300 33.15500
H  -6.33100 32.42900 32.67500

