158

Mg -2.10400 17.56400 26.94400
C  -2.69000 15.00200 29.32700
C  -2.25900 19.86200 29.26300
C  -1.79900 19.78100 24.51400
C  -2.75400 14.97200 24.51700
N  -2.49400 17.40500 28.95500
C  -2.50500 16.36600 29.83800
C  -2.38100 16.77500 31.31000
C  -2.72700 18.26600 31.16900
C  -2.54400 18.55900 29.64200
C  -3.96900 18.86500 31.85700
C  -1.10700 16.40200 32.04900
C  -0.95000 17.09200 33.43400
H  -0.89400 16.27200 34.75600
N  -1.89700 19.59100 26.90000
C  -1.89600 20.35100 28.01500
C  -1.48000 21.70600 27.67300
C  -1.22400 21.65100 26.27300
C  -1.64000 20.27400 25.83500
C  -1.35700 22.84800 28.69700
C  -0.68700 22.67800 25.30700
O  -0.49900 22.43600 24.13300
C  -0.12900 23.95000 25.69000
N  -2.28700 17.38700 24.86400
C  -2.07000 18.48600 24.10900
C  -2.35000 18.27700 22.66300
C  -2.57700 16.71300 22.54200
C  -2.60000 16.31600 24.04700
C  -3.56400 19.10800 22.11400
C  -1.47700 15.91500 21.76800
C  -0.16100 15.59900 22.44400
N  -2.47300 15.39500 26.84400
C  -2.72200 14.50200 25.79100
C  -2.97400 13.21500 26.23300
C  -2.91300 13.32900 27.69200
C  -2.65400 14.66300 27.96900
C  -3.44900 12.05700 25.33800
C  -3.07900 12.57200 28.94600
O  -3.44200 11.44800 29.22700
C  -2.93900 13.65400 30.07000
C  -1.91500 13.15300 31.04200
O  -0.71300 13.24800 30.88200
O  -2.53300 12.53500 32.10100
C  -1.68700 12.09900 33.24100
H  -2.27900 20.65600 30.01100
H  -1.64300 20.54800 23.75300
H  -2.84400 14.26000 23.69400
H  -3.08600 16.26200 31.96300
H  -1.86600 18.74100 31.64000
H  -3.59500 19.51400 32.64900
H  -4.67300 18.14700 32.27600
H  -4.49800 19.47400 31.12500
H  -0.38300 16.58200 31.25500
H  -1.13500 15.33300 32.26000
H  -1.69300 17.88100 33.54900
H  -0.01500 17.64400 33.34000
H  -0.47900 23.45800 28.48500
H  -1.53500 22.51600 29.72000
H  -2.32800 23.31700 28.53900
H  -0.41200 24.37500 26.65200
H  -0.46600 24.57100 24.85900
H  0.95800 23.94800 25.76800
H  -1.40300 18.58200 22.21800
H  -3.54900 16.49600 22.09900
H  -4.53800 18.61800 22.09300
H  -3.31000 19.52300 21.13900
H  -3.62300 19.93000 22.82700
H  -1.47800 16.44600 20.81600
H  -1.85300 14.91300 21.56400
H  0.18800 14.64700 22.04400
H  -0.35300 15.43100 23.50400
H  0.45200 16.47800 22.24800
H  -4.39600 12.39900 24.92100
H  -3.60800 11.20600 26.00000
H  -2.81800 11.86500 24.47100
H  -3.81900 13.73800 30.70700
H  -2.12600 11.22800 33.72800
H  -1.48600 13.03200 33.76700
H  -0.76300 11.73700 32.79100
Mg 30.99300 57.31300 40.01000
C  28.51500 55.32200 38.90800
C  33.35700 54.94100 39.12000
C  33.61100 59.56800 40.43400
C  28.78100 59.95800 40.39200
N  30.87900 55.47000 38.95600
C  29.78500 54.76500 38.74200
C  30.11200 53.37300 38.24300
C  31.63600 53.18400 38.58900
C  32.00700 54.61800 38.97900
C  31.92300 52.05400 39.65300
C  29.76800 53.07500 36.74700
C  29.99400 54.11600 35.64000
H  29.06900 54.25600 34.38400
N  33.21400 57.20100 39.90700
C  33.95000 56.19100 39.41400
C  35.35900 56.60000 39.40000
C  35.44600 57.85400 39.98200
C  34.05100 58.27700 40.18700
C  36.43500 55.67800 38.92400
C  36.71500 58.59000 40.30100
O  37.81100 58.13900 39.89100
C  36.78300 59.78000 41.15300
N  31.13900 59.58700 40.08400
C  32.31600 60.15000 40.49600
C  32.20200 61.63000 40.93400
C  30.58400 61.72300 40.97700
C  30.08000 60.36500 40.41200
C  33.05900 62.12500 42.15000
C  29.90900 62.93400 40.23500
C  28.81400 63.81400 40.90700
N  28.98900 57.62600 39.87100
C  28.17800 58.74900 40.02800
C  26.83600 58.32100 39.77900
C  26.92300 56.95800 39.29800
C  28.25200 56.56000 39.40900
C  25.63500 59.14700 39.85900
C  26.11000 55.88500 38.83500
O  24.91500 55.78500 38.68100
C  27.17200 54.74500 38.50100
C  26.79600 53.50800 39.21100
O  26.83200 53.22500 40.40000
O  26.07100 52.78300 38.29200
C  25.17100 51.67500 38.76100
H  33.98800 54.10800 38.80300
H  34.31700 60.39600 40.51600
H  28.07300 60.72300 40.71900
H  29.46700 52.76600 38.87900
H  32.11200 52.92300 37.64300
H  32.42600 51.26900 39.08900
H  31.03800 51.76100 40.21700
H  32.66200 52.39000 40.38100
H  28.72800 52.75200 36.77900
H  30.38100 52.25500 36.37400
H  30.99900 53.89700 35.27800
H  30.02000 55.12000 36.06300
H  36.83400 56.08600 37.99500
H  36.12700 54.65200 38.72100
H  37.20500 55.51200 39.67700
H  37.50600 59.57700 41.94300
H  35.88400 59.78500 41.77000
H  36.87300 60.69500 40.56700
H  32.54300 62.16900 40.04900
H  30.28800 61.66900 42.02500
H  33.77000 62.92000 41.92400
H  33.57900 61.37500 42.74500
H  32.30100 62.53500 42.81700
H  29.41500 62.64000 39.30900
H  30.77500 63.55700 40.01300
H  29.20700 64.81300 40.71700
H  28.69400 63.60100 41.96900
H  27.86000 63.46400 40.51200
H  24.86800 58.50300 40.29000
H  25.25600 59.37700 38.86300
H  25.88100 60.08200 40.36200
H  27.09800 54.66000 37.41600
H  25.45200 51.32400 39.75500
H  25.31200 50.90700 38.00000
H  24.14000 52.01800 38.67600

