158

Mg 45.40200 3.46500 48.25400
C  43.14400 6.02200 47.16900
C  42.71300 1.18700 47.57400
C  47.56000 0.90600 48.54200
C  48.05900 5.77700 47.96600
N  43.28400 3.64200 47.32200
C  42.52200 4.76300 47.02600
C  41.03900 4.46700 46.65700
C  40.92900 2.92300 47.06900
C  42.44600 2.56900 47.34000
C  39.95400 2.77400 48.29000
C  40.59600 4.81000 45.21500
C  39.13800 5.33900 44.87800
H  38.59400 4.93700 43.52900
N  45.17100 1.28700 48.24900
C  44.01600 0.60800 47.95000
C  44.29100 -0.81800 48.19200
C  45.69900 -0.91400 48.47000
C  46.24100 0.47300 48.47300
C  43.29900 -1.93500 48.09100
C  46.42700 -2.20900 48.63200
O  45.82000 -3.27900 48.74000
C  47.89800 -2.26700 48.72900
N  47.49500 3.35700 48.04800
C  48.15300 2.17700 48.26900
C  49.60800 2.43000 48.70400
C  49.87700 3.94500 48.34200
C  48.42500 4.42800 48.18700
C  49.89500 1.99300 50.19100
C  50.68600 4.26200 47.03200
C  52.04800 4.97400 47.24900
N  45.61600 5.55500 47.78700
C  46.75900 6.31600 47.68200
C  46.34500 7.73600 47.41800
C  44.90200 7.64600 47.26600
C  44.52600 6.29400 47.46900
C  47.19400 8.93700 47.21000
C  43.73600 8.43100 46.92300
O  43.68200 9.61300 46.61800
C  42.50900 7.38700 46.84100
C  41.44100 7.77900 47.75600
O  41.27300 7.36300 48.93600
O  40.67600 8.79600 47.22100
C  39.75400 9.37900 48.19300
H  41.87700 0.48300 47.58200
H  48.34800 0.18800 48.77900
H  48.89700 6.47100 48.06400
H  40.43600 5.08800 47.32000
H  40.45000 2.37800 46.25600
H  38.93100 2.96400 47.96600
H  40.13700 3.51700 49.06500
H  40.01700 1.76700 48.70300
H  40.73300 3.87500 44.67100
H  41.38300 5.43400 44.79400
H  39.07600 6.42500 44.80400
H  38.43800 5.06400 45.66700
H  42.36500 -1.51600 47.71600
H  43.21000 -2.35000 49.09500
H  43.53700 -2.68600 47.33800
H  48.11900 -1.85600 47.74400
H  48.15100 -3.32700 48.73200
H  48.29100 -1.79900 49.63100
H  50.21800 1.83800 48.02200
H  50.36100 4.38500 49.21300
H  50.80400 1.41900 50.37300
H  49.06100 1.37500 50.52400
H  49.88500 2.78800 50.93700
H  50.10400 4.94900 46.41700
H  50.89000 3.36000 46.45500
H  52.83000 4.29500 46.90900
H  52.30900 5.19500 48.28400
H  52.26700 5.86700 46.66300
H  47.76200 8.83100 46.28500
H  47.92700 9.05300 48.00800
H  46.55600 9.81700 47.28900
H  42.04300 7.36500 45.85600
H  39.09300 8.66500 48.68600
H  39.00900 10.03300 47.73900
H  40.30500 10.00700 48.89200
Mg 46.77800 23.79800 29.11800
C  47.40400 26.22900 31.72400
C  46.05100 21.50000 31.58200
C  46.44200 21.60000 26.66200
C  48.30100 26.02400 26.81500
N  46.73600 23.91300 31.42400
C  46.90100 25.02500 32.22000
C  46.36800 24.71200 33.64400
C  46.05200 23.08700 33.61100
C  46.38300 22.75500 32.10000
C  46.87900 22.28000 34.60200
C  45.06800 25.50500 33.96800
C  45.29100 26.50400 35.15100
H  45.88800 26.04200 36.56500
N  46.37600 21.83000 29.15300
C  46.05400 21.05600 30.24500
C  45.73400 19.71600 29.79100
C  45.88600 19.70100 28.35800
C  46.23100 21.08400 27.98900
C  45.17800 18.62200 30.79900
C  45.74100 18.58300 27.42300
O  45.94900 18.69100 26.19100
C  45.37300 17.19700 27.93700
N  47.37500 23.79300 27.12100
C  46.94700 22.82100 26.27600
C  47.26600 23.09200 24.82400
C  47.65900 24.65500 24.83600
C  47.73300 24.85900 26.33200
C  48.21700 22.05100 24.13100
C  46.75000 25.69800 24.08200
C  45.27500 25.86600 24.58000
N  47.68600 25.69600 29.21900
C  48.24500 26.45700 28.19900
C  48.60400 27.77200 28.70800
C  48.26000 27.74500 30.06500
C  47.71000 26.46300 30.32300
C  49.26900 28.89000 27.95200
C  48.24300 28.55200 31.29100
O  48.61900 29.70400 31.54700
C  47.65500 27.53400 32.39400
C  48.68500 27.43000 33.59900
O  49.74800 26.80900 33.61400
O  48.33800 28.29000 34.58000
C  49.32800 28.55700 35.63600
H  45.81500 20.74100 32.33100
H  46.18500 20.95300 25.82100
H  48.62300 26.73900 26.05600
H  47.17100 24.88100 34.36200
H  44.99600 22.94200 33.83800
H  47.43700 22.98100 35.22300
H  47.43600 21.52400 34.04800
H  46.16300 21.87700 35.31700
H  44.25900 24.84900 34.28800
H  44.78500 26.01500 33.04700
H  44.37200 27.06900 35.30900
H  46.09100 27.19300 34.87900
H  44.93500 19.00300 31.79100
H  45.91100 17.81600 30.79200
H  44.24200 18.24300 30.39000
H  45.31700 16.60100 27.02600
H  44.37600 17.28100 28.37000
H  45.99300 16.71600 28.69400
H  46.32900 22.95600 24.28400
H  48.68500 24.70300 24.47200
H  47.67900 21.57900 23.30800
H  48.44900 21.20100 24.77200
H  49.09600 22.57100 23.75100
H  46.64200 25.36400 23.05000
H  47.17000 26.70200 24.03300
H  45.03500 26.91400 24.76200
H  45.17100 25.22500 25.45400
H  44.53100 25.49300 23.87600
H  48.72300 29.82400 28.08400
H  49.33100 28.60100 26.90300
H  50.28300 29.06100 28.31300
H  46.68800 27.79000 32.82600
H  50.35200 28.21800 35.47700
H  48.93400 28.16300 36.57300
H  49.40500 29.64000 35.72800

