158

Mg 43.14300 4.27000 46.98300
C  41.23700 7.25300 46.65500
C  40.26900 2.50300 46.77100
C  45.01600 1.67800 46.27800
C  46.03200 6.30300 46.70400
N  40.99100 4.77800 46.62500
C  40.43200 6.07200 46.66600
C  38.88000 5.95800 46.78800
C  38.62000 4.43300 47.01100
C  40.05800 3.82400 46.91100
C  37.92000 3.98200 48.37200
C  38.02100 6.56500 45.69200
C  38.45800 6.20200 44.25600
H  39.43400 7.16700 43.58900
N  42.67200 2.34900 46.65700
C  41.47000 1.75100 46.59800
C  41.58500 0.33100 46.34300
C  43.03100 0.07800 46.14900
C  43.64000 1.39000 46.40500
C  40.36900 -0.56700 46.17100
C  43.51400 -1.26900 45.82200
O  42.72400 -2.14500 45.63300
C  44.86700 -1.49700 45.61700
N  45.20500 4.03300 46.47200
C  45.73300 2.83400 46.39900
C  47.25200 2.83700 46.30600
C  47.54400 4.35800 46.25900
C  46.19500 4.95300 46.48700
C  48.01100 2.00500 47.38700
C  48.37000 4.83000 45.00000
C  49.91100 4.95300 45.02000
N  43.58500 6.30700 46.83200
C  44.78500 6.96200 46.81500
C  44.54400 8.33600 46.87500
C  43.14800 8.51400 46.77200
C  42.60100 7.22400 46.75300
C  45.53600 9.34700 46.90500
C  42.07400 9.54700 46.86500
O  42.12400 10.76500 46.99700
C  40.69700 8.69200 46.60000
C  39.83400 9.00200 47.73500
O  40.05700 8.70500 48.88900
O  38.64800 9.58800 47.29800
C  37.55100 9.79300 48.22700
H  39.36000 1.90700 46.87100
H  45.59600 0.75300 46.26100
H  46.96800 6.84200 46.53900
H  38.57300 6.53800 47.65800
H  38.06400 3.91300 46.23100
H  37.36500 3.04400 48.35700
H  37.28800 4.77300 48.77600
H  38.74300 3.75400 49.05000
H  38.07200 7.65000 45.78600
H  36.94000 6.46600 45.78700
H  37.51500 6.04300 43.73300
H  38.94000 5.23600 44.10800
H  40.39300 -1.52600 46.68900
H  40.18500 -0.75200 45.11200
H  39.38800 -0.13100 46.36100
H  45.33100 -1.22300 46.56500
H  45.13100 -0.77500 44.84400
H  45.20700 -2.50100 45.36400
H  47.55200 2.45900 45.32900
H  48.26100 4.48100 47.07000
H  48.91900 2.48500 47.75200
H  48.30600 1.06100 46.92800
H  47.32300 1.79400 48.20500
H  47.91900 5.81300 44.86500
H  48.02600 4.19600 44.18300
H  50.38300 4.25200 44.33200
H  50.23900 4.69300 46.02600
H  50.09300 5.99000 44.73800
H  46.09400 9.47300 47.83300
H  45.21700 10.33200 46.56700
H  46.30200 9.05400 46.18600
H  40.32100 8.95200 45.61000
H  37.87400 9.29200 49.13900
H  36.59200 9.41000 47.87900
H  37.42400 10.84700 48.47500
Mg -12.05700 37.91200 42.30000
C  -9.31200 35.85500 42.01900
C  -9.96900 40.73300 41.93100
C  -14.72600 39.91300 42.28300
C  -14.08600 35.07100 43.01500
N  -9.86900 38.18400 41.82100
C  -8.97700 37.19400 41.82500
C  -7.58300 37.81700 41.51800
C  -7.69500 39.32000 41.95300
C  -9.24000 39.49100 41.88900
C  -7.26600 39.57800 43.45800
C  -7.06200 37.70300 39.99100
C  -5.78600 36.86500 39.66900
H  -5.93800 35.80100 38.58400
N  -12.25500 40.03500 41.89900
C  -11.33300 41.02000 41.91800
C  -11.95500 42.35700 41.73400
C  -13.36400 42.15400 41.66700
C  -13.52300 40.59900 41.89600
C  -11.14400 43.72000 41.43600
C  -14.42200 43.20500 41.44300
O  -14.11200 44.35900 41.33200
C  -15.94300 42.91100 41.16700
N  -14.10000 37.60100 42.42700
C  -15.03000 38.57100 42.48900
C  -16.40400 38.09400 42.82500
C  -16.19800 36.56900 42.79500
C  -14.71300 36.37100 42.77800
C  -16.88100 38.63500 44.21100
C  -16.99700 35.71000 41.70300
C  -16.28100 35.14800 40.42500
N  -11.84000 35.84400 42.53800
C  -12.70300 34.83500 42.89000
C  -11.93700 33.62900 43.00600
C  -10.59400 33.95800 42.64900
C  -10.62200 35.31300 42.39400
C  -12.45700 32.29900 43.48300
C  -9.30100 33.46500 42.47200
O  -8.94400 32.31900 42.60300
C  -8.33600 34.66200 42.02900
C  -7.21800 34.79000 42.93300
O  -7.28300 35.17800 44.13400
O  -6.05100 34.15400 42.45200
C  -4.94400 33.87600 43.39300
H  -9.27100 41.57000 42.00500
H  -15.45000 40.67400 42.58000
H  -14.76700 34.27200 43.31500
H  -6.87900 37.36100 42.21400
H  -7.26200 40.02800 41.24600
H  -6.59800 38.81600 43.86200
H  -8.16700 39.73500 44.05000
H  -6.67000 40.48200 43.58600
H  -6.93300 38.71100 39.59700
H  -7.86400 37.22300 39.42900
H  -5.36800 36.31000 40.50900
H  -4.97300 37.54800 39.42400
H  -11.75600 44.43100 40.88000
H  -10.18700 43.52300 40.95300
H  -10.98100 44.17400 42.41300
H  -16.13700 41.88900 40.84100
H  -16.25300 43.52500 40.32200
H  -16.49000 43.20300 42.06300
H  -17.04800 38.40700 42.00300
H  -16.62500 36.12700 43.69500
H  -16.02400 38.88200 44.83800
H  -17.45000 37.80300 44.62600
H  -17.60100 39.45400 44.21100
H  -17.83900 36.29300 41.32900
H  -17.34900 34.84500 42.26500
H  -16.58800 34.10200 40.44100
H  -15.19700 35.24500 40.47900
H  -16.48800 35.65800 39.48400
H  -12.16700 32.15100 44.52300
H  -12.01500 31.43700 42.98500
H  -13.54400 32.24200 43.42600
H  -7.90100 34.47900 41.04700
H  -4.12500 33.44900 42.81300
H  -5.29500 33.02000 43.96900
H  -4.67600 34.67900 44.08000

