158

Mg 46.06800 3.89900 47.65600
C  44.23300 6.77900 47.09800
C  43.32800 2.03600 46.51800
C  47.84100 1.08600 47.95800
C  48.81400 5.82500 48.23400
N  44.08700 4.35500 46.70400
C  43.53100 5.60600 46.63800
C  42.16300 5.58800 46.01900
C  41.83900 4.08300 46.10600
C  43.17600 3.43300 46.36400
C  40.71300 3.60100 47.03700
C  42.09100 6.12900 44.52600
C  41.21200 7.38800 44.50800
H  41.17000 8.25400 43.19800
N  45.69900 1.85000 47.29300
C  44.48100 1.28800 46.88000
C  44.52400 -0.10700 46.74600
C  45.87000 -0.43300 47.19700
C  46.56200 0.85200 47.51300
C  43.42500 -0.89700 46.01800
C  46.36900 -1.88000 47.17200
O  45.71200 -2.86200 46.71300
C  47.76700 -2.20100 47.48400
N  48.11000 3.45300 47.72800
C  48.63100 2.23500 48.06800
C  50.10300 2.30400 48.36900
C  50.34100 3.90100 48.33000
C  48.94000 4.41800 48.13800
C  50.40900 1.62000 49.78100
C  51.36500 4.36800 47.17700
C  52.58600 5.16800 47.72700
N  46.52500 5.92400 47.63300
C  47.64300 6.58400 47.96300
C  47.45500 7.97800 48.03400
C  46.15200 8.13800 47.66200
C  45.59800 6.83300 47.43500
C  48.44100 8.94900 48.14900
C  45.09000 9.02900 47.43300
O  45.06200 10.25000 47.34800
C  43.71200 8.21000 47.07600
C  42.74300 8.45200 48.18500
O  42.57100 7.83900 49.22000
O  41.93700 9.47400 47.72900
C  40.79600 9.89200 48.47700
H  42.44200 1.46400 46.23700
H  48.37300 0.17000 48.22500
H  49.79000 6.28700 48.39800
H  41.55200 6.22600 46.65700
H  41.46000 3.71700 45.15200
H  40.07500 4.38000 47.45300
H  41.28200 3.22600 47.88700
H  40.24000 2.74400 46.55600
H  41.82000 5.33800 43.82800
H  43.08800 6.42300 44.19700
H  41.43500 8.04600 45.34800
H  40.19000 7.06600 44.70900
H  43.68000 -1.92200 45.74900
H  43.01000 -0.39500 45.14400
H  42.54700 -0.96900 46.66000
H  47.97800 -3.19500 47.09000
H  47.89300 -2.33300 48.55900
H  48.49500 -1.51100 47.05700
H  50.70200 1.86200 47.57200
H  50.65400 4.36200 49.26700
H  50.67800 0.60300 49.49400
H  49.57300 1.74400 50.46900
H  51.18900 2.27200 50.17400
H  50.93400 5.02600 46.42200
H  51.82900 3.46600 46.77800
H  52.35600 6.16500 48.10300
H  53.37400 5.31600 46.98800
H  52.97000 4.68500 48.62600
H  48.57300 9.16900 47.09000
H  49.22600 8.46200 48.72800
H  48.20500 9.93000 48.56100
H  43.38400 8.49600 46.07600
H  40.82500 9.47300 49.48300
H  40.00000 9.50300 47.84300
H  40.69200 10.97500 48.54600
Mg 29.78700 58.48800 39.52600
C  27.12700 56.30800 38.46500
C  32.00500 56.06700 38.63700
C  32.25700 60.78400 39.59700
C  27.40900 60.90900 40.12100
N  29.50700 56.48000 38.64900
C  28.40400 55.71600 38.34800
C  28.70000 54.22900 38.14600
C  30.23100 54.12800 38.43600
C  30.66100 55.66000 38.67300
C  30.59700 53.20400 39.63500
C  28.36200 53.76900 36.68800
C  29.01500 54.46100 35.45000
H  28.20100 55.05600 34.37200
N  31.91900 58.46300 39.18600
C  32.62200 57.28500 38.85500
C  33.99100 57.61000 38.84400
C  34.11700 59.02600 39.24200
C  32.75100 59.51200 39.33400
C  35.10300 56.52300 38.61400
C  35.42600 59.61300 39.53600
O  36.44400 58.93800 39.40300
C  35.46300 60.99400 39.86600
N  29.83500 60.55900 39.71300
C  30.95800 61.28100 39.84000
C  30.74400 62.70900 40.33300
C  29.19000 62.77800 40.37200
C  28.78700 61.28700 40.08400
C  31.50100 63.00500 41.62500
C  28.48200 63.75000 39.39300
C  27.42400 64.73200 39.92400
N  27.66000 58.68600 39.49100
C  26.85700 59.71200 39.80400
C  25.56000 59.33200 39.54600
C  25.60600 58.00100 39.03600
C  26.86400 57.63800 38.98200
C  24.31300 60.20500 39.60500
C  24.77200 56.89300 38.56800
O  23.59800 56.86200 38.50400
C  25.73200 55.71200 38.25100
C  25.34300 54.51300 39.08200
O  25.14700 54.39600 40.28300
O  25.18300 53.50300 38.18300
C  24.49600 52.37300 38.75500
H  32.64800 55.19200 38.52100
H  32.96800 61.61000 39.52400
H  26.75600 61.73100 40.42000
H  28.07300 53.61700 38.79300
H  30.87700 53.76500 37.63700
H  29.69800 52.86900 40.15300
H  31.06400 53.84200 40.38600
H  31.28800 52.44100 39.27800
H  27.29100 53.77000 36.48700
H  28.74900 52.75000 36.71600
H  29.82700 53.80300 35.13900
H  29.53400 55.34500 35.81800
H  34.72600 55.53000 38.37000
H  35.72200 56.39400 39.50200
H  35.68900 56.94500 37.79800
H  34.84300 61.13000 40.75200
H  35.10300 61.56400 39.01000
H  36.44100 61.41600 40.09600
H  30.99700 63.45900 39.58400
H  28.88400 63.08400 41.37300
H  32.04000 63.94700 41.52600
H  32.15800 62.17200 41.87400
H  30.91400 63.25500 42.50900
H  27.94900 63.11000 38.68900
H  29.21800 64.34900 38.85600
H  26.40500 64.53400 39.59100
H  27.64300 65.77100 39.67700
H  27.38700 64.71500 41.01300
H  23.80500 60.10100 38.64700
H  24.49300 61.26600 39.77900
H  23.69000 59.91800 40.45200
H  25.70400 55.32000 37.23400
H  25.14500 51.60600 39.17700
H  23.89200 52.04300 37.91000
H  23.78100 52.51300 39.56600

