158

Mg -0.21000 7.65900 27.36000
C  0.47500 9.98800 29.83700
C  -0.64200 5.28500 29.59300
C  -0.74100 5.58600 24.66800
C  0.81800 10.14000 25.04500
N  0.11500 7.69500 29.54500
C  0.06600 8.74500 30.38000
C  -0.17400 8.33100 31.77100
C  -0.39400 6.77700 31.68900
C  -0.27500 6.54400 30.17400
C  0.64400 5.93700 32.35700
C  -1.29800 9.06200 32.47400
C  -1.35800 8.94100 34.01900
H  -0.16700 8.47900 34.82300
N  -0.53300 5.73200 27.14700
C  -0.81600 4.92600 28.21800
C  -1.10900 3.59400 27.71800
C  -1.09500 3.60900 26.31800
C  -0.80100 5.05600 26.01600
C  -1.36100 2.40500 28.69300
C  -1.34300 2.47700 25.22200
O  -1.39100 2.64700 23.99900
C  -1.63700 1.02600 25.85400
N  0.10600 7.83100 25.12500
C  -0.28800 6.84900 24.28800
C  -0.29600 7.39200 22.85000
C  -0.08600 8.88500 22.97100
C  0.36200 8.95500 24.43800
C  0.65800 6.46200 22.03100
C  -1.46300 9.63900 22.84000
C  -1.79300 10.29800 21.41900
N  0.55100 9.63100 27.40100
C  0.98200 10.50300 26.40000
C  1.37700 11.82100 26.95400
C  1.22300 11.68000 28.33400
C  0.86500 10.28800 28.52100
C  1.80300 13.01400 26.15900
C  1.33900 12.28100 29.58100
O  1.61400 13.43600 29.93000
C  0.92400 11.20900 30.61100
C  1.92800 11.18300 31.64600
O  3.02300 10.65500 31.48800
O  1.48300 11.82800 32.75100
C  2.38400 11.81000 33.86700
H  -0.80100 4.58100 30.41300
H  -0.90400 4.87400 23.85700
H  0.96900 10.90000 24.27600
H  0.73100 8.41500 32.37300
H  -1.36000 6.40200 32.02800
H  1.45400 5.73500 31.65700
H  0.27300 4.95000 32.63700
H  1.07600 6.38800 33.25000
H  -2.17500 8.50700 32.14000
H  -1.39300 10.13500 32.30600
H  -2.25700 8.36200 34.22800
H  -1.62200 9.91300 34.43600
H  -2.41600 2.32600 28.95600
H  -0.87600 2.69000 29.62600
H  -0.99900 1.42500 28.38100
H  -1.99800 0.45100 25.00100
H  -2.42800 1.11700 26.59800
H  -0.73000 0.59300 26.27800
H  -1.32000 7.30600 22.48900
H  0.72200 9.19600 22.30900
H  0.95700 5.52100 22.49300
H  1.46300 7.00700 21.53700
H  0.04300 6.03200 21.24000
H  -1.40600 10.49200 23.51700
H  -2.35400 9.09500 23.15300
H  -2.79600 10.00100 21.11300
H  -1.00200 10.16200 20.68200
H  -1.74000 11.36800 21.62300
H  0.86600 13.33000 25.70100
H  2.55800 12.75100 25.41800
H  2.32100 13.69300 26.83700
H  0.02900 11.63900 31.06000
H  2.53600 10.76200 34.12400
H  2.07100 12.36300 34.75200
H  3.41400 12.11800 33.68600
Mg 8.10600 3.16800 28.74800
C  9.74600 2.02100 31.59200
C  6.03000 5.08800 30.88100
C  6.71000 4.51100 26.13600
C  9.72600 0.80900 26.80900
N  7.97500 3.53200 30.91500
C  8.78000 2.99700 31.89700
C  8.44900 3.70900 33.28800
C  6.95000 4.26100 33.13200
C  6.98900 4.33300 31.55400
C  5.71600 3.49100 33.62700
C  9.48300 4.86300 33.56600
C  10.43400 4.63900 34.71300
H  10.17800 3.73100 35.89900
N  6.49200 4.62800 28.51300
C  5.80900 5.28900 29.47900
C  4.89600 6.23300 28.84700
C  5.21100 6.18500 27.41000
C  6.17700 5.12300 27.26200
C  3.88100 7.07300 29.66100
C  4.61500 7.04500 26.29600
O  4.84000 6.78800 25.13800
C  3.76000 8.21800 26.66000
N  7.94200 2.45700 26.77600
C  7.41700 3.34200 25.87800
C  7.69400 2.91300 24.45100
C  8.95100 1.89000 24.67600
C  8.86500 1.64500 26.13500
C  6.49300 2.34400 23.71100
C  10.32900 2.35500 24.09600
C  11.12100 3.40900 24.83800
N  9.48900 1.73900 29.12700
C  9.94300 0.77000 28.21100
C  10.85200 -0.07700 28.99000
C  10.83300 0.39800 30.29700
C  9.94500 1.48600 30.31100
C  11.72400 -1.14100 28.38300
C  11.46200 0.34300 31.60200
O  12.38800 -0.32900 32.08100
C  10.62600 1.24200 32.53700
C  9.84800 0.38900 33.53700
O  8.77400 -0.12200 33.43500
O  10.54200 0.27700 34.73100
C  9.85400 -0.23200 35.83100
H  5.31300 5.66700 31.46700
H  6.46800 5.13900 25.27600
H  10.33700 0.17300 26.16500
H  8.43800 2.99500 34.11100
H  6.82700 5.27500 33.51300
H  5.48300 2.68300 32.93500
H  4.86600 4.16700 33.72100
H  5.98300 3.09900 34.60800
H  8.97100 5.77300 33.88000
H  10.06600 5.01400 32.65700
H  10.58200 5.62000 35.16300
H  11.41000 4.28000 34.38600
H  3.71400 6.52000 30.58500
H  2.90600 7.09200 29.17500
H  4.27100 8.04700 29.95600
H  2.93800 7.94900 27.32500
H  3.47800 8.61200 25.68400
H  4.38200 8.98800 27.11700
H  8.04900 3.71600 23.80500
H  8.65100 0.97400 24.16800
H  5.67000 2.18100 24.40700
H  6.65700 1.36800 23.25500
H  6.21800 3.11400 22.99100
H  10.28000 2.75000 23.08200
H  10.98100 1.48500 24.16700
H  10.65500 3.78800 25.74800
H  11.25800 4.34900 24.30300
H  12.14500 3.06100 24.97000
H  12.63800 -1.39200 28.92200
H  11.99400 -0.99600 27.33700
H  11.23100 -2.11100 28.32500
H  11.36600 1.74800 33.15700
H  9.83500 -1.32000 35.77400
H  8.81000 0.06500 35.93300
H  10.41700 0.07300 36.71200

