158

Mg -1.45000 18.95100 27.52100
C  -2.15500 16.49700 30.12800
C  -2.04700 21.39300 29.72700
C  -1.49000 20.79300 24.94000
C  -1.58600 15.99700 25.28600
N  -1.95100 18.88400 29.69900
C  -2.17700 17.84000 30.57500
C  -2.38700 18.29500 31.98100
C  -2.41000 19.80500 31.75700
C  -2.05900 20.08600 30.27700
C  -3.74100 20.54600 32.04400
C  -1.38500 17.75100 33.03500
C  -0.98400 18.69000 34.23600
H  -0.79200 18.05400 35.57500
N  -1.59500 20.86900 27.42600
C  -1.87000 21.75100 28.41100
C  -1.79500 23.10800 27.82300
C  -1.54900 22.95000 26.37100
C  -1.63400 21.44900 26.18300
C  -1.89400 24.33400 28.66600
C  -1.23600 23.98900 25.33600
O  -1.05200 23.75900 24.14600
C  -1.39700 25.45700 25.69100
N  -1.52200 18.40900 25.43800
C  -1.36200 19.40600 24.52900
C  -1.29900 18.89000 23.08400
C  -1.21300 17.37500 23.33300
C  -1.45800 17.24600 24.78900
C  -2.66500 19.22800 22.33900
C  0.06000 16.77500 22.78700
C  1.31500 17.24800 23.51400
N  -1.77000 16.73700 27.65700
C  -1.81000 15.67400 26.68000
C  -1.99400 14.41300 27.32600
C  -2.06200 14.71100 28.66400
C  -2.00600 16.12000 28.82200
C  -2.08400 13.09100 26.65800
C  -2.28600 14.07400 29.89100
O  -2.50600 12.91400 30.21900
C  -2.23600 15.26400 30.97500
C  -1.18900 14.95200 31.90300
O  -0.02200 15.14900 31.63600
O  -1.66700 14.48000 33.04000
C  -0.74900 14.02300 34.09800
H  -2.42900 22.15100 30.41400
H  -1.45800 21.44600 24.06600
H  -1.49600 15.17000 24.57900
H  -3.40300 17.95900 32.19300
H  -1.61100 20.36800 32.24000
H  -4.17000 20.92500 31.11600
H  -3.53900 21.36800 32.73100
H  -4.41600 19.88700 32.59000
H  -0.47200 17.47000 32.51000
H  -1.79400 16.84100 33.47300
H  -1.71500 19.48300 34.39200
H  -0.03500 19.22200 34.17700
H  -1.00300 24.26800 29.29000
H  -2.82500 24.41900 29.22600
H  -1.72000 25.32800 28.25500
H  -2.35100 25.71600 26.15000
H  -1.31800 25.99300 24.74500
H  -0.54700 25.84200 26.25400
H  -0.36000 19.29100 22.70100
H  -2.02700 16.78100 22.91600
H  -3.19200 19.91200 23.00500
H  -3.28100 18.45000 21.88900
H  -2.35800 19.76500 21.44100
H  0.08300 17.12100 21.75300
H  0.04500 15.68600 22.73100
H  1.08600 17.52300 24.54400
H  1.80600 18.10000 23.04400
H  1.97300 16.38000 23.55500
H  -1.83500 13.12600 25.59700
H  -3.10100 12.71400 26.76400
H  -1.39700 12.38200 27.11900
H  -3.18200 15.27400 31.51600
H  -0.90700 12.94500 34.12500
H  -1.18700 14.41000 35.01800
H  0.30000 14.32200 34.08700
Mg 48.22500 25.00100 28.17200
C  49.23300 27.13900 30.79900
C  47.54300 22.66000 30.69200
C  47.61100 22.74200 25.78000
C  49.58300 27.11300 25.80200
N  48.39900 24.90100 30.53800
C  48.77100 25.92300 31.36200
C  48.42500 25.59300 32.81700
C  48.02700 24.11400 32.71300
C  48.05800 23.86200 31.20900
C  48.93300 23.08200 33.40200
C  47.28300 26.58400 33.37400
C  46.56400 26.05200 34.63400
H  46.46900 26.91600 35.89500
N  47.50000 23.04900 28.20200
C  47.30900 22.25200 29.34700
C  46.82200 20.99300 28.89100
C  46.79600 20.98200 27.50600
C  47.36500 22.30400 27.07900
C  46.51800 19.86500 29.89100
C  46.31100 19.85400 26.55200
O  46.57700 19.90000 25.34900
C  45.68500 18.62900 27.14700
N  48.74100 24.79400 26.05600
C  48.13300 23.89700 25.25200
C  48.33000 24.23800 23.75100
C  48.66200 25.74700 23.87800
C  48.97900 25.90600 25.33800
C  49.43000 23.34900 23.12500
C  47.51800 26.69200 23.44600
C  47.78000 27.83200 22.48300
N  49.28500 26.71900 28.22600
C  49.86400 27.45400 27.18000
C  50.55200 28.63100 27.73000
C  50.17500 28.57700 29.21400
C  49.47600 27.43300 29.43100
C  51.30500 29.69800 27.06200
C  50.40700 29.35000 30.47700
O  51.02100 30.33000 30.73200
C  49.52200 28.47000 31.54400
C  50.30800 28.22300 32.76000
O  51.28300 27.52500 32.74900
O  49.87500 28.97500 33.80300
C  50.66000 28.96500 35.06900
H  47.21300 21.96400 31.46600
H  47.20600 21.99700 25.09100
H  49.91200 27.87400 25.09100
H  49.26800 25.68800 33.50100
H  46.98700 23.99400 33.01700
H  49.39700 23.55900 34.26500
H  49.66500 22.62600 32.73500
H  48.24300 22.32300 33.77000
H  46.52000 26.52700 32.59800
H  47.71500 27.58100 33.46300
H  47.10400 25.18500 35.01300
H  45.54700 25.71300 34.43800
H  45.44100 19.77100 30.03200
H  46.92900 20.01500 30.88900
H  46.84100 18.92200 29.44900
H  46.38100 18.07000 27.77300
H  45.30600 17.91700 26.41400
H  44.86300 19.13800 27.65000
H  47.43100 24.02900 23.17000
H  49.55600 26.03600 23.32400
H  50.28100 23.93400 22.77500
H  49.09600 22.85200 22.21400
H  49.77300 22.57300 23.80900
H  47.04100 27.08600 24.34300
H  46.70000 26.07400 23.07600
H  47.91000 28.75400 23.05100
H  46.91700 27.98900 21.83600
H  48.59800 27.62000 21.79500
H  51.34300 29.37300 26.02200
H  52.34200 29.76500 27.39200
H  50.75800 30.64000 27.06900
H  48.62100 29.06300 31.69700
H  51.71200 28.72100 34.92000
H  50.32000 28.24600 35.81500
H  50.43900 29.94600 35.48900

