158

Mg 43.17000 2.95100 47.81500
C  41.52600 5.71200 47.22900
C  40.31700 1.01300 47.42200
C  45.10300 0.19100 47.47700
C  46.14200 4.73400 47.84000
N  41.15300 3.32800 47.49000
C  40.64100 4.55300 47.19500
C  39.05700 4.46600 46.92500
C  38.78500 3.02100 47.54000
C  40.15100 2.40800 47.52000
C  37.98200 2.97800 48.86600
C  38.80000 4.58600 45.39300
C  38.35700 5.99000 44.85500
H  38.96500 6.41100 43.56300
N  42.75300 0.95700 47.38100
C  41.51200 0.36700 47.31500
C  41.62200 -1.07400 46.99500
C  43.03700 -1.34700 47.00700
C  43.68100 -0.05700 47.43400
C  40.44600 -1.94200 46.68200
C  43.56600 -2.69900 46.59600
O  42.74300 -3.56300 46.34900
C  45.00200 -2.95800 46.64600
N  45.32700 2.47300 47.83700
C  45.89600 1.28600 47.71100
C  47.41000 1.29600 47.78300
C  47.71500 2.80300 47.70800
C  46.33100 3.38900 47.72100
C  47.94600 0.58000 48.98800
C  48.45300 3.29300 46.38100
C  49.94500 3.02700 46.37000
N  43.73200 4.82200 47.69700
C  44.95300 5.41300 47.75400
C  44.84800 6.82300 47.69500
C  43.45100 7.01300 47.46900
C  42.84600 5.79300 47.52000
C  45.87900 7.87000 47.85800
C  42.36900 7.99100 47.28300
O  42.37200 9.23000 47.25400
C  41.02400 7.13800 47.05500
C  40.11600 7.54400 48.19700
O  40.00000 6.87900 49.27400
O  39.36400 8.61100 47.99300
C  38.23500 8.89500 48.90800
H  39.39300 0.45600 47.25400
H  45.54900 -0.80300 47.40700
H  47.03000 5.36000 47.94700
H  38.67400 5.28200 47.53700
H  38.26800 2.46600 46.75800
H  37.65000 3.98500 49.11800
H  38.67700 2.58000 49.60500
H  37.11800 2.35400 48.63900
H  38.02800 3.87800 45.09200
H  39.64000 4.34000 44.74300
H  38.37100 6.76700 45.61900
H  37.28900 5.96900 44.63900
H  39.47100 -1.47200 46.81600
H  40.47300 -2.85400 47.27900
H  40.61200 -2.25400 45.65100
H  45.53000 -2.30900 45.94700
H  45.04500 -4.01300 46.37500
H  45.28900 -2.98600 47.69700
H  47.88800 0.82800 46.92200
H  48.31400 3.28400 48.48100
H  47.18700 0.12500 49.62300
H  48.67000 1.10700 49.60900
H  48.51900 -0.23700 48.54800
H  48.28400 4.36900 46.38600
H  48.07900 2.88600 45.44200
H  50.53000 3.59400 45.64500
H  49.91800 1.96600 46.12000
H  50.35300 3.08800 47.37900
H  46.87000 7.46000 47.66000
H  45.78100 8.09700 48.92000
H  45.62100 8.71100 47.21400
H  40.64700 7.44500 46.07900
H  37.61100 8.01700 49.07700
H  37.70700 9.77300 48.53800
H  38.59700 9.13900 49.90700
Mg -5.20800 24.65000 26.20700
C  -3.16800 26.24000 28.59100
C  -6.25400 22.50400 28.57200
C  -7.14800 23.25200 23.88700
C  -3.84100 26.75500 23.83400
N  -4.58000 24.31700 28.30200
C  -3.88700 25.16900 29.13300
C  -4.15500 24.86400 30.62700
C  -4.72400 23.41000 30.47600
C  -5.29500 23.40900 28.99400
C  -3.57300 22.35500 30.52700
C  -5.22300 25.84300 31.20300
C  -5.14000 26.20400 32.69000
H  -4.61200 25.14300 33.61700
N  -6.57100 23.03500 26.20700
C  -6.85700 22.33300 27.31900
C  -7.87900 21.44900 26.96900
C  -8.24800 21.59000 25.56900
C  -7.30200 22.63200 25.14300
C  -8.62700 20.59700 28.03100
C  -9.33800 20.86900 24.71400
O  -9.36100 21.09300 23.47600
C  -10.24800 19.72900 25.28600
N  -5.41700 24.91400 24.17600
C  -6.35100 24.30200 23.47100
C  -6.27700 24.77200 21.97700
C  -5.45900 26.08500 22.08500
C  -4.79100 25.88200 23.41700
C  -5.63300 23.69900 21.05500
C  -6.32800 27.37900 22.14600
C  -6.19600 28.18000 20.83900
N  -3.65600 26.09500 26.12700
C  -3.30400 26.89500 25.10600
C  -2.36300 27.82600 25.55400
C  -2.33900 27.60800 26.97300
C  -3.05400 26.52200 27.22700
C  -1.57800 28.83800 24.79400
C  -1.85300 28.19100 28.25200
O  -1.08200 29.11800 28.54300
C  -2.36300 27.23600 29.34000
C  -1.25200 26.70600 30.16500
O  -0.27700 26.06300 29.78200
O  -1.54800 26.95200 31.51600
C  -0.65800 26.39000 32.52700
H  -6.60700 21.77200 29.30100
H  -7.69300 22.82100 23.04400
H  -3.31800 27.47200 23.19700
H  -3.29100 24.92900 31.28800
H  -5.55100 23.13600 31.13100
H  -3.35000 22.08200 29.49500
H  -3.66900 21.39300 31.02900
H  -2.63000 22.83700 30.78600
H  -6.19000 25.37100 31.03200
H  -5.19100 26.81300 30.70600
H  -6.14100 26.30900 33.10900
H  -4.54700 27.09800 32.87900
H  -9.65000 20.95800 28.13700
H  -8.18000 20.46500 29.01600
H  -8.73500 19.57800 27.65900
H  -10.76100 20.19900 26.12600
H  -9.68100 18.82000 25.48500
H  -10.99500 19.53200 24.51700
H  -7.27500 24.90500 21.55900
H  -4.67500 26.14200 21.33100
H  -4.86400 24.18600 20.45600
H  -6.45500 23.34900 20.43000
H  -5.22100 22.88000 21.64300
H  -5.99700 27.99400 22.98200
H  -7.38800 27.13700 22.21800
H  -5.79300 27.71100 19.94200
H  -5.62000 29.08200 21.04600
H  -7.22100 28.47900 20.62300
H  -2.27900 29.28200 24.08700
H  -0.86000 28.27600 24.19700
H  -0.99000 29.51400 25.41400
H  -3.02900 27.83700 29.96000
H  0.25000 26.99200 32.49300
H  -0.19000 25.42800 32.31600
H  -1.08500 26.37400 33.53000

