158

Mg 47.04200 44.68300 42.35900
C  43.60700 44.18500 42.63700
C  47.28800 41.23800 41.51100
C  50.24800 45.08100 41.90200
C  46.52500 48.10200 42.58700
N  45.64100 42.93900 42.11100
C  44.29900 42.96100 42.28300
C  43.74200 41.54400 42.18400
C  44.92900 40.64100 42.10100
C  46.05300 41.66800 41.87300
C  45.23100 39.70100 43.36600
C  42.50400 41.39000 41.22600
C  42.49500 42.27700 39.94100
H  43.41700 41.79300 38.74900
N  48.60600 43.38700 41.81900
C  48.48400 42.01800 41.54900
C  49.79600 41.55700 41.35100
C  50.77000 42.60800 41.42800
C  49.89100 43.78200 41.72800
C  50.03900 40.08700 41.16100
C  52.26400 42.53800 41.12100
O  52.74800 41.46000 40.81400
C  53.03800 43.76900 40.96400
N  48.13700 46.26900 41.96500
C  49.50300 46.19000 42.04000
C  50.19700 47.58300 42.20000
C  48.98000 48.57400 42.25700
C  47.82100 47.62100 42.33100
C  51.21300 47.68700 43.42300
C  48.79200 49.68400 41.15300
C  49.88200 49.73500 40.04500
N  45.45200 45.95900 42.48900
C  45.30800 47.36600 42.57500
C  43.93500 47.74900 42.72500
C  43.18400 46.52000 42.70100
C  44.15300 45.48700 42.65800
C  43.50100 49.16200 42.79800
C  41.78300 45.92500 42.74700
O  40.61600 46.35900 42.75600
C  42.08800 44.35600 42.79900
C  41.68300 43.67500 44.02600
O  40.70800 42.96600 44.10300
O  42.44100 44.16800 45.11100
C  41.96800 43.81100 46.49800
H  47.44600 40.16800 41.36100
H  51.30800 45.32200 42.00800
H  46.56700 49.17000 42.81300
H  43.22700 41.38300 43.13100
H  44.75900 39.93200 41.29000
H  46.20500 39.86700 43.82600
H  45.25600 38.63800 43.12700
H  44.43200 39.91100 44.07700
H  41.57300 41.52900 41.77500
H  42.65300 40.33600 40.99200
H  42.89800 43.27100 40.13400
H  41.48300 42.40600 39.55800
H  50.91300 39.83600 40.55900
H  49.23500 39.61600 40.59500
H  50.00900 39.67200 42.16800
H  52.64600 44.50800 40.26500
H  53.97900 43.42200 40.53700
H  53.09700 44.25400 41.93900
H  50.72700 47.74700 41.26200
H  49.00100 49.10900 43.20600
H  51.32100 46.78000 44.01800
H  51.04600 48.56200 44.05200
H  52.11200 47.93800 42.86100
H  48.80500 50.71800 41.50000
H  47.84800 49.50700 40.63700
H  49.89800 50.74400 39.63300
H  49.76000 48.99200 39.25700
H  50.84900 49.67700 40.54500
H  42.47600 49.32000 43.13200
H  43.50000 49.62300 41.81000
H  44.16100 49.72600 43.45700
H  41.46200 43.91100 42.02600
H  42.62200 43.09700 46.99900
H  41.06900 43.19800 46.56200
H  41.74700 44.71400 47.06700
Mg -11.90400 16.58300 42.86600
C  -8.48000 17.07000 42.90800
C  -12.40400 19.71100 41.95700
C  -15.22300 15.88200 42.69700
C  -11.24900 13.07600 43.26400
N  -10.58900 18.12800 42.47800
C  -9.23800 18.20800 42.65400
C  -8.70300 19.49400 42.08200
C  -9.96500 20.43500 41.97000
C  -11.08400 19.43200 42.23100
C  -9.92000 21.57800 42.97600
C  -7.99500 19.45400 40.65600
C  -6.75200 20.28700 40.40700
H  -5.53300 19.74800 39.71500
N  -13.57700 17.59600 42.24100
C  -13.54200 18.88900 41.90000
C  -14.90300 19.37200 41.65000
C  -15.78800 18.29800 41.95500
C  -14.86000 17.15800 42.31200
C  -15.26200 20.87700 41.31800
C  -17.32000 18.34500 41.93900
O  -17.83300 19.42500 41.77200
C  -18.17600 17.16600 42.16400
N  -13.11100 14.69200 42.60100
C  -14.47800 14.73400 42.81200
C  -14.91200 13.40400 43.33100
C  -13.67600 12.53800 43.42400
C  -12.64200 13.48400 43.11400
C  -15.87700 13.46800 44.58200
C  -13.51700 11.42200 42.32600
C  -13.02200 10.08300 42.84300
N  -10.21800 15.31800 43.11400
C  -10.10300 13.89600 43.18200
C  -8.74400 13.50100 43.36800
C  -8.00300 14.74700 43.26100
C  -8.97700 15.72400 43.07500
C  -8.23400 12.03800 43.44400
C  -6.74100 15.37900 43.21600
O  -5.60900 14.87700 43.29200
C  -7.01700 16.93800 43.06000
C  -6.45500 17.65800 44.27500
O  -6.98100 17.87400 45.33200
O  -5.18600 18.10100 44.02200
C  -4.46400 18.57800 45.22900
H  -12.55200 20.78600 41.83100
H  -16.28300 15.62100 42.72600
H  -11.10100 12.05100 43.61000
H  -7.95700 19.86500 42.78500
H  -10.25700 20.82200 40.99400
H  -8.90600 21.77000 43.32500
H  -10.39500 21.16900 43.86800
H  -10.45800 22.45800 42.62400
H  -8.69800 19.84200 39.91900
H  -7.74000 18.41100 40.46400
H  -6.40800 20.45900 41.42600
H  -7.10500 21.26100 40.06700
H  -15.46900 21.16100 40.28600
H  -14.56100 21.55200 41.80900
H  -16.13700 21.19400 41.88500
H  -19.21200 17.18400 41.82400
H  -18.18100 16.99000 43.23900
H  -17.77100 16.27400 41.68500
H  -15.42600 13.01600 42.45100
H  -13.57500 12.23200 44.46500
H  -15.88600 14.39000 45.16300
H  -15.75800 12.69800 45.34400
H  -16.89400 13.37300 44.20200
H  -12.77000 11.64900 41.56500
H  -14.42800 11.24800 41.75300
H  -13.77600 9.44000 42.38800
H  -13.30000 10.12700 43.89700
H  -11.99200 9.82100 42.60400
H  -7.33200 12.07600 44.05600
H  -7.88800 11.68300 42.47400
H  -8.92500 11.30000 43.84900
H  -6.33600 17.44200 42.37500
H  -4.82900 19.52800 45.61900
H  -3.39000 18.71800 45.10300
H  -4.53800 17.81800 46.00600

