158

Mg 48.46200 45.15600 42.75400
C  45.13100 45.68200 41.73300
C  48.30400 42.01700 41.44900
C  51.76400 45.18000 42.65900
C  48.54700 48.44500 43.79600
N  46.93600 44.03400 41.76100
C  45.63700 44.41400 41.38500
C  44.87000 43.27500 40.86600
C  45.77700 42.06300 41.16300
C  47.09500 42.70000 41.55200
C  45.26000 41.02100 42.22300
C  44.49200 43.53800 39.42900
C  43.29700 42.87400 38.80700
H  43.36800 42.08500 37.49300
N  49.88100 43.65300 42.33700
C  49.64800 42.42200 41.77000
C  50.88900 41.83800 41.50900
C  51.86600 42.61800 42.09400
C  51.20000 43.86500 42.43900
C  51.08800 40.46900 40.94400
C  53.29700 42.19900 42.29100
O  53.74900 41.20900 41.69100
C  54.26500 43.12400 43.01300
N  49.90200 46.63200 43.23600
C  51.23900 46.39100 43.08600
C  52.07400 47.63100 43.55500
C  51.04600 48.55300 44.18200
C  49.72700 47.83600 43.79700
C  53.42500 47.40500 44.31100
C  51.13100 50.11100 43.73200
C  50.79700 51.12800 44.82500
N  47.12400 46.76100 42.82300
C  47.30900 48.04900 43.34200
C  46.05700 48.75000 43.25600
C  45.15200 47.79900 42.72500
C  45.87300 46.65900 42.42900
C  45.86700 50.16700 43.71000
C  43.80000 47.60400 42.27600
O  42.84500 48.33800 42.31400
C  43.73700 46.16200 41.67500
C  42.76700 45.33000 42.35900
O  41.70200 45.01500 41.85400
O  43.25900 44.89100 43.58700
C  42.41000 43.93300 44.31100
H  48.21600 40.99900 41.06300
H  52.83800 45.22400 42.46900
H  48.49200 49.40800 44.30800
H  43.94600 43.19900 41.44000
H  45.99600 41.60300 40.19900
H  45.79400 41.18400 43.15900
H  45.40900 40.01500 41.82900
H  44.19900 41.17400 42.42100
H  45.30300 43.12600 38.82900
H  44.49000 44.60600 39.21300
H  42.50600 43.62400 38.79200
H  43.08300 42.08700 39.53000
H  51.49700 40.78300 39.98400
H  50.15800 39.92500 40.77600
H  51.78700 39.77400 41.40900
H  53.71700 43.58500 43.83500
H  54.85700 43.75900 42.35300
H  54.87400 42.43500 43.59700
H  52.45400 48.05200 42.62500
H  51.06700 48.59000 45.27100
H  53.58800 46.35700 44.56200
H  53.41800 48.07500 45.17000
H  54.20100 47.79300 43.65100
H  50.31400 50.21800 43.01800
H  52.00200 50.52800 43.22800
H  51.32900 52.05700 44.61900
H  51.26800 50.81400 45.75600
H  49.76400 51.46100 44.92100
H  46.35400 50.85400 43.01800
H  46.47200 50.16800 44.61800
H  44.81900 50.46400 43.75200
H  43.50500 46.30000 40.61900
H  41.57400 44.46900 44.76100
H  43.00400 43.38000 45.03900
H  41.81400 43.27400 43.68000
Mg -0.82100 34.53900 27.01000
C  -2.97600 32.80300 29.15200
C  -0.26300 36.79800 29.47200
C  0.96400 36.42600 24.81900
C  -2.24200 32.80700 24.27600
N  -1.35300 34.58100 29.11900
C  -2.14100 33.75600 29.82300
C  -2.30200 34.16500 31.27000
C  -1.59900 35.58300 31.35000
C  -1.07100 35.73300 29.86500
C  -2.57100 36.75700 31.63700
C  -1.76200 33.17400 32.36200
C  -2.32700 33.30400 33.78100
H  -1.64100 32.59300 35.01200
N  0.27700 36.35600 27.14100
C  0.35000 37.15300 28.24600
C  1.16200 38.38000 27.92800
C  1.51800 38.25800 26.61400
C  0.93600 36.96100 26.14800
C  1.43800 39.48200 28.84300
C  2.42000 39.19600 25.74200
O  2.74800 38.95600 24.61900
C  3.04600 40.40500 26.49400
N  -0.71900 34.56100 24.83200
C  0.21400 35.41700 24.23200
C  0.30800 35.05500 22.74300
C  -0.54800 33.71800 22.56200
C  -1.13700 33.62000 24.00000
C  -0.06800 36.18000 21.73000
C  0.22800 32.55100 22.06300
C  1.32200 31.99000 22.96800
N  -2.19600 33.02900 26.68800
C  -2.76400 32.57900 25.55900
C  -3.80000 31.58500 25.90500
C  -3.82400 31.62700 27.29200
C  -2.95200 32.56500 27.75600
C  -4.63900 30.75400 25.05000
C  -4.51600 31.02800 28.50300
O  -5.34800 30.19900 28.49400
C  -4.00300 31.79200 29.73900
C  -5.19400 32.44100 30.44400
O  -5.68600 33.54100 30.15500
O  -5.78800 31.49700 31.37000
C  -6.81700 32.12900 32.18900
H  -0.03200 37.45700 30.31100
H  1.42900 37.05100 24.05500
H  -2.76100 32.34500 23.43300
H  -3.38400 34.29100 31.30700
H  -0.76600 35.61700 32.05300
H  -2.19500 37.30000 32.50300
H  -3.55200 36.47000 32.01500
H  -2.75800 37.49600 30.85700
H  -0.72700 33.46100 32.54800
H  -1.75200 32.10900 32.13400
H  -3.29200 32.80600 33.68500
H  -2.49000 34.36500 33.96500
H  2.43900 39.56400 29.26700
H  0.78500 39.43500 29.71400
H  1.02100 40.41600 28.46700
H  2.15000 40.98000 26.72900
H  3.77900 40.89700 25.85300
H  3.64900 39.97500 27.29400
H  1.37600 34.94300 22.55600
H  -1.40500 33.77200 21.89200
H  -0.41400 37.14400 22.10200
H  -0.83400 35.86800 21.02000
H  0.85000 36.39800 21.18500
H  0.59800 32.72900 21.05300
H  -0.36200 31.65400 21.87600
H  1.32400 32.49600 23.93300
H  2.25200 32.32000 22.50500
H  1.14200 30.92100 23.08100
H  -4.21300 29.75400 24.97200
H  -4.90300 31.26000 24.12100
H  -5.57700 30.65600 25.59800
H  -3.54400 31.01800 30.35400
H  -7.51900 32.75900 31.64300
H  -6.31000 32.84600 32.83600
H  -7.45200 31.51500 32.82800

