158

Mg 8.59800 3.82700 26.80500
C  9.58400 2.41300 29.67600
C  6.18300 5.63600 28.67100
C  7.40000 5.47800 23.98200
C  10.19500 1.52000 24.88200
N  8.01500 4.05700 28.86400
C  8.60800 3.32600 29.81100
C  7.96200 3.72800 31.18700
C  6.55100 4.19600 30.73000
C  6.90500 4.58200 29.35500
C  5.36400 3.16200 30.87700
C  8.79800 4.87800 31.96600
C  8.87900 4.75200 33.51400
H  10.21700 4.66200 34.28200
N  7.17900 5.40700 26.39200
C  6.32800 6.05000 27.27300
C  5.51700 7.03800 26.64300
C  5.96600 7.10200 25.29400
C  6.95600 5.99300 25.17700
C  4.49700 7.91300 27.38500
C  5.57300 8.08800 24.19700
O  5.79700 7.94100 23.01500
C  4.84300 9.29000 24.57700
N  8.82900 3.53600 24.66500
C  8.27100 4.30000 23.73900
C  8.36600 3.49800 22.36700
C  9.34300 2.35700 22.74600
C  9.45100 2.43000 24.18300
C  6.98300 3.00400 21.87400
C  10.68400 2.35900 21.95500
C  10.92600 1.09700 21.18100
N  9.77700 2.34800 27.14500
C  10.43100 1.50000 26.32300
C  11.16900 0.58800 27.03900
C  10.93500 0.91000 28.42400
C  10.05600 1.99700 28.43400
C  12.00200 -0.45700 26.39300
C  11.18300 0.51700 29.84200
O  11.81600 -0.41500 30.34100
C  10.32000 1.52200 30.71800
C  9.50300 0.86300 31.73400
O  8.56800 0.11800 31.44200
O  9.79600 1.29900 32.97000
C  9.25200 0.53000 34.08500
H  5.50600 6.20600 29.31100
H  6.89300 5.64700 23.02900
H  10.59200 0.70200 24.27700
H  7.89400 2.87500 31.86200
H  6.30800 5.06500 31.34200
H  5.61600 2.20400 31.33200
H  4.88700 3.18300 29.89700
H  4.71300 3.65000 31.60200
H  8.34800 5.86000 31.82500
H  9.81200 4.98300 31.57800
H  8.45700 3.75400 33.63500
H  8.15700 5.40800 34.00100
H  4.40200 7.53600 28.40300
H  3.52500 7.80200 26.90300
H  4.82400 8.94800 27.48200
H  4.92800 10.12100 23.87700
H  5.48900 9.45100 25.44000
H  3.82300 9.06300 24.88400
H  8.80900 4.21000 21.67000
H  8.77700 1.46800 22.46900
H  6.16700 3.10600 22.58800
H  7.01700 1.98900 21.48000
H  6.59300 3.58100 21.03500
H  11.55500 2.47200 22.60000
H  10.65100 3.08400 21.14200
H  10.55900 1.12600 20.15500
H  10.47200 0.20600 21.61500
H  12.01200 1.03200 21.11100
H  12.28500 -1.24500 27.09100
H  12.95300 -0.10700 25.99200
H  11.46800 -0.94400 25.57700
H  11.08300 2.09400 31.24700
H  10.06400 -0.01500 34.56700
H  8.50400 -0.20400 33.78700
H  8.93800 1.23700 34.85300
Mg 47.76200 24.50500 29.15000
C  48.85400 26.91400 31.41500
C  46.81000 22.47600 31.66900
C  46.90700 22.22600 26.84800
C  49.14700 26.56200 26.56500
N  47.69300 24.77500 31.24300
C  48.16900 25.80900 31.96700
C  47.68300 25.66700 33.44400
C  47.22200 24.19700 33.58100
C  47.24800 23.79700 32.07800
C  47.99000 23.16800 34.45700
C  46.55600 26.70800 33.81600
C  46.85500 27.78200 34.86500
H  45.79800 28.04000 35.99000
N  46.87200 22.66300 29.23700
C  46.58600 21.92400 30.39300
C  46.06800 20.62200 30.11300
C  46.00100 20.56000 28.67400
C  46.57600 21.85300 28.16700
C  45.55700 19.67100 31.15500
C  45.47400 19.49400 27.83900
O  45.33400 19.70700 26.63900
C  45.03000 18.18700 28.42000
N  48.03100 24.40700 26.97800
C  47.53200 23.38200 26.26000
C  47.84200 23.52800 24.73100
C  48.19500 24.99000 24.66900
C  48.39600 25.38900 26.11400
C  49.05500 22.61700 24.32000
C  47.05700 25.78800 24.03400
C  46.91300 25.72000 22.50800
N  48.84100 26.32800 28.99900
C  49.38100 27.00900 27.84800
C  50.10500 28.14300 28.34600
C  49.96500 28.14100 29.75300
C  49.17100 27.07700 30.07100
C  50.89100 29.17700 27.61900
C  50.27400 28.76100 30.98300
O  50.97800 29.76600 31.25600
C  49.47400 28.06100 32.13500
C  50.44600 27.67900 33.17900
O  51.20300 26.73700 33.20600
O  50.20800 28.58200 34.21100
C  51.13800 28.32800 35.33100
H  46.53400 21.96000 32.59100
H  46.68700 21.53300 26.03300
H  49.55100 27.08900 25.69800
H  48.58700 25.71500 34.05000
H  46.18900 24.24500 33.92600
H  48.94000 23.56000 34.82200
H  48.27100 22.31100 33.84500
H  47.40400 22.78600 35.29200
H  45.63400 26.23000 34.14700
H  46.22900 27.07600 32.84400
H  47.05700 28.73700 34.38000
H  47.76500 27.43500 35.35500
H  45.85800 18.68100 30.81200
H  44.46700 19.64200 31.13800
H  45.94500 19.94800 32.13500
H  45.83900 17.51500 28.71000
H  44.47300 17.57700 27.70900
H  44.29700 18.37700 29.20400
H  47.01700 23.26200 24.07100
H  49.07500 25.27900 24.09500
H  49.62500 22.09500 25.08900
H  49.82400 23.19000 23.80100
H  48.54700 21.78700 23.83000
H  47.19400 26.83000 24.32500
H  46.20000 25.49300 24.64000
H  47.62100 25.03200 22.04600
H  47.12700 26.73200 22.16300
H  45.85400 25.47300 22.43500
H  50.52700 29.21400 26.59200
H  51.96800 29.01200 27.59300
H  50.68400 30.13000 28.10500
H  48.59200 28.59200 32.49400
H  52.17300 28.09500 35.08200
H  50.73000 27.49000 35.89700
H  51.22900 29.19900 35.98000

