158

Mg -1.14800 34.25000 27.37100
C  -3.01000 32.20500 29.44700
C  0.16700 35.76000 30.08900
C  0.50500 36.25400 25.25600
C  -2.61600 32.60800 24.52500
N  -1.46000 34.13000 29.50100
C  -2.20000 33.12800 30.11800
C  -2.09200 33.21600 31.63000
C  -1.13600 34.51100 31.83800
C  -0.82800 34.84200 30.40600
C  -1.70500 35.76700 32.58500
C  -1.50100 31.91000 32.32400
C  -2.40300 31.27100 33.36600
H  -1.73500 31.28300 34.77700
N  0.14500 35.82000 27.68100
C  0.60600 36.25900 28.88200
C  1.60200 37.31100 28.61000
C  1.66200 37.56400 27.22400
C  0.76300 36.47300 26.69400
C  2.28800 37.98200 29.76500
C  2.49600 38.48000 26.46100
O  2.47400 38.58500 25.23600
C  3.37900 39.48100 27.20700
N  -1.07600 34.46500 25.21100
C  -0.27800 35.37600 24.58100
C  -0.53600 35.45900 23.03500
C  -1.34200 34.15000 22.79000
C  -1.71200 33.66500 24.24400
C  -1.23600 36.72800 22.63100
C  -0.62900 33.04300 21.97000
C  -1.53000 32.39400 20.91000
N  -2.62500 32.70400 26.99000
C  -3.11400 32.20200 25.83100
C  -4.06000 31.18200 26.20500
C  -3.99500 31.10000 27.63000
C  -3.16400 32.10800 28.06200
C  -4.71600 30.30300 25.28400
C  -4.38900 30.34600 28.79300
O  -5.12300 29.31900 28.86500
C  -3.84400 31.07100 30.02900
C  -5.04800 31.60900 30.82000
O  -5.87200 32.44000 30.40900
O  -5.15100 30.87000 31.96300
C  -6.32000 31.07400 32.85400
H  0.50600 36.08000 31.07600
H  0.96800 37.04700 24.66400
H  -3.15700 32.13100 23.70500
H  -3.04000 33.50100 32.08600
H  -0.22300 34.15100 32.31200
H  -1.89200 36.60700 31.91600
H  -1.03400 36.04900 33.39700
H  -2.62000 35.46900 33.09700
H  -0.52200 32.15200 32.73800
H  -1.30100 31.17800 31.54100
H  -2.40800 30.23800 33.01700
H  -3.40200 31.68500 33.22500
H  1.87700 37.70600 30.73600
H  2.05600 39.04200 29.66500
H  3.37200 37.88000 29.71300
H  3.72800 40.13300 26.40600
H  4.24300 38.96200 27.62200
H  2.75600 40.05900 27.88800
H  0.46400 35.40700 22.60300
H  -2.30600 34.37800 22.33600
H  -0.53700 37.51000 22.92800
H  -2.03600 36.93000 23.34300
H  -1.45300 36.61700 21.56800
H  -0.25700 32.33200 22.70900
H  0.24100 33.41200 21.42700
H  -1.00000 32.53500 19.96800
H  -2.56400 32.73500 20.94700
H  -1.59400 31.30800 20.97900
H  -4.09100 30.33500 24.39100
H  -5.68200 30.61800 24.89000
H  -4.79300 29.32100 25.75100
H  -3.24700 30.37900 30.62200
H  -7.03900 31.84300 32.56900
H  -5.87100 31.52100 33.74100
H  -6.67500 30.10300 33.19800
Mg -5.36100 25.56000 26.31100
C  -3.58900 26.36900 29.00900
C  -7.44000 23.39500 28.43500
C  -6.38800 23.67800 23.62400
C  -3.15100 27.25400 24.20700
N  -5.56300 25.05000 28.47700
C  -4.78200 25.63900 29.39000
C  -5.38500 25.47800 30.83400
C  -6.27200 24.19400 30.55200
C  -6.45400 24.16000 29.05100
C  -5.76000 22.85400 31.06100
C  -6.13200 26.73100 31.37400
C  -6.17800 27.00000 32.90300
H  -5.72800 25.97400 33.88800
N  -7.02500 24.09200 26.00200
C  -7.67500 23.39400 26.98700
C  -8.49400 22.34500 26.31000
C  -8.16500 22.38000 24.91400
C  -7.14300 23.42000 24.77600
C  -9.42100 21.34800 26.99900
C  -8.80500 21.55600 23.78500
O  -8.53000 21.76100 22.54400
C  -9.94900 20.57300 24.06500
N  -4.82700 25.50100 24.18700
C  -5.33200 24.54600 23.32700
C  -4.80500 24.73600 21.88900
C  -4.01600 26.04600 22.06100
C  -4.04500 26.34600 23.55000
C  -3.99600 23.64000 21.26300
C  -4.42600 27.28700 21.20800
C  -3.28600 27.96800 20.48300
N  -3.72000 26.69400 26.55900
C  -2.90500 27.33700 25.61200
C  -1.88600 28.08700 26.33800
C  -2.09000 27.75800 27.75500
C  -3.15500 26.79200 27.74300
C  -1.05900 29.23700 25.77300
C  -1.63800 28.01600 29.09300
O  -0.78700 28.76800 29.51200
C  -2.61000 27.08200 29.98300
C  -1.90600 26.15100 30.90800
O  -1.17600 25.18600 30.61800
O  -1.83900 26.66400 32.17000
C  -1.16300 25.96300 33.23800
H  -8.12400 22.79700 29.04000
H  -6.68900 23.21500 22.68200
H  -2.50000 27.81400 23.53200
H  -4.57600 25.21100 31.51300
H  -7.22000 24.44100 31.03000
H  -4.92600 22.93100 31.75800
H  -5.38300 22.39600 30.14600
H  -6.60700 22.38000 31.55800
H  -7.15900 26.75500 31.00800
H  -5.65700 27.65800 31.05300
H  -7.22400 27.21200 33.12600
H  -5.76100 27.99100 33.08300
H  -10.46000 21.66000 26.89400
H  -9.21800 21.26300 28.06700
H  -9.31200 20.33200 26.62000
H  -9.40500 19.74800 24.52500
H  -10.47300 20.13500 23.21600
H  -10.71100 20.84900 24.79400
H  -5.71700 24.91300 21.32000
H  -2.97400 25.87900 21.78700
H  -2.96000 23.89300 21.03600
H  -4.60000 23.26000 20.43900
H  -4.01000 22.79900 21.95700
H  -4.79200 28.08900 21.84800
H  -5.26000 27.10200 20.53100
H  -2.29500 27.51400 20.46400
H  -3.05600 28.95500 20.88300
H  -3.63100 27.97400 19.44900
H  -1.36700 29.50000 24.76100
H  -0.01100 28.95700 25.66600
H  -1.16100 30.13800 26.37900
H  -3.20000 27.73900 30.62100
H  -0.08200 26.09400 33.18600
H  -1.39500 24.89800 33.23200
H  -1.43200 26.24500 34.25500

