158

Mg 7.66100 3.28300 27.02300
C  8.59800 1.50600 29.95900
C  5.80800 5.46600 29.03200
C  6.53400 4.82200 24.28400
C  9.23300 0.93200 25.16500
N  7.31300 3.50000 29.13300
C  7.87400 2.69000 30.15400
C  7.64900 3.30200 31.57200
C  6.57600 4.40800 31.25100
C  6.52300 4.43800 29.70700
C  5.20300 4.12200 31.88400
C  8.92000 3.84800 32.22400
C  8.71500 4.63500 33.58200
H  9.47000 4.06400 34.77600
N  6.30300 4.81100 26.71100
C  5.70900 5.61100 27.66300
C  4.95000 6.65800 26.99700
C  5.12900 6.50800 25.63500
C  6.00200 5.34100 25.46700
C  3.95700 7.53200 27.83200
C  4.59400 7.44700 24.56800
O  4.74700 7.15600 23.36700
C  3.80200 8.65900 24.89300
N  7.88900 2.89000 25.00000
C  7.31400 3.70100 24.06000
C  7.69800 3.29500 22.63700
C  8.62800 2.03800 22.84600
C  8.59900 1.91000 24.41600
C  6.50600 3.10600 21.66600
C  9.99300 2.12400 22.24300
C  10.39800 0.87800 21.50100
N  8.69500 1.54300 27.42900
C  9.34700 0.71600 26.56800
C  9.98200 -0.38100 27.26900
C  9.70600 -0.11800 28.62800
C  8.96800 1.09000 28.67100
C  10.83200 -1.45600 26.58400
C  9.90900 -0.55400 29.96700
O  10.53300 -1.53100 30.40500
C  9.21600 0.46300 30.91200
C  8.25300 -0.26400 31.71600
O  7.31300 -0.89300 31.34600
O  8.38900 0.03700 33.14000
C  7.19400 -0.32100 34.00000
H  5.45900 6.23300 29.72600
H  6.16700 5.35900 23.40700
H  9.85100 0.25500 24.57100
H  7.21700 2.44700 32.09100
H  6.83000 5.41400 31.58400
H  5.24000 3.14100 32.35700
H  4.44200 4.09000 31.10500
H  5.05200 4.89400 32.63900
H  9.34100 4.50900 31.46600
H  9.57700 3.00900 32.45400
H  7.65700 4.65200 33.84600
H  8.94200 5.69600 33.48500
H  2.99700 7.33600 27.35500
H  4.16400 8.59500 27.71200
H  3.86200 7.29100 28.89100
H  2.83400 8.47800 25.36000
H  3.63400 9.10100 23.91100
H  4.35300 9.33700 25.54400
H  8.31200 4.10500 22.24500
H  8.10400 1.14900 22.49500
H  5.52100 3.43000 22.00300
H  6.34300 2.04500 21.47400
H  6.66100 3.73300 20.78800
H  10.79000 2.31300 22.96200
H  9.95500 2.98700 21.57800
H  10.48600 1.16500 20.45300
H  9.74300 0.00700 21.48000
H  11.35700 0.58200 21.92600
H  10.53400 -1.47400 25.53600
H  10.55100 -2.45900 26.90700
H  11.90600 -1.27700 26.62100
H  9.95500 0.89300 31.58800
H  6.87000 0.60800 34.46900
H  7.42000 -1.02500 34.80100
H  6.33600 -0.67000 33.42700
Mg 43.97400 5.76000 46.38000
C  41.98200 8.81900 46.08500
C  41.12000 4.05700 45.53300
C  45.93100 3.25800 46.00700
C  46.79000 7.98400 46.53700
N  41.78000 6.39900 46.01300
C  41.17200 7.68400 45.86400
C  39.69100 7.59000 45.54200
C  39.40100 6.05300 45.55200
C  40.86100 5.42300 45.75500
C  38.34400 5.62000 46.62800
C  39.39200 8.29300 44.18800
C  40.46300 8.03700 43.05800
H  40.09800 8.17000 41.57300
N  43.61700 3.87200 46.00900
C  42.35600 3.30300 45.64000
C  42.49100 1.87800 45.53100
C  43.88800 1.57300 45.73800
C  44.60900 2.91700 45.95700
C  41.38700 0.95100 45.02000
C  44.56800 0.18100 45.58900
O  43.95200 -0.78300 45.21500
C  45.90000 -0.08800 46.03100
N  46.14300 5.67800 46.32200
C  46.64000 4.45700 46.24100
C  48.14900 4.50800 46.35300
C  48.43600 6.07300 46.55300
C  47.04600 6.65600 46.53300
C  48.82800 3.70900 47.45500
C  49.56400 6.57400 45.61500
C  50.92300 6.91300 46.26200
N  44.35500 7.85500 46.24100
C  45.56400 8.60000 46.45900
C  45.36600 10.02200 46.47100
C  43.91400 10.16700 46.33200
C  43.37000 8.79900 46.24300
C  46.40100 11.13000 46.73800
C  42.82100 11.12300 46.36500
O  42.89400 12.34100 46.48900
C  41.51000 10.25100 46.11200
C  40.58400 10.46100 47.28400
O  40.82000 10.04000 48.39900
O  39.38300 11.10700 46.95900
C  38.34500 11.24600 47.95500
H  40.23800 3.52700 45.16800
H  46.67200 2.46300 45.90100
H  47.71200 8.56900 46.49400
H  39.06500 8.04400 46.31000
H  38.94300 5.65800 44.64500
H  38.02500 6.47400 47.22600
H  38.72800 4.82700 47.27000
H  37.43400 5.18100 46.21900
H  39.38400 9.35600 44.43200
H  38.55600 7.92200 43.59500
H  40.97100 7.09100 43.24100
H  41.12400 8.88400 43.24600
H  41.61800 0.69500 43.98600
H  40.39600 1.37300 45.18800
H  41.51600 0.03400 45.59400
H  45.98600 -1.17100 46.12100
H  46.21700 0.29800 47.00000
H  46.56100 0.24600 45.23100
H  48.47100 4.14800 45.37500
H  48.84600 6.22200 47.55200
H  48.14300 3.67600 48.30200
H  49.70900 4.26700 47.77400
H  49.13500 2.74900 47.03900
H  49.16800 7.46400 45.12700
H  49.72500 5.75100 44.91900
H  51.20800 7.96000 46.15400
H  51.73300 6.29200 45.88100
H  50.90000 6.66200 47.32200
H  46.06500 12.06800 46.29800
H  47.29100 10.84200 46.17800
H  46.63700 11.24000 47.79600
H  40.97200 10.56600 45.21800
H  38.06200 12.23700 48.31200
H  38.64800 10.75300 48.87800
H  37.36900 10.87700 47.63900

