158

Mg 46.10400 5.15500 48.97700
C  44.08000 7.92200 47.98500
C  43.43800 3.12700 48.06400
C  48.14700 2.64100 49.05700
C  48.82600 7.45700 49.13800
N  44.07700 5.52900 48.03400
C  43.45800 6.70400 47.75000
C  42.03400 6.57000 47.20900
C  41.78800 5.07700 47.43900
C  43.15500 4.51000 47.93900
C  40.62200 4.72700 48.43000
C  42.00600 7.06000 45.67700
C  40.80200 8.03000 45.41400
H  39.87500 7.63100 44.21400
N  45.79900 3.12200 48.71000
C  44.62900 2.51400 48.40100
C  44.87200 1.06000 48.52400
C  46.26000 0.81300 48.72900
C  46.81900 2.19100 48.80200
C  43.85500 -0.01400 48.45500
C  47.02800 -0.50000 48.84000
O  46.47700 -1.59300 48.87500
C  48.48600 -0.72400 48.88900
N  48.17200 5.08200 48.70700
C  48.78500 3.88400 49.06100
C  50.28900 4.07900 49.35400
C  50.40300 5.64300 49.20300
C  48.99100 6.12800 48.99900
C  50.68800 3.58900 50.79000
C  51.30800 6.05900 47.94600
C  52.69000 6.66900 48.16100
N  46.38600 7.29300 48.87000
C  47.51500 8.02000 49.00800
C  47.18300 9.38300 49.03400
C  45.82700 9.42700 48.62700
C  45.37900 8.13100 48.51700
C  48.12200 10.46400 49.22000
C  44.66900 10.30500 48.32700
O  44.56600 11.48400 48.42500
C  43.49000 9.35600 47.77600
C  42.44800 9.67300 48.76500
O  42.39800 9.27600 49.90100
O  41.34800 10.32200 48.17100
C  40.09700 10.20100 48.95800
H  42.59800 2.53700 47.69100
H  48.78400 1.80900 49.36700
H  49.74000 8.04600 49.23800
H  41.39000 7.25200 47.76400
H  41.52400 4.53600 46.53000
H  41.03300 4.38100 49.37800
H  39.91800 4.03200 47.97400
H  40.07500 5.64500 48.64500
H  41.82000 6.18200 45.05800
H  42.90900 7.63000 45.45600
H  41.20800 9.03800 45.32600
H  40.14900 8.14200 46.27900
H  42.89900 0.39900 48.13300
H  43.68500 -0.44900 49.44000
H  43.94400 -0.72900 47.63600
H  48.95900 -0.12600 48.11000
H  48.83300 -1.75400 48.80200
H  48.70100 -0.35200 49.89100
H  50.89500 3.48700 48.66800
H  50.83700 6.04600 50.11800
H  49.93800 3.78000 51.55600
H  51.60600 4.06400 51.13700
H  50.98000 2.55000 50.63600
H  50.69400 6.77700 47.40200
H  51.36300 5.18900 47.29300
H  53.31800 6.28000 47.35900
H  53.15000 6.48600 49.13200
H  52.57700 7.74200 48.00700
H  49.04500 10.32800 48.65700
H  48.17600 10.64600 50.29400
H  47.60300 11.27700 48.71200
H  43.24600 9.67700 46.76300
H  39.22000 10.62700 48.47000
H  40.23900 10.59400 49.96500
H  39.83200 9.14400 48.97100
Mg 49.64800 34.45100 26.63200
C  47.42600 33.70900 29.35600
C  50.40900 37.33800 28.14900
C  51.25400 35.23900 23.94600
C  48.28400 31.52500 25.06900
N  48.94300 35.34000 28.60200
C  48.19700 34.83400 29.58600
C  48.14300 35.77900 30.82500
C  48.96600 37.03100 30.29600
C  49.42900 36.55100 28.92700
C  48.21500 38.35900 30.21000
C  48.70900 35.26200 32.22700
C  47.77000 35.37900 33.41600
H  48.18500 36.49100 34.40300
N  50.65400 36.15000 26.08100
C  50.92100 37.21000 26.83900
C  51.74900 38.16100 26.07900
C  52.09600 37.45700 24.84700
C  51.29400 36.22600 24.89700
C  52.26500 39.49200 26.64600
C  53.12700 37.83400 23.69400
O  53.18000 37.11700 22.67600
C  53.98800 39.14700 23.83800
N  49.80200 33.42000 24.85500
C  50.65500 33.97200 23.91900
C  50.65600 33.15500 22.58300
C  49.89300 31.85100 23.04800
C  49.32400 32.23200 24.45000
C  50.10700 33.97100 21.37500
C  50.90500 30.61300 23.27400
C  50.71400 29.35900 22.39300
N  48.21000 32.87000 27.06800
C  47.76400 31.79200 26.35000
C  46.71600 31.07000 27.13800
C  46.49600 31.91100 28.23100
C  47.45700 32.86800 28.21500
C  46.09000 29.78300 26.73100
C  45.72500 31.95000 29.47300
O  44.75900 31.29300 29.81500
C  46.36500 33.09900 30.31600
C  46.79600 32.40000 31.58500
O  47.79200 31.75600 31.78800
O  45.83200 32.71900 32.50300
C  45.89700 31.92800 33.73700
H  50.65500 38.20800 28.76100
H  51.86000 35.37300 23.04700
H  47.91800 30.62800 24.56600
H  47.12100 36.13100 30.96500
H  49.87300 37.11300 30.89500
H  48.80200 39.08600 30.76900
H  47.28500 38.39400 30.77700
H  48.04000 38.67900 29.18300
H  49.60300 35.85000 32.43100
H  49.10800 34.24800 32.19400
H  47.90100 34.44700 33.96400
H  46.72900 35.55000 33.13800
H  53.33900 39.51200 26.82900
H  51.80000 39.73000 27.60300
H  52.03100 40.36900 26.04200
H  53.47200 40.10700 23.84300
H  54.69400 39.05200 23.01400
H  54.42900 38.97600 24.82000
H  51.65700 32.79100 22.35100
H  49.10600 31.52200 22.36900
H  49.21500 33.43600 21.04800
H  50.86300 33.99000 20.59100
H  49.86400 34.99600 21.65600
H  50.75000 30.25600 24.29300
H  51.97100 30.82400 23.19200
H  51.64900 28.91200 22.05600
H  50.15200 29.55700 21.48000
H  50.16700 28.61600 22.97300
H  46.89000 29.04300 26.72500
H  45.52100 29.80300 25.80200
H  45.43900 29.46200 27.54300
H  45.59200 33.82000 30.58100
H  46.60900 31.10800 33.82700
H  44.93000 31.50000 33.99900
H  46.17200 32.65600 34.50100

