158

Mg -2.08500 16.62400 25.63100
C  -2.48700 14.41100 28.51000
C  -2.86800 19.24500 27.73300
C  -1.83100 18.53200 23.00200
C  -1.58500 13.71900 23.76800
N  -2.60100 16.74000 27.86600
C  -2.58100 15.78000 28.83600
C  -2.86200 16.34000 30.25400
C  -3.04800 17.87000 29.93700
C  -2.93000 18.00200 28.42600
C  -4.33900 18.52900 30.58100
C  -1.70400 16.06100 31.30600
C  -1.77600 16.98500 32.58800
H  -1.73700 16.22700 33.91300
N  -2.17500 18.57600 25.42600
C  -2.52400 19.49500 26.37800
C  -2.52400 20.84600 25.71700
C  -2.18800 20.62300 24.39000
C  -2.07900 19.17900 24.20200
C  -2.73000 22.19500 26.54100
C  -2.03600 21.73500 23.29400
O  -1.90600 21.42500 22.12700
C  -2.10500 23.11300 23.60500
N  -2.09900 16.15900 23.61500
C  -1.87800 17.16200 22.71800
C  -1.75500 16.63000 21.26000
C  -1.39000 15.08100 21.57400
C  -1.69100 14.94700 23.08800
C  -2.93800 16.83700 20.33300
C  0.10500 14.67600 21.28900
C  0.66100 14.72200 19.76500
N  -2.14300 14.51700 26.02200
C  -1.85100 13.50900 25.11400
C  -2.02100 12.19700 25.77700
C  -2.26700 12.57600 27.09700
C  -2.29200 14.00200 27.17100
C  -2.15400 10.77200 25.13500
C  -2.27900 12.00900 28.43800
O  -2.00800 10.85700 28.78800
C  -2.46200 13.19600 29.46600
C  -1.24500 13.16200 30.34500
O  -0.08100 13.52900 30.05800
O  -1.58100 12.53800 31.58100
C  -0.47300 12.48900 32.55300
H  -2.90900 20.08300 28.43200
H  -1.90100 19.12000 22.08500
H  -1.18200 12.85000 23.24500
H  -3.75500 15.90000 30.69900
H  -2.20000 18.36400 30.41200
H  -4.86000 17.79600 31.19700
H  -4.94000 18.79200 29.71100
H  -4.07300 19.42500 31.14300
H  -0.71100 16.15600 30.86600
H  -1.96800 15.07000 31.67400
H  -2.64400 17.62900 32.73200
H  -0.91800 17.65400 32.52500
H  -1.82600 22.79600 26.64000
H  -2.90700 21.98000 27.59500
H  -3.50900 22.83700 26.13100
H  -1.25800 23.47900 24.18500
H  -3.02400 23.32600 24.15000
H  -2.32400 23.64000 22.67600
H  -0.85100 17.14100 20.92800
H  -2.06700 14.35800 21.11900
H  -3.66100 17.48000 20.83600
H  -3.38800 15.90100 20.00400
H  -2.50600 17.37700 19.49000
H  0.27100 13.66600 21.66400
H  0.81900 15.32100 21.80100
H  0.19200 15.53500 19.21100
H  0.39800 13.83400 19.19000
H  1.73600 14.90000 19.76000
H  -2.25300 10.95300 24.06400
H  -3.05000 10.29100 25.52600
H  -1.25200 10.24000 25.43600
H  -3.26900 13.15300 30.19800
H  0.03800 13.45200 32.56500
H  0.20500 11.64200 32.44700
H  -0.94700 12.32500 33.52100
Mg 40.78900 7.84200 29.75000
C  42.51500 9.13100 32.43900
C  38.35800 6.63500 31.80700
C  39.43600 6.38900 27.11300
C  43.71500 8.49900 27.78400
N  40.52100 7.89100 31.88500
C  41.28800 8.56700 32.80000
C  40.52300 8.62700 34.14200
C  39.28900 7.67200 33.97200
C  39.36100 7.43600 32.46500
C  39.43600 6.38600 34.76000
C  40.23200 10.00200 34.78100
C  39.25400 10.09700 35.99500
H  39.80800 10.85500 37.14500
N  39.05600 6.75700 29.43300
C  38.17700 6.33000 30.38500
C  37.06600 5.62800 29.75200
C  37.32300 5.69100 28.33400
C  38.67200 6.32000 28.25000
C  36.05600 4.82000 30.52300
C  36.41200 5.18300 27.18500
O  36.69700 5.22600 26.00000
C  34.91800 4.96300 27.62100
N  41.51900 7.35100 27.85100
C  40.72400 6.88700 26.88100
C  41.43700 6.56700 25.55800
C  42.66100 7.57000 25.69500
C  42.69500 7.79800 27.21500
C  41.78600 5.10400 25.32000
C  42.55600 8.86100 24.91300
C  41.99500 10.17100 25.63400
N  42.70800 8.57600 29.99100
C  43.73300 8.87800 29.12300
C  44.77700 9.63800 29.82900
C  44.29900 9.73600 31.06600
C  43.11600 9.00900 31.17700
C  46.09300 10.18700 29.25100
C  44.64100 10.16100 32.33500
O  45.59500 10.82500 32.69600
C  43.44000 9.92100 33.32900
C  43.98000 9.17900 34.50100
O  44.41400 8.06400 34.61100
O  43.78400 10.00800 35.62800
C  44.13100 9.25000 36.95600
H  37.62900 6.22600 32.51000
H  39.08400 5.90700 26.19900
H  44.39000 8.74900 26.96300
H  41.17600 8.16800 34.88500
H  38.34700 8.20100 34.11800
H  38.75400 6.42200 35.61000
H  40.47500 6.31700 35.08000
H  39.23900 5.57800 34.05500
H  39.84700 10.58000 33.94100
H  41.24400 10.26700 35.08500
H  39.14800 9.07800 36.36800
H  38.27900 10.51100 35.73600
H  35.10300 5.34100 30.61100
H  36.37900 4.61900 31.54400
H  35.90800 3.81700 30.12300
H  34.76500 4.12000 28.29500
H  34.40600 4.72000 26.69000
H  34.53500 5.91400 27.99100
H  40.78000 6.92400 24.76500
H  43.61900 7.12300 25.42800
H  41.69600 4.62400 26.29500
H  42.83500 5.01200 25.03900
H  41.12700 4.62000 24.59900
H  42.01300 8.70800 23.98100
H  43.55700 9.14800 24.59000
H  41.56200 9.95400 26.61100
H  41.29800 10.65700 24.95200
H  42.81400 10.85200 25.86300
H  45.79900 10.75500 28.36800
H  46.87300 9.45500 29.04200
H  46.51300 10.92300 29.93600
H  42.95800 10.87800 33.53200
H  43.54600 9.65800 37.78000
H  45.20000 9.38300 37.11900
H  43.90800 8.18300 36.94100

