158

Mg 55.68400 24.52300 44.67100
C  52.96600 26.45400 43.72800
C  53.89100 21.71000 43.33600
C  58.44900 22.91400 44.89900
C  57.20900 27.48700 45.97700
N  53.78000 24.15100 43.52500
C  52.87000 25.11700 43.22800
C  51.67100 24.52700 42.55800
C  51.75400 23.07600 42.99800
C  53.22000 22.93200 43.31300
C  50.81700 22.69300 44.14500
C  51.62300 24.76500 41.00100
C  50.17000 24.58200 40.48100
H  49.96400 24.81000 38.95100
N  56.08400 22.60000 44.08200
C  55.27100 21.58300 43.64600
C  55.99600 20.30500 43.55900
C  57.32700 20.64600 44.00300
C  57.34400 22.08900 44.36400
C  55.43300 18.94900 43.10500
C  58.44100 19.65300 44.13800
O  58.38400 18.60800 43.52800
C  59.65300 19.92700 44.84200
N  57.58400 25.09700 45.39900
C  58.61600 24.18000 45.38500
C  59.91400 24.83600 45.85500
C  59.50400 26.31700 46.19400
C  58.00200 26.32000 45.87800
C  60.52500 24.14500 47.12800
C  60.35300 27.50600 45.40800
C  60.80500 28.79700 46.22500
N  55.19800 26.57100 44.96500
C  55.89800 27.64200 45.51300
C  55.05400 28.80000 45.38600
C  53.84700 28.37900 44.73500
C  54.06200 27.05300 44.44300
C  55.44000 30.17900 45.88300
C  52.60500 28.79100 44.31300
O  52.11800 29.86900 44.38700
C  51.88900 27.56400 43.60700
C  51.49100 27.97000 42.24500
O  52.27600 28.20100 41.33800
O  50.08700 28.11000 42.17000
C  49.57600 28.48100 40.76300
H  53.32300 20.83600 43.01200
H  59.44100 22.46300 44.96800
H  57.68100 28.38500 46.38200
H  50.76200 24.98800 42.94200
H  51.54400 22.39600 42.17200
H  51.46300 22.61900 45.02000
H  50.47300 21.67800 43.94700
H  50.03400 23.41600 44.37500
H  52.22400 24.02100 40.47800
H  52.03100 25.74300 40.74300
H  49.56500 25.41500 40.83800
H  49.79200 23.58700 40.71800
H  55.24700 18.22700 43.90000
H  56.15400 18.45800 42.45200
H  54.49800 19.05100 42.55400
H  60.22300 20.56200 44.16500
H  60.15500 18.96800 44.97400
H  59.42300 20.42700 45.78300
H  60.69200 24.78700 45.09300
H  59.55000 26.50400 47.26600
H  60.18600 23.13400 47.35200
H  60.46200 24.66600 48.08300
H  61.59400 24.19300 46.92000
H  59.90600 27.81600 44.46300
H  61.33200 27.09700 45.16000
H  60.22400 28.83400 47.14700
H  60.69300 29.73300 45.67900
H  61.84100 28.69400 46.54800
H  56.39000 30.08900 46.41100
H  54.79900 30.66700 46.61700
H  55.58200 30.92400 45.10000
H  51.01900 27.21500 44.16300
H  49.15200 29.48300 40.68900
H  48.86600 27.69600 40.50200
H  50.34500 28.51600 39.99200
Mg 47.59500 24.94300 28.03600
C  48.30900 27.17100 30.55300
C  46.47100 22.67900 30.26200
C  46.93000 22.83500 25.45200
C  48.83200 27.26000 25.67500
N  47.23700 25.00200 30.18000
C  47.67000 26.02100 31.02800
C  47.43900 25.58200 32.53100
C  47.06700 24.07000 32.32700
C  46.90900 23.89600 30.83500
C  47.94300 23.01200 32.95700
C  46.32100 26.43700 33.29700
C  46.69700 27.07800 34.59300
H  45.69300 27.07400 35.79100
N  46.92200 23.03700 27.92300
C  46.45700 22.21200 28.96800
C  46.04000 20.96000 28.45000
C  46.39600 20.94300 27.05300
C  46.67800 22.33400 26.75700
C  45.24800 19.99200 29.29900
C  46.42000 19.77800 26.01200
O  46.62500 19.87400 24.77700
C  45.99300 18.38400 26.57200
N  47.82900 25.02600 25.82400
C  47.44600 24.07700 24.97000
C  47.45000 24.59100 23.50300
C  47.93100 26.04500 23.56900
C  48.26000 26.12600 25.11600
C  48.24700 23.68800 22.44100
C  46.91300 27.15800 23.09700
C  47.55400 28.35000 22.28100
N  48.54300 26.73700 28.07400
C  49.01500 27.55500 27.02600
C  49.66800 28.74900 27.59700
C  49.34800 28.61300 28.93900
C  48.60200 27.44000 29.17500
C  50.38500 29.81900 26.90500
C  49.56500 29.30100 30.22200
O  50.11900 30.32500 30.48700
C  49.00600 28.32200 31.28800
C  49.93300 27.79600 32.32500
O  50.82600 27.09600 32.06700
O  49.67000 28.21600 33.61900
C  50.64100 27.79700 34.65600
H  46.19400 21.90600 30.98200
H  46.80000 22.25800 24.53400
H  49.04200 28.01400 24.91400
H  48.41900 25.60300 33.00800
H  46.02700 23.92900 32.62000
H  48.72000 22.77600 32.23000
H  47.28900 22.14500 33.05300
H  48.24800 23.18400 33.99000
H  45.49800 25.76800 33.54800
H  45.93000 27.20600 32.63100
H  46.92200 28.11600 34.34800
H  47.58700 26.57000 34.96500
H  45.76900 19.03400 29.29600
H  44.22700 19.86800 28.93900
H  45.17900 20.22700 30.36100
H  46.66000 18.18900 27.41200
H  46.09600 17.60500 25.81700
H  44.97400 18.38200 26.96000
H  46.42100 24.72900 23.17100
H  48.92900 26.12100 23.13600
H  47.95100 24.07300 21.46600
H  47.98900 22.63800 22.58400
H  49.32700 23.79000 22.54100
H  46.47400 27.63600 23.97300
H  46.09500 26.70900 22.53300
H  48.58500 28.13600 22.00100
H  47.63700 29.14900 23.01700
H  46.86500 28.69100 21.50800
H  51.35300 29.81400 27.40400
H  49.89800 30.79400 26.88500
H  50.51300 29.49300 25.87200
H  48.32100 28.88100 31.92600
H  50.35100 26.79200 34.96400
H  50.54100 28.49300 35.48900
H  51.69400 27.68600 34.40000

