158

Mg -2.31500 17.24400 27.28200
C  -2.82900 15.39700 30.15600
C  -2.82600 20.12600 29.22200
C  -2.44200 19.13700 24.53500
C  -2.29700 14.33100 25.39900
N  -2.71800 17.63400 29.50600
C  -2.77700 16.75000 30.51000
C  -2.89300 17.43200 31.79000
C  -3.11900 18.88200 31.46800
C  -2.77200 18.87200 29.99300
C  -4.39800 19.55600 31.98000
C  -1.70200 17.19300 32.76000
C  -1.50600 18.05600 34.07800
H  -1.14100 17.39100 35.42700
N  -2.49900 19.35500 26.98400
C  -2.80800 20.31100 27.84200
C  -2.91700 21.56700 27.16300
C  -2.51400 21.35400 25.77600
C  -2.43000 19.86600 25.70400
C  -3.24100 22.86200 27.98000
C  -2.42100 22.36300 24.63100
O  -2.20500 22.02400 23.50500
C  -2.61800 23.81100 24.92200
N  -2.46400 16.67900 25.24300
C  -2.48600 17.68700 24.34400
C  -2.50800 17.07600 22.89600
C  -2.11200 15.63200 23.21500
C  -2.36000 15.47900 24.65600
C  -3.96800 17.28800 22.26500
C  -0.71500 15.20700 22.83300
C  0.41600 16.11700 23.17200
N  -2.40900 15.20400 27.66300
C  -2.41300 14.18600 26.80600
C  -2.58100 12.92000 27.52500
C  -2.69500 13.35300 28.85300
C  -2.59300 14.72300 28.90400
C  -2.80800 11.50200 26.99200
C  -3.05400 12.90100 30.20000
O  -3.38000 11.83100 30.77900
C  -2.93700 14.16900 31.07900
C  -1.73000 13.86500 31.83800
O  -0.62300 14.24600 31.52300
O  -2.01300 13.43500 33.04800
C  -0.92000 13.41100 34.09900
H  -3.03700 20.99800 29.84400
H  -2.47500 19.68100 23.58900
H  -1.98700 13.45400 24.82700
H  -3.80700 17.14400 32.30900
H  -2.27400 19.42400 31.89300
H  -4.12900 20.32400 32.70600
H  -4.97400 18.83300 32.55800
H  -5.04300 19.91500 31.17900
H  -0.79800 17.29200 32.16000
H  -1.69200 16.21300 33.23700
H  -2.26600 18.82900 34.19300
H  -0.57000 18.56000 33.83800
H  -3.65000 22.68100 28.97400
H  -3.95900 23.47500 27.43500
H  -2.38900 23.52300 28.14100
H  -2.32300 24.33600 24.01300
H  -2.02300 24.09500 25.79000
H  -3.69700 23.89400 25.05200
H  -1.80500 17.61800 22.26300
H  -2.73400 14.84500 22.78800
H  -4.54100 17.97500 22.88700
H  -4.57300 16.39100 22.39200
H  -3.81400 17.50700 21.20800
H  -0.76900 15.16100 21.74600
H  -0.45700 14.17700 23.08100
H  -0.08100 16.64100 23.98800
H  0.77900 16.81100 22.41500
H  1.24300 15.54100 23.58700
H  -3.85000 11.40100 27.29400
H  -2.10400 10.92300 27.58900
H  -2.73100 11.38400 25.91100
H  -3.81700 14.24000 31.71700
H  -0.87600 14.33600 34.67300
H  0.12000 13.32300 33.78300
H  -0.86500 12.64000 34.86700
Mg 1.69200 -1.82200 44.17300
C  4.98500 -0.62700 43.62800
C  0.50500 0.93500 42.34500
C  -1.33000 -3.06200 44.36200
C  3.12700 -4.80600 45.28000
N  2.63500 -0.21800 42.92100
C  3.99500 0.09300 42.86800
C  4.28700 1.26400 41.94800
C  2.83600 1.95600 41.78800
C  1.92400 0.88800 42.40900
C  2.77300 3.21000 42.66500
C  4.87000 0.75500 40.61700
C  5.99100 1.67100 40.02200
H  5.73500 2.25200 38.65700
N  -0.18600 -1.11900 43.43600
C  -0.47600 -0.01900 42.75700
C  -1.88400 0.12200 42.58500
C  -2.46100 -1.06200 43.10000
C  -1.33200 -1.81000 43.71200
C  -2.59000 1.21700 41.89600
C  -3.93200 -1.34400 43.02900
O  -4.74200 -0.54700 42.49800
C  -4.48000 -2.63600 43.58300
N  1.02200 -3.78600 44.47600
C  -0.30000 -3.96600 44.80900
C  -0.60600 -5.18700 45.47400
C  0.81500 -5.82500 45.74500
C  1.79900 -4.78400 45.05100
C  -1.41400 -5.05100 46.80500
C  1.01000 -7.23900 45.21400
C  0.97800 -7.32700 43.69000
N  3.71000 -2.59700 44.42200
C  4.05800 -3.83800 44.86200
C  5.46400 -3.87000 45.09000
C  5.95300 -2.59500 44.63900
C  4.80100 -1.93100 44.21400
C  6.22600 -5.03400 45.71400
C  7.08800 -1.71300 44.39500
O  8.28800 -1.84500 44.51000
C  6.46500 -0.37800 43.79000
C  6.78600 0.81300 44.57400
O  6.12000 1.20800 45.50800
O  7.92200 1.34900 44.06300
C  8.36200 2.69700 44.55700
H  0.16400 1.89700 41.95600
H  -2.28900 -3.54400 44.56300
H  3.71900 -5.62300 45.69900
H  4.94500 1.87300 42.56800
H  2.57900 2.13700 40.74500
H  3.75100 3.68800 42.72400
H  2.47400 3.13900 43.71100
H  2.08900 3.95500 42.26000
H  4.11400 0.44500 39.89600
H  5.48900 -0.07000 40.97100
H  6.93200 1.12100 40.04400
H  6.18800 2.53200 40.66000
H  -3.23200 0.77800 41.13200
H  -1.95700 1.92600 41.36200
H  -3.21300 1.75300 42.61200
H  -4.10100 -3.48100 43.00900
H  -5.56100 -2.67200 43.44700
H  -4.29800 -2.86000 44.63400
H  -1.13700 -5.72400 44.68700
H  1.04700 -5.96800 46.80000
H  -1.36300 -4.00200 47.09500
H  -0.93700 -5.67100 47.56400
H  -2.44500 -5.40400 46.76200
H  0.31800 -8.01900 45.53100
H  1.96400 -7.66100 45.52900
H  0.31900 -8.04500 43.20300
H  1.99700 -7.52700 43.35800
H  0.66400 -6.43500 43.14800
H  5.78500 -5.25300 46.68700
H  7.28700 -4.78100 45.72400
H  6.09300 -5.83400 44.98600
H  6.93700 -0.23400 42.81800
H  7.68200 3.35900 44.01900
H  9.41800 2.83500 44.32500
H  8.21500 2.75400 45.63500

