158

Mg 2.62700 -0.63700 44.85600
C  5.99800 0.04600 43.88200
C  1.67600 2.27200 43.02000
C  -0.49300 -1.89300 44.63300
C  3.81000 -3.87000 45.96600
N  3.68500 0.93100 43.51300
C  5.08700 1.11700 43.41100
C  5.46100 2.43400 42.75700
C  4.06900 3.19100 42.62300
C  3.04700 2.07500 43.17200
C  3.94200 4.51000 43.47100
C  6.02100 2.11000 41.37200
C  7.20200 3.04900 40.91000
H  6.86600 4.06100 39.70500
N  0.80500 0.17100 44.09400
C  0.65900 1.39400 43.44500
C  -0.75200 1.63000 43.35800
C  -1.41800 0.48800 43.83500
C  -0.35200 -0.53400 44.22100
C  -1.31900 2.83300 42.73100
C  -2.92900 0.29300 43.90400
O  -3.70500 1.22200 43.57000
C  -3.55500 -0.95800 44.59000
N  1.74400 -2.68600 45.06600
C  0.41100 -2.82000 45.11200
C  0.03600 -4.23000 45.56100
C  1.39600 -4.71500 46.18200
C  2.45500 -3.78700 45.66200
C  -1.24700 -4.36600 46.44200
C  1.60500 -6.23700 45.76400
C  1.87500 -7.15600 46.94000
N  4.48700 -1.70500 45.12100
C  4.78000 -2.92200 45.57700
C  6.23900 -3.13200 45.49300
C  6.79500 -1.97800 44.92900
C  5.68600 -1.14300 44.60900
C  6.87100 -4.37600 46.00800
C  7.97400 -1.30600 44.48200
O  9.15800 -1.56600 44.67000
C  7.54600 0.04600 43.81900
C  8.26400 1.16600 44.59100
O  7.98600 1.50800 45.73900
O  9.15300 1.89200 43.88300
C  9.68600 3.13900 44.54500
H  1.48700 3.26700 42.61200
H  -1.51500 -2.27200 44.69500
H  4.22400 -4.77000 46.42500
H  6.17200 3.03700 43.32200
H  3.82000 3.55200 41.62500
H  4.89900 4.60800 43.98300
H  3.14700 4.55000 44.21600
H  3.74300 5.39000 42.85900
H  5.42200 2.10300 40.46100
H  6.35600 1.07300 41.38000
H  8.10200 2.50100 40.63100
H  7.49300 3.66100 41.76500
H  -1.38000 2.77200 41.64400
H  -0.77000 3.65400 43.19100
H  -2.34400 3.10200 42.98500
H  -4.62300 -0.79000 44.72900
H  -3.05400 -1.13500 45.54200
H  -3.34700 -1.82000 43.95700
H  -0.16600 -4.80500 44.65700
H  1.43600 -4.64700 47.26900
H  -1.42600 -3.41800 46.95000
H  -1.05300 -5.06900 47.25200
H  -2.16500 -4.64900 45.92800
H  2.52200 -6.32800 45.18200
H  0.80500 -6.64700 45.14700
H  2.95700 -7.29100 46.95700
H  1.37700 -8.12500 46.91000
H  1.64300 -6.62000 47.86000
H  6.89900 -4.33000 47.09600
H  7.92100 -4.22800 45.75800
H  6.25900 -5.24700 45.77300
H  8.09900 -0.03600 42.88300
H  9.47800 3.89400 43.78700
H  10.76400 3.10100 44.70600
H  9.20500 3.50800 45.45000
Mg 48.36400 15.25300 28.32000
C  46.35000 15.04300 31.16100
C  50.57400 17.15400 30.05100
C  50.22200 15.48200 25.52500
C  45.64200 14.16700 26.46200
N  48.43200 16.01100 30.39200
C  47.57800 15.63400 31.43200
C  48.00600 16.21500 32.73900
C  49.23800 17.07100 32.33500
C  49.45900 16.77800 30.83400
C  49.21500 18.60900 32.66700
C  48.35800 15.13000 33.84500
C  47.93000 15.31300 35.26600
H  48.00100 16.79600 35.82700
N  50.24800 16.16800 27.90100
C  51.05900 16.83900 28.75800
C  52.25200 17.22700 28.07100
C  52.17000 16.69500 26.74300
C  50.84400 16.08600 26.66000
C  53.40900 17.99200 28.76100
C  53.27500 16.73900 25.66600
O  53.13600 16.13900 24.60800
C  54.50400 17.47900 25.85300
N  47.98500 14.92600 26.29200
C  48.94400 15.11600 25.32900
C  48.46000 14.66500 23.91500
C  46.96000 14.32400 24.14700
C  46.81000 14.47700 25.72000
C  48.56400 15.96000 22.93300
C  46.51600 12.90000 23.56100
C  47.19600 11.64700 24.19200
N  46.51000 14.65300 28.71400
C  45.50300 14.24500 27.82500
C  44.31700 13.83600 28.49500
C  44.58600 14.24200 29.82100
C  45.93600 14.64900 29.91500
C  42.96200 13.28800 28.00100
C  44.06700 14.26800 31.17900
O  42.99200 13.92300 31.61000
C  45.18700 14.73000 32.08900
C  44.61700 15.76600 32.89400
O  44.43700 16.88000 32.47400
O  44.35400 15.28600 34.16400
C  43.59600 16.28000 35.00500
H  51.37100 17.73200 30.52400
H  50.79300 15.51000 24.59500
H  44.84700 13.70100 25.87600
H  47.25800 16.91700 33.10700
H  50.10500 16.74900 32.91300
H  48.46200 18.82600 33.42400
H  49.01200 19.18900 31.76600
H  50.21800 18.78900 33.05300
H  49.43600 14.97500 33.89800
H  47.92800 14.17100 33.55600
H  48.44900 14.60700 35.91500
H  46.87900 15.02700 35.32500
H  53.50100 18.97500 28.30000
H  54.34900 17.44000 28.74100
H  53.22500 18.21900 29.81000
H  55.20600 17.27700 25.04400
H  54.93900 17.14700 26.79500
H  54.46900 18.54700 26.07000
H  48.95700 13.76700 23.54700
H  46.29500 15.05100 23.68100
H  49.07500 16.83800 23.32700
H  47.57900 16.27300 22.58600
H  49.04100 15.65500 22.00100
H  46.60400 12.95000 22.47600
H  45.43800 12.79700 23.68900
H  47.42500 10.82700 23.51100
H  46.52200 11.12400 24.87100
H  48.10300 11.94800 24.71700
H  42.14300 13.65000 28.62200
H  42.84500 12.20500 28.04500
H  42.78900 13.67500 26.99600
H  45.44400 13.95000 32.80600
H  42.76100 16.53700 34.35300
H  44.04800 17.25900 35.16400
H  43.36700 15.76800 35.93900

