158

Mg 24.93000 1.75500 29.38100
C  26.97800 1.60500 32.21200
C  22.14200 2.09400 31.57500
C  22.97500 1.80800 26.65000
C  27.78700 1.16500 27.37600
N  24.59700 1.67900 31.64200
C  25.63000 1.81400 32.57000
C  25.04500 2.04300 33.98900
C  23.52700 2.25700 33.72200
C  23.37800 2.01200 32.21500
C  22.60600 1.35000 34.58700
C  25.77700 3.11200 34.89800
C  25.92300 2.71000 36.39700
H  25.82600 3.91100 37.40100
N  22.80500 1.72900 29.17000
C  21.86000 1.89100 30.15200
C  20.54600 1.81900 29.51700
C  20.82200 1.76200 28.07400
C  22.24800 1.71800 27.91100
C  19.27100 1.77600 30.30700
C  19.87500 1.60500 26.91200
O  20.15700 1.70800 25.70700
C  18.42900 1.34900 27.23700
N  25.24500 1.43300 27.35400
C  24.31100 1.79500 26.38000
C  24.96400 1.76700 24.93700
C  26.48900 1.66900 25.31200
C  26.52900 1.41400 26.76700
C  24.51800 0.60500 24.04700
C  27.33000 2.95500 24.82600
C  27.23600 4.19200 25.62500
N  26.95600 1.39000 29.67100
C  28.00500 1.12700 28.78300
C  29.17800 0.86700 29.54300
C  28.79700 1.01400 30.91400
C  27.46000 1.27900 30.92000
C  30.51300 0.62000 29.02600
C  29.39100 0.96400 32.23500
O  30.53300 0.81900 32.62000
C  28.20100 1.42900 33.12100
C  27.96700 0.41000 34.19600
O  27.12900 -0.48300 34.08400
O  28.72600 0.66500 35.30200
C  28.50400 -0.25900 36.42500
H  21.24600 2.15300 32.19700
H  22.43200 1.95900 25.71500
H  28.59200 0.94600 26.67200
H  25.16000 1.12100 34.55900
H  23.32400 3.29900 33.96800
H  22.17900 0.53400 34.00300
H  21.81900 1.93900 35.05800
H  23.21100 0.97000 35.41000
H  25.25000 4.06500 34.87000
H  26.72500 3.30200 34.39400
H  26.95900 2.45200 36.61900
H  25.16200 1.97000 36.64100
H  18.69700 2.67900 30.09600
H  19.26500 1.83200 31.39600
H  18.82900 0.83500 29.98000
H  18.34600 0.49100 27.90500
H  17.84500 1.02500 26.37600
H  17.91300 2.21900 27.64200
H  24.80100 2.76000 24.51700
H  26.92600 0.77700 24.86200
H  25.23300 -0.19500 23.85300
H  24.27600 1.03200 23.07400
H  23.55500 0.21300 24.37600
H  26.99500 3.12100 23.80200
H  28.38900 2.72800 24.70100
H  26.98000 4.01100 26.66900
H  26.49100 4.82700 25.14700
H  28.18800 4.71900 25.54900
H  30.89400 1.41300 28.38200
H  30.48400 -0.26000 28.38400
H  31.15700 0.53300 29.90100
H  28.42200 2.42000 33.51800
H  29.04800 -1.16800 36.17200
H  27.45300 -0.54500 36.46600
H  28.78600 0.19800 37.37400
Mg 45.31700 4.55000 47.24600
C  43.63100 7.56700 46.43600
C  42.45200 2.92400 46.10900
C  47.03900 1.71000 47.36900
C  48.22500 6.38600 47.65600
N  43.28900 5.19400 46.23600
C  42.80900 6.45100 46.14400
C  41.34100 6.52500 45.68400
C  40.98100 5.02200 45.68400
C  42.33400 4.33100 46.00400
C  39.85400 4.65000 46.69600
C  41.11800 7.05400 44.24600
C  40.08300 8.16200 44.10100
H  39.37900 8.03100 42.73600
N  44.77200 2.56000 46.95500
C  43.56500 2.08400 46.43400
C  43.61400 0.63000 46.32600
C  44.96600 0.28600 46.73900
C  45.66800 1.50400 47.01500
C  42.50700 -0.23800 45.90300
C  45.51300 -1.13800 46.76700
O  44.75600 -2.03400 46.28000
C  46.83500 -1.61900 47.30700
N  47.37400 4.12800 47.42200
C  47.81900 2.91700 47.42500
C  49.37700 2.88000 47.73000
C  49.76600 4.34600 47.63000
C  48.33500 5.01800 47.60700
C  49.75200 2.11500 48.97000
C  50.51300 4.76100 46.39000
C  51.80000 5.43800 46.73900
N  45.90900 6.63300 47.16500
C  47.08200 7.22400 47.42100
C  46.91500 8.67600 47.32400
C  45.54000 8.82100 46.95000
C  44.98900 7.56100 46.83700
C  47.95400 9.69500 47.43300
C  44.46600 9.79800 46.64600
O  44.50000 11.00300 46.57000
C  43.18600 8.97700 46.46400
C  42.12900 9.09800 47.46500
O  41.74000 8.36000 48.35700
O  41.50300 10.37200 47.37900
C  40.18500 10.48200 47.97800
H  41.53500 2.36200 45.92400
H  47.56400 0.75500 47.30800
H  49.13700 6.93900 47.88900
H  40.65000 6.96700 46.40200
H  40.58700 4.74300 44.70700
H  40.26800 4.00200 47.46800
H  39.04300 4.08900 46.23100
H  39.30300 5.51700 47.05900
H  40.90400 6.30300 43.48600
H  42.02800 7.55700 43.91900
H  40.60300 9.11700 44.16800
H  39.26300 8.00300 44.80200
H  42.61200 -0.36700 44.82600
H  41.53700 0.20200 46.13200
H  42.52300 -1.16500 46.47600
H  46.76700 -2.69400 47.47500
H  46.94500 -1.05700 48.23400
H  47.66700 -1.56100 46.60600
H  49.86900 2.30200 46.94800
H  50.23900 4.68200 48.55300
H  48.84600 1.99400 49.56200
H  50.51000 2.64700 49.54600
H  50.15100 1.11200 48.81400
H  49.89500 5.48000 45.85300
H  50.71100 3.84300 45.83600
H  52.53400 4.81300 47.24900
H  51.47800 6.35500 47.23300
H  52.33700 5.91000 45.91600
H  48.39900 9.81800 48.42000
H  47.49900 10.63400 47.11600
H  48.66100 9.40000 46.65700
H  42.66600 9.17700 45.52600
H  39.48100 11.12300 47.44900
H  40.40300 10.99600 48.91400
H  39.71100 9.52200 48.18400

