158

Mg -0.21000 7.65900 27.36000
C  0.47500 9.98800 29.83700
C  -0.64200 5.28500 29.59300
C  -0.74100 5.58600 24.66800
C  0.81800 10.14000 25.04500
N  0.11500 7.69500 29.54500
C  0.06600 8.74500 30.38000
C  -0.17400 8.33100 31.77100
C  -0.39400 6.77700 31.68900
C  -0.27500 6.54400 30.17400
C  0.64400 5.93700 32.35700
C  -1.29800 9.06200 32.47400
C  -1.35800 8.94100 34.01900
H  -0.16700 8.47900 34.82300
N  -0.53300 5.73200 27.14700
C  -0.81600 4.92600 28.21800
C  -1.10900 3.59400 27.71800
C  -1.09500 3.60900 26.31800
C  -0.80100 5.05600 26.01600
C  -1.36100 2.40500 28.69300
C  -1.34300 2.47700 25.22200
O  -1.39100 2.64700 23.99900
C  -1.63700 1.02600 25.85400
N  0.10600 7.83100 25.12500
C  -0.28800 6.84900 24.28800
C  -0.29600 7.39200 22.85000
C  -0.08600 8.88500 22.97100
C  0.36200 8.95500 24.43800
C  0.65800 6.46200 22.03100
C  -1.46300 9.63900 22.84000
C  -1.79300 10.29800 21.41900
N  0.55100 9.63100 27.40100
C  0.98200 10.50300 26.40000
C  1.37700 11.82100 26.95400
C  1.22300 11.68000 28.33400
C  0.86500 10.28800 28.52100
C  1.80300 13.01400 26.15900
C  1.33900 12.28100 29.58100
O  1.61400 13.43600 29.93000
C  0.92400 11.20900 30.61100
C  1.92800 11.18300 31.64600
O  3.02300 10.65500 31.48800
O  1.48300 11.82800 32.75100
C  2.38400 11.81000 33.86700
H  -0.80100 4.58100 30.41300
H  -0.90400 4.87400 23.85700
H  0.96900 10.90000 24.27600
H  0.73100 8.41500 32.37300
H  -1.36000 6.40200 32.02800
H  1.45400 5.73500 31.65700
H  0.27300 4.95000 32.63700
H  1.07600 6.38800 33.25000
H  -2.17500 8.50700 32.14000
H  -1.39300 10.13500 32.30600
H  -2.25700 8.36200 34.22800
H  -1.62200 9.91300 34.43600
H  -2.41600 2.32600 28.95600
H  -0.87600 2.69000 29.62600
H  -0.99900 1.42500 28.38100
H  -1.99800 0.45100 25.00100
H  -2.42800 1.11700 26.59800
H  -0.73000 0.59300 26.27800
H  -1.32000 7.30600 22.48900
H  0.72200 9.19600 22.30900
H  0.95700 5.52100 22.49300
H  1.46300 7.00700 21.53700
H  0.04300 6.03200 21.24000
H  -1.40600 10.49200 23.51700
H  -2.35400 9.09500 23.15300
H  -2.79600 10.00100 21.11300
H  -1.00200 10.16200 20.68200
H  -1.74000 11.36800 21.62300
H  0.86600 13.33000 25.70100
H  2.55800 12.75100 25.41800
H  2.32100 13.69300 26.83700
H  0.02900 11.63900 31.06000
H  2.53600 10.76200 34.12400
H  2.07100 12.36300 34.75200
H  3.41400 12.11800 33.68600
Mg 42.23600 41.63000 27.14000
C  41.66700 44.13000 29.42400
C  43.28000 39.49300 29.53500
C  43.33800 39.61200 24.66100
C  41.56800 44.09800 24.53400
N  42.52700 41.85500 29.27300
C  42.08800 42.91700 30.01600
C  42.02600 42.59400 31.50500
C  42.80300 41.18200 31.47700
C  42.88900 40.79000 30.01400
C  44.15600 41.16900 32.21400
C  40.59500 42.60600 32.06100
C  40.35300 42.99000 33.54400
H  39.93200 41.89300 34.49900
N  43.09600 39.76100 27.10400
C  43.44300 39.03500 28.24500
C  43.99300 37.79800 27.87200
C  43.97000 37.70100 26.39600
C  43.53100 39.07300 25.99100
C  44.37300 36.80100 28.87600
C  44.35300 36.59800 25.43400
O  44.28200 36.76200 24.23500
C  44.75200 35.22000 26.02500
N  42.52900 41.87700 24.89000
C  42.82200 40.82600 24.15600
C  42.67200 41.11400 22.63000
C  41.73900 42.38800 22.65400
C  41.98400 42.80500 24.14500
C  43.90600 41.24500 21.70400
C  40.28400 42.10700 22.25000
C  39.34100 41.58700 23.22900
N  41.69300 43.71600 26.98200
C  41.48800 44.55200 25.87800
C  41.07900 45.83800 26.35200
C  41.05500 45.69500 27.72800
C  41.50600 44.38300 28.04700
C  40.59900 47.04000 25.55700
C  40.76700 46.34800 29.03500
O  40.37400 47.47800 29.24800
C  41.19000 45.35200 30.14300
C  42.17000 46.04700 31.07700
O  43.36200 46.25400 30.87500
O  41.61000 46.33900 32.31400
C  42.61300 46.68500 33.30700
H  43.47100 38.88500 30.42200
H  43.53100 38.89300 23.86200
H  41.21300 44.76900 23.74900
H  42.58200 43.38900 32.00200
H  42.16200 40.42200 31.92400
H  44.18400 40.30400 32.87800
H  44.29900 42.13000 32.70800
H  45.05900 41.06600 31.61100
H  40.22400 41.58400 31.97900
H  39.85700 43.04700 31.39100
H  39.57400 43.74500 33.43900
H  41.22800 43.47200 33.97900
H  45.29800 36.31900 28.56200
H  43.66400 35.97600 28.80700
H  44.47600 37.16300 29.89900
H  44.02400 34.76400 26.69700
H  45.73200 35.30600 26.49400
H  44.90900 34.63100 25.12200
H  42.17300 40.22200 22.25100
H  42.21400 43.18000 22.07500
H  43.90400 40.55300 20.86100
H  44.81100 41.14500 22.30300
H  43.94900 42.25200 21.29000
H  40.19000 41.55500 21.31400
H  39.94300 43.03000 21.78200
H  38.27900 41.64100 22.98800
H  39.29900 42.11900 24.17900
H  39.44200 40.51900 23.42600
H  40.35600 47.92000 26.15200
H  39.67700 46.75400 25.05100
H  41.24400 47.43100 24.77100
H  40.34100 45.15200 30.79700
H  43.35200 45.89100 33.41200
H  42.12100 46.70900 34.27900
H  43.12700 47.62500 33.10600

