158

Mg 43.37300 41.30800 26.27800
C  42.59500 43.84200 28.60500
C  44.31200 39.36600 28.95300
C  44.19100 39.08000 23.97700
C  42.80100 43.60900 23.69200
N  43.45200 41.64000 28.58400
C  43.10700 42.68900 29.26300
C  43.24400 42.50500 30.77500
C  44.03400 41.12700 30.83400
C  43.88300 40.65800 29.35900
C  45.47000 41.14500 31.34100
C  41.82400 42.33300 31.45100
C  41.69300 41.99800 32.94200
H  41.29000 43.10500 33.89500
N  44.10300 39.49800 26.46300
C  44.35900 38.81700 27.66200
C  44.66000 37.45500 27.35100
C  44.72500 37.31600 25.91100
C  44.39100 38.68700 25.34900
C  45.03200 36.36200 28.43000
C  45.01900 36.00700 25.01200
O  44.94200 36.09000 23.79100
C  45.23500 34.79800 25.72900
N  43.54700 41.42100 24.16100
C  43.87100 40.28200 23.45400
C  43.80000 40.48400 21.84300
C  42.96200 41.79000 21.88300
C  43.08700 42.33600 23.32200
C  45.16600 40.67200 21.27700
C  41.65000 41.55700 21.20100
C  41.37100 42.27900 19.88400
N  42.81800 43.34000 26.11800
C  42.70600 44.16900 25.01400
C  42.12400 45.43900 25.43100
C  42.11400 45.35700 26.81000
C  42.57600 44.04800 27.18400
C  41.90900 46.60500 24.52800
C  41.74700 46.05400 28.04700
O  41.30800 47.24900 28.17300
C  42.03400 45.09200 29.27000
C  43.08400 45.74800 30.07300
O  44.27400 45.82700 29.80800
O  42.44800 46.36400 31.18800
C  43.36300 47.09200 32.03800
H  44.62000 38.66700 29.73300
H  44.38100 38.25200 23.29100
H  42.40000 44.32500 22.97100
H  43.82300 43.27200 31.28800
H  43.49700 40.36000 31.39100
H  46.14700 40.83700 30.54400
H  45.64200 40.55800 32.24300
H  45.62400 42.20400 31.54800
H  41.24100 41.60800 30.88300
H  41.37800 43.30200 31.23000
H  42.69400 41.90300 33.36400
H  41.03900 41.12800 33.00600
H  44.87200 36.65600 29.46700
H  46.08700 36.12200 28.30000
H  44.39300 35.48500 28.33200
H  44.36100 34.56800 26.33800
H  46.16200 35.00700 26.26100
H  45.42400 33.98900 25.02200
H  43.28800 39.64500 21.37200
H  43.53600 42.45500 21.23900
H  45.33400 41.66200 20.85400
H  45.31400 39.94600 20.47700
H  45.82600 40.53900 22.13400
H  40.88300 41.87000 21.91000
H  41.32400 40.54900 20.94400
H  40.69500 41.78200 19.18900
H  42.26700 42.28700 19.26200
H  40.90600 43.23200 20.13700
H  42.77300 46.91500 23.94000
H  41.50300 47.43300 25.10800
H  41.10300 46.26600 23.87700
H  41.16600 45.07600 29.92900
H  43.10800 48.13400 31.85000
H  44.44600 47.11100 31.91700
H  43.27400 46.88300 33.10400
Mg 1.30700 42.65000 26.80800
C  2.63600 42.44400 30.07800
C  -1.73100 41.88300 28.14700
C  0.26300 42.36600 23.78200
C  4.64000 43.24800 25.66100
N  0.50200 42.42400 28.86300
C  1.22500 42.45300 30.00900
C  0.25000 42.26400 31.21200
C  -0.96700 41.66600 30.57100
C  -0.75100 42.06900 29.13200
C  -1.21900 40.16900 30.79600
C  0.06000 43.59300 31.92500
C  0.36200 43.72100 33.47200
H  0.14500 42.60000 34.44100
N  -0.52000 42.37000 26.02400
C  -1.68300 42.04300 26.73700
C  -2.77600 41.82100 25.80700
C  -2.20200 41.95300 24.51100
C  -0.77900 42.21400 24.74300
C  -4.19700 41.63900 26.20900
C  -2.78300 41.63600 23.12800
O  -2.11100 41.63200 22.09800
C  -4.20700 41.07800 23.02700
N  2.37000 42.65300 25.03800
C  1.66100 42.57300 23.85800
C  2.58300 42.53600 22.63700
C  3.88900 43.07000 23.22900
C  3.62600 43.05900 24.76700
C  2.60600 41.13200 22.00100
C  4.55800 44.44600 22.71100
C  3.65900 45.72200 22.54600
N  3.25700 42.91100 27.65900
C  4.55800 43.13400 27.04100
C  5.55900 43.17300 28.04800
C  4.87500 42.82100 29.28200
C  3.49900 42.66000 28.94900
C  6.98800 43.60500 27.97500
C  5.03300 42.62200 30.73300
O  6.07400 42.57000 31.41000
C  3.50400 42.50700 31.31300
C  3.53600 41.25000 32.20000
O  3.45100 40.08400 31.83500
O  3.62600 41.66000 33.48700
C  3.89000 40.63400 34.52100
H  -2.64300 41.49700 28.60600
H  -0.02000 42.33200 22.72800
H  5.58800 43.50700 25.18500
H  0.69200 41.57400 31.93000
H  -1.92600 42.12600 30.81100
H  -0.45500 39.69500 31.41300
H  -1.33000 39.62900 29.85600
H  -2.10500 40.12900 31.43000
H  -0.99100 43.88100 31.89600
H  0.45400 44.40100 31.30900
H  -0.24100 44.51500 33.91200
H  1.41800 43.98600 33.42200
H  -4.44400 40.57900 26.16200
H  -4.96500 42.18300 25.65800
H  -4.18400 41.95600 27.25200
H  -4.45700 40.67900 22.04400
H  -4.85400 41.92500 23.25700
H  -4.28000 40.38800 23.86700
H  2.15000 43.25800 21.94400
H  4.52900 42.18900 23.18000
H  1.84400 40.51800 22.48100
H  3.56700 40.61900 22.04200
H  2.39100 41.32200 20.95000
H  5.27700 44.28000 21.90800
H  5.19700 44.68500 23.56100
H  3.93600 46.36300 23.38400
H  2.60000 45.50300 22.68700
H  3.84000 46.22800 21.59800
H  7.16800 44.01300 26.98100
H  7.69800 42.84400 28.29800
H  7.05600 44.55400 28.50700
H  3.35000 43.47900 31.78100
H  4.67000 39.94600 34.19600
H  2.94600 40.09200 34.57200
H  4.09000 41.06200 35.50300

