158

Mg -1.38000 16.93800 26.45300
C  -1.88100 14.67300 29.19600
C  -2.08500 19.47400 28.70000
C  -1.41000 19.06200 23.90600
C  -1.79800 14.19300 24.28000
N  -1.77600 17.04500 28.66700
C  -1.80100 16.05000 29.59100
C  -2.05800 16.57500 31.09400
C  -2.40000 18.08900 30.84300
C  -2.07400 18.18800 29.34700
C  -3.92300 18.34100 31.11000
C  -0.76800 16.34500 31.95000
C  -0.46200 17.38300 33.04200
H  0.10600 16.73800 34.27400
N  -1.54200 18.96500 26.32500
C  -1.78900 19.87200 27.37200
C  -1.69300 21.22000 26.88700
C  -1.25400 21.09900 25.50300
C  -1.30700 19.65700 25.18800
C  -1.98200 22.44500 27.79100
C  -0.96400 22.16300 24.47800
O  -0.42500 21.88200 23.40000
C  -1.20900 23.59600 24.95500
N  -1.46300 16.62000 24.39200
C  -1.45800 17.74600 23.56900
C  -1.67500 17.24800 22.09500
C  -1.43600 15.71900 22.28800
C  -1.56000 15.47100 23.71400
C  -3.15400 17.55300 21.61600
C  -0.02200 15.32500 21.69100
C  0.05300 13.89000 21.09900
N  -1.75600 14.87100 26.57100
C  -1.90500 13.88800 25.65900
C  -2.25200 12.61500 26.30100
C  -2.17800 12.89500 27.64300
C  -1.87500 14.26400 27.82100
C  -2.49900 11.33100 25.60000
C  -2.47300 12.34400 28.96200
O  -2.76600 11.19200 29.26800
C  -2.29500 13.52600 30.05600
C  -1.31000 13.21200 31.03800
O  -0.11300 13.10500 30.87200
O  -1.88700 12.93600 32.28100
C  -0.95200 12.36000 33.27700
H  -2.14400 20.23800 29.47800
H  -1.47300 19.72400 23.03900
H  -1.95400 13.38300 23.56600
H  -2.87000 16.06600 31.61300
H  -1.67200 18.71200 31.36300
H  -4.58500 18.08500 30.28300
H  -4.03000 19.42300 31.19200
H  -4.30800 17.78700 31.96600
H  0.07300 16.23200 31.26600
H  -1.02600 15.39600 32.42100
H  -1.42000 17.82300 33.31900
H  0.23900 18.14100 32.69400
H  -2.30900 22.12800 28.78100
H  -2.68300 23.13200 27.31800
H  -0.98800 22.87400 27.92300
H  -1.44000 24.22100 24.09300
H  -0.27800 23.92600 25.41700
H  -1.99900 23.80300 25.67700
H  -0.89600 17.71700 21.49300
H  -2.20600 15.20900 21.70900
H  -3.63700 16.75100 21.05900
H  -3.03800 18.46600 21.03200
H  -3.86100 17.74500 22.42300
H  0.69200 15.31400 22.51400
H  0.27600 16.03900 20.92200
H  0.28500 13.96000 20.03700
H  -0.79500 13.23000 21.27900
H  0.88300 13.41700 21.62400
H  -2.67000 11.40300 24.52600
H  -3.35400 10.96900 26.16900
H  -1.69800 10.61000 25.76200
H  -3.23300 13.81300 30.53000
H  -0.77800 13.15100 34.00700
H  0.02500 11.95900 33.00600
H  -1.57800 11.63800 33.80200
Mg 49.67200 45.49800 42.88400
C  46.15800 45.88500 41.89200
C  49.54100 42.43400 41.50900
C  52.94300 45.37900 43.19300
C  49.70800 48.98500 43.12800
N  47.99000 44.36200 41.72300
C  46.65900 44.61700 41.53300
C  45.91800 43.47200 40.90200
C  46.97900 42.30800 41.05400
C  48.28700 43.08500 41.45800
C  46.61100 41.29500 42.15600
C  45.67700 43.77900 39.38800
C  44.59800 42.97000 38.72100
H  44.69900 42.76300 37.21600
N  51.05700 44.03000 42.48600
C  50.81000 42.80100 41.94900
C  51.99600 41.95200 42.02900
C  53.03100 42.73400 42.56100
C  52.38900 44.11800 42.78500
C  52.12200 40.52600 41.47300
C  54.37800 42.23500 42.86600
O  54.68300 41.07900 42.54500
C  55.37800 43.10400 43.49000
N  51.16200 46.99000 43.12100
C  52.44700 46.69600 43.26900
C  53.29400 47.98500 43.62800
C  52.23100 49.18300 43.41300
C  50.91900 48.37800 43.25200
C  53.90400 48.05500 45.09500
C  52.40900 50.28200 42.31900
C  52.44800 51.75400 42.74700
N  48.23500 47.12100 42.81200
C  48.46900 48.44600 42.93600
C  47.22000 49.20200 42.90900
C  46.28800 48.17500 42.58500
C  46.97500 47.00000 42.36100
C  46.97700 50.70300 43.11800
C  44.86700 47.92000 42.42100
O  43.88500 48.62100 42.64500
C  44.71500 46.39600 41.88600
C  43.78800 45.56700 42.58700
O  42.73100 45.08900 42.16100
O  44.30700 45.30200 43.87600
C  43.56300 44.33300 44.64000
H  49.53700 41.41100 41.12700
H  54.01400 45.33700 43.40200
H  49.71900 50.04700 43.38100
H  44.94900 43.38400 41.39400
H  47.24100 41.81400 40.11900
H  47.26600 41.18700 43.02000
H  46.55700 40.30200 41.70900
H  45.66700 41.67700 42.54600
H  46.57300 43.65500 38.78000
H  45.38300 44.82200 39.27400
H  43.66400 43.51900 38.83900
H  44.44800 41.99100 39.17700
H  52.86200 40.41500 40.68100
H  51.18900 40.26100 40.97500
H  52.29900 39.79100 42.25900
H  54.93500 43.72000 44.27300
H  55.90800 43.67200 42.72500
H  56.03900 42.39200 43.98300
H  54.09700 47.95000 42.89200
H  52.01200 49.59300 44.39900
H  54.94700 47.74400 45.04100
H  53.31700 47.31900 45.64400
H  53.85500 49.01300 45.61400
H  51.68100 50.17200 41.51500
H  53.34900 49.94100 41.88500
H  52.00000 52.30100 41.91700
H  53.49600 52.00400 42.91300
H  51.98800 51.87700 43.72800
H  47.47700 51.00200 44.03900
H  45.89400 50.82300 43.16400
H  47.36600 51.16600 42.21200
H  44.23200 46.49600 40.91400
H  43.88700 44.40800 45.67700
H  43.51700 43.28600 44.33900
H  42.52400 44.66300 44.66000

