158

Mg 45.10500 4.11000 48.78700
C  43.54700 7.05200 47.89900
C  42.32000 2.36500 48.13500
C  46.97500 1.40900 48.65500
C  48.25400 6.10400 48.97400
N  43.11900 4.71400 48.26800
C  42.68600 5.96200 47.88000
C  41.18300 5.96200 47.69600
C  40.78400 4.48300 47.71800
C  42.13100 3.79600 48.07200
C  39.56700 4.07800 48.59500
C  40.61000 6.84000 46.59300
C  39.23700 6.59500 46.01400
H  38.97200 6.49900 44.45300
N  44.71200 2.10100 48.62400
C  43.44500 1.57100 48.29400
C  43.56800 0.15700 48.02300
C  44.94700 -0.19300 48.07300
C  45.59600 1.15300 48.44300
C  42.32700 -0.65300 47.69300
C  45.52200 -1.51800 47.84300
O  44.82300 -2.45900 47.53500
C  46.93800 -1.84000 48.05300
N  47.28300 3.87000 48.94500
C  47.76200 2.53400 48.89800
C  49.28200 2.48300 49.10900
C  49.68300 4.02200 49.26300
C  48.33300 4.73000 49.02700
C  49.75400 1.45400 50.21100
C  50.99700 4.52100 48.54900
C  51.93400 5.39200 49.45800
N  45.77400 6.18400 48.59000
C  47.06500 6.82200 48.69300
C  46.88100 8.22400 48.46200
C  45.53800 8.36500 48.19400
C  44.90300 7.04300 48.22900
C  48.00200 9.25700 48.50900
C  44.54200 9.25800 47.85500
O  44.53800 10.47700 47.72400
C  43.25000 8.46300 47.71000
C  42.17900 8.96100 48.71400
O  41.76100 8.34600 49.70100
O  41.59800 10.04400 48.12500
C  40.30600 10.40100 48.74300
H  41.39000 1.87400 47.84300
H  47.58600 0.50400 48.67500
H  49.17900 6.67400 48.86200
H  40.73800 6.31600 48.62500
H  40.53000 4.09700 46.73100
H  38.79000 3.58800 48.00900
H  38.95800 4.93500 48.88100
H  39.92300 3.59600 49.50600
H  41.33900 6.65700 45.80400
H  40.61300 7.91600 46.76400
H  38.70800 7.50400 46.29900
H  38.82700 5.75000 46.56900
H  42.54200 -1.23800 46.79800
H  41.38200 -0.13200 47.54000
H  42.14200 -1.40000 48.46500
H  47.22000 -1.65200 49.08900
H  47.51100 -1.45500 47.20900
H  46.99800 -2.91900 47.91300
H  49.77300 2.14000 48.19800
H  49.77800 4.24200 50.32600
H  50.17500 2.02200 51.04100
H  50.66800 0.92500 49.94300
H  48.89900 0.92400 50.63100
H  50.68000 5.21800 47.77300
H  51.55400 3.68700 48.12200
H  51.98400 6.36000 48.95700
H  52.89800 4.88900 49.53400
H  51.56300 5.58400 50.46500
H  48.38400 9.51100 47.52100
H  48.73900 8.82200 49.18400
H  47.55700 10.08800 49.05700
H  42.91500 8.72600 46.70700
H  39.79700 10.96300 47.96000
H  40.36000 10.94400 49.68700
H  39.68500 9.52400 48.92300
Mg 5.48900 54.48100 41.19400
C  5.33200 51.00600 40.97600
C  8.63900 54.33000 39.87900
C  5.52300 57.84100 41.11600
C  2.13500 54.52900 42.21700
N  6.74100 52.77200 40.19700
C  6.46700 51.46500 40.38700
C  7.77800 50.68500 40.03100
C  8.90800 51.79800 39.99700
C  8.06600 53.06400 40.03500
C  9.92000 51.73700 41.17300
C  7.77600 49.82500 38.68700
C  6.94500 50.51100 37.53200
H  7.71900 50.99200 36.28000
N  6.78900 55.81800 40.42100
C  8.06900 55.60200 39.97400
C  8.85300 56.82900 39.76200
C  7.92100 57.90400 40.06600
C  6.70500 57.20800 40.60600
C  10.30800 56.94300 39.41100
C  8.26600 59.37700 39.95200
O  9.41200 59.73800 39.55300
C  7.30300 60.46300 40.38400
N  3.98200 55.89300 41.57800
C  4.35300 57.25900 41.59300
C  3.11900 58.13400 42.04300
C  1.90600 57.11900 42.05400
C  2.69200 55.77500 41.95100
C  3.30600 58.72000 43.39300
C  0.83400 57.35700 40.85100
C  -0.43900 58.20100 41.21000
N  4.05300 53.12400 41.60900
C  2.75100 53.28200 42.10900
C  2.19200 51.95700 42.37700
C  3.18100 51.07200 41.97900
C  4.26300 51.78600 41.49400
C  0.79700 51.61600 42.90100
C  3.47000 49.57000 41.95500
O  2.91300 48.50800 42.25900
C  4.79800 49.55200 41.13700
C  4.62300 48.78500 39.86000
O  3.85300 49.16600 38.93800
O  5.40600 47.64900 39.88500
C  5.29900 46.84100 38.63800
H  9.72200 54.29500 39.74200
H  5.48300 58.92400 41.24600
H  1.06700 54.52600 42.44700
H  7.82200 50.00800 40.88400
H  9.49300 51.98500 39.09600
H  9.92700 50.67500 41.42000
H  9.55700 52.39400 41.96400
H  10.81400 52.26200 40.83700
H  7.28500 48.91700 39.03700
H  8.81900 49.76700 38.37700
H  6.31900 51.35000 37.83400
H  6.30400 49.73300 37.11900
H  10.42200 56.99200 38.32800
H  10.92000 56.19000 39.90800
H  10.86600 57.80400 39.78000
H  6.44500 60.41900 39.71400
H  7.80600 61.38700 40.09700
H  7.20100 60.47200 41.46900
H  3.09100 58.89500 41.26300
H  1.38400 57.12300 43.01100
H  2.36400 58.80700 43.93400
H  3.74800 59.71200 43.30200
H  3.93700 58.08400 44.01300
H  0.48600 56.37800 40.52100
H  1.28900 57.81600 39.97200
H  -1.28400 57.72800 40.70900
H  -0.28500 59.25300 40.96900
H  -0.74300 58.12100 42.25300
H  0.06900 51.56900 42.09100
H  0.51500 52.39000 43.61400
H  0.71700 50.64400 43.38700
H  5.38100 48.91100 41.79800
H  5.64600 45.81600 38.76100
H  5.83100 47.30600 37.80800
H  4.27200 46.74000 38.28600

