158

Mg 46.48600 25.20000 28.31500
C  46.92200 27.35800 31.08100
C  45.46700 22.88000 30.65100
C  47.15400 22.87300 26.11500
C  48.01300 27.56900 26.25300
N  46.38000 25.09600 30.67300
C  46.47800 26.12800 31.52500
C  46.15000 25.71300 33.02400
C  46.00600 24.21200 32.80700
C  45.82600 24.06100 31.24700
C  47.02300 23.23900 33.41600
C  44.97500 26.54000 33.65400
C  45.16300 27.05000 35.04000
H  44.09300 27.00800 36.12800
N  46.13600 23.22600 28.23700
C  45.66000 22.46600 29.26900
C  45.34600 21.15300 28.69300
C  45.92900 21.07600 27.39500
C  46.37600 22.40800 27.17400
C  44.71300 20.04900 29.51600
C  46.08800 19.89400 26.35400
O  46.59300 20.01000 25.30100
C  45.63500 18.54200 26.76800
N  47.63200 25.19600 26.53100
C  47.85300 24.04200 25.84700
C  48.66700 24.23600 24.49200
C  48.63100 25.77400 24.47000
C  48.00200 26.25700 25.81000
C  50.11400 23.47200 24.48100
C  48.14400 26.49900 23.19100
C  46.64100 26.81100 23.24700
N  47.29000 27.12300 28.57200
C  47.82300 28.02500 27.60200
C  48.11000 29.25100 28.30500
C  47.80400 28.99000 29.64400
C  47.27400 27.67500 29.75700
C  48.76300 30.40000 27.63800
C  47.82800 29.61900 30.92100
O  48.16400 30.73800 31.34800
C  47.34800 28.52200 31.92600
C  48.47800 28.22400 32.87000
O  49.43400 27.50300 32.50200
O  48.38700 28.81400 34.07000
C  49.39000 28.31000 35.04300
H  45.15100 22.12300 31.37100
H  47.30400 22.09900 25.36000
H  48.38600 28.36900 25.61000
H  47.09600 25.92300 33.52200
H  45.03000 23.93800 33.20700
H  47.87200 23.65700 33.95600
H  47.40600 22.58000 32.63600
H  46.52500 22.53100 34.07800
H  44.11900 25.86700 33.61000
H  44.67300 27.39600 33.04900
H  45.26400 28.11900 34.85500
H  46.05500 26.60200 35.47900
H  45.39400 19.19900 29.47900
H  43.76100 19.70100 29.11300
H  44.51500 20.40700 30.52600
H  45.79900 17.88400 25.91400
H  44.57200 18.55400 27.00600
H  46.22700 18.04300 27.53500
H  48.02600 23.86300 23.69400
H  49.69700 25.99700 24.51700
H  49.96100 22.61100 23.83000
H  50.48100 23.20500 25.47200
H  50.87500 24.15300 24.09900
H  48.37300 25.89100 22.31500
H  48.72500 27.41200 23.06300
H  46.10400 26.10500 23.88000
H  46.22200 26.76300 22.24200
H  46.38000 27.81800 23.57300
H  49.73300 30.17300 27.19700
H  49.10700 31.11600 28.38500
H  48.11100 30.90900 26.92700
H  46.45400 28.85200 32.45500
H  48.96400 27.74900 35.87400
H  50.01300 29.12900 35.40200
H  50.13500 27.68900 34.54500
Mg 46.51900 34.87000 27.77600
C  44.81000 32.94400 30.25600
C  46.70300 37.43500 30.00800
C  47.74900 36.55900 25.32200
C  46.02500 32.16100 25.57100
N  45.99600 35.12000 29.91600
C  45.37000 34.18300 30.71200
C  45.46800 34.62800 32.18100
C  45.60800 36.14900 32.07700
C  46.15100 36.28900 30.60300
C  44.34800 36.96500 32.31100
C  46.62000 33.85000 32.92400
C  46.37600 33.67700 34.45000
H  45.52400 34.76400 35.21200
N  47.16100 36.78500 27.66400
C  47.19900 37.71200 28.69100
C  47.81400 38.91800 28.22000
C  47.98000 38.70500 26.79800
C  47.64100 37.30500 26.54800
C  47.92300 40.12000 29.12500
C  48.51600 39.64100 25.64900
O  48.39500 39.38900 24.45800
C  49.16500 40.88500 26.06500
N  46.81400 34.41500 25.72900
C  47.34800 35.28400 24.95500
C  47.50100 34.81700 23.51600
C  46.97400 33.34700 23.55400
C  46.60700 33.27900 25.04300
C  47.00300 35.70800 22.37300
C  47.90500 32.12200 23.20300
C  49.07900 31.78600 24.15700
N  45.80400 32.91000 27.92200
C  45.66400 32.02900 26.95500
C  45.16500 30.79200 27.52200
C  44.80500 31.10300 28.79100
C  45.11400 32.46500 29.03500
C  44.90200 29.51100 26.84800
C  44.12000 30.59500 29.93700
O  43.66900 29.48400 30.17400
C  43.90900 31.87200 30.87800
C  44.07300 31.55700 32.29100
O  44.99700 31.06300 32.86500
O  42.87300 32.01300 32.83800
C  42.64900 31.67100 34.26600
H  46.79900 38.27600 30.69900
H  48.07600 37.14200 24.45900
H  45.87300 31.30500 24.91100
H  44.51500 34.46300 32.68300
H  46.40800 36.42000 32.76700
H  44.41000 37.52100 33.24700
H  43.43700 36.38900 32.47000
H  44.17100 37.57200 31.42400
H  47.47600 34.50100 32.74600
H  46.89200 32.96100 32.35400
H  47.29700 33.82200 35.01500
H  45.99600 32.67200 34.63300
H  48.68000 40.81900 28.76900
H  48.35600 39.84800 30.08700
H  46.96200 40.60300 29.30100
H  48.33700 41.51100 26.39800
H  49.81700 41.17800 25.24200
H  49.63200 40.57700 27.00100
H  48.57500 34.66700 23.40100
H  46.16300 33.24600 22.83200
H  46.35100 35.29200 21.60500
H  47.84100 36.27400 21.96700
H  46.37600 36.37200 22.96900
H  48.44900 32.22500 22.26400
H  47.14400 31.34300 23.15200
H  50.05900 32.05300 23.76000
H  49.03000 30.73500 24.44100
H  49.01900 32.39100 25.06200
H  45.69000 29.32700 26.11800
H  43.95500 29.39000 26.32300
H  45.08900 28.73400 27.58900
H  42.89400 32.24000 30.72500
H  42.80800 32.59400 34.82300
H  43.42800 31.00300 34.63400
H  41.62600 31.32600 34.41300

