158

Mg 17.64300 -2.82600 27.60600
C  16.31700 -0.99000 30.28900
C  19.83700 -4.34000 29.87400
C  19.42500 -3.97300 25.07100
C  15.64100 -0.85200 25.41300
N  18.07500 -2.58600 29.76900
C  17.33700 -1.85700 30.67900
C  17.74800 -2.12800 32.09100
C  19.08500 -2.97100 31.88700
C  18.99000 -3.37700 30.37100
C  20.39000 -2.20500 32.27600
C  16.65900 -2.85700 32.94100
C  16.74300 -2.53400 34.48100
H  18.02100 -2.03800 35.22100
N  19.23500 -4.17900 27.53500
C  19.96700 -4.77200 28.51700
C  20.73900 -5.82100 27.89500
C  20.76600 -5.65200 26.48300
C  19.74600 -4.56200 26.32200
C  21.51500 -6.84900 28.76100
C  21.53500 -6.41900 25.32700
O  21.39700 -6.13800 24.15300
C  22.30000 -7.67000 25.67400
N  17.62700 -2.34200 25.61800
C  18.44500 -2.98900 24.68500
C  18.37200 -2.31100 23.27700
C  16.85400 -1.77000 23.43000
C  16.69300 -1.66000 24.88300
C  19.42100 -1.14700 22.97600
C  15.72500 -2.73100 22.89100
C  14.60600 -2.09300 22.02100
N  16.20600 -1.23000 27.75700
C  15.42700 -0.57300 26.80100
C  14.47600 0.23200 27.45300
C  14.80200 0.10200 28.85300
C  15.91200 -0.74600 28.98700
C  13.62400 1.23500 26.82900
C  14.66800 0.72800 30.15600
O  14.13100 1.79000 30.44000
C  15.43500 -0.09800 31.18800
C  16.14000 0.85600 32.07600
O  17.06000 1.57900 31.76100
O  15.44700 1.02400 33.32000
C  15.80600 2.20600 34.08300
H  20.33400 -4.84200 30.70700
H  19.99600 -4.33100 24.21200
H  14.80100 -0.49600 24.81200
H  17.94200 -1.14500 32.51900
H  18.98400 -3.81100 32.57500
H  21.01700 -2.77900 32.95800
H  20.05300 -1.40900 32.94000
H  20.89500 -1.75100 31.42300
H  16.74700 -3.94300 32.91300
H  15.70800 -2.49700 32.54700
H  16.32900 -3.34800 35.07400
H  16.13300 -1.63400 34.55300
H  22.50700 -7.01300 28.34000
H  20.87700 -7.71400 28.94200
H  21.81200 -6.55000 29.76600
H  22.46700 -8.06500 24.67200
H  21.68900 -8.42300 26.17100
H  23.24200 -7.37900 26.13900
H  18.37800 -3.06800 22.49300
H  16.89700 -0.77600 22.98500
H  19.04700 -0.51300 22.17200
H  20.46500 -1.43500 22.84800
H  19.50500 -0.57500 23.90000
H  15.24600 -3.30800 23.68200
H  16.28700 -3.40400 22.24300
H  14.75700 -1.03500 21.80300
H  13.65900 -2.24000 22.54100
H  14.68200 -2.75000 21.15500
H  13.39100 1.91800 27.64500
H  12.65900 0.87900 26.46600
H  14.12700 1.70000 25.98000
H  14.75400 -0.52700 31.92300
H  15.09900 2.34700 34.90100
H  15.78100 3.15900 33.55400
H  16.79500 2.22300 34.54200
Mg 25.47700 51.29600 26.38800
C  23.20300 51.99600 29.10000
C  27.65300 50.19500 28.88000
C  27.82200 51.13100 24.07100
C  23.17400 52.44900 24.11300
N  25.44200 51.21700 28.79500
C  24.40700 51.51400 29.65900
C  24.77500 51.25400 31.15400
C  26.24100 50.68600 31.02200
C  26.44000 50.66000 29.47700
C  27.22500 51.58200 31.60900
C  23.78300 50.31400 31.82200
C  23.44600 50.55700 33.34100
H  24.45800 51.29900 34.24500
N  27.43900 50.68800 26.45600
C  28.14900 50.24500 27.53300
C  29.50000 49.75400 27.03800
C  29.55000 50.13500 25.71000
C  28.23400 50.64000 25.34900
C  30.59000 49.21200 27.96700
C  30.76300 49.99400 24.77400
O  30.73600 50.32900 23.59700
C  32.12800 49.60100 25.27200
N  25.55200 51.72700 24.39700
C  26.62700 51.65400 23.62600
C  26.27100 51.76300 22.05300
C  24.74300 52.18800 22.08300
C  24.43700 52.12500 23.64500
C  27.22100 52.77000 21.33500
C  23.89300 51.28400 21.15800
C  23.51300 49.86300 21.51400
N  23.65800 52.07200 26.55000
C  22.78600 52.42700 25.50800
C  21.55700 52.77900 26.07200
C  21.70000 52.65000 27.42400
C  22.95500 52.18400 27.72600
C  20.35400 53.23700 25.40900
C  20.98500 52.84700 28.69000
O  19.84600 53.23800 28.90000
C  21.91500 52.40100 29.84000
C  22.08300 53.66600 30.62100
O  22.56200 54.69800 30.24000
O  21.58100 53.47600 31.94800
C  21.93100 54.50400 32.95100
H  28.35800 49.92500 29.67000
H  28.52400 50.78300 23.31100
H  22.41300 52.71600 23.37700
H  24.62100 52.20200 31.67000
H  26.43800 49.66600 31.35400
H  26.86500 52.11200 32.49100
H  27.41000 52.48500 31.02900
H  28.19200 51.16200 31.88700
H  24.27300 49.34100 31.84900
H  22.88600 50.30900 31.20400
H  23.22900 49.58800 33.79000
H  22.61600 51.26300 33.33100
H  30.21100 49.15300 28.98700
H  31.42600 49.91100 27.93300
H  30.89300 48.19800 27.70400
H  32.25900 48.74700 25.93700
H  32.54000 50.41800 25.86500
H  32.81800 49.33100 24.47200
H  26.44500 50.79700 21.58100
H  24.53500 53.14300 21.60300
H  28.19000 52.93300 21.80600
H  26.77600 53.75200 21.49600
H  27.27900 52.57100 20.26500
H  24.43000 51.26800 20.20900
H  22.97000 51.77900 20.85800
H  23.87000 49.20400 20.72200
H  22.43300 49.74900 21.42100
H  23.67100 49.55000 22.54600
H  20.25400 54.32200 25.37300
H  19.51200 52.81600 25.95900
H  20.23000 52.88600 24.38500
H  21.29800 51.78600 30.49500
H  21.70100 54.19500 33.97000
H  21.34900 55.38400 32.67700
H  22.95300 54.85800 32.81400

