158

Mg -2.20900 16.93400 26.88600
C  -2.91300 14.68100 29.57600
C  -2.59800 19.50600 29.20600
C  -1.97600 19.07500 24.35500
C  -2.46600 14.21400 24.72100
N  -2.91800 17.08900 29.13300
C  -3.00100 16.00000 30.09400
C  -3.07300 16.41300 31.59400
C  -3.00000 17.98900 31.36400
C  -2.85000 18.19400 29.79900
C  -4.14100 18.84700 32.00300
C  -1.79800 15.93300 32.39000
C  -1.31900 16.72500 33.63200
H  -1.16000 15.89800 34.94400
N  -2.30200 18.94200 26.73800
C  -2.39100 19.81700 27.80100
C  -2.21800 21.17100 27.35300
C  -2.13600 21.10000 25.92900
C  -2.16000 19.68700 25.63900
C  -2.15200 22.29500 28.33300
C  -2.04800 22.19500 24.88400
O  -2.12800 22.05200 23.64700
C  -1.86400 23.61000 25.36200
N  -2.20000 16.61900 24.82300
C  -2.03800 17.70100 23.99500
C  -1.98600 17.23400 22.55900
C  -2.06800 15.66000 22.67400
C  -2.26200 15.46000 24.16600
C  -3.07300 17.64800 21.54300
C  -0.90400 14.86200 22.03600
C  -1.22600 13.90100 20.90100
N  -2.49900 14.85100 27.05400
C  -2.59800 13.92900 26.05200
C  -2.91300 12.64600 26.58900
C  -3.00200 12.87600 27.98400
C  -2.75400 14.23600 28.19900
C  -2.89600 11.35300 25.85700
C  -3.29400 12.26700 29.26300
O  -3.64500 11.09800 29.51600
C  -3.06000 13.37900 30.32600
C  -1.90100 12.92300 31.13300
O  -0.73500 13.29300 31.10700
O  -2.46600 11.99300 32.00300
C  -1.60800 11.43800 33.02700
H  -2.62000 20.34300 29.90700
H  -1.75100 19.63900 23.44800
H  -2.71700 13.35600 24.09400
H  -4.00400 16.12600 32.08300
H  -2.04400 18.30900 31.77800
H  -4.83000 18.16600 32.50300
H  -4.45100 19.42100 31.13000
H  -3.64900 19.49700 32.72700
H  -0.94200 15.73700 31.74400
H  -1.98300 14.90200 32.69000
H  -1.95700 17.59000 33.81500
H  -0.31300 17.12300 33.49900
H  -1.53700 23.08500 27.90100
H  -1.57000 22.04100 29.21900
H  -3.11600 22.71900 28.61500
H  -1.78200 24.10800 24.39600
H  -1.00500 23.72200 26.02300
H  -2.73700 24.01900 25.87200
H  -1.04100 17.53400 22.10500
H  -2.99500 15.30800 22.22200
H  -3.12700 18.72000 21.35000
H  -4.01000 17.29900 21.97600
H  -3.00200 17.18600 20.55800
H  -0.42000 14.24700 22.79500
H  -0.22800 15.65300 21.70900
H  -0.99600 12.89700 21.25900
H  -0.53300 14.14300 20.09600
H  -2.20400 14.06400 20.44800
H  -2.73900 10.64600 26.67200
H  -1.99300 11.23000 25.25800
H  -3.73500 11.30000 25.16200
H  -3.99900 13.38100 30.88000
H  -1.67700 10.35300 32.95300
H  -2.14900 11.57600 33.96300
H  -0.56600 11.75800 32.99600
Mg 50.89200 44.48600 42.57100
C  47.68400 45.43600 41.12400
C  50.36000 41.33600 41.28600
C  54.15500 43.94600 43.11900
C  51.38900 47.87500 43.15100
N  49.19400 43.57700 41.35100
C  48.02500 44.14600 40.86500
C  47.23700 43.10900 40.10100
C  48.04400 41.76100 40.29900
C  49.27100 42.22600 41.01600
C  47.15600 40.75900 41.05300
C  47.19700 43.63000 38.63600
C  45.81100 43.70500 38.00800
H  45.69200 42.98300 36.64000
N  52.07600 42.83200 42.34200
C  51.66500 41.57400 41.95100
C  52.74100 40.61700 42.14100
C  53.86800 41.34300 42.68200
C  53.44000 42.79300 42.75700
C  52.66200 39.17400 41.78800
C  55.18000 40.73600 43.13200
O  55.47900 39.53100 42.89300
C  56.17900 41.51400 43.96000
N  52.57100 45.76300 42.96500
C  53.83300 45.31800 43.17400
C  54.83100 46.47300 43.39700
C  53.91900 47.70400 43.30600
C  52.48700 47.06700 43.20400
C  55.62300 46.56200 44.78500
C  54.15600 48.81700 42.23300
C  54.41400 50.23000 42.78000
N  49.71500 46.29000 42.50800
C  49.98600 47.59800 42.87200
C  48.78100 48.44500 42.73300
C  47.80500 47.60100 42.11900
C  48.46200 46.31500 41.94700
C  48.67600 49.89000 43.05800
C  46.49700 47.60500 41.49100
O  45.65400 48.45800 41.36800
C  46.38800 46.18000 40.74500
C  45.03900 45.59000 41.11200
O  44.05900 45.52000 40.43700
O  45.07500 45.17500 42.44400
C  43.84400 44.79800 43.11600
H  50.20900 40.34800 40.84600
H  55.20700 43.78700 43.36100
H  51.46800 48.95700 43.27900
H  46.21100 43.07600 40.46700
H  48.22500 41.33200 39.31300
H  46.12700 41.12000 41.02900
H  47.50700 40.75700 42.08500
H  47.06000 39.77100 40.60400
H  47.91500 43.04800 38.05900
H  47.51900 44.66300 38.50600
H  45.57500 44.73900 37.75500
H  44.99500 43.30300 38.60900
H  53.07900 39.08700 40.78500
H  51.65900 38.77500 41.63900
H  53.14600 38.49000 42.48500
H  55.69800 42.21800 44.64000
H  56.84800 41.92700 43.20500
H  56.74700 40.86200 44.62400
H  55.59300 46.56900 42.62400
H  53.74500 48.23200 44.24400
H  55.60700 45.56900 45.23300
H  55.26100 47.36100 45.43200
H  56.67500 46.76600 44.58400
H  53.40900 48.76400 41.44000
H  55.12300 48.49800 41.84400
H  54.12400 50.36800 43.82200
H  54.02500 50.95400 42.06500
H  55.48800 50.41400 42.74900
H  48.78900 50.51900 42.17500
H  49.55400 50.03000 43.68900
H  47.79700 49.99500 43.69500
H  46.41200 46.36800 39.67200
H  43.92700 43.71800 42.99100
H  42.98900 45.16900 42.55100
H  43.76300 45.17800 44.13400

