158

Mg 27.03800 49.76600 26.63600
C  25.09100 50.66300 29.42400
C  29.66700 49.21600 28.81800
C  28.89300 49.04200 23.99300
C  24.37100 50.58400 24.57700
N  27.31400 50.00600 28.84700
C  26.33000 50.27200 29.82700
C  26.78300 49.97400 31.21600
C  28.33200 49.73000 30.95500
C  28.45500 49.57200 29.45900
C  29.35700 50.73600 31.55800
C  25.96500 48.80900 31.94300
C  25.40300 49.24400 33.31600
H  26.34700 49.98600 34.31400
N  29.02200 49.19600 26.48200
C  29.95000 49.03200 27.48600
C  31.25300 48.68100 26.93300
C  31.03000 48.58100 25.52500
C  29.58400 48.97800 25.26500
C  32.46300 48.23500 27.74800
C  32.05200 48.33100 24.37500
O  31.84200 48.58600 23.17600
C  33.35100 47.77200 24.81400
N  26.77600 49.74500 24.65000
C  27.63400 49.39800 23.69900
C  27.04100 49.27700 22.29400
C  25.56400 49.63600 22.53700
C  25.56600 50.08400 24.04600
C  27.64100 50.13500 21.18500
C  24.61600 48.43900 22.17700
C  23.28500 48.81100 21.39200
N  25.21600 50.59500 26.89200
C  24.24500 50.93100 25.90600
C  23.10500 51.50100 26.61900
C  23.41300 51.39600 27.98400
C  24.64200 50.80800 28.09100
C  21.87300 51.98200 25.93900
C  22.75000 51.51200 29.34700
O  21.64400 51.83600 29.64900
C  23.93200 51.14400 30.34300
C  24.34600 52.32900 31.07600
O  25.22000 53.20000 30.76000
O  23.71700 52.24000 32.26900
C  23.80900 53.39200 33.25600
H  30.47400 48.89500 29.47900
H  29.48400 48.82700 23.10000
H  23.56600 50.75100 23.85900
H  26.75300 50.92300 31.75100
H  28.53200 48.78700 31.46400
H  30.11100 51.11300 30.86700
H  29.97600 50.26100 32.31900
H  28.92500 51.57900 32.09900
H  26.54100 47.88900 32.04300
H  25.18300 48.54100 31.23300
H  25.03800 48.36300 33.84400
H  24.54000 49.87000 33.09300
H  32.70800 47.17400 27.80700
H  32.30000 48.45200 28.80400
H  33.31200 48.86100 27.47500
H  33.94700 48.54000 25.30700
H  33.78000 47.34900 23.90600
H  33.12100 46.90800 25.43800
H  27.11900 48.22000 22.03800
H  25.28400 50.60600 22.12700
H  28.34600 49.58000 20.56700
H  28.29900 50.77900 21.76700
H  26.97500 50.72200 20.55300
H  24.36500 47.85300 23.06200
H  25.15300 47.78900 21.48600
H  23.37300 49.84300 21.05300
H  22.37000 48.76000 21.98300
H  23.10700 48.23100 20.48700
H  21.75500 51.85400 24.86300
H  21.91600 53.05300 26.13600
H  20.93000 51.63900 26.36500
H  23.56400 50.34300 30.98300
H  24.56200 53.17700 34.01400
H  22.85500 53.43400 33.78200
H  23.99600 54.34000 32.75300
Mg 6.74800 53.04900 41.77100
C  5.48100 49.66800 41.45300
C  9.64600 51.94100 40.28600
C  7.62300 56.26500 41.42000
C  3.40000 54.06800 42.31600
N  7.45200 51.09300 40.83200
C  6.79800 49.88100 40.91100
C  7.71700 48.75300 40.33500
C  9.14800 49.41400 40.32600
C  8.78800 50.91900 40.43000
C  9.98000 49.04300 41.58200
C  7.41400 48.22300 38.92700
C  6.90800 49.25300 37.84900
H  5.59300 49.18400 37.17400
N  8.41800 54.02200 40.92400
C  9.55800 53.36700 40.50300
C  10.54700 54.37700 40.22400
C  10.04700 55.61000 40.63400
C  8.60100 55.37200 41.01500
C  11.91300 53.94900 39.77200
C  10.71600 56.92200 40.61700
O  11.73500 57.02000 40.04500
C  10.19700 58.19300 41.10300
N  5.66300 54.85400 41.86400
C  6.29700 56.04400 41.72400
C  5.35800 57.20700 42.12800
C  3.98300 56.49400 42.24100
C  4.36800 55.02300 42.10500
C  5.77700 57.99600 43.27400
C  2.93300 56.88700 41.14500
C  1.50600 57.07200 41.48800
N  4.81500 52.13200 42.03900
C  3.53000 52.66900 42.24100
C  2.52700 51.64900 42.36900
C  3.28700 50.43900 42.09800
C  4.62500 50.77800 41.83000
C  1.10000 51.94500 42.66500
C  3.16700 48.97900 41.91800
O  2.18200 48.25700 41.83900
C  4.64800 48.40400 41.76100
C  4.59700 47.30100 40.72400
O  4.31500 47.36100 39.56900
O  5.16000 46.19700 41.30200
C  5.43200 45.11900 40.39000
H  10.62800 51.56600 39.99000
H  7.77800 57.34200 41.32500
H  2.36400 54.27100 42.59300
H  7.78400 47.88700 40.99300
H  9.69500 49.14400 39.42300
H  10.97800 48.64500 41.39700
H  9.54900 48.19800 42.11900
H  9.87100 49.85100 42.30400
H  6.71400 47.38800 38.94000
H  8.34700 47.82700 38.52500
H  7.60900 49.18400 37.01800
H  6.81900 50.26000 38.25600
H  12.34400 54.77900 39.21200
H  11.95100 53.03600 39.17800
H  12.49400 53.68100 40.65500
H  10.97100 58.93700 41.29000
H  9.60400 58.05400 42.00600
H  9.55100 58.66200 40.36100
H  5.39900 57.90400 41.29100
H  3.52800 56.38000 43.22500
H  5.92100 59.04200 43.00200
H  6.73400 57.78000 43.75000
H  4.92400 58.00600 43.95300
H  3.03100 56.00500 40.51300
H  3.30600 57.71800 40.54800
H  0.91600 56.53200 40.74800
H  1.20700 58.10800 41.32800
H  1.25000 56.70700 42.48200
H  0.57500 52.37900 41.81300
H  1.08500 52.55000 43.57200
H  0.61600 51.00700 42.93800
H  4.92300 47.88000 42.67700
H  5.64100 45.51300 39.39600
H  4.59800 44.44000 40.21300
H  6.28300 44.51900 40.71100

