158

Mg -1.82200 16.92200 25.85600
C  -2.31600 14.59600 28.54700
C  -2.43600 19.41100 28.19300
C  -1.57400 19.02100 23.40300
C  -1.67200 14.09700 23.72800
N  -2.54400 17.01000 28.10100
C  -2.41100 15.95800 28.94500
C  -2.55800 16.40700 30.43300
C  -2.69000 17.98500 30.20500
C  -2.64900 18.14200 28.76300
C  -3.87900 18.66000 30.89300
C  -1.56200 16.06600 31.51700
C  -1.34300 16.91000 32.77700
H  -1.89800 16.36100 34.15900
N  -1.94300 18.95300 25.83100
C  -2.18000 19.81400 26.88700
C  -2.00000 21.14200 26.39000
C  -1.71000 21.01800 24.99300
C  -1.62300 19.59900 24.68600
C  -2.19800 22.39500 27.23600
C  -1.55700 22.16900 23.98100
O  -1.35400 21.90400 22.83600
C  -1.60200 23.57200 24.35300
N  -1.74000 16.59700 23.87800
C  -1.55500 17.68100 23.00500
C  -1.51200 17.23900 21.59000
C  -1.14300 15.73200 21.78800
C  -1.58900 15.42900 23.20700
C  -2.81900 17.63700 20.82400
C  0.30800 15.26300 21.41700
C  1.50200 15.43800 22.49000
N  -2.13800 14.79200 26.00700
C  -1.94900 13.77100 25.09600
C  -2.10300 12.49500 25.69000
C  -2.27900 12.76500 27.09400
C  -2.27200 14.17700 27.16100
C  -2.11900 11.16400 25.06700
C  -2.30900 12.13900 28.35000
O  -2.30200 10.97200 28.72100
C  -2.37700 13.29900 29.36500
C  -1.20300 13.09600 30.26400
O  -0.05900 13.52200 30.04500
O  -1.68800 12.46300 31.43400
C  -0.79800 12.31800 32.50600
H  -2.58000 20.21600 28.91600
H  -1.47200 19.73800 22.58600
H  -1.60500 13.30500 22.97800
H  -3.54600 16.04500 30.71900
H  -1.77800 18.49100 30.52200
H  -4.50100 19.13900 30.13800
H  -3.61200 19.43400 31.61300
H  -4.53300 17.90800 31.33400
H  -0.61000 15.89100 31.01500
H  -1.88200 15.13100 31.97800
H  -1.89500 17.83000 32.58500
H  -0.28500 17.12200 32.93300
H  -2.50600 22.38200 28.28100
H  -2.91200 23.07000 26.76100
H  -1.21400 22.85600 27.15200
H  -2.60100 23.82200 24.71000
H  -1.34000 24.18300 23.49000
H  -0.80100 23.65900 25.08700
H  -0.66400 17.75800 21.14500
H  -1.79000 15.14200 21.13800
H  -3.43000 16.74300 20.69500
H  -2.72700 17.97400 19.79100
H  -3.41900 18.32300 21.42300
H  0.66400 15.65700 20.46500
H  0.11700 14.20900 21.21900
H  2.33700 15.96300 22.02500
H  1.84400 14.46500 22.84300
H  1.20000 16.03100 23.35300
H  -2.80200 10.57400 25.67800
H  -1.11300 10.74400 25.06900
H  -2.54200 11.31200 24.07400
H  -3.32100 13.26500 29.90900
H  0.01500 13.03300 32.63300
H  -0.25000 11.37600 32.53800
H  -1.45300 12.37700 33.37500
Mg 1.18200 -1.23400 44.15200
C  4.44800 -0.65600 43.59000
C  0.32500 1.48300 42.21400
C  -2.10100 -2.20100 44.20200
C  2.08500 -4.41300 45.48200
N  2.26500 0.25300 42.99200
C  3.62900 0.30000 42.92900
C  4.05800 1.55600 42.13000
C  2.67700 2.30500 41.93700
C  1.67200 1.30100 42.36000
C  2.51100 3.67100 42.75600
C  4.81600 1.12400 40.79600
C  6.06500 1.92300 40.35500
H  5.86100 2.98500 39.28300
N  -0.61700 -0.37600 43.45500
C  -0.74700 0.73700 42.71300
C  -2.15700 1.08700 42.62700
C  -2.99200 0.08400 43.30800
C  -1.90000 -0.87600 43.74200
C  -2.61700 2.40600 41.92600
C  -4.49100 0.02300 43.38900
O  -5.19100 0.91400 42.97400
C  -5.14400 -1.02000 44.18300
N  0.10600 -3.08300 44.64200
C  -1.21500 -3.22900 44.63600
C  -1.68500 -4.66500 44.90300
C  -0.42800 -5.17100 45.70800
C  0.68100 -4.22500 45.21500
C  -3.04000 -4.95300 45.67400
C  -0.27800 -6.73000 45.65800
C  -0.41400 -7.50200 47.01700
N  2.89400 -2.33600 44.54400
C  3.14800 -3.56000 45.14700
C  4.55400 -3.75900 45.26000
C  5.11200 -2.61000 44.69600
C  4.00800 -1.82600 44.24100
C  5.27500 -4.91100 45.94800
C  6.37800 -1.91900 44.32800
O  7.54700 -2.14600 44.43000
C  5.96700 -0.57900 43.65200
C  6.37100 0.46800 44.52100
O  6.00400 0.42400 45.67000
O  7.36700 1.35300 44.03300
C  7.88300 2.33100 44.99800
H  0.15800 2.43800 41.71200
H  -3.13700 -2.47300 43.98700
H  2.38100 -5.40600 45.82800
H  4.69300 2.21300 42.72400
H  2.59100 2.60500 40.89200
H  2.23000 4.44300 42.03900
H  3.45400 3.83600 43.27500
H  1.69800 3.61700 43.47900
H  4.03700 1.28900 40.05100
H  5.04100 0.05900 40.83800
H  6.80900 1.19700 40.02800
H  6.39800 2.41000 41.27200
H  -2.67600 2.28200 40.84500
H  -1.95000 3.25200 42.09200
H  -3.57700 2.70600 42.34800
H  -5.99700 -0.66000 44.75900
H  -4.51500 -1.17500 45.06000
H  -5.39800 -1.89800 43.59000
H  -1.71200 -5.12100 43.91300
H  -0.70100 -4.97200 46.74400
H  -3.57400 -5.66800 45.04900
H  -3.77800 -4.15100 45.63900
H  -2.78800 -5.33000 46.66500
H  0.75400 -6.91500 45.35900
H  -1.02200 -7.12500 44.96600
H  -1.04000 -8.34900 46.73600
H  -1.01000 -6.95800 47.75000
H  0.58500 -7.71200 47.39800
H  6.34200 -4.83100 46.15900
H  5.17200 -5.82400 45.36200
H  4.73600 -5.07500 46.88100
H  6.40500 -0.37100 42.67600
H  8.33900 1.76500 45.81000
H  6.98200 2.86600 45.30000
H  8.60200 2.98300 44.50300

