158

Mg 53.07100 23.28700 45.13400
C  50.42700 25.53200 44.10900
C  51.11200 20.68100 43.88800
C  55.91800 21.48700 44.88900
C  54.86500 26.10200 46.30700
N  51.01500 23.23300 44.03100
C  50.13600 24.23700 43.72000
C  48.90400 23.64100 43.01200
C  48.99200 22.14200 43.44400
C  50.43700 21.97000 43.76800
C  48.04100 21.85800 44.62800
C  48.93900 23.67400 41.41100
C  47.61000 23.62800 40.70000
H  47.48100 22.91700 39.30900
N  53.46300 21.34400 44.61300
C  52.53500 20.40400 44.11800
C  53.23400 19.13000 43.93500
C  54.60200 19.28700 44.29500
C  54.72500 20.77100 44.67200
C  52.62300 17.93100 43.28700
C  55.69700 18.25000 44.18000
O  55.46000 17.08100 43.96000
C  57.11200 18.50100 44.63300
N  55.14500 23.75900 45.50500
C  56.08800 22.79100 45.48700
C  57.40000 23.25300 46.12400
C  57.12100 24.71100 46.60700
C  55.68800 24.91900 45.98100
C  57.79800 22.31700 47.29000
C  58.27400 25.74900 46.10600
C  59.13100 26.42100 47.19700
N  52.72600 25.39000 45.31800
C  53.50100 26.35300 45.91200
C  52.76700 27.62100 45.85600
C  51.52700 27.32400 45.17900
C  51.56600 25.97800 44.87200
C  53.23500 29.01600 46.29500
C  50.30800 27.93400 44.75100
O  49.83700 29.05200 44.98600
C  49.47500 26.75600 44.11200
C  48.89000 27.07700 42.76000
O  49.54700 27.36600 41.72500
O  47.55800 27.13200 42.88600
C  46.86300 27.44400 41.64100
H  50.49100 19.85000 43.54700
H  56.84300 20.95200 44.66200
H  55.53700 26.87400 46.68700
H  48.07700 24.23300 43.40300
H  48.71000 21.44000 42.65800
H  47.41300 22.73600 44.77900
H  48.62200 21.72000 45.54000
H  47.41700 21.02000 44.31700
H  49.47500 22.80400 41.03100
H  49.48800 24.56400 41.10400
H  47.34900 24.65200 40.43300
H  46.83600 23.27500 41.38100
H  53.09800 17.61300 42.35900
H  51.63600 18.16100 42.88700
H  52.54900 17.18000 44.07400
H  57.51200 19.03800 43.77300
H  57.58800 17.54300 44.84200
H  57.17300 19.10900 45.53500
H  58.15200 23.09400 45.35100
H  57.08800 24.82500 47.69100
H  58.85600 22.07000 47.20000
H  57.24300 21.38300 47.19900
H  57.61300 22.79400 48.25200
H  57.75500 26.51300 45.52800
H  59.01100 25.24200 45.48300
H  58.95800 25.85400 48.11100
H  58.84100 27.46700 47.29800
H  60.17900 26.37300 46.90300
H  54.10800 28.97600 46.94600
H  52.37900 29.53200 46.73000
H  53.42700 29.69300 45.46300
H  48.66900 26.62200 44.83400
H  46.12300 28.23100 41.78500
H  46.25200 26.62200 41.27000
H  47.45200 27.75500 40.77800
Mg 30.20500 59.39600 39.73800
C  27.40900 57.64900 38.78800
C  32.19300 56.67300 38.68700
C  32.93700 61.34500 39.73900
C  28.26800 62.33500 39.81100
N  29.83400 57.36800 38.76200
C  28.60100 56.87500 38.56300
C  28.74300 55.54700 37.86000
C  30.21200 55.07300 38.07600
C  30.80100 56.46700 38.60400
C  30.35100 53.90800 39.09200
C  28.37400 55.67700 36.29600
C  27.45000 54.63600 35.76200
H  26.55600 55.07800 34.54300
N  32.29700 58.98800 39.56400
C  32.83600 57.80600 39.10900
C  34.27500 57.98400 39.19400
C  34.55900 59.27300 39.60800
C  33.20000 59.90700 39.69400
C  35.30200 56.98900 38.68100
C  35.91800 59.82300 39.83800
O  36.92100 59.17200 39.62200
C  36.13400 61.12100 40.59100
N  30.48900 61.53400 39.65600
C  31.74100 62.06200 39.74700
C  31.74700 63.55600 39.97700
C  30.20300 63.92500 40.01800
C  29.65400 62.48600 39.88400
C  32.54900 64.07900 41.18200
C  29.76800 64.76300 38.82100
C  28.81400 65.90400 39.09600
N  28.19000 59.86900 39.56400
C  27.50500 61.05600 39.61300
C  26.07200 60.87800 39.36900
C  26.02600 59.51600 39.07500
C  27.31900 58.97100 39.16600
C  24.92100 61.88700 39.20600
C  25.17700 58.49000 38.48100
O  24.00500 58.55100 38.14100
C  26.02200 57.18900 38.25500
C  25.45900 56.12200 39.06500
O  25.41100 56.09000 40.28800
O  24.89000 55.18100 38.19300
C  24.33900 54.02100 38.85000
H  32.90400 55.85400 38.56200
H  33.76900 62.05000 39.78500
H  27.63600 63.22400 39.86700
H  28.12700 54.81400 38.38100
H  30.71700 54.70300 37.18400
H  31.37400 53.64300 39.36000
H  29.93000 53.06200 38.54900
H  29.72200 54.17600 39.94100
H  29.28000 55.55300 35.70300
H  27.99500 56.69300 36.18600
H  26.76500 54.29000 36.53700
H  28.07200 53.79000 35.47100
H  35.78200 57.42000 37.80200
H  34.93900 55.98600 38.45800
H  36.06400 56.90400 39.45600
H  37.18200 61.17600 40.88500
H  35.37100 60.99500 41.36000
H  35.85700 61.93300 39.91900
H  32.12000 64.01400 39.06100
H  29.95900 64.40600 40.96500
H  33.55600 64.38900 40.90200
H  32.59300 63.26800 41.91000
H  31.96600 64.82500 41.72200
H  29.39100 64.10600 38.03800
H  30.57100 65.19100 38.22200
H  29.27200 66.87100 38.88800
H  28.40000 65.85600 40.10300
H  27.94400 65.81800 38.44500
H  24.20800 61.75600 40.01900
H  24.45800 61.67800 38.24200
H  25.13800 62.95500 39.21300
H  26.09300 56.74700 37.26100
H  23.78100 54.30500 39.74200
H  25.10900 53.32100 39.17300
H  23.68700 53.54900 38.11400

