158

Mg 27.17800 50.63600 26.26800
C  25.16000 51.53600 29.05100
C  29.42000 49.29600 28.45300
C  29.13000 49.66800 23.56400
C  24.82300 51.99000 24.21800
N  27.34500 50.57700 28.58000
C  26.36700 50.82000 29.51700
C  26.88800 50.63600 30.94600
C  28.25400 49.98300 30.69700
C  28.35600 49.89300 29.14800
C  29.54300 50.69300 31.30900
C  25.89800 49.81400 31.79800
C  25.40900 50.52600 33.00800
H  24.89100 49.75400 34.24400
N  28.99800 49.55100 26.00100
C  29.80300 49.18300 27.06000
C  31.08900 48.71700 26.47800
C  30.85600 48.65600 25.08000
C  29.59600 49.31100 24.79700
C  32.18600 48.09500 27.38200
C  31.89600 48.12800 24.05500
O  31.67500 47.99100 22.86100
C  33.31600 47.80300 24.53000
N  27.11000 50.98900 24.16800
C  27.94800 50.41900 23.28300
C  27.55700 50.89200 21.87600
C  26.14100 51.45500 22.07500
C  25.99100 51.48500 23.55900
C  28.60700 51.75700 21.14100
C  24.93000 50.67300 21.37000
C  24.05400 49.66600 22.12500
N  25.38400 51.70100 26.51600
C  24.54700 52.20000 25.60600
C  23.29300 52.64000 26.22900
C  23.49800 52.51500 27.63500
C  24.82900 51.95400 27.69700
C  22.03800 53.13000 25.53000
C  23.02900 52.73300 28.95400
O  21.94300 53.16200 29.33400
C  24.03000 52.17800 29.91100
C  24.59100 53.23500 30.80800
O  25.64700 53.79600 30.67400
O  23.64400 53.55300 31.76700
C  23.98400 54.68300 32.60100
H  30.16400 48.91100 29.15400
H  29.62000 49.40500 22.62500
H  24.12800 52.51200 23.55800
H  26.99100 51.61400 31.41600
H  28.18700 48.94800 31.03300
H  29.14000 51.33600 32.09100
H  29.91100 51.35800 30.52600
H  30.26300 49.96900 31.69000
H  26.25800 48.84500 32.14400
H  25.10800 49.51200 31.11000
H  24.58000 51.14800 32.67200
H  26.12300 51.16000 33.53300
H  32.21800 47.00500 27.36300
H  32.02100 48.33900 28.43200
H  33.18600 48.48100 27.18500
H  33.79700 48.76100 24.73000
H  33.71100 47.31200 23.64100
H  33.29600 47.03800 25.30500
H  27.43500 49.97800 21.29600
H  26.15900 52.48800 21.72700
H  29.55900 51.72600 21.67100
H  28.18600 52.73900 20.92600
H  28.88000 51.34000 20.17200
H  25.34000 50.19100 20.48300
H  24.31400 51.46000 20.93500
H  23.99600 48.78700 21.48300
H  23.06000 50.04500 22.36300
H  24.46600 49.41000 23.10100
H  21.14400 52.73700 26.01500
H  21.98000 52.72200 24.52100
H  22.05700 54.21700 25.46400
H  23.53400 51.41500 30.51100
H  23.16600 55.04700 33.22300
H  24.39600 55.50800 32.01900
H  24.76400 54.35400 33.28800
Mg 6.74900 53.04300 41.60800
C  6.30900 49.47300 41.22200
C  9.92900 52.58700 40.19600
C  6.90700 56.19100 41.32700
C  3.35800 53.09900 42.43000
N  7.83300 51.23400 40.64800
C  7.51700 49.95200 40.71800
C  8.69800 49.05700 40.24800
C  9.93300 49.99200 40.14700
C  9.21800 51.34300 40.41200
C  11.16500 49.66900 41.08900
C  8.52400 48.40400 38.80800
C  8.42800 49.34400 37.56500
H  7.31400 49.07400 36.61900
N  8.23100 54.33900 40.82600
C  9.48200 53.91500 40.40000
C  10.23800 55.15700 40.18200
C  9.37900 56.29600 40.52300
C  8.16600 55.60800 40.98200
C  11.60900 55.31300 39.51200
C  9.59900 57.74900 40.22700
O  10.57900 58.05300 39.54300
C  8.67100 58.87300 40.68500
N  5.27700 54.44400 41.76400
C  5.62100 55.73200 41.66400
C  4.51400 56.64700 42.00900
C  3.32600 55.63700 42.13900
C  4.00100 54.29800 42.14500
C  4.70200 57.52400 43.27200
C  2.30200 55.65200 40.91000
C  0.79100 55.67200 41.34800
N  5.15900 51.63700 41.91800
C  3.90100 51.83700 42.29600
C  3.25000 50.55600 42.59800
C  4.16400 49.62600 42.16000
C  5.29500 50.33400 41.73700
C  1.84100 50.40000 43.03400
C  4.36100 48.26500 41.92700
O  3.62500 47.24700 42.11400
C  5.78100 48.04100 41.41500
C  5.55400 47.35600 40.11100
O  4.91600 47.76700 39.16000
O  6.32100 46.16900 40.14100
C  6.05900 45.17900 39.07700
H  10.98700 52.46500 39.95200
H  6.89200 57.28300 41.32300
H  2.30400 53.03800 42.70900
H  8.88200 48.15600 40.83300
H  10.39600 49.89600 39.16500
H  12.09400 49.65700 40.52000
H  11.07300 48.64400 41.44900
H  11.18500 50.38300 41.91200
H  7.57200 47.87200 38.80700
H  9.29500 47.64200 38.69300
H  9.33600 49.18100 36.98300
H  8.27300 50.40600 37.75900
H  11.58900 55.95000 38.62800
H  12.07200 54.33600 39.37000
H  12.16300 55.80700 40.31000
H  8.52100 58.87600 41.76500
H  7.71600 58.79900 40.16400
H  9.10200 59.85300 40.48000
H  4.18700 57.38100 41.27300
H  2.80100 55.83000 43.07500
H  4.10500 57.24000 44.13900
H  4.35000 58.53800 43.08000
H  5.76000 57.49100 43.53300
H  2.43200 54.85100 40.18200
H  2.27600 56.60400 40.37900
H  0.46500 56.71200 41.31000
H  0.69000 55.26700 42.35500
H  0.10100 55.09400 40.73400
H  1.69900 50.19300 44.09500
H  1.41100 49.53400 42.53000
H  1.19500 51.16300 42.60100
H  6.43200 47.56200 42.14600
H  5.10400 44.72300 39.34000
H  6.76400 44.35600 39.19000
H  6.08600 45.67700 38.10800

