158

Mg 1.48100 -1.23000 44.43500
C  4.87600 -0.83800 43.52500
C  0.70700 1.52500 42.55400
C  -1.72700 -2.04100 44.67900
C  2.42200 -4.25500 45.94400
N  2.62700 0.04400 43.01200
C  4.00400 0.05200 42.93000
C  4.49800 1.13900 41.94800
C  3.17200 2.09900 41.81800
C  2.09100 1.16500 42.50000
C  3.28200 3.47700 42.48100
C  5.05100 0.54900 40.60700
C  6.45700 1.27100 40.19700
H  6.49700 2.15700 39.01600
N  -0.25600 -0.38300 43.76800
C  -0.38400 0.74700 43.05100
C  -1.80400 1.05800 42.76600
C  -2.57200 -0.06100 43.26800
C  -1.51000 -0.86500 43.95400
C  -2.26300 2.31500 42.03200
C  -4.10300 -0.11400 43.24100
O  -4.80800 0.80800 42.84400
C  -4.81700 -1.34300 43.62900
N  0.44400 -2.90700 45.24900
C  -0.91200 -2.94800 45.27100
C  -1.37200 -4.24500 45.91800
C  -0.07400 -4.88200 46.47100
C  1.01500 -4.00600 45.87200
C  -2.62700 -4.18400 46.95000
C  0.14500 -6.45200 46.18800
C  0.57800 -7.16100 47.45400
N  3.23800 -2.33400 44.80100
C  3.47600 -3.51700 45.45500
C  4.86100 -3.85800 45.46700
C  5.47600 -2.73100 44.80700
C  4.39100 -1.90800 44.34700
C  5.46700 -5.05800 46.15000
C  6.71500 -2.14000 44.36700
O  7.88100 -2.46700 44.51400
C  6.34500 -0.81900 43.57300
C  6.84500 0.38300 44.35000
O  6.78500 0.58100 45.54100
O  7.32900 1.34600 43.52200
C  7.87300 2.52800 44.22000
H  0.43400 2.43700 42.01900
H  -2.79900 -2.18700 44.82300
H  2.69800 -5.06800 46.61900
H  5.35300 1.68100 42.35400
H  3.01000 2.06400 40.74000
H  2.97500 4.24800 41.77400
H  4.27400 3.71300 42.86600
H  2.59800 3.51600 43.32900
H  4.26400 0.59000 39.85400
H  5.31900 -0.48800 40.80600
H  7.31400 0.61700 40.03600
H  6.84700 1.85700 41.02900
H  -1.60500 2.35600 41.16300
H  -1.91800 3.08600 42.72100
H  -3.32900 2.34600 41.80700
H  -4.96100 -1.41100 44.70800
H  -4.17900 -2.17000 43.31800
H  -5.76200 -1.53600 43.12200
H  -1.65100 -4.85200 45.05600
H  -0.08600 -4.66000 47.53800
H  -3.04600 -3.18700 47.08800
H  -2.35400 -4.59700 47.92100
H  -3.47000 -4.74400 46.54600
H  0.77500 -6.70800 45.33600
H  -0.82800 -6.91700 46.02900
H  1.44700 -7.72600 47.11800
H  -0.25600 -7.81700 47.70100
H  1.02700 -6.62200 48.28900
H  5.59500 -5.86700 45.43100
H  4.77600 -5.58700 46.80600
H  6.43600 -4.81000 46.58300
H  6.73400 -0.63100 42.57300
H  7.12100 3.17300 44.67400
H  8.50700 3.04800 43.50100
H  8.61700 2.17500 44.93500
Mg 46.98100 24.86100 28.44500
C  47.68500 27.17000 30.98900
C  45.59500 22.87400 30.75100
C  46.79800 22.57000 25.94900
C  48.91400 26.85400 26.23800
N  46.72400 25.07600 30.67800
C  46.95400 26.13100 31.46300
C  46.47700 25.93100 32.88200
C  45.92400 24.44300 32.79800
C  46.07800 24.09200 31.31400
C  46.56200 23.48100 33.72300
C  45.44600 27.08500 33.30400
C  45.67800 27.74000 34.69700
H  46.32700 26.86200 35.86800
N  46.24500 23.04800 28.35400
C  45.66200 22.39600 29.39500
C  45.20900 21.09300 28.89400
C  45.46900 20.99400 27.45000
C  46.21900 22.29000 27.20400
C  44.64500 20.19400 29.82200
C  45.22000 19.86400 26.54300
O  45.65300 19.83800 25.33000
C  44.19400 18.87000 26.95300
N  47.87000 24.66800 26.44900
C  47.54900 23.63400 25.57700
C  47.97100 23.93800 24.15100
C  48.54200 25.42500 24.17400
C  48.52800 25.63000 25.70800
C  49.07000 22.95900 23.73300
C  47.78000 26.48100 23.26600
C  48.67100 27.33300 22.35700
N  47.91700 26.68800 28.50500
C  48.71000 27.33400 27.50500
C  49.14300 28.58100 28.09600
C  48.79800 28.47800 29.43600
C  48.07200 27.34800 29.67700
C  49.89500 29.73700 27.33100
C  48.90800 29.25200 30.65500
O  49.29800 30.37600 30.90000
C  48.25000 28.36900 31.69600
C  49.26900 28.13600 32.76800
O  50.16800 27.30900 32.73500
O  49.05400 28.99500 33.79100
C  49.96300 28.91600 34.92500
H  44.97900 22.28900 31.43700
H  46.78200 21.84400 25.13400
H  49.58500 27.36800 25.54700
H  47.35800 25.95500 33.52300
H  44.84600 24.47600 32.95500
H  47.43000 23.78600 34.30800
H  46.79300 22.55500 33.19700
H  45.76100 23.23000 34.41800
H  44.43400 26.68000 33.29900
H  45.36600 27.76000 32.45200
H  44.74300 28.08400 35.14000
H  46.37000 28.58100 34.64200
H  45.31100 19.98300 30.65800
H  44.47800 19.20200 29.40200
H  43.67800 20.44000 30.26000
H  43.93900 18.26400 26.08400
H  43.39000 19.38000 27.48400
H  44.87300 18.30000 27.58700
H  47.23900 23.82600 23.35100
H  49.55900 25.32100 23.79600
H  48.68800 21.94800 23.59200
H  50.03600 22.88900 24.23300
H  49.30800 23.38600 22.75900
H  47.26900 27.22600 23.87600
H  47.03100 25.91000 22.71800
H  48.42700 27.29900 21.29500
H  49.73100 27.15800 22.54000
H  48.37700 28.34100 22.65200
H  49.42400 29.98600 26.38100
H  50.91300 29.38900 27.15300
H  49.76100 30.61800 27.95800
H  47.44200 28.98800 32.08500
H  50.52100 27.98200 34.99200
H  49.35100 29.05500 35.81600
H  50.61400 29.78300 34.81300

