158

Mg 44.33200 4.93900 47.45300
C  42.30300 7.65300 46.50400
C  41.74300 2.84100 46.50400
C  46.57600 2.48400 47.32200
C  47.03200 7.25400 47.14900
N  42.19300 5.26900 46.80000
C  41.63500 6.43100 46.42400
C  40.30700 6.26200 45.75400
C  39.98400 4.73500 46.12100
C  41.39500 4.18800 46.52400
C  38.95800 4.60700 47.31200
C  40.31000 6.52700 44.23700
C  39.47000 7.71000 43.71600
H  40.11900 8.55900 42.60600
N  44.08300 2.86400 47.22800
C  43.01000 2.27100 46.73900
C  43.35900 0.84800 46.51600
C  44.70000 0.68500 46.93500
C  45.23900 2.01500 47.22500
C  42.42200 -0.18800 46.07300
C  45.42600 -0.65700 47.01600
O  44.92700 -1.70900 46.63500
C  46.74800 -0.79400 47.57800
N  46.53000 4.86600 47.16100
C  47.19100 3.73800 47.25300
C  48.66800 3.88100 47.16200
C  48.87500 5.44200 47.18300
C  47.42100 5.92200 47.16300
C  49.48700 3.13900 48.18500
C  49.59000 6.10400 45.92400
C  50.71500 5.31900 45.19300
N  44.60700 7.06800 47.07800
C  45.77700 7.80200 47.11500
C  45.41500 9.17500 47.08300
C  44.03900 9.20800 46.81000
C  43.61000 7.88800 46.83800
C  46.28300 10.40900 47.13700
C  42.91200 9.97900 46.50100
O  42.86200 11.15400 46.13500
C  41.69600 9.00200 46.36700
C  40.82600 9.13500 47.54400
O  40.93900 8.68800 48.67900
O  39.73800 9.89800 47.28200
C  38.71000 10.28100 48.34000
H  40.98100 2.20700 46.04400
H  47.39400 1.80300 47.07600
H  47.86900 7.95300 47.09200
H  39.55000 6.91000 46.19600
H  39.52200 4.08200 45.38000
H  39.36200 4.33700 48.28700
H  38.23700 3.81700 47.10300
H  38.39200 5.53900 47.30200
H  39.98000 5.62700 43.71900
H  41.29900 6.74600 43.83300
H  39.23100 8.36600 44.55200
H  38.53600 7.31000 43.32100
H  41.59000 0.27200 45.54100
H  42.02100 -0.73200 46.92800
H  42.96800 -0.83800 45.38900
H  47.44600 -0.45400 46.81200
H  46.84800 -1.84300 47.85900
H  46.81000 -0.21900 48.50200
H  49.00000 3.48700 46.20200
H  49.43300 5.89300 48.00400
H  50.17700 3.83400 48.66300
H  50.11000 2.35500 47.75400
H  48.87600 2.85100 49.04200
H  50.17000 6.95900 46.27200
H  48.81700 6.46300 45.24400
H  51.60300 5.92000 45.00100
H  50.17900 4.90100 44.34100
H  50.92000 4.51500 45.90000
H  46.29300 10.79900 48.15500
H  45.89600 11.24700 46.55900
H  47.25200 9.99700 46.85500
H  41.13500 9.25600 45.46800
H  37.75900 10.41800 47.82600
H  38.89800 11.23100 48.84000
H  38.65600 9.52700 49.12500
Mg 42.23900 41.51800 27.04700
C  41.19200 43.82300 29.46900
C  43.33400 39.43500 29.55500
C  43.42100 39.48200 24.72700
C  41.76100 44.00400 24.66600
N  42.19900 41.69000 29.31900
C  41.71100 42.66300 30.09500
C  41.89700 42.30300 31.57600
C  42.80400 40.99000 31.53500
C  42.73000 40.58100 30.01800
C  44.32000 40.99600 31.96400
C  40.48100 42.17400 32.17400
C  40.27200 42.95700 33.52300
H  39.70000 42.23400 34.70600
N  43.11400 39.65800 27.12700
C  43.45000 38.94300 28.20200
C  43.87200 37.65100 27.82000
C  44.01200 37.67600 26.39600
C  43.56500 39.03500 26.00300
C  44.29000 36.57400 28.74800
C  44.55700 36.54800 25.36600
O  44.57900 36.71000 24.10700
C  44.93200 35.24900 25.86000
N  42.48600 41.64400 25.06600
C  42.88900 40.66300 24.30000
C  42.70600 40.89600 22.78000
C  42.31900 42.42800 22.71300
C  42.12500 42.72400 24.27100
C  43.84100 40.53400 21.73000
C  41.13800 42.79000 21.73200
C  39.80400 43.04700 22.35500
N  41.53900 43.53000 27.00100
C  41.47700 44.47900 25.98700
C  40.83400 45.65100 26.42100
C  40.70400 45.46200 27.78700
C  41.23600 44.18500 28.10500
C  40.29200 46.76000 25.56700
C  40.31600 46.04300 29.08200
O  39.81000 47.16300 29.29500
C  40.71200 45.07000 30.22700
C  41.65000 45.72600 31.12100
O  42.72600 46.18100 30.81900
O  41.00300 45.82100 32.33500
C  41.58800 46.66900 33.29000
H  43.71100 38.84700 30.39400
H  43.85600 38.87600 23.93000
H  41.67100 44.79600 23.92000
H  42.56400 43.06200 31.98600
H  42.33600 40.19200 32.11200
H  44.39700 42.01400 32.34600
H  45.05100 40.98400 31.15500
H  44.52700 40.16700 32.64000
H  40.35400 41.11600 32.40500
H  39.73000 42.37500 31.41000
H  39.47200 43.67600 33.34200
H  41.14900 43.48500 33.90000
H  45.37500 36.61200 28.84900
H  43.86800 35.63500 28.39200
H  43.85700 36.66000 29.74400
H  45.31400 34.69700 25.00100
H  43.98500 34.75800 26.08300
H  45.54700 35.20400 26.75900
H  41.81100 40.36600 22.45300
H  43.20600 42.94700 22.35100
H  43.38600 40.33300 20.76000
H  44.15900 39.53500 22.02900
H  44.65500 41.24400 21.58500
H  40.92600 42.02600 20.98400
H  41.42300 43.69400 21.19400
H  39.56600 42.48200 23.25600
H  39.05800 42.84800 21.58500
H  39.60600 44.10800 22.50200
H  40.02600 46.43800 24.56100
H  41.03500 47.55600 25.51500
H  39.41100 47.15900 26.06900
H  39.74600 45.07600 30.73300
H  42.00200 46.05800 34.09200
H  40.74000 47.21200 33.70700
H  42.29500 47.42600 32.95200

