158

Mg 54.33000 23.29000 45.12400
C  51.97800 25.33400 43.72800
C  52.49200 20.54800 44.27100
C  57.21200 21.25300 45.18300
C  56.39000 26.07300 45.45700
N  52.41600 23.01900 44.11600
C  51.56300 23.96400 43.70200
C  50.28600 23.30900 43.10700
C  50.34300 21.90400 43.79800
C  51.83700 21.75800 44.02800
C  49.54100 21.87500 45.19600
C  50.28100 23.32500 41.54600
C  49.03100 23.76900 40.87900
H  48.82700 23.60600 39.41700
N  54.77400 21.13400 44.83900
C  53.82000 20.21300 44.48200
C  54.44900 18.92000 44.57400
C  55.82100 19.11300 44.78300
C  55.97900 20.54300 44.96000
C  53.64200 17.56300 44.39500
C  56.83200 17.93900 44.77400
O  56.39400 16.76700 44.56600
C  58.29400 18.10900 44.86800
N  56.41700 23.61300 45.29500
C  57.39400 22.65500 45.39300
C  58.77200 23.28100 45.83600
C  58.50500 24.79700 45.76500
C  57.00800 24.83000 45.52100
C  59.23200 22.66800 47.23900
C  59.26200 25.57400 44.66200
C  60.05500 26.83500 45.01800
N  54.07800 25.36000 45.01700
C  55.02800 26.31000 45.17600
C  54.42600 27.58900 45.02900
C  53.26100 27.32900 44.34700
C  53.15300 25.88100 44.33600
C  54.93800 28.81300 45.56900
C  52.08100 27.81200 43.69900
O  51.71200 29.00200 43.59100
C  51.16700 26.57000 43.23100
C  51.01800 26.68300 41.82600
O  51.84200 26.43500 40.97100
O  49.71900 27.12700 41.57700
C  49.42600 27.29000 40.13200
H  51.77800 19.72200 44.25500
H  58.10500 20.63500 45.29400
H  57.01200 26.96900 45.50000
H  49.48100 23.87700 43.57300
H  49.91800 21.18400 43.09900
H  50.05800 21.35100 46.00000
H  48.58600 21.37100 45.05200
H  49.29300 22.86800 45.57100
H  50.36900 22.28300 41.23700
H  51.14200 23.83200 41.11200
H  48.89300 24.81300 41.15800
H  48.18600 23.22500 41.30300
H  52.57700 17.77000 44.49100
H  53.87600 16.80600 45.14500
H  53.85300 17.13800 43.41400
H  58.63600 18.53800 45.81000
H  58.62000 18.65400 43.98300
H  58.80800 17.15300 44.76300
H  59.48400 23.00600 45.05800
H  58.77600 25.23400 46.72600
H  58.61700 21.80900 47.50700
H  59.21700 23.38600 48.05900
H  60.25500 22.30900 47.12500
H  58.57900 25.87000 43.86500
H  59.95000 24.86100 44.20700
H  61.12100 26.61300 44.98300
H  59.94400 27.21900 46.03200
H  59.73400 27.64700 44.36500
H  54.83100 28.80800 46.65400
H  54.36200 29.67800 45.24100
H  55.99000 28.95900 45.32500
H  50.24300 26.74200 43.78400
H  48.48000 27.82200 40.03100
H  49.45000 26.36800 39.55200
H  50.15400 27.91500 39.61600
Mg -2.32800 34.91100 25.62000
C  -3.69900 33.12200 28.24800
C  -0.85600 37.11900 27.99400
C  -1.77000 37.13400 23.32900
C  -4.35300 33.07500 23.47900
N  -2.25900 35.17000 27.88100
C  -2.79400 34.11800 28.68100
C  -2.47100 34.41000 30.21000
C  -1.50000 35.64500 30.13700
C  -1.54900 36.08000 28.59600
C  -1.71200 36.79100 31.11800
C  -1.80300 33.12000 30.87700
C  -2.34700 32.68100 32.23300
H  -1.52000 32.84800 33.52400
N  -1.32900 36.72800 25.63700
C  -0.71200 37.44300 26.66200
C  0.06200 38.49800 26.13200
C  -0.05300 38.45900 24.72200
C  -1.10700 37.47100 24.49700
C  0.84100 39.45100 27.05900
C  0.61100 39.35500 23.68400
O  0.22600 39.45200 22.51500
C  1.80600 40.20600 24.13700
N  -2.92700 35.05000 23.70700
C  -2.61300 36.09000 22.94000
C  -3.21500 36.07400 21.50100
C  -3.75800 34.60300 21.45800
C  -3.60600 34.17900 22.93500
C  -4.30300 37.12500 21.30200
C  -3.02400 33.75100 20.42600
C  -1.61700 33.26000 20.79500
N  -3.72700 33.38600 25.76500
C  -4.40400 32.67400 24.79300
C  -5.22400 31.63800 25.41900
C  -4.96300 31.74500 26.80900
C  -4.08400 32.85100 26.96900
C  -6.19300 30.71300 24.74400
C  -5.33600 31.21000 28.10400
O  -6.07700 30.29600 28.45800
C  -4.52500 32.14900 29.08000
C  -5.49300 32.82800 29.91400
O  -6.17300 33.82300 29.65500
O  -5.51100 32.03200 31.06500
C  -6.27500 32.56000 32.23700
H  -0.32400 37.66000 28.77900
H  -1.66600 37.89900 22.55600
H  -5.13400 32.62800 22.86100
H  -3.39500 34.79100 30.64600
H  -0.49900 35.27700 30.35900
H  -2.36000 36.43300 31.91800
H  -2.02200 37.66600 30.54700
H  -0.73200 37.12700 31.45700
H  -0.74000 33.29500 31.03900
H  -1.72100 32.24100 30.23800
H  -2.61100 31.62500 32.16300
H  -3.24600 33.23100 32.51200
H  0.67600 40.46900 26.70600
H  1.88400 39.14700 27.15500
H  0.36400 39.38900 28.03700
H  1.44800 41.13700 24.57700
H  2.28900 40.51700 23.21000
H  2.48600 39.66300 24.79300
H  -2.48800 36.36200 20.74200
H  -4.80200 34.53700 21.15200
H  -4.60600 37.61300 22.22800
H  -5.01100 36.66000 20.61600
H  -3.84300 37.87500 20.65900
H  -2.88000 34.41700 19.57500
H  -3.67900 32.92900 20.13700
H  -1.24300 33.53300 21.78100
H  -0.94200 33.81700 20.14400
H  -1.49100 32.18400 20.67200
H  -6.08100 29.74400 25.23100
H  -5.99100 30.56400 23.68400
H  -7.18600 31.09600 24.97800
H  -3.84300 31.42900 29.53300
H  -6.58400 33.57400 31.98300
H  -5.87200 32.46600 33.24500
H  -7.20400 31.98900 32.22500

