158

Mg 51.15200 44.78900 42.27000
C  47.92100 45.17800 40.86100
C  51.01400 41.37800 41.21900
C  54.31800 44.57000 42.80500
C  51.40300 48.35900 42.47500
N  49.57100 43.44500 41.16600
C  48.36300 43.85200 40.67500
C  47.60300 42.68800 40.03400
C  48.61200 41.43900 40.19300
C  49.80600 42.10600 40.94100
C  48.07800 40.08000 40.92600
C  47.29000 42.93000 38.50700
C  45.81400 42.77000 38.10700
H  45.55000 41.92200 36.81200
N  52.53400 43.17700 42.10800
C  52.26400 41.86600 41.63200
C  53.56900 41.18700 41.62300
C  54.57000 42.02500 42.18800
C  53.81800 43.32500 42.45500
C  53.56900 39.80800 41.02900
C  56.02800 41.72700 42.28500
O  56.43200 40.61100 42.01000
C  56.96100 42.71200 42.95500
N  52.59900 46.32400 42.65000
C  53.91000 45.89400 42.75700
C  54.81000 47.14900 43.15000
C  53.88200 48.33900 42.80200
C  52.55000 47.65300 42.65500
C  55.41900 47.21000 44.59400
C  54.34600 49.11500 41.48100
C  54.73400 50.56800 41.53100
N  49.97500 46.41800 41.90700
C  50.17500 47.76800 42.10700
C  48.95700 48.45500 41.69200
C  48.07100 47.47800 41.17300
C  48.71200 46.25000 41.35700
C  48.75800 49.83800 41.64000
C  46.76200 47.30800 40.66300
O  45.91600 48.14800 40.39800
C  46.53500 45.80600 40.40900
C  45.29100 45.29500 41.17000
O  44.58300 44.35200 40.88900
O  45.05300 46.00500 42.27000
C  43.87200 45.64200 43.09600
H  50.81900 40.37800 40.82700
H  55.39500 44.68900 42.94500
H  51.56100 49.43300 42.35500
H  46.68100 42.56900 40.60400
H  49.01300 41.07800 39.24600
H  48.56500 40.05900 41.90100
H  48.29100 39.16700 40.37000
H  47.04400 40.18800 41.25400
H  48.00500 42.46100 37.83100
H  47.46900 43.97000 38.23500
H  45.49000 43.76900 37.81500
H  45.19600 42.32600 38.88800
H  54.51200 39.78500 40.48300
H  52.77100 39.61100 40.31300
H  53.62600 39.03500 41.79500
H  56.52400 42.97900 43.91800
H  57.02600 43.57100 42.28700
H  58.01500 42.43800 42.96700
H  55.66400 47.08200 42.47600
H  53.86800 49.00500 43.66500
H  54.98300 46.45700 45.25000
H  55.27100 48.19400 45.04000
H  56.49500 47.07200 44.48900
H  53.54500 49.11000 40.74200
H  55.20900 48.69400 40.96500
H  54.03500 51.10700 42.17000
H  54.57700 51.07900 40.58100
H  55.74100 50.75500 41.90300
H  49.26300 50.29800 42.49000
H  47.67700 49.97300 41.66300
H  49.17500 50.27800 40.73400
H  46.39000 45.66200 39.33900
H  44.03000 44.77500 43.73800
H  42.94300 45.58500 42.53000
H  43.80600 46.55900 43.68100
Mg 0.78500 42.57200 26.62900
C  2.72800 42.87200 29.60900
C  -1.76200 41.42400 28.68900
C  -0.81500 41.57500 23.89600
C  3.51000 43.58800 24.80800
N  0.55400 42.31700 28.88500
C  1.40500 42.54500 29.91800
C  0.83600 42.34300 31.34000
C  -0.51600 41.62700 30.94600
C  -0.59900 41.79800 29.43400
C  -0.68400 40.09500 31.48400
C  0.57300 43.66700 32.14400
C  1.01800 43.73700 33.62400
H  0.64400 42.52200 34.48600
N  -0.98800 41.71000 26.27500
C  -1.97700 41.37800 27.27300
C  -3.12100 40.87000 26.63400
C  -2.86700 40.87000 25.22300
C  -1.46200 41.33300 25.06200
C  -4.27100 40.39800 27.46500
C  -3.85800 40.47700 24.09100
O  -3.56800 40.39800 22.88300
C  -5.24600 40.19000 24.44300
N  1.32500 42.57700 24.65700
C  0.50100 42.11900 23.70100
C  1.20400 42.25500 22.27900
C  2.46500 43.08000 22.57900
C  2.43800 43.16600 24.03000
C  1.54600 40.92400 21.59000
C  2.49700 44.56300 21.98600
C  1.46200 45.57800 22.47300
N  2.74400 43.14400 27.10100
C  3.71400 43.49600 26.23100
C  4.93000 43.76400 26.98900
C  4.61100 43.51300 28.36900
C  3.30500 43.13700 28.32100
C  6.21400 44.14600 26.31800
C  5.10800 43.43400 29.67200
O  6.27300 43.53900 30.06700
C  3.83500 43.11900 30.57900
C  4.22200 41.84400 31.22900
O  4.59300 40.88100 30.60500
O  4.02200 41.89500 32.62300
C  4.24800 40.65900 33.42500
H  -2.68600 41.24900 29.24300
H  -1.25700 41.32200 22.93000
H  4.33700 44.05200 24.26700
H  1.48900 41.76600 31.99400
H  -1.34400 42.17400 31.39600
H  -1.02300 39.35900 30.75500
H  -1.24900 39.98600 32.40900
H  0.31800 39.71500 31.68600
H  -0.44700 44.01900 31.99000
H  1.20100 44.38700 31.61900
H  0.59700 44.55600 34.20700
H  2.10500 43.73300 33.55500
H  -3.98900 39.58100 28.12900
H  -5.19000 40.23700 26.90300
H  -4.56900 41.21400 28.12300
H  -5.85900 39.99200 23.56400
H  -5.73400 41.00700 24.97600
H  -5.35400 39.29300 25.05300
H  0.53500 42.84100 21.64900
H  3.39100 42.51900 22.45400
H  2.08400 40.36200 22.35400
H  2.11700 41.18700 20.70000
H  0.62400 40.43300 21.27800
H  2.46700 44.57000 20.89600
H  3.49200 44.90400 22.27400
H  0.77900 45.96600 21.71700
H  2.06200 46.36000 22.93800
H  0.84200 45.19500 23.28400
H  6.06100 44.50000 25.29900
H  6.78200 43.21800 26.38400
H  6.72200 44.86400 26.96300
H  3.65800 43.86900 31.35000
H  5.20500 40.58900 33.94100
H  4.18800 39.74600 32.83200
H  3.39900 40.55300 34.09900

