158

Mg 17.56300 -1.03200 28.04800
C  16.25500 1.04000 30.54500
C  19.06400 -2.90200 30.50700
C  19.24200 -2.69200 25.66900
C  16.29400 1.22400 25.62100
N  17.66700 -0.87800 30.32300
C  16.91900 -0.04500 31.08200
C  17.01000 -0.43500 32.60200
C  18.16400 -1.52600 32.50100
C  18.28400 -1.85400 31.07100
C  19.52000 -1.10200 33.24000
C  15.58800 -0.88200 33.18800
C  15.39400 -0.58900 34.64700
H  16.47800 -0.03400 35.52800
N  19.00000 -2.58000 28.07000
C  19.37300 -3.28000 29.18100
C  20.31200 -4.31100 28.85200
C  20.46800 -4.23100 27.42500
C  19.57600 -3.09400 26.98200
C  20.94100 -5.15200 29.89400
C  21.38500 -5.07300 26.50100
O  21.36400 -4.85400 25.30400
C  22.23300 -6.15000 27.02900
N  17.84100 -0.65100 25.96100
C  18.43300 -1.62500 25.21300
C  18.35700 -1.24500 23.69200
C  17.37200 -0.02000 23.71400
C  17.13500 0.20200 25.23900
C  19.67700 -0.85500 22.98200
C  16.00800 0.00200 22.90400
C  15.90900 0.88200 21.58600
N  16.37400 0.77400 28.01000
C  15.98400 1.58300 27.00500
C  15.23100 2.65200 27.55500
C  15.35300 2.50400 28.98200
C  16.04200 1.38000 29.17600
C  14.35800 3.63100 26.81200
C  14.97100 3.14300 30.23300
O  14.37900 4.21500 30.46000
C  15.46800 2.17500 31.28400
C  16.35000 2.93000 32.10200
O  17.56400 2.76100 32.18700
O  15.62300 3.66200 33.06800
C  16.30700 4.48900 34.07000
H  19.47700 -3.56700 31.26800
H  19.76400 -3.23700 24.88000
H  15.90400 1.90500 24.86100
H  17.37800 0.47600 33.07400
H  17.70000 -2.38600 32.98400
H  19.44700 -0.04200 33.48600
H  20.39800 -1.27200 32.61600
H  19.51800 -1.57300 34.22200
H  15.51800 -1.94900 32.97900
H  14.75000 -0.42500 32.66200
H  14.92000 -1.45600 35.10600
H  14.73100 0.27600 34.64300
H  20.19300 -5.57600 30.56400
H  21.59700 -4.56000 30.53300
H  21.44000 -6.02200 29.46700
H  22.77300 -5.84700 27.92600
H  23.01300 -6.40700 26.31200
H  21.61200 -7.03700 27.15100
H  17.96100 -2.07500 23.10700
H  17.91900 0.90700 23.54400
H  19.59500 0.12200 22.50600
H  19.76600 -1.48700 22.09900
H  20.52000 -0.91100 23.67200
H  15.16400 0.24000 23.55200
H  15.95100 -1.04100 22.59200
H  15.22600 1.73000 21.53300
H  15.72000 0.19200 20.76400
H  16.89000 1.31400 21.38700
H  13.32300 3.35000 27.01100
H  14.57000 3.52800 25.74700
H  14.65100 4.61900 27.16500
H  14.55800 1.88100 31.80800
H  16.03100 5.54000 33.98400
H  17.38800 4.35500 34.11500
H  15.89600 4.22800 35.04600
Mg 25.85300 0.66100 28.83900
C  27.75900 0.50100 31.74700
C  22.97400 1.06800 30.81200
C  24.08000 0.82100 26.03500
C  28.65000 -0.36600 27.06600
N  25.46300 0.52300 31.00300
C  26.38900 0.58400 32.04800
C  25.72300 0.92700 33.39600
C  24.17000 0.82000 33.09100
C  24.18100 0.76200 31.49500
C  23.43300 -0.35900 33.74500
C  26.11300 2.20300 34.04300
C  26.55500 2.17800 35.52600
H  26.05600 3.31200 36.45600
N  23.84100 0.85500 28.41600
C  22.84000 1.12100 29.36000
C  21.59500 1.30800 28.64800
C  21.84700 1.33400 27.27100
C  23.23500 0.99500 27.21300
C  20.25000 1.34800 29.38300
C  20.87400 1.65200 26.15900
O  21.08300 1.37200 24.95600
C  19.62400 2.38500 26.47400
N  26.26400 0.10100 26.85900
C  25.39600 0.44300 25.86300
C  26.10100 0.25500 24.48100
C  27.57300 0.11800 24.87800
C  27.48600 -0.05000 26.36600
C  25.55400 -0.81700 23.41900
C  28.42700 1.29400 24.34000
C  29.07600 0.95200 23.02800
N  27.79300 0.12000 29.25000
C  28.83900 -0.25500 28.42400
C  30.05600 -0.44900 29.11000
C  29.65200 -0.09300 30.47000
C  28.28700 0.24300 30.47900
C  31.35000 -0.95400 28.59100
C  30.13400 0.05100 31.80900
O  31.26600 -0.18700 32.32600
C  28.92700 0.52600 32.70200
C  28.82600 -0.49500 33.81600
O  28.54100 -1.68600 33.65300
O  29.20900 0.08800 35.04400
C  29.16200 -0.92200 36.16100
H  22.16400 1.36300 31.48300
H  23.61600 0.95100 25.05500
H  29.62000 -0.49900 26.58200
H  25.89200 0.05700 34.03200
H  23.65200 1.70400 33.46200
H  24.13300 -1.17200 33.93700
H  22.67700 -0.71100 33.04300
H  22.89300 -0.03600 34.63500
H  25.24100 2.85400 33.97300
H  26.90500 2.61000 33.41400
H  27.61500 2.42300 35.47200
H  26.39900 1.26200 36.09600
H  19.98600 2.39400 29.53600
H  20.27500 0.75300 30.29600
H  19.49000 0.93400 28.71900
H  19.84500 3.19900 27.16400
H  18.80800 1.72700 26.77300
H  19.24500 2.92000 25.60300
H  26.08000 1.15900 23.87300
H  27.87900 -0.79000 24.36000
H  24.66500 -1.20500 23.91500
H  26.13800 -1.68300 23.10800
H  25.14500 -0.44500 22.47900
H  29.29000 1.46100 24.98600
H  27.92900 2.23100 24.09100
H  29.12400 1.88700 22.47000
H  28.55600 0.22600 22.40300
H  30.12100 0.73000 23.24300
H  31.83500 -0.24300 27.92200
H  31.19000 -1.89100 28.05700
H  32.03400 -1.13900 29.42000
H  29.04200 1.51900 33.13600
H  28.19000 -1.14900 36.59900
H  29.83500 -0.57900 36.94600
H  29.61700 -1.84100 35.79100

