158

Mg 8.18000 3.63900 27.31600
C  9.43600 1.98900 30.20600
C  6.50100 5.79700 29.48600
C  6.74400 4.84700 24.59200
C  9.67900 1.06400 25.31600
N  7.94000 3.76300 29.58800
C  8.62900 3.09900 30.51800
C  8.43100 3.73600 31.89900
C  7.41600 4.90200 31.62600
C  7.27800 4.79400 30.10500
C  5.99500 4.72200 32.24500
C  9.81500 4.25500 32.56200
C  10.11700 3.71100 33.93300
H  10.54200 4.67000 35.08400
N  6.91100 5.15000 27.05200
C  6.38200 5.95400 28.04000
C  5.48900 6.89000 27.42800
C  5.52600 6.58500 26.01800
C  6.38400 5.48400 25.79300
C  4.63900 7.75800 28.26500
C  4.75100 7.29900 24.89900
O  4.83100 7.03300 23.71100
C  3.82100 8.45100 25.23200
N  8.15000 3.08700 25.23500
C  7.46600 3.72900 24.29800
C  7.71100 3.19500 22.87800
C  8.65000 1.97400 23.16700
C  8.88600 2.04400 24.65200
C  6.45200 2.83800 22.04800
C  9.91300 1.95200 22.18000
C  9.64900 1.39800 20.77800
N  9.33000 1.90400 27.64300
C  9.83400 0.97700 26.78200
C  10.61000 -0.04800 27.53700
C  10.52800 0.33300 28.84300
C  9.79900 1.57100 28.89700
C  11.09900 -1.32300 27.05700
C  10.93600 -0.02100 30.16000
O  11.49900 -0.97100 30.62100
C  10.34200 1.08600 31.09600
C  9.55600 0.41400 32.14300
O  8.40700 -0.01600 31.99900
O  10.09100 0.52900 33.35900
C  9.41100 0.06200 34.57600
H  5.88200 6.43800 30.11700
H  6.14900 5.07200 23.70400
H  10.00000 0.25500 24.65600
H  7.99900 3.01400 32.59200
H  7.77700 5.90800 31.83800
H  5.23000 4.34400 31.56600
H  5.69900 5.74200 32.48900
H  6.00600 4.04300 33.09800
H  9.90400 5.34000 32.51600
H  10.56500 3.92500 31.84300
H  10.94300 3.01000 33.81300
H  9.34900 3.08000 34.38100
H  5.07700 7.96700 29.24200
H  3.63700 7.33600 28.34200
H  4.45600 8.69800 27.74500
H  3.04400 8.20700 25.95700
H  3.29400 8.72700 24.31900
H  4.38300 9.32100 25.57100
H  8.37300 3.96500 22.48000
H  8.05000 1.08900 22.95900
H  5.51900 2.96800 22.59600
H  6.44900 1.79500 21.72900
H  6.35000 3.53100 21.21400
H  10.68200 1.37100 22.68800
H  10.16100 3.00000 22.00900
H  10.32700 0.57400 20.55500
H  9.76900 2.18400 20.03200
H  8.64300 0.99400 20.67100
H  11.04400 -1.61100 26.00700
H  10.79400 -2.20800 27.61500
H  12.18100 -1.38700 27.17200
H  11.19800 1.56600 31.57000
H  8.99800 0.89900 35.14000
H  10.07800 -0.49500 35.23500
H  8.61200 -0.66700 34.43900
Mg 9.72700 48.37600 25.63700
C  7.93000 48.62600 28.64500
C  12.50000 49.52300 27.21500
C  11.27900 48.30200 22.72400
C  6.60500 47.49900 23.94800
N  10.09700 49.03900 27.62000
C  9.28300 48.96500 28.72600
C  10.06600 49.29000 29.89300
C  11.31900 50.03400 29.37300
C  11.28900 49.53500 27.96900
C  11.17700 51.56900 29.46900
C  10.31300 48.17600 30.90700
C  9.72200 48.47200 32.24600
H  9.79000 47.29700 33.22300
N  11.71300 48.70300 25.09200
C  12.72600 49.07700 25.88200
C  13.96900 49.11000 25.15800
C  13.60000 48.88000 23.76400
C  12.14900 48.62500 23.80300
C  15.30500 49.26300 25.93400
C  14.45900 48.87600 22.59200
O  14.02900 48.59600 21.43700
C  15.94200 49.04600 22.79600
N  8.97200 48.01400 23.66400
C  9.91200 48.00900 22.59100
C  9.15900 47.80900 21.22200
C  7.84700 47.14100 21.80100
C  7.78000 47.63900 23.18400
C  8.82000 49.02600 20.34400
C  7.85500 45.56400 21.76600
C  8.93800 44.85100 22.61800
N  7.67300 48.21600 26.11200
C  6.52800 47.80000 25.35600
C  5.33900 47.87600 26.20200
C  5.84600 48.15400 27.50800
C  7.29200 48.33700 27.40200
C  3.86500 47.69700 25.81900
C  5.49100 48.29100 28.93400
O  4.48300 48.08600 29.56000
C  6.82500 48.66700 29.68100
C  7.06300 47.57300 30.68400
O  7.49700 46.47900 30.49000
O  6.60300 47.95200 31.92200
C  6.48700 46.90200 32.99200
H  13.35200 49.88100 27.79700
H  11.68800 48.40400 21.71700
H  5.69900 47.08600 23.49900
H  9.42500 50.02500 30.37800
H  12.21200 49.94900 29.99100
H  10.44700 51.97800 30.16700
H  11.02600 51.97200 28.46800
H  12.14500 52.03600 29.65100
H  11.37400 48.09400 31.14200
H  9.97800 47.18400 30.60400
H  8.82500 49.09100 32.22200
H  10.40400 49.21400 32.66100
H  15.88700 48.37500 25.68800
H  15.17200 49.40600 27.00600
H  15.82300 50.16000 25.59400
H  16.55700 48.78400 21.93600
H  16.22500 48.32900 23.56700
H  16.15300 50.06400 23.12400
H  9.80800 47.14800 20.64700
H  7.01000 47.56900 21.24900
H  9.44500 49.87500 20.62100
H  7.79700 49.38600 20.46100
H  9.06600 48.87800 19.29300
H  8.12400 45.34800 20.73200
H  6.86700 45.17200 22.00700
H  9.55900 45.56700 23.15700
H  9.52100 44.20000 21.96800
H  8.50100 44.20800 23.38200
H  3.56900 48.10100 24.85000
H  3.30000 48.25000 26.56900
H  3.54800 46.66200 25.94500
H  6.74300 49.62500 30.19400
H  7.03700 47.15100 33.89900
H  6.69200 45.90500 32.60300
H  5.43400 47.02400 33.24700

