158

Mg 24.01100 -4.74300 45.77100
C  26.32600 -2.56000 44.39500
C  21.72300 -3.69100 43.46000
C  22.18900 -7.50300 46.39400
C  26.71600 -6.15300 47.77800
N  24.03900 -3.37200 44.00800
C  25.08300 -2.48500 43.75300
C  24.75100 -1.55300 42.60300
C  23.16100 -1.67700 42.58400
C  22.92200 -2.93900 43.42700
C  22.42500 -0.43000 42.99500
C  25.42900 -1.94600 41.23500
C  25.69100 -0.90300 40.17400
H  25.20100 -1.15700 38.74300
N  22.09700 -5.41900 45.15900
C  21.33100 -4.90300 44.18500
C  20.11900 -5.59600 44.07500
C  20.18500 -6.70100 44.99000
C  21.51700 -6.57000 45.56600
C  18.91200 -5.27600 43.14600
C  19.10100 -7.74000 45.32700
O  18.06600 -7.65900 44.70700
C  19.22900 -8.70700 46.33300
N  24.37200 -6.56900 46.88000
C  23.46400 -7.55700 46.90800
C  23.85300 -8.75500 47.81700
C  25.28800 -8.24600 48.23300
C  25.41300 -6.84000 47.66200
C  22.87900 -9.17900 48.94800
C  26.41200 -9.24700 47.91100
C  27.17000 -10.02200 48.99000
N  26.12700 -4.43700 46.08800
C  27.00000 -5.00800 46.94400
C  28.29600 -4.40100 46.73800
C  28.04200 -3.37000 45.85500
C  26.71200 -3.48700 45.39100
C  29.57900 -4.63800 47.47100
C  28.58700 -2.20500 45.19400
O  29.65900 -1.64000 45.27400
C  27.52700 -1.68300 44.23400
C  27.33100 -0.23400 44.34100
O  26.86700 0.37400 45.28600
O  27.76300 0.35400 43.16700
C  27.23600 1.72300 43.00700
H  20.91500 -3.31400 42.83000
H  21.70400 -8.42000 46.73300
H  27.54900 -6.58900 48.33300
H  25.08700 -0.53400 42.79500
H  22.92100 -1.91200 41.54700
H  22.85300 -0.13700 43.95400
H  21.38300 -0.68700 43.18200
H  22.63200 0.26500 42.18100
H  24.73900 -2.57200 40.66900
H  26.27400 -2.62600 41.34400
H  26.78000 -0.91000 40.15700
H  25.47400 0.13200 40.44000
H  18.88800 -6.11600 42.45100
H  19.01800 -4.32700 42.62200
H  18.04100 -5.18000 43.79500
H  19.53100 -8.15000 47.22000
H  19.93700 -9.50900 46.12400
H  18.27400 -9.16500 46.58900
H  23.90900 -9.57400 47.10000
H  25.29100 -8.12200 49.31600
H  22.56200 -10.18600 48.67600
H  21.96100 -8.59300 48.93300
H  23.35200 -9.25600 49.92700
H  27.17700 -8.69800 47.36100
H  26.15100 -9.98300 47.15000
H  28.20100 -9.75900 48.75300
H  26.92100 -11.06700 48.80300
H  26.96900 -9.69400 50.01000
H  29.67900 -5.63200 47.90700
H  29.69700 -3.90900 48.27200
H  30.47300 -4.54400 46.85500
H  27.99900 -1.84500 43.26500
H  26.26800 1.97000 43.44300
H  27.19000 1.86700 41.92800
H  27.93800 2.48100 43.35300
Mg 0.45700 43.28300 25.43700
C  2.23000 43.05900 28.28600
C  -2.46300 42.52500 27.23200
C  -1.16400 42.26400 22.59900
C  3.33100 43.87100 23.54000
N  -0.06600 42.81000 27.56100
C  0.82800 42.91800 28.59700
C  0.21800 42.83300 30.00900
C  -1.29800 42.72300 29.54100
C  -1.28800 42.61400 28.03800
C  -2.13800 41.56300 30.27800
C  0.51900 44.02800 31.07700
C  0.92200 43.74100 32.46600
H  0.61300 42.30600 33.16400
N  -1.47200 42.57900 24.92500
C  -2.49800 42.51800 25.83300
C  -3.75000 42.43600 25.08500
C  -3.39300 42.20700 23.73600
C  -1.96000 42.35100 23.73400
C  -5.08200 42.63300 25.81800
C  -4.32100 41.98200 22.42900
O  -3.92100 42.11800 21.29700
C  -5.72700 41.74900 22.66700
N  1.05000 42.99500 23.31600
C  0.15800 42.57600 22.40200
C  0.83700 42.64400 20.98400
C  2.13600 43.50900 21.31300
C  2.18000 43.46100 22.83900
C  1.14800 41.31700 20.29200
C  2.19800 44.99400 20.75700
C  2.26000 46.12300 21.76100
N  2.46900 43.41900 25.80200
C  3.51800 43.70300 24.93500
C  4.70100 43.83100 25.77300
C  4.26200 43.61800 27.08200
C  2.85100 43.30200 27.05800
C  6.10000 44.19300 25.35000
C  4.67300 43.51300 28.45700
O  5.79000 43.62500 28.95100
C  3.43900 43.09800 29.28900
C  3.73300 41.89300 30.14700
O  3.38100 40.75300 29.88200
O  4.37700 42.30500 31.33100
C  4.83400 41.19700 32.18900
H  -3.35700 42.47400 27.85700
H  -1.69900 41.78100 21.77800
H  4.23100 44.26800 23.06600
H  0.60100 41.93900 30.50100
H  -1.81200 43.64200 29.82300
H  -2.84600 42.08700 30.92000
H  -1.48800 40.88200 30.82800
H  -2.74600 41.09900 29.50200
H  -0.41000 44.58500 31.20100
H  1.23500 44.72300 30.63800
H  0.37900 44.30800 33.22100
H  1.97500 44.00300 32.57500
H  -5.83400 43.09000 25.17500
H  -4.99500 43.32000 26.66000
H  -5.56300 41.78500 26.30500
H  -5.85200 41.03300 23.48000
H  -6.22900 41.42700 21.75500
H  -6.26200 42.69200 22.77200
H  0.09800 43.20200 20.40900
H  3.05100 42.98000 21.04900
H  1.24500 40.60500 21.11200
H  2.13500 41.32000 19.83100
H  0.39900 41.11100 19.52800
H  1.45000 45.31600 20.03200
H  3.16000 44.93000 20.24700
H  1.28600 46.14400 22.25000
H  2.38000 47.14800 21.41200
H  2.93600 46.04700 22.61200
H  6.32500 45.11800 25.88100
H  6.24400 44.21700 24.27000
H  6.85500 43.50500 25.73000
H  3.48000 43.90200 30.02500
H  5.54400 40.63700 31.58200
H  3.93800 40.67100 32.51800
H  5.28200 41.73000 33.02800

