158

Mg 26.35000 49.91700 26.10200
C  24.60200 51.53300 28.59500
C  28.93800 49.38800 28.45600
C  28.60300 49.15100 23.63200
C  24.10500 51.18500 23.76400
N  26.70600 50.39400 28.25100
C  25.77900 50.98300 29.08300
C  26.26200 50.88800 30.53800
C  27.75300 50.43100 30.44700
C  27.86900 50.01900 28.96400
C  28.76700 51.55500 30.88000
C  25.29500 49.90900 31.33100
C  25.05100 50.03500 32.86900
H  25.98600 50.90600 33.75100
N  28.40800 49.13500 26.03900
C  29.21600 49.00700 27.12600
C  30.47100 48.39600 26.66400
C  30.49300 48.43900 25.25000
C  29.10300 48.95900 24.92500
C  31.45900 47.66800 27.56900
C  31.59100 48.00000 24.22400
O  31.36400 48.00800 23.02800
C  33.00600 47.60900 24.70400
N  26.40000 50.16300 23.99600
C  27.40600 49.71900 23.14400
C  27.05200 49.82900 21.64200
C  25.62300 50.56200 21.74000
C  25.35600 50.58500 23.27100
C  28.14200 50.62000 20.88200
C  24.50400 49.91100 20.92500
C  24.00200 50.56600 19.60700
N  24.63200 51.11700 26.13900
C  23.82700 51.54900 25.11800
C  22.72900 52.23000 25.64200
C  22.95400 52.24200 27.02800
C  24.19700 51.66900 27.25400
C  21.63200 52.86200 24.93400
C  22.41700 52.69800 28.31300
O  21.42900 53.29400 28.62400
C  23.41600 52.08800 29.42500
C  23.78500 53.24900 30.25000
O  24.58900 54.11800 29.94500
O  23.06700 53.15600 31.49400
C  23.50100 53.90800 32.67200
H  29.70800 49.18000 29.20200
H  29.35000 49.01300 22.84800
H  23.42700 51.45600 22.95300
H  26.17200 51.85700 31.02900
H  27.82700 49.54600 31.07700
H  29.35400 51.82900 30.00400
H  29.55600 51.06600 31.45200
H  28.32200 52.41000 31.38900
H  25.56900 48.89600 31.03700
H  24.28600 50.08900 30.95800
H  25.03300 49.07800 33.39000
H  24.09600 50.54400 33.00400
H  32.34400 48.30300 27.55700
H  31.75400 46.73000 27.09800
H  31.05700 47.50000 28.56800
H  33.76000 47.40200 23.94400
H  32.96400 46.74700 25.36900
H  33.23700 48.39600 25.42200
H  26.92600 48.87600 21.12800
H  25.80200 51.59500 21.44200
H  28.74200 49.89300 20.33500
H  28.87300 51.12700 21.51200
H  27.62200 51.41200 20.34400
H  23.62800 49.89200 21.57300
H  24.81100 48.88100 20.74300
H  22.93600 50.35900 19.69900
H  24.39600 50.00700 18.75800
H  24.25800 51.60400 19.39100
H  21.78400 53.94100 24.94400
H  20.73900 52.68800 25.53500
H  21.55200 52.55700 23.89000
H  22.87100 51.36300 30.02900
H  24.28200 53.34300 33.18100
H  22.65000 54.03700 33.34100
H  23.86600 54.91100 32.45000
Mg -11.57800 16.94300 42.56700
C  -8.17400 17.26200 42.60100
C  -11.77000 20.39200 41.92300
C  -14.87000 16.65800 41.95600
C  -11.14200 13.43900 42.35600
N  -10.07800 18.66200 42.32400
C  -8.76000 18.50900 42.43500
C  -8.11300 19.93400 42.23700
C  -9.26500 20.86800 42.27700
C  -10.48400 19.95300 42.21700
C  -9.35900 21.83000 43.49200
C  -7.25000 19.93200 40.96100
C  -5.90100 20.64100 41.10000
H  -5.40400 21.44000 39.88100
N  -13.05200 18.32000 42.18000
C  -12.94000 19.68400 42.02500
C  -14.26300 20.28900 41.82400
C  -15.18000 19.22400 41.87000
C  -14.38100 17.99500 42.05400
C  -14.58800 21.75800 41.78000
C  -16.70500 19.41500 41.85300
O  -17.26200 20.48300 41.63100
C  -17.57400 18.21900 41.95300
N  -12.81700 15.22100 42.20300
C  -14.16900 15.41500 42.08800
C  -14.87800 14.07100 42.13100
C  -13.67000 13.09400 41.95900
C  -12.44800 13.96400 42.22200
C  -16.00400 13.86200 43.29100
C  -13.57700 12.43900 40.50700
C  -13.73500 10.88700 40.48100
N  -10.05700 15.60100 42.56400
C  -10.03600 14.20900 42.50200
C  -8.62100 13.73300 42.70200
C  -7.90900 14.97900 42.73900
C  -8.83300 16.00600 42.66700
C  -8.21000 12.35300 42.62400
C  -6.53100 15.43200 42.87000
O  -5.44500 14.88600 43.02000
C  -6.71000 17.01400 42.95100
C  -6.33800 17.49200 44.35600
O  -6.98900 17.32100 45.38500
O  -5.08100 18.17100 44.27000
C  -4.61800 18.91100 45.44300
H  -11.89500 21.44900 41.67800
H  -15.89900 16.53400 41.61200
H  -10.90700 12.37300 42.37600
H  -7.38500 20.00700 43.04500
H  -9.27500 21.50500 41.39300
H  -9.95500 22.69500 43.20000
H  -8.35300 22.11600 43.79900
H  -9.95600 21.39000 44.29100
H  -7.88500 20.33000 40.17000
H  -6.94100 18.89700 40.81700
H  -5.10800 19.92800 41.32400
H  -5.81500 21.38900 41.88900
H  -15.22200 21.94900 40.91400
H  -13.72900 22.34800 41.46300
H  -14.94700 22.10700 42.74800
H  -18.59400 18.60200 41.93400
H  -17.43800 17.72000 42.91300
H  -17.52700 17.60300 41.05500
H  -15.53800 14.09600 41.26400
H  -13.59200 12.31400 42.71600
H  -16.31700 14.84400 43.64600
H  -15.61900 13.26800 44.12000
H  -16.84600 13.26900 42.93400
H  -12.60700 12.79400 40.16000
H  -14.40700 12.84000 39.92500
H  -14.28700 10.43200 41.30200
H  -12.88500 10.24800 40.23800
H  -14.33900 10.58400 39.62600
H  -8.80100 11.79100 41.90100
H  -8.21700 11.84100 43.58600
H  -7.22900 12.38000 42.15100
H  -5.94700 17.34500 42.24800
H  -5.11400 18.42500 46.28300
H  -4.76000 19.99100 45.46100
H  -3.55300 18.79000 45.64000

