158

Mg 44.96600 3.09200 47.20900
C  42.99900 5.97000 46.77200
C  42.07800 1.14500 46.74300
C  46.99400 0.36900 46.61200
C  47.85000 5.18400 46.72500
N  42.80700 3.53800 46.80000
C  42.27400 4.76900 46.78900
C  40.74500 4.64000 46.39800
C  40.38500 3.09000 46.62400
C  41.83300 2.52200 46.79800
C  39.54000 2.97000 47.94500
C  40.40500 5.17400 44.94400
C  39.21200 6.20800 44.81400
H  38.29500 6.04200 43.68700
N  44.57500 1.08400 46.96500
C  43.34500 0.47200 46.89100
C  43.55300 -0.99600 46.83800
C  44.94800 -1.25200 46.81700
C  45.59700 0.09900 46.87400
C  42.34700 -1.93100 46.76500
C  45.59800 -2.63500 46.65900
O  44.92100 -3.65700 46.86100
C  46.90200 -2.81700 46.24100
N  47.10100 2.81900 46.72400
C  47.67000 1.59400 46.62100
C  49.22000 1.73600 46.38600
C  49.51200 3.25000 46.40200
C  48.06600 3.78800 46.63500
C  50.00000 0.90800 47.38900
C  50.13600 3.80500 45.08000
C  51.04100 4.94800 45.19200
N  45.45900 5.14500 47.04200
C  46.63600 5.86900 46.93500
C  46.35300 7.33700 46.82900
C  44.92000 7.40800 46.77700
C  44.42600 6.05400 46.88000
C  47.29800 8.41400 46.52400
C  43.70900 8.28100 46.60600
O  43.61500 9.49200 46.54500
C  42.46800 7.40500 46.52400
C  41.64300 7.90600 47.68700
O  41.75900 7.49600 48.79500
O  40.84500 8.99600 47.22500
C  40.15600 9.74400 48.33100
H  41.19000 0.52200 46.61700
H  47.74800 -0.39100 46.40000
H  48.77100 5.71100 46.46700
H  40.08700 5.25800 47.00900
H  39.93900 2.66500 45.72600
H  40.15700 2.53200 48.73100
H  38.69200 2.36900 47.61800
H  39.24300 3.95400 48.30900
H  40.10500 4.32600 44.32900
H  41.31900 5.66700 44.61100
H  39.54300 7.24200 44.71800
H  38.63500 6.19200 45.73900
H  42.63100 -2.70600 46.05300
H  41.39300 -1.54700 46.40300
H  42.24400 -2.41700 47.73500
H  47.11600 -2.24500 45.33900
H  47.12500 -3.84400 45.95200
H  47.60500 -2.55700 47.03200
H  49.25400 1.35400 45.36600
H  50.14600 3.47100 47.26100
H  49.35500 0.25500 47.97700
H  50.61800 1.49500 48.06800
H  50.59400 0.15400 46.87200
H  49.36600 4.00200 44.33400
H  50.61200 2.92300 44.65100
H  50.92200 5.37900 46.18600
H  50.62100 5.79600 44.65000
H  52.04500 4.66700 44.87300
H  48.10900 8.48800 47.24900
H  46.73700 9.34800 46.54900
H  47.69100 8.32500 45.51200
H  41.97200 7.45900 45.55400
H  39.24700 9.22500 48.63500
H  39.86500 10.74000 47.99700
H  40.74400 9.84600 49.24300
Mg 41.45500 41.40000 27.28300
C  40.72900 43.84000 29.73600
C  42.48000 39.26000 29.64400
C  42.63700 39.46700 24.76100
C  41.03200 44.13700 24.82500
N  41.58400 41.56000 29.35900
C  41.11200 42.55600 30.18100
C  41.12100 42.17200 31.62900
C  41.75500 40.72600 31.59800
C  42.01700 40.47600 30.14000
C  43.16100 40.66500 32.29300
C  39.64800 42.26600 32.38300
C  39.50900 43.12300 33.63500
H  39.06900 42.50500 34.94200
N  42.36400 39.67500 27.21100
C  42.63200 38.84200 28.29900
C  42.98200 37.51200 27.81800
C  43.06500 37.56400 26.40700
C  42.67100 38.98500 26.08300
C  43.26500 36.34400 28.73200
C  43.51300 36.50700 25.36200
O  43.61500 36.79700 24.16900
C  43.87100 34.98900 25.80700
N  41.84700 41.79300 25.11800
C  42.26700 40.75100 24.34000
C  41.98700 41.06400 22.87300
C  41.22900 42.45400 22.92400
C  41.36400 42.81200 24.39500
C  43.22200 40.99200 21.98300
C  39.75300 42.30100 22.44300
C  38.63800 42.32100 23.45500
N  40.89400 43.46000 27.23700
C  40.82200 44.40800 26.21400
C  40.40100 45.69400 26.69500
C  40.33500 45.51300 28.05200
C  40.70700 44.13800 28.35400
C  40.19900 46.98500 25.91200
C  40.14400 46.19500 29.32100
O  39.83700 47.34700 29.58600
C  40.36800 45.11800 30.42500
C  41.49200 45.60800 31.30000
O  42.60900 45.76200 30.98000
O  41.00300 46.03300 32.55300
C  41.87500 46.98600 33.28000
H  42.68300 38.52200 30.42300
H  42.73200 38.81900 23.88800
H  40.73800 44.86600 24.06700
H  41.83300 42.77000 32.19900
H  41.15300 39.91500 32.00700
H  43.05100 40.38600 33.34100
H  43.52000 41.69100 32.37800
H  43.92400 40.03000 31.84300
H  39.37400 41.23600 32.61000
H  38.94400 42.53000 31.59400
H  38.75600 43.86200 33.36000
H  40.43000 43.69800 33.72900
H  43.14500 36.54100 29.79800
H  44.33300 36.18200 28.58400
H  42.60500 35.53100 28.42700
H  42.96500 34.45000 26.08300
H  44.61100 35.03500 26.60600
H  44.30300 34.44400 24.96700
H  41.33000 40.34300 22.38500
H  41.76200 43.15700 22.28300
H  43.99600 40.63900 22.66300
H  43.47600 41.95900 21.54900
H  42.98300 40.31000 21.16600
H  39.76400 41.39900 21.83000
H  39.68700 43.24100 21.89500
H  37.87100 41.57200 23.25500
H  38.25200 43.34000 23.41400
H  38.92800 42.18900 24.49700
H  40.26100 47.78300 26.65200
H  39.19400 46.80400 25.53200
H  40.91500 47.20300 25.12000
H  39.49000 45.00700 31.06100
H  41.91700 47.94700 32.76700
H  42.83900 46.54200 33.52900
H  41.45300 47.23300 34.25400

