158

Mg 18.04900 -0.82800 27.38400
C  17.09600 1.21000 30.11400
C  20.11800 -2.55500 29.61400
C  19.13500 -2.49100 24.78900
C  16.62700 1.73800 25.20200
N  18.43800 -0.70200 29.58600
C  17.89000 0.12400 30.54500
C  18.43300 -0.20900 32.01100
C  19.55300 -1.26800 31.71400
C  19.40700 -1.53700 30.21500
C  20.95900 -0.73100 32.07600
C  17.19800 -0.77600 32.77700
C  17.05400 -0.44200 34.26100
H  18.17100 0.28000 35.03200
N  19.34100 -2.33800 27.28100
C  20.08400 -3.02000 28.28400
C  20.74200 -4.14600 27.64600
C  20.46100 -4.10000 26.24800
C  19.65800 -2.94500 26.03800
C  21.50600 -5.13500 28.48500
C  20.90800 -5.03700 25.23100
O  20.61400 -4.94900 24.06900
C  21.73600 -6.32700 25.59800
N  17.88600 -0.39900 25.34900
C  18.32900 -1.36000 24.46400
C  17.93300 -0.98300 23.07200
C  17.30700 0.42900 23.18700
C  17.22900 0.61600 24.68200
C  19.17500 -1.05100 22.15500
C  15.97000 0.61300 22.41600
C  14.72600 -0.04200 23.05800
N  16.91000 1.04700 27.63900
C  16.31000 1.85300 26.57800
C  15.47200 2.76100 27.26300
C  15.70200 2.57300 28.63500
C  16.61600 1.49800 28.80100
C  14.65100 3.88000 26.64300
C  15.37100 3.01400 29.98600
O  14.59800 3.87400 30.33100
C  16.31000 2.16200 30.93400
C  17.11500 3.04200 31.78500
O  18.35400 3.12400 31.84100
O  16.37100 3.77600 32.60400
C  16.98600 4.75200 33.54400
H  20.89900 -3.00800 30.22800
H  19.39000 -3.08000 23.90600
H  16.30300 2.42300 24.41500
H  18.66900 0.74200 32.48900
H  19.39900 -2.16500 32.31200
H  21.64200 -0.65500 31.23100
H  21.35100 -1.44800 32.79800
H  20.90100 0.25400 32.53800
H  17.11600 -1.86300 32.76600
H  16.25700 -0.45800 32.32700
H  17.02100 -1.41000 34.75900
H  16.12100 0.06600 34.50500
H  21.19700 -6.18000 28.50500
H  21.55700 -4.94700 29.55800
H  22.53700 -5.26600 28.15300
H  22.56700 -5.97700 26.21000
H  22.15700 -6.68200 24.65700
H  21.09100 -6.99700 26.16500
H  17.10900 -1.65000 22.82000
H  17.98300 1.17000 22.76100
H  19.26000 -0.20900 21.46800
H  19.09100 -1.89500 21.47100
H  20.08600 -1.02200 22.75300
H  16.13100 0.18700 21.42600
H  15.76900 1.67700 22.29200
H  13.93800 0.69200 23.23200
H  14.91200 -0.50700 24.02600
H  14.41600 -0.84600 22.39000
H  14.16000 3.49400 25.74900
H  15.32300 4.69200 26.36600
H  13.88500 4.18200 27.35700
H  15.71700 1.76700 31.75900
H  17.08000 5.69200 33.00100
H  17.90300 4.53100 34.09100
H  16.13100 4.99800 34.17400
Mg 36.13200 2.92800 30.52500
C  33.46400 3.85500 32.57600
C  38.24200 3.33300 33.19900
C  38.75600 2.28400 28.38800
C  34.01500 2.95700 27.68800
N  35.89600 3.72300 32.51100
C  34.67600 3.82300 33.20400
C  34.87700 3.81900 34.70200
C  36.37600 4.20000 34.79000
C  36.91700 3.79300 33.44500
C  36.52700 5.63100 35.10700
C  34.56900 2.40200 35.33000
C  34.09200 2.35200 36.79800
H  34.90500 3.28600 37.77900
N  38.14400 2.50000 30.81600
C  38.82500 2.76000 31.99300
C  40.13000 2.17500 31.75500
C  40.24100 1.81600 30.39400
C  39.02000 2.25100 29.78900
C  41.20500 2.17100 32.76000
C  41.42700 1.00700 29.63000
O  41.39400 0.78000 28.41600
C  42.73200 0.64200 30.33700
N  36.40500 2.82700 28.38700
C  37.56200 2.58800 27.72100
C  37.41500 2.32900 26.23000
C  35.88200 2.35500 26.03800
C  35.37600 2.68000 27.50000
C  38.17600 3.42100 25.44000
C  35.37500 0.95600 25.58700
C  33.96600 1.00700 24.96500
N  34.20200 3.40400 30.16600
C  33.43000 3.20100 28.97700
C  32.03400 3.45700 29.33500
C  32.05400 3.75100 30.72100
C  33.33100 3.62800 31.17700
C  30.83500 3.38400 28.45500
C  31.22400 4.18700 31.86500
O  30.03200 4.39100 31.88000
C  32.11000 4.22000 33.12000
C  32.03200 5.55600 33.80200
O  32.27900 6.66500 33.32500
O  31.73200 5.35900 35.12500
C  31.84500 6.57600 35.90400
H  38.95500 3.30800 34.02600
H  39.58000 1.94500 27.75600
H  33.27800 2.95000 26.88300
H  34.28800 4.59000 35.19800
H  36.95200 3.67200 35.55000
H  36.93900 6.29000 34.34200
H  37.14300 5.74100 36.00000
H  35.56800 6.08900 35.34800
H  35.41500 1.74300 35.13000
H  33.68800 2.01100 34.82100
H  34.23500 1.31700 37.10800
H  33.06800 2.69900 36.93800
H  41.59700 1.16100 32.88300
H  40.77800 2.43500 33.72800
H  42.04400 2.81800 32.50400
H  43.35000 1.54000 30.33700
H  43.35700 -0.02300 29.74000
H  42.73100 0.13700 31.30300
H  37.68500 1.30000 25.99300
H  35.55900 3.15700 25.37400
H  39.19900 3.06000 25.33500
H  38.16200 4.39400 25.93200
H  37.75500 3.33400 24.43900
H  35.37500 0.21400 26.38500
H  35.98400 0.47900 24.81900
H  33.59700 2.02000 24.80200
H  33.13200 0.55200 25.49900
H  33.95500 0.43700 24.03600
H  31.17100 2.75200 27.63200
H  30.45700 4.31900 28.04200
H  30.01400 2.89900 28.98300
H  31.63600 3.47400 33.75800
H  30.90000 7.11000 35.80300
H  32.74300 7.19100 35.84600
H  31.81100 6.22400 36.93500

