158

Mg 44.78200 3.27100 47.38900
C  42.57500 6.02600 47.21000
C  42.07300 1.24200 47.03900
C  46.90100 0.52800 47.38300
C  47.42300 5.39800 47.38400
N  42.59900 3.64900 47.08300
C  41.91000 4.83700 47.03200
C  40.39500 4.68100 46.64900
C  40.30400 3.10800 47.02400
C  41.74100 2.61300 47.04500
C  39.42100 2.78100 48.31600
C  39.97100 5.03000 45.15800
C  39.01800 6.21800 45.03300
H  38.39400 6.34400 43.63600
N  44.51100 1.15300 47.25700
C  43.28700 0.52800 47.10500
C  43.57300 -0.90000 47.00700
C  44.95600 -1.09900 46.87800
C  45.58500 0.22200 47.20500
C  42.47100 -1.90800 46.95500
C  45.60200 -2.45000 46.51200
O  44.89000 -3.42300 46.29100
C  47.16800 -2.62100 46.34400
N  46.85500 2.97700 47.09900
C  47.51500 1.76800 47.40300
C  49.03900 1.98100 47.64200
C  49.16900 3.53900 47.58700
C  47.72200 4.05600 47.34600
C  49.58000 1.31500 48.89300
C  50.13900 4.00700 46.42700
C  51.45800 4.75800 46.81900
N  45.06000 5.32500 47.22700
C  46.15400 6.04400 47.31000
C  45.85100 7.46700 47.31700
C  44.45800 7.48300 47.20900
C  43.97500 6.14300 47.23800
C  46.74600 8.61500 47.34100
C  43.30600 8.36100 47.12700
O  43.27500 9.60100 47.06000
C  42.05500 7.42600 47.05100
C  41.18100 7.72200 48.18800
O  41.53100 7.60500 49.37400
O  39.92600 8.26900 47.82100
C  38.94600 8.61600 48.78700
H  41.15900 0.68200 46.83100
H  47.63800 -0.26900 47.26000
H  48.31500 6.01400 47.51900
H  39.81900 5.26100 47.37100
H  39.87300 2.57700 46.17600
H  39.12600 3.74000 48.74300
H  40.02200 2.27200 49.07000
H  38.56200 2.19800 47.98500
H  39.46200 4.12900 44.81600
H  40.86700 5.00200 44.53800
H  39.47500 7.15300 45.35800
H  38.17900 6.01700 45.69900
H  42.57600 -2.53000 46.06700
H  41.45500 -1.52200 46.87600
H  42.49900 -2.52600 47.85300
H  47.48200 -1.82400 45.67000
H  47.34400 -3.62900 45.96800
H  47.66000 -2.53900 47.31300
H  49.58800 1.50600 46.82900
H  49.52000 3.83300 48.57600
H  48.75100 1.23700 49.59600
H  50.37900 1.95900 49.26200
H  50.02100 0.35000 48.64300
H  49.67700 4.64600 45.67400
H  50.46400 3.16000 45.82300
H  51.44200 5.77100 46.41900
H  52.17800 4.19200 46.22800
H  51.61000 4.66700 47.89400
H  46.95000 8.86400 46.30000
H  47.58400 8.24300 47.93200
H  46.09500 9.39300 47.73900
H  41.48300 7.51200 46.12700
H  39.15600 8.24300 49.78900
H  37.95100 8.36200 48.42200
H  39.00400 9.70200 48.85900
Mg 26.01900 50.75200 27.08300
C  23.62300 51.99400 29.28600
C  28.05600 49.98800 29.54100
C  28.34200 49.93200 24.74300
C  23.96900 52.16000 24.44600
N  25.88400 51.09400 29.18500
C  24.79100 51.40800 29.93600
C  25.01700 51.07300 31.44900
C  26.46300 50.71800 31.46000
C  26.87900 50.61600 29.98400
C  27.36100 51.72400 32.23200
C  24.02800 49.95900 32.02000
C  23.52800 50.29000 33.46700
H  24.40400 51.14800 34.41700
N  27.87100 50.01700 27.10200
C  28.58000 49.73100 28.27500
C  29.76600 49.06000 27.94700
C  29.91300 49.17200 26.50100
C  28.68800 49.75000 26.06200
C  30.70200 48.51800 28.99500
C  31.11000 48.85500 25.61000
O  31.13800 49.19400 24.40200
C  32.47500 48.33900 26.20500
N  26.10900 51.02800 24.89200
C  27.13800 50.45500 24.15200
C  26.80700 50.59000 22.65000
C  25.41600 51.31600 22.61300
C  25.15500 51.55300 24.08200
C  27.90200 51.38100 21.87200
C  24.17400 50.64400 21.94300
C  23.94200 50.98500 20.46400
N  24.18000 51.92400 26.82800
C  23.44200 52.27200 25.74900
C  22.22700 52.92300 26.13600
C  22.23300 52.86600 27.55200
C  23.45600 52.26000 27.93600
C  21.20200 53.45600 25.17300
C  21.45000 53.09700 28.74100
O  20.34300 53.60000 28.82900
C  22.29900 52.52600 29.87300
C  22.46700 53.61600 30.85300
O  23.16200 54.64700 30.74700
O  21.62800 53.38300 31.85300
C  21.73100 54.49600 32.91700
H  28.61700 49.75600 30.44900
H  28.96500 49.49400 23.96000
H  23.58500 52.72900 23.59700
H  24.89400 52.07600 31.85700
H  26.61500 49.73600 31.90900
H  27.63500 51.50900 33.26500
H  26.88900 52.70400 32.16100
H  28.27700 51.77600 31.64300
H  24.67300 49.09600 32.18700
H  23.16600 49.76100 31.38200
H  23.37400 49.32600 33.95200
H  22.58000 50.82800 33.47500
H  30.46900 48.94000 29.97300
H  31.74800 48.78800 28.84800
H  30.64600 47.43100 29.04300
H  32.18800 47.34700 26.55300
H  32.80700 48.97400 27.02600
H  33.28400 48.19400 25.48900
H  26.78600 49.56700 22.27500
H  25.63200 52.30900 22.21700
H  28.04400 50.95200 20.88000
H  28.79900 51.15800 22.45000
H  27.77900 52.45300 21.71600
H  23.28100 50.73300 22.56200
H  24.49300 49.60200 21.95300
H  24.71700 51.65600 20.09500
H  22.94700 51.38700 20.27100
H  24.00800 50.05800 19.89400
H  21.39800 54.47100 24.82600
H  20.21200 53.51200 25.62700
H  21.13100 52.84100 24.27700
H  21.61700 51.72600 30.15900
H  21.21900 55.39000 32.55900
H  22.74100 54.67400 33.28700
H  21.12100 54.18300 33.76400

