158

Mg 1.11300 7.78600 26.54000
C  1.62900 9.70100 29.45100
C  0.83900 4.93300 28.53000
C  0.62600 5.94400 23.79900
C  1.51700 10.66000 24.56700
N  1.39500 7.40700 28.75500
C  1.44400 8.34100 29.77900
C  1.20300 7.65700 31.18200
C  1.40900 6.21200 30.83800
C  1.18800 6.14600 29.24600
C  2.78100 5.59200 31.28700
C  -0.25300 8.07300 31.65300
C  -0.35700 8.43700 33.14000
H  0.92600 8.31900 33.98400
N  0.76500 5.71200 26.25100
C  0.62800 4.67900 27.17700
C  0.02200 3.53600 26.49400
C  -0.15200 3.87200 25.11500
C  0.44500 5.20600 25.00700
C  -0.51100 2.32100 27.20900
C  -0.65500 2.99500 24.00900
O  -0.50200 3.29600 22.86500
C  -1.43900 1.78300 24.34900
N  1.40900 8.21000 24.42200
C  1.06800 7.25300 23.49900
C  1.16300 7.84600 22.10500
C  1.13700 9.32700 22.33500
C  1.36400 9.44600 23.88500
C  2.34300 7.38300 21.25500
C  -0.24100 10.05900 21.95000
C  -0.04100 11.10600 20.91900
N  1.49600 9.77500 26.84200
C  1.70600 10.81900 25.93400
C  2.02200 12.00100 26.69400
C  2.03000 11.61300 28.04100
C  1.67500 10.29100 28.11000
C  2.44100 13.25800 26.08600
C  2.26900 12.03700 29.38100
O  2.75500 13.08200 29.79100
C  1.89000 10.87300 30.32400
C  3.05600 10.71900 31.19200
O  4.05900 10.11000 30.87300
O  2.86200 11.40200 32.37100
C  4.08500 11.42800 33.16000
H  0.53600 4.05800 29.10900
H  0.35600 5.41600 22.88300
H  1.50700 11.58600 23.98900
H  1.97700 8.00100 31.86900
H  0.60600 5.60300 31.25400
H  2.58300 4.68200 31.85400
H  3.34400 6.39000 31.77200
H  3.39700 5.30300 30.43600
H  -0.96700 7.25000 31.64800
H  -0.71900 8.84400 31.03800
H  -1.10700 7.76100 33.55000
H  -0.74400 9.44200 33.30800
H  -0.21400 1.38100 26.74600
H  -1.59400 2.37100 27.09300
H  -0.07700 2.27200 28.20700
H  -1.83700 1.26000 23.48000
H  -2.20500 1.90000 25.11600
H  -0.58200 1.19600 24.67900
H  0.25800 7.46500 21.63100
H  2.04400 9.81700 21.98000
H  2.25900 6.29700 21.20400
H  3.26800 7.69800 21.73700
H  2.31200 7.79000 20.24400
H  -0.55100 10.52300 22.88600
H  -1.04100 9.42500 21.56700
H  0.95300 10.95400 20.49600
H  -0.00600 12.11600 21.32800
H  -0.73700 11.17400 20.08300
H  3.46000 13.24600 25.69800
H  2.32000 14.02100 26.85500
H  1.67900 13.41600 25.32400
H  1.02700 11.35100 30.78800
H  4.21700 10.43900 33.59800
H  3.96900 12.09500 34.01500
H  4.94500 11.73600 32.56300
Mg 48.28000 34.98000 27.36100
C  46.49400 33.45200 30.06600
C  49.08100 37.47600 29.35200
C  49.88500 36.28800 24.73400
C  46.96800 32.46000 25.31900
N  47.78500 35.30200 29.47000
C  47.15900 34.57300 30.45200
C  47.38800 35.14100 31.86200
C  47.89200 36.57600 31.49100
C  48.25200 36.48000 29.94700
C  46.85200 37.78600 31.85600
C  48.31900 34.24100 32.70300
C  47.87100 33.94100 34.13700
H  46.98900 35.00700 34.85000
N  49.43000 36.56900 27.14000
C  49.69300 37.53200 28.05900
C  50.63100 38.50900 27.52700
C  50.95200 38.15900 26.17500
C  50.11100 36.97400 25.95600
C  51.10500 39.70700 28.38700
C  51.74100 38.92900 25.14700
O  51.91300 38.61700 23.94000
C  52.31100 40.20300 25.64700
N  48.44000 34.35000 25.34200
C  49.10500 35.09200 24.41200
C  49.03100 34.47200 22.96800
C  48.29300 33.16100 23.26600
C  47.84500 33.29500 24.73100
C  48.29600 35.32500 21.88000
C  49.22600 32.01500 23.07700
C  48.72200 30.75000 22.39600
N  46.95600 33.35700 27.55500
C  46.59900 32.36300 26.67100
C  45.92200 31.20300 27.38400
C  45.80000 31.72400 28.66600
C  46.49900 32.94900 28.76200
C  45.38100 29.93600 26.69300
C  45.25800 31.46300 29.95200
O  44.55000 30.55400 30.27200
C  45.60700 32.62600 30.90300
C  46.16500 31.87400 32.03100
O  47.36200 31.49100 32.03300
O  45.15800 31.53700 32.96700
C  45.58000 30.52000 33.85800
H  49.52100 38.10800 30.12600
H  50.37600 36.75100 23.87500
H  46.75400 31.55600 24.74600
H  46.45400 35.08300 32.42100
H  48.85900 36.75500 31.96200
H  47.37100 38.35300 32.62900
H  45.90600 37.36500 32.19600
H  46.57800 38.32600 30.95000
H  49.26000 34.72900 32.95800
H  48.54300 33.43800 32.00200
H  48.78300 33.79600 34.71700
H  47.41100 32.97300 34.33500
H  50.86500 39.52600 29.43400
H  50.48400 40.55500 28.09900
H  52.11900 40.05700 28.18900
H  53.06600 39.98400 26.40300
H  51.55300 40.92200 25.95800
H  52.77300 40.64600 24.76500
H  50.05900 34.37300 22.61700
H  47.51900 33.05700 22.50500
H  48.98300 35.68300 21.11300
H  47.64300 36.06600 22.34100
H  47.59800 34.75200 21.26800
H  49.66400 31.67800 24.01700
H  50.08500 32.36700 22.50700
H  49.31600 30.43900 21.53600
H  47.66500 30.84500 22.14600
H  48.84000 29.99000 23.16800
H  44.58400 30.19800 25.99700
H  45.16700 29.21100 27.47700
H  46.18400 29.55800 26.06000
H  44.70500 33.15500 31.21100
H  45.63500 29.54900 33.36700
H  44.87400 30.32200 34.66400
H  46.55300 30.64700 34.33300

