158

Mg 48.16200 25.08400 28.27800
C  49.33100 27.51100 30.69400
C  47.46200 23.14900 30.96900
C  47.71300 22.72900 26.04300
C  49.95200 27.02100 25.79300
N  48.33700 25.36200 30.62300
C  48.72000 26.49000 31.32700
C  48.55400 26.23500 32.79100
C  48.13500 24.72200 32.87200
C  48.01000 24.37100 31.38900
C  49.11300 23.81500 33.66000
C  47.55800 27.19700 33.42700
C  47.67100 27.36000 34.95000
H  46.40900 27.64500 35.74600
N  47.39800 23.26300 28.42200
C  47.16900 22.54900 29.64500
C  46.59800 21.23500 29.35200
C  46.62600 21.20200 27.91000
C  47.27600 22.41200 27.37800
C  46.16100 20.23900 30.45200
C  46.13700 20.12100 26.98400
O  46.37200 20.12300 25.77500
C  45.54200 18.97500 27.65500
N  48.83000 24.90300 26.28200
C  48.31400 23.86900 25.52700
C  48.78000 23.95800 24.05200
C  49.20700 25.47900 23.96500
C  49.38200 25.80300 25.42100
C  49.93700 22.98700 23.70100
C  48.20400 26.52200 23.31500
C  48.75200 27.90600 22.91100
N  49.35600 26.89000 28.14400
C  49.92100 27.53700 27.06600
C  50.55000 28.74700 27.49900
C  50.22300 28.86000 28.87600
C  49.55900 27.65200 29.24100
C  51.45400 29.61100 26.63100
C  50.38800 29.66000 30.04900
O  50.88100 30.78100 30.07800
C  49.77200 28.88100 31.30400
C  50.89300 28.76400 32.28000
O  51.83600 27.96300 32.20000
O  50.61800 29.45200 33.48700
C  51.37200 29.07000 34.71100
H  47.09900 22.49100 31.76200
H  47.38800 21.97300 25.32500
H  50.40900 27.63900 25.01800
H  49.51700 26.40400 33.27200
H  47.14100 24.58100 33.29700
H  49.77600 24.34900 34.34000
H  49.73800 23.26100 32.96000
H  48.44400 23.17000 34.23000
H  46.56700 26.76300 33.29200
H  47.62900 28.15400 32.90800
H  48.42600 28.13100 35.10500
H  48.21600 26.44900 35.19600
H  46.17600 20.65000 31.46200
H  46.69000 19.28600 30.45400
H  45.11800 19.95300 30.31900
H  44.63700 19.15100 28.23600
H  46.23100 18.28700 28.14200
H  45.02000 18.46200 26.84700
H  47.95500 23.68500 23.39500
H  50.17000 25.50600 23.45500
H  50.13500 22.32700 24.54500
H  50.79600 23.61600 23.46500
H  49.60500 22.30300 22.92000
H  47.39800 26.65900 24.03600
H  47.69600 26.02200 22.49000
H  48.37100 28.67000 23.58800
H  48.46700 28.24500 21.91500
H  49.83500 27.84800 22.80200
H  51.97700 28.97900 25.91300
H  52.07900 30.15000 27.34300
H  50.80700 30.30200 26.09000
H  49.02500 29.58700 31.66800
H  51.25200 27.98900 34.78300
H  50.97700 29.46900 35.64500
H  52.36900 29.50300 34.62600
Mg 35.84300 48.01500 25.90300
C  36.03000 46.12200 28.81900
C  34.17600 50.42600 27.60800
C  35.36500 49.59500 22.85800
C  37.38000 45.41900 24.19700
N  35.08700 48.18600 27.91000
C  35.42500 47.36800 28.99400
C  34.98900 48.01800 30.34000
C  34.29600 49.29100 29.96000
C  34.53000 49.28900 28.41100
C  32.76600 49.47400 30.47100
C  36.18300 48.13200 31.31900
C  35.89800 47.87400 32.72800
H  35.92800 49.14600 33.66500
N  34.88500 49.73500 25.29800
C  34.38200 50.69700 26.20500
C  34.09600 51.93100 25.44600
C  34.49600 51.70200 24.09700
C  34.95800 50.28900 23.97900
C  33.49800 53.13300 26.14900
C  34.62300 52.72200 23.00000
O  35.00900 52.47200 21.90400
C  34.37900 54.19000 23.33600
N  36.12300 47.48600 23.77500
C  35.90100 48.29000 22.76400
C  36.50700 47.69500 21.44300
C  37.20600 46.41700 21.87500
C  36.96800 46.48100 23.42400
C  35.57700 47.31200 20.30400
C  38.72800 46.36300 21.48900
C  39.02700 45.79200 20.11000
N  36.59700 46.13200 26.39000
C  37.13200 45.15300 25.57300
C  37.42900 43.94600 26.30300
C  36.99500 44.24900 27.68400
C  36.48100 45.60800 27.61900
C  38.07200 42.67600 25.82800
C  36.94200 43.75200 29.02600
O  37.27500 42.68200 29.50300
C  36.35300 45.01300 29.85400
C  35.19100 44.51000 30.64600
O  34.24800 43.87800 30.11700
O  35.31500 44.75500 32.02300
C  34.16600 44.42100 32.87600
H  33.88700 51.30200 28.19300
H  35.31200 50.09400 21.88800
H  37.95300 44.64600 23.68100
H  34.22500 47.37600 30.77900
H  34.90700 50.08800 30.38200
H  32.78100 50.24200 31.24400
H  32.39100 48.57000 30.95100
H  32.11600 49.83400 29.67300
H  36.63300 49.11500 31.18000
H  37.01200 47.50400 30.99200
H  36.72100 47.23100 33.03800
H  34.93200 47.38500 32.85800
H  33.92100 54.07400 25.79700
H  33.77800 53.25500 27.19500
H  32.41600 53.14500 26.01900
H  33.32900 54.46100 23.44800
H  34.64400 54.74400 22.43600
H  35.08000 54.59200 24.06700
H  37.12300 48.48700 21.01700
H  36.74100 45.48800 21.54400
H  35.50100 48.05400 19.50900
H  34.61200 46.95500 20.66500
H  36.00700 46.50800 19.70600
H  39.34200 45.75000 22.15000
H  39.09100 47.37800 21.65500
H  38.08600 45.49500 19.64800
H  39.75400 44.98100 20.14100
H  39.53700 46.54100 19.50400
H  39.08800 42.62200 26.22000
H  38.13800 42.60500 24.74200
H  37.46900 41.83200 26.16600
H  37.07600 45.35800 30.59300
H  33.95000 45.22300 33.58100
H  34.38000 43.53700 33.47700
H  33.22600 44.32900 32.33200

