158

Mg 42.60800 3.67700 48.25800
C  40.92100 6.66500 47.96900
C  39.79900 1.96200 47.67900
C  44.41100 0.78700 47.99700
C  45.63800 5.54100 48.19000
N  40.67800 4.28500 47.84500
C  40.12400 5.54000 47.80900
C  38.63500 5.62900 47.57100
C  38.27600 4.08300 47.70000
C  39.64900 3.33700 47.75200
C  37.43800 3.68400 48.92400
C  38.16300 6.17500 46.15700
C  39.04300 5.77600 44.95100
H  39.38500 6.82800 43.86100
N  42.13900 1.58700 48.10100
C  40.91900 1.11900 47.79900
C  40.84100 -0.32200 47.70100
C  42.18300 -0.70400 47.81700
C  42.97300 0.54400 47.98900
C  39.61200 -1.16600 47.43000
C  42.68900 -2.13200 47.66600
O  41.86500 -3.02800 47.47600
C  44.17700 -2.53100 47.53400
N  44.72600 3.23700 48.04400
C  45.19500 1.98200 48.06800
C  46.70300 1.91700 48.20300
C  47.10200 3.43400 48.02200
C  45.75900 4.13500 48.00200
C  47.26700 1.31800 49.56600
C  47.83000 3.73100 46.71200
C  48.91400 4.84000 46.72400
N  43.23600 5.68300 48.00900
C  44.44200 6.30400 48.19700
C  44.29700 7.75600 48.25600
C  42.90900 7.93600 48.14200
C  42.33000 6.67500 48.07300
C  45.34300 8.68100 48.20500
C  41.93500 8.94400 48.03000
O  41.99000 10.15900 47.97900
C  40.55300 8.11100 47.99400
C  39.66000 8.47500 49.10900
O  39.58600 7.87400 50.21200
O  38.85500 9.51700 48.75100
C  37.67100 9.77200 49.68500
H  38.87100 1.45100 47.41500
H  45.06100 -0.09000 47.96700
H  46.61300 6.00400 48.35700
H  38.29700 6.27600 48.38000
H  37.71700 3.78500 46.81300
H  36.99600 4.56500 49.39100
H  37.98800 3.01300 49.58400
H  36.54100 3.23800 48.49400
H  37.96000 7.24600 46.15300
H  37.30500 5.62700 45.76800
H  38.73200 4.83200 44.50500
H  40.06600 5.62600 45.29500
H  39.74500 -1.96800 46.70400
H  38.77100 -0.55200 47.10900
H  39.31000 -1.69200 48.33600
H  44.67200 -1.99300 46.72500
H  44.05800 -3.57300 47.23600
H  44.77800 -2.53300 48.44300
H  47.09900 1.36300 47.35200
H  47.67100 3.80200 48.87500
H  47.64500 0.31300 49.37900
H  46.51500 1.36700 50.35300
H  48.14700 1.88500 49.86900
H  47.04700 4.09900 46.05000
H  48.23300 2.87100 46.17700
H  48.71800 5.42200 45.82300
H  49.91500 4.43900 46.56800
H  48.77900 5.57500 47.51700
H  45.76000 8.76500 47.20100
H  46.16400 8.30000 48.81300
H  45.08200 9.64500 48.63900
H  40.02200 8.43300 47.09800
H  36.85200 9.09200 49.44800
H  37.35900 10.79600 49.47900
H  37.96900 9.60300 50.71900
Mg 53.52600 23.33800 45.29700
C  51.02000 25.49900 44.30600
C  51.61700 20.70200 44.20900
C  56.39000 21.27800 45.13200
C  55.65200 26.02500 46.06700
N  51.50700 23.11700 44.22700
C  50.69900 24.15700 44.08200
C  49.34500 23.59600 43.53600
C  49.41400 22.12800 44.05800
C  50.94200 21.91400 44.21600
C  48.62400 21.82500 45.38700
C  49.41000 23.65400 41.94800
C  48.07400 24.02700 41.28500
H  47.95400 23.76100 39.73700
N  53.87500 21.26800 44.86700
C  52.93300 20.41400 44.42100
C  53.50900 19.10200 44.41100
C  54.93700 19.17400 44.77400
C  55.13700 20.58900 44.91700
C  52.66600 17.84400 43.94200
C  55.84000 17.99000 45.08900
O  55.41100 16.91500 44.75900
C  57.18400 18.07900 45.80600
N  55.84400 23.59800 45.53700
C  56.74500 22.64100 45.52000
C  58.14500 23.18000 45.83700
C  57.88200 24.72500 46.17100
C  56.40000 24.80800 45.82800
C  58.77700 22.32400 46.98900
C  58.78700 25.73700 45.39700
C  59.47700 26.80500 46.31000
N  53.41900 25.34900 45.29800
C  54.24700 26.32600 45.77000
C  53.56700 27.66200 45.74300
C  52.31100 27.37600 45.13900
C  52.25700 25.92600 44.87700
C  54.09500 28.96200 46.24200
C  51.08100 27.95900 44.69900
O  50.63300 29.11100 44.71500
C  50.16500 26.77100 44.11200
C  49.87900 27.03600 42.64800
O  50.82200 27.20200 41.87000
O  48.58700 27.19600 42.42400
C  48.20600 27.84400 41.14600
H  50.85600 19.92300 44.13200
H  57.29400 20.67500 45.03100
H  56.35200 26.82500 46.31800
H  48.48600 24.13600 43.93400
H  48.93200 21.41700 43.38700
H  48.21600 22.72800 45.84100
H  49.31500 21.34900 46.08200
H  47.86400 21.06600 45.19900
H  49.69400 22.68900 41.52900
H  50.12300 24.34300 41.49400
H  47.87600 25.07100 41.52700
H  47.23400 23.49500 41.73200
H  52.20000 17.39500 44.81900
H  53.30300 17.04000 43.57500
H  51.86000 18.06300 43.24100
H  56.93100 18.62300 46.71600
H  57.99400 18.56500 45.26300
H  57.44900 17.04900 46.04500
H  58.66500 23.06800 44.88600
H  57.99000 24.78600 47.25400
H  59.40300 22.96700 47.60800
H  59.32700 21.49700 46.53800
H  57.97400 21.88200 47.57900
H  58.29500 26.36900 44.65900
H  59.60200 25.33600 44.79400
H  58.67300 27.51700 46.50000
H  60.34800 27.35100 45.94700
H  59.90900 26.29700 47.17100
H  55.11900 28.71500 46.52200
H  53.60900 29.33500 47.14300
H  53.97900 29.78600 45.53700
H  49.25100 26.83700 44.70300
H  49.03200 27.88600 40.43500
H  47.92400 28.85500 41.44000
H  47.31200 27.40200 40.70700

