158

Mg -2.02200 16.91600 26.71800
C  -2.69500 14.75300 29.46000
C  -2.29700 19.59800 28.96300
C  -1.97900 18.97500 24.05400
C  -1.93200 14.10300 24.58400
N  -2.41700 17.10400 28.99800
C  -2.69100 16.10500 29.88900
C  -3.04900 16.66400 31.26000
C  -2.85400 18.23000 31.02300
C  -2.44600 18.36500 29.59500
C  -4.08700 19.09100 31.41000
C  -2.14800 16.03700 32.44600
C  -1.59100 16.87500 33.57000
H  -1.65800 16.30200 34.99600
N  -1.98500 18.98900 26.52700
C  -2.12300 19.87700 27.58700
C  -2.17200 21.18200 27.03100
C  -1.98700 21.14300 25.64800
C  -2.03600 19.66000 25.32700
C  -2.52700 22.43600 27.78200
C  -1.86700 22.18900 24.51500
O  -1.77400 21.97600 23.31500
C  -1.72000 23.64700 24.93100
N  -2.18500 16.61000 24.67600
C  -2.04700 17.61600 23.77700
C  -1.79000 16.99100 22.38000
C  -1.45900 15.51500 22.62700
C  -2.04900 15.36100 24.02300
C  -3.02100 17.18500 21.46500
C  0.10200 15.14000 22.55600
C  1.16000 15.96400 23.30500
N  -2.31600 14.85500 26.94400
C  -2.24600 13.80100 25.98300
C  -2.50100 12.52300 26.62300
C  -2.62100 12.83900 28.01100
C  -2.49300 14.25400 28.16900
C  -2.70500 11.21700 25.89700
C  -2.92200 12.22000 29.31900
O  -3.18900 11.10300 29.76200
C  -2.87100 13.49500 30.31300
C  -1.60600 13.22600 31.01600
O  -0.46500 13.41900 30.56800
O  -1.81800 12.70800 32.25700
C  -0.61700 12.61800 33.14700
H  -2.32700 20.50700 29.56700
H  -1.90500 19.64700 23.19600
H  -1.73200 13.22800 23.96200
H  -4.06500 16.33500 31.47800
H  -1.99700 18.49600 31.64100
H  -4.70200 18.47700 32.06700
H  -4.58600 19.47700 30.52100
H  -3.71000 19.91100 32.02100
H  -1.29800 15.55400 31.96400
H  -2.75100 15.23200 32.86500
H  -2.26700 17.72900 33.60500
H  -0.66100 17.35000 33.25500
H  -1.96100 23.30600 27.44700
H  -2.16600 22.31900 28.80500
H  -3.57900 22.66200 27.60800
H  -2.68000 23.86400 25.39900
H  -1.57300 24.25900 24.04100
H  -0.85800 23.75600 25.59000
H  -0.95500 17.44200 21.84300
H  -1.93500 14.91900 21.84800
H  -3.72500 17.82400 21.99800
H  -3.57900 16.26900 21.26800
H  -2.69900 17.62800 20.52300
H  0.34400 15.09300 21.49400
H  0.29500 14.11600 22.87600
H  1.68500 15.22300 23.90800
H  0.57700 16.71300 23.84000
H  1.89600 16.39400 22.62600
H  -1.70900 10.93200 25.55700
H  -3.18900 11.36000 24.93100
H  -3.15200 10.47800 26.56200
H  -3.77600 13.52100 30.91900
H  0.18600 13.31700 32.91300
H  -0.18300 11.62100 33.07800
H  -0.86100 12.80900 34.19200
Mg 34.83300 2.14100 29.30400
C  32.62900 3.13100 31.82100
C  37.35900 2.14800 31.56600
C  36.92100 1.77300 26.80900
C  32.18000 2.67100 26.93900
N  34.98200 2.81200 31.40800
C  33.94500 3.05700 32.26400
C  34.45100 3.26100 33.72700
C  36.01600 3.07700 33.59700
C  36.16500 2.60800 32.09100
C  36.84800 4.34300 33.93700
C  33.76300 2.29900 34.76200
C  33.78100 2.68500 36.26800
H  34.49100 3.98600 36.74700
N  36.82500 1.84400 29.21300
C  37.71800 1.84800 30.23100
C  39.06400 1.45900 29.81200
C  38.95200 1.21200 28.42100
C  37.55600 1.59800 28.07100
C  40.17600 1.25400 30.78700
C  39.91000 0.60300 27.47300
O  39.70600 0.55600 26.24900
C  41.17900 0.00000 27.90700
N  34.62200 2.26800 27.20900
C  35.66900 1.93800 26.39100
C  35.22900 1.79000 24.88600
C  33.71400 1.76200 24.96600
C  33.45700 2.27200 26.49500
C  35.92500 2.77600 23.89400
C  32.96300 0.43600 24.82700
C  31.51000 0.60100 24.29400
N  32.76900 2.72200 29.27900
C  31.80200 2.90800 28.28300
C  30.55900 3.21400 28.88100
C  30.82900 3.22000 30.26300
C  32.18400 2.99000 30.43700
C  29.28100 3.55500 28.21400
C  30.15700 3.48400 31.60400
O  28.96800 3.69100 31.86600
C  31.34600 3.40300 32.70700
C  31.46600 4.75600 33.26300
O  32.03000 5.73600 32.75900
O  30.78000 4.85200 34.50400
C  30.94300 6.02800 35.25900
H  38.14900 1.98200 32.30100
H  37.51700 1.57000 25.91700
H  31.35700 2.58800 26.22600
H  34.21400 4.29400 33.98200
H  36.36000 2.27900 34.25400
H  37.80300 4.21600 34.44700
H  36.20800 5.13400 34.32800
H  37.17400 4.77300 32.99100
H  34.29300 1.34700 34.71900
H  32.72300 2.08600 34.51400
H  34.06100 1.83800 36.89400
H  32.74400 2.75700 36.59600
H  41.12200 1.44900 30.28200
H  40.09100 0.30800 31.32100
H  40.09000 1.94300 31.62700
H  41.93700 0.76000 28.09500
H  41.44900 -0.69300 27.11100
H  40.97500 -0.38800 28.90500
H  35.50800 0.78500 24.57100
H  33.36100 2.58100 24.33900
H  36.54700 2.15500 23.24900
H  36.55800 3.42300 24.50000
H  35.20000 3.24000 23.22500
H  32.89700 0.00100 25.82400
H  33.64100 -0.13400 24.19100
H  31.22400 -0.10700 23.51600
H  31.42200 1.60100 23.86900
H  30.88300 0.50600 25.18100
H  29.24100 2.84200 27.39100
H  29.25300 4.51800 27.70500
H  28.37600 3.41800 28.80500
H  31.03500 2.62900 33.40900
H  31.90300 6.52100 35.10400
H  30.71400 5.78800 36.29700
H  30.16800 6.66400 34.83100

