158

Mg 54.88000 24.38000 44.10900
C  52.21300 26.69100 43.78700
C  52.60400 21.85000 43.28000
C  57.48800 22.40300 43.69200
C  57.07000 27.13800 44.63300
N  52.64100 24.34200 43.37100
C  51.72800 25.39200 43.43700
C  50.35600 24.89200 42.83400
C  50.46100 23.39100 43.17000
C  52.00600 23.11500 43.29800
C  49.73900 23.07800 44.49400
C  50.31700 25.14700 41.35700
C  48.92200 24.94700 40.71600
H  48.93300 24.66600 39.15600
N  55.09500 22.41400 43.58400
C  54.04700 21.55000 43.30600
C  54.59000 20.24700 43.07800
C  55.98600 20.38200 43.18500
C  56.25100 21.76500 43.43400
C  53.71200 19.07300 42.80000
C  56.91500 19.18700 42.91500
O  56.52500 18.05100 42.59200
C  58.41400 19.33800 42.98600
N  57.01600 24.78000 44.02900
C  57.83700 23.72400 43.96000
C  59.38100 24.15000 44.00200
C  59.18400 25.63100 44.40100
C  57.69300 25.92200 44.29200
C  60.15400 23.36300 45.08200
C  60.13000 26.55600 43.64500
C  60.97300 27.58400 44.47400
N  54.62700 26.47800 44.35800
C  55.64700 27.42400 44.66200
C  54.98200 28.71600 44.82000
C  53.61300 28.49000 44.52500
C  53.50000 27.11900 44.24200
C  55.66800 29.92600 45.15100
C  52.31300 29.10400 44.35800
O  51.96800 30.28300 44.54300
C  51.42000 27.99200 43.85000
C  50.79100 28.57900 42.56600
O  51.43800 28.80600 41.53500
O  49.44300 28.45500 42.59200
C  48.69800 28.97200 41.50600
H  51.82500 21.09000 43.19200
H  58.29100 21.67000 43.59000
H  57.79100 27.85600 45.02900
H  49.55800 25.30600 43.45100
H  50.09500 22.79800 42.33200
H  48.97400 22.32600 44.30300
H  49.18700 23.98600 44.73800
H  50.40800 22.90900 45.33800
H  51.04600 24.49700 40.87200
H  50.61200 26.18800 41.22600
H  48.31500 25.84300 40.84400
H  48.43800 24.10200 41.20600
H  54.15600 18.53400 41.96300
H  52.78100 19.42800 42.35700
H  53.53400 18.29100 43.53800
H  58.72500 19.99300 42.17200
H  58.97500 18.42300 42.79700
H  58.66300 19.63300 44.00500
H  59.84000 24.01400 43.02300
H  59.32500 25.77100 45.47200
H  59.59100 22.52700 45.49600
H  60.31800 23.89900 46.01600
H  61.08800 23.16700 44.55500
H  59.50500 27.20900 43.03500
H  60.76300 26.01100 42.94500
H  60.74200 28.58800 44.12000
H  62.01800 27.47300 44.18300
H  60.77500 27.62800 45.54500
H  55.06600 30.82900 45.04300
H  56.59000 29.89800 44.57000
H  55.91400 29.89300 46.21200
H  50.58700 27.68600 44.48200
H  47.94200 29.71700 41.75400
H  48.03600 28.14300 41.25700
H  49.27100 29.12400 40.59100
Mg 17.39600 52.67100 26.33100
C  19.40400 50.98000 28.59200
C  15.10300 53.19900 29.05300
C  15.03000 54.10300 24.26600
C  19.25900 51.43100 23.66500
N  17.36100 52.18000 28.55000
C  18.42400 51.63100 29.23700
C  18.14400 51.58600 30.76600
C  16.54800 51.86900 30.79600
C  16.31400 52.56800 29.40400
C  15.62000 50.69200 31.03500
C  18.96400 52.66700 31.54000
C  19.13600 52.41500 33.02100
H  17.99500 51.69400 33.66500
N  15.32200 53.58300 26.55800
C  14.67500 53.75800 27.73800
C  13.33100 54.24500 27.39500
C  13.32400 54.66300 26.07800
C  14.57500 54.08800 25.56300
C  12.26400 54.24500 28.41000
C  12.23400 55.36900 25.23400
O  12.30100 55.63200 24.06400
C  10.97100 55.73300 25.99400
N  17.16100 52.81600 24.29400
C  16.21800 53.55300 23.65800
C  16.37500 53.40300 22.10000
C  17.73700 52.72300 21.98100
C  18.04200 52.19100 23.41500
C  15.21800 52.66800 21.34100
C  18.85400 53.67600 21.24600
C  19.27900 54.85100 22.09200
N  19.09400 51.58400 26.11000
C  19.76900 51.13000 24.95200
C  20.96000 50.38600 25.38400
C  20.86700 50.34900 26.80600
C  19.67800 50.97700 27.20000
C  22.04400 49.85800 24.47300
C  21.53900 49.93500 28.03200
O  22.57100 49.29000 28.04400
C  20.69300 50.35700 29.22100
C  20.35400 49.29600 30.15500
O  19.72300 48.27100 29.91200
O  20.94000 49.56900 31.37200
C  20.66100 48.54000 32.41500
H  14.47400 53.46000 29.90700
H  14.35200 54.63200 23.59400
H  19.74600 50.94800 22.81500
H  18.21700 50.55900 31.12500
H  16.30500 52.62800 31.53900
H  14.88500 50.61300 30.23400
H  15.02700 50.76000 31.94800
H  16.12700 49.74100 30.87700
H  18.56700 53.67400 31.41100
H  19.95100 52.64600 31.07900
H  19.25800 53.35800 33.55400
H  20.01400 51.77400 33.10100
H  11.96100 55.21100 28.81200
H  12.47200 53.64500 29.29600
H  11.42300 53.71200 27.96500
H  11.19900 56.37600 26.84400
H  10.43400 54.81800 26.24600
H  10.40300 56.26800 25.23400
H  16.41900 54.43000 21.73600
H  17.73100 51.83000 21.35500
H  15.52000 51.88100 20.65000
H  14.47200 53.27500 20.82900
H  14.64400 52.22500 22.15500
H  18.50700 53.91600 20.24100
H  19.65900 52.95500 21.09900
H  18.93400 55.71500 21.52300
H  20.35500 54.77400 22.24700
H  18.72300 54.80600 23.02800
H  22.03900 48.79800 24.72500
H  22.98300 50.38300 24.64700
H  21.67700 49.88200 23.44700
H  21.22700 51.11600 29.79300
H  20.85000 47.51500 32.09900
H  19.57800 48.62900 32.50400
H  21.09800 48.65700 33.40700

