158

Mg -0.79000 7.65900 25.87800
C  0.14300 9.32000 28.92600
C  -0.89900 4.76900 27.87100
C  -1.39000 5.87800 22.98800
C  0.18100 10.44100 24.09700
N  -0.46300 7.12800 28.15900
C  -0.13100 7.99000 29.14000
C  -0.05800 7.27600 30.48200
C  -0.33400 5.77400 30.17600
C  -0.59000 5.87600 28.63600
C  0.78800 4.77900 30.61900
C  -1.09800 7.92800 31.59800
C  -0.64800 8.10000 33.00400
H  0.76200 7.59400 33.46900
N  -1.17300 5.64100 25.48000
C  -1.22100 4.63100 26.48000
C  -1.49200 3.41500 25.81100
C  -1.71400 3.70300 24.45700
C  -1.42000 5.16300 24.20000
C  -1.69100 2.10100 26.62200
C  -2.19100 2.78000 23.29900
O  -2.56900 3.17600 22.19700
C  -2.35300 1.27900 23.58200
N  -0.56300 7.99200 23.89400
C  -0.98600 7.19600 22.86500
C  -0.98500 7.87200 21.49200
C  -0.45000 9.30400 21.86900
C  -0.15000 9.26400 23.37100
C  -0.02300 7.25900 20.38600
C  -1.53200 10.36500 21.50400
C  -2.91900 10.16400 22.19800
N  0.05500 9.57600 26.35300
C  0.35200 10.59500 25.46000
C  0.69500 11.78200 26.27200
C  0.74400 11.30100 27.54100
C  0.27400 9.95300 27.61700
C  1.11200 13.15000 25.73300
C  1.01800 11.69700 28.85700
O  1.39600 12.76500 29.31500
C  0.71500 10.45400 29.76500
C  1.97200 10.10900 30.49700
O  2.84600 9.36300 30.12900
O  2.06500 10.81300 31.67700
C  3.36000 10.63100 32.41300
H  -0.82000 3.80900 28.38500
H  -1.52100 5.47800 21.98000
H  0.22800 11.28000 23.40000
H  0.96600 7.41600 30.82900
H  -1.29800 5.35000 30.45500
H  1.52000 5.20800 31.30400
H  1.28400 4.44800 29.70700
H  0.23700 3.99800 31.14400
H  -1.99900 7.31600 31.55500
H  -1.34600 8.93500 31.26200
H  -1.29000 7.48900 33.64000
H  -0.82000 9.10300 33.39400
H  -0.86100 1.40000 26.70600
H  -2.55500 1.55700 26.23900
H  -1.95000 2.43200 27.62800
H  -2.63000 0.82600 22.63000
H  -3.17600 1.11500 24.27700
H  -1.41300 0.85700 23.93800
H  -2.00800 7.79900 21.12400
H  0.49200 9.48200 21.35000
H  0.16000 8.03800 19.64500
H  -0.53600 6.49800 19.79800
H  0.95000 6.97000 20.78400
H  -1.61200 10.20900 20.42800
H  -1.23000 11.41200 21.53200
H  -3.41100 11.12000 22.01400
H  -2.66600 10.12600 23.25700
H  -3.32000 9.23200 21.80000
H  0.31100 13.42500 25.04600
H  2.06300 13.13200 25.20000
H  1.13000 13.88800 26.53500
H  0.04100 10.77800 30.55800
H  4.22700 10.14300 31.96900
H  3.19500 10.13600 33.37100
H  3.58900 11.67200 32.64300
Mg 36.18200 49.92700 25.15700
C  36.29200 48.22100 28.17200
C  34.66000 52.58400 26.77300
C  35.89300 51.39900 22.09900
C  37.33000 46.93400 23.56300
N  35.49700 50.25100 27.14000
C  35.66100 49.40700 28.24700
C  35.25900 50.14400 29.52800
C  34.36100 51.31700 29.04500
C  34.80900 51.43400 27.55800
C  32.84400 51.14500 29.35200
C  36.59900 50.63000 30.32600
C  36.74400 50.23700 31.72100
H  35.49300 49.95000 32.51300
N  35.40000 51.74900 24.52200
C  34.88300 52.74000 25.36200
C  34.81100 53.99400 24.62800
C  35.25700 53.68200 23.30900
C  35.53500 52.22500 23.26500
C  34.60600 55.37000 25.27100
C  35.50200 54.66000 22.14300
O  36.13700 54.32300 21.09300
C  34.95700 56.06400 22.26900
N  36.40200 49.20500 23.04500
C  36.21900 50.03600 22.04500
C  36.60400 49.39500 20.73300
C  37.07400 47.97200 21.21500
C  36.91200 47.99600 22.65900
C  35.55400 49.35800 19.58700
C  38.46500 47.49200 20.74500
C  39.38600 48.40100 20.01600
N  36.76600 47.92000 25.72900
C  37.29400 46.91400 24.95700
C  37.58000 45.78500 25.88900
C  37.25700 46.30300 27.14500
C  36.75200 47.59800 26.96400
C  38.18500 44.50200 25.46800
C  37.11600 45.96600 28.57200
O  37.55700 44.94700 29.06300
C  36.39700 47.19800 29.28700
C  35.21100 46.71800 30.02900
O  34.05300 47.05700 29.69000
O  35.50500 45.87500 31.08700
C  34.37600 45.59700 32.01200
H  34.32200 53.50300 27.25500
H  35.62000 51.94700 21.19500
H  37.81900 45.99600 23.29400
H  34.69000 49.45500 30.15200
H  34.71300 52.23400 29.51700
H  32.32300 50.95200 28.41400
H  32.45900 52.12800 29.62300
H  32.72500 50.39300 30.13100
H  36.77100 51.69300 30.49600
H  37.44500 50.26600 29.74300
H  37.32000 50.96500 32.29300
H  37.35400 49.33400 31.72500
H  35.43000 55.98800 24.91500
H  34.75400 55.26900 26.34600
H  33.57100 55.67100 25.10900
H  33.97800 55.96700 22.73800
H  34.85600 56.57100 21.30900
H  35.58500 56.64900 22.94000
H  37.48000 50.02300 20.56900
H  36.28700 47.29900 20.87600
H  36.19500 49.59300 18.73700
H  34.82300 50.15800 19.70100
H  35.10100 48.38300 19.40700
H  38.26400 46.63300 20.10600
H  38.97900 47.04000 21.59400
H  38.81400 48.70100 19.13700
H  40.26400 47.85700 19.66700
H  39.64800 49.21100 20.69600
H  39.12000 44.65100 24.92700
H  37.43400 44.04000 24.82700
H  38.16600 43.95800 26.41300
H  37.09800 47.60700 30.01500
H  34.53000 44.71100 32.62800
H  33.39500 45.57300 31.53900
H  34.33400 46.41900 32.72600

