158

Mg 2.07600 8.33500 24.85800
C  2.60500 10.06100 27.81800
C  2.14600 5.37600 26.70500
C  1.69300 6.56500 22.03400
C  2.52900 11.28300 22.96100
N  2.42200 7.83400 27.00100
C  2.50200 8.70600 28.05000
C  2.58000 7.97600 29.45000
C  2.55600 6.44100 29.03600
C  2.32200 6.51100 27.49400
C  3.83300 5.59400 29.44300
C  1.32100 8.45300 30.32300
C  1.54300 8.65900 31.88200
H  2.73700 8.00600 32.53900
N  1.78300 6.28000 24.41100
C  1.87600 5.25500 25.34600
C  1.77700 3.97800 24.71200
C  1.71600 4.25200 23.28100
C  1.69700 5.75100 23.18300
C  1.83100 2.65100 25.46200
C  1.74200 3.19700 22.11100
O  1.59500 3.55400 20.95200
C  1.96100 1.73800 22.36700
N  2.24500 8.85000 22.77400
C  1.91800 7.96500 21.78000
C  1.82700 8.57000 20.41100
C  2.31300 10.06500 20.74400
C  2.40500 10.07600 22.23600
C  2.47900 7.83500 19.21400
C  1.33200 11.17900 20.20900
C  -0.12300 11.30300 20.78600
N  2.40700 10.29000 25.25100
C  2.54300 11.41700 24.42400
C  2.87700 12.59800 25.21300
C  2.87000 12.09900 26.55200
C  2.50700 10.73600 26.50300
C  3.04400 14.01400 24.61900
C  3.00100 12.47800 27.93500
O  3.21200 13.61700 28.37600
C  2.73600 11.23400 28.81000
C  3.77100 11.15500 29.80100
O  4.83200 10.81000 29.46500
O  3.42400 11.65500 31.03500
C  4.52400 11.82200 31.93700
H  2.13600 4.43200 27.25400
H  1.46600 6.01500 21.11800
H  2.74900 12.18800 22.39200
H  3.51600 8.19700 29.96300
H  1.69900 5.98400 29.53000
H  3.45200 4.75800 30.02900
H  4.55300 6.10900 30.07900
H  4.28500 5.15900 28.55200
H  0.46000 7.83800 30.06300
H  0.91400 9.34500 29.84600
H  0.63100 8.20300 32.26800
H  1.60000 9.71600 32.14300
H  2.85100 2.46400 25.79600
H  1.52200 1.82700 24.81800
H  1.19700 2.54700 26.34300
H  2.77100 1.58200 23.08000
H  2.02400 1.16700 21.44100
H  0.95800 1.51500 22.73100
H  0.79700 8.54600 20.05400
H  3.27400 10.11800 20.23200
H  1.71300 7.60400 18.47400
H  3.00700 6.97200 19.61900
H  3.19200 8.48600 18.70700
H  1.34100 10.98600 19.13600
H  1.84100 12.12500 20.39500
H  -0.79700 11.07100 19.96100
H  -0.21800 12.31500 21.17900
H  -0.28500 10.61000 21.61100
H  2.79400 13.97400 23.55800
H  4.00100 14.49400 24.82300
H  2.29400 14.70900 24.99600
H  1.75500 11.28900 29.28100
H  4.08300 12.31600 32.80300
H  5.28000 12.47100 31.49500
H  5.03200 10.90200 32.22800
Mg 41.17500 40.78500 26.19700
C  40.40700 43.02500 28.77500
C  42.46100 38.64800 28.48700
C  42.07800 38.67000 23.62000
C  40.32600 43.18300 23.91000
N  41.52300 40.89500 28.41000
C  41.00500 41.82200 29.28200
C  41.22900 41.33800 30.72000
C  41.87500 39.93000 30.56300
C  41.99600 39.79800 29.03500
C  43.24100 39.66200 31.19900
C  39.79500 41.27300 31.40600
C  39.91000 40.73200 32.91600
H  39.46100 41.63900 34.02400
N  42.06100 38.89900 26.06500
C  42.52900 38.19600 27.11200
C  43.07200 36.92400 26.69500
C  42.89600 36.88600 25.24000
C  42.31900 38.22900 24.88800
C  43.82500 35.96000 27.62500
C  43.17400 35.72900 24.27800
O  43.26300 35.89400 23.04000
C  43.54100 34.36500 24.74700
N  41.21700 40.84800 24.04600
C  41.47100 39.85200 23.20400
C  41.41500 40.30900 21.75900
C  40.65500 41.67100 21.89700
C  40.77100 41.94900 23.39000
C  42.80800 40.45100 21.05700
C  39.27000 41.59700 21.47800
C  38.38000 40.46600 22.13300
N  40.42500 42.62200 26.23600
C  40.28100 43.55800 25.27500
C  39.98900 44.85100 25.82900
C  39.98300 44.69900 27.21700
C  40.27700 43.33000 27.41100
C  39.72200 46.12200 25.02000
C  39.73700 45.30800 28.54100
O  39.47800 46.43900 28.81300
C  39.90200 44.22400 29.58900
C  40.86800 44.65900 30.69700
O  42.04300 44.42800 30.65600
O  40.19800 45.27600 31.80500
C  41.02900 45.67100 32.96500
H  42.74700 37.87300 29.20200
H  42.25200 38.04800 22.74000
H  40.04700 43.97300 23.20900
H  41.82000 42.06400 31.27900
H  41.17300 39.16600 30.89700
H  43.28500 40.24300 32.12000
H  44.10000 39.97100 30.60300
H  43.40400 38.62000 31.47100
H  38.99300 40.72700 30.90900
H  39.37500 42.27800 31.40100
H  40.97100 40.49200 32.97100
H  39.30500 39.82600 32.95900
H  44.76900 35.84900 27.09100
H  43.38400 34.97000 27.74500
H  43.98200 36.32200 28.64100
H  43.32900 33.78900 23.84700
H  43.00900 34.00400 25.62700
H  44.60200 34.29000 24.98600
H  40.72700 39.64100 21.24200
H  41.16200 42.54400 21.48700
H  43.54800 40.24200 21.83000
H  42.92300 41.43500 20.60200
H  42.91500 39.57900 20.41200
H  39.13500 41.50200 20.40100
H  38.81000 42.55700 21.71000
H  38.92700 39.69500 22.67500
H  37.75200 39.98800 21.38100
H  37.72300 40.92100 22.87400
H  38.64600 46.28400 25.08000
H  40.00700 46.06300 23.97000
H  40.26200 46.96000 25.46000
H  38.91800 44.08700 30.03600
H  42.06100 45.98700 32.81300
H  40.95700 44.83900 33.66600
H  40.60800 46.52500 33.49600

