158

Mg 34.83800 2.91500 30.04000
C  32.56300 4.22000 32.53900
C  37.35000 3.29200 32.24400
C  36.82000 2.11100 27.56000
C  32.14700 3.13700 27.88800
N  34.91800 3.74300 32.14800
C  33.88100 4.00100 32.98900
C  34.35400 4.12800 34.44900
C  35.91300 4.10500 34.28100
C  36.06300 3.69100 32.81400
C  36.57800 5.42100 34.59600
C  33.85900 2.93700 35.32600
C  33.74400 3.05700 36.84000
H  34.40700 4.29900 37.31800
N  36.84400 2.71800 29.88200
C  37.70300 2.90700 30.91800
C  39.08100 2.61200 30.44000
C  38.92500 2.18800 29.08100
C  37.49100 2.28100 28.77900
C  40.17300 2.75800 31.29000
C  39.98600 1.58600 28.05900
O  39.78200 1.41900 26.84800
C  41.29900 1.01300 28.58800
N  34.59900 3.00100 27.98300
C  35.50100 2.37000 27.14900
C  34.97100 2.32600 25.69600
C  33.44100 2.33100 25.97600
C  33.42500 2.88200 27.36300
C  35.40800 3.43600 24.75400
C  32.60500 1.04000 25.73400
C  31.47900 1.19300 24.64700
N  32.75800 3.48200 30.16600
C  31.79100 3.44900 29.19400
C  30.48900 3.89700 29.78900
C  30.80500 4.13400 31.09100
C  32.19200 4.00200 31.22000
C  29.21800 4.07600 29.03000
C  30.17500 4.61100 32.25500
O  29.05300 4.96500 32.55700
C  31.33700 4.67700 33.27200
C  31.44800 5.99900 33.90600
O  32.19900 6.89200 33.52900
O  30.72300 6.03500 35.11100
C  30.91100 7.23100 35.96900
H  38.20200 3.44800 32.90900
H  37.40100 1.97700 26.64500
H  31.23400 3.15000 27.28900
H  34.10000 5.12400 34.81400
H  36.39800 3.32600 34.87000
H  36.89400 5.36900 35.63800
H  35.91300 6.26100 34.39300
H  37.42800 5.65900 33.95700
H  34.53700 2.10100 35.15600
H  32.89500 2.62200 34.92700
H  34.29000 2.23100 37.29600
H  32.71400 3.01100 37.19200
H  40.28400 3.80700 31.56300
H  41.10700 2.43400 30.82900
H  39.95600 2.14200 32.16200
H  41.34300 0.49000 29.54300
H  41.83700 1.93700 28.80400
H  41.89800 0.41100 27.90400
H  35.11900 1.32700 25.28500
H  32.90600 3.15400 25.50100
H  35.94500 4.16700 25.35800
H  34.61000 3.95900 24.22800
H  36.08300 3.08000 23.97500
H  32.06300 0.80600 26.65000
H  33.22500 0.23500 25.33900
H  31.43800 2.20500 24.24600
H  30.47300 1.02400 25.03100
H  31.77900 0.60100 23.78200
H  28.43700 3.37100 29.31300
H  29.40400 4.08100 27.95600
H  28.82200 5.05900 29.28300
H  31.11000 4.01300 34.10600
H  31.77500 7.04100 36.60600
H  30.07300 7.33600 36.65800
H  30.98400 8.16100 35.40500
Mg 49.21100 46.54800 42.40400
C  45.86000 47.43600 41.48000
C  48.74000 43.67600 40.74800
C  52.52100 46.19200 42.46600
C  49.61700 49.96200 43.39900
N  47.45800 45.62300 41.36600
C  46.27800 46.16900 41.04700
C  45.40800 45.18600 40.14000
C  46.30300 43.93100 40.08600
C  47.62000 44.43100 40.74200
C  45.76800 42.58400 40.63700
C  45.01900 45.76300 38.73400
C  43.47100 45.68700 38.47000
H  43.08000 45.70100 36.94400
N  50.46400 45.08300 41.78300
C  50.10800 43.93200 41.15000
C  51.19800 43.07700 40.93900
C  52.29500 43.71000 41.60200
C  51.82300 45.07000 41.93100
C  51.04000 41.70400 40.30000
C  53.65900 43.08300 41.73300
O  53.96500 42.00300 41.27900
C  54.65200 43.74900 42.69000
N  50.90000 47.91300 42.98700
C  52.13300 47.47300 42.89100
C  53.12600 48.58600 43.15800
C  52.19500 49.73000 43.62700
C  50.79800 49.19600 43.29300
C  54.31900 48.20000 44.08700
C  52.61200 51.21700 43.26100
C  52.38000 51.70600 41.81500
N  47.90300 48.28100 42.66200
C  48.26400 49.52300 43.02300
C  47.03800 50.36300 43.04300
C  46.07300 49.48300 42.45000
C  46.70000 48.31700 42.16000
C  46.88800 51.80400 43.37900
C  44.70800 49.47300 41.96300
O  43.76900 50.27600 42.01300
C  44.58400 48.09900 41.30000
C  43.56600 47.34100 42.09500
O  43.71500 46.81800 43.18700
O  42.48200 47.07200 41.33100
C  41.61700 45.93300 41.78100
H  48.64300 42.67400 40.32600
H  53.60500 46.08200 42.39400
H  49.69000 50.94200 43.87600
H  44.51600 45.02500 40.74500
H  46.60100 43.69800 39.06400
H  45.60800 41.85200 39.84600
H  44.83500 42.76500 41.17200
H  46.35800 42.19400 41.46600
H  45.37000 45.07100 37.96800
H  45.43100 46.76600 38.62600
H  42.97700 46.60800 38.77900
H  43.04100 44.78300 38.90100
H  51.40800 41.60300 39.27900
H  50.02400 41.33500 40.44200
H  51.69000 40.97700 40.78500
H  54.13400 43.82600 43.64500
H  55.13100 44.68800 42.41000
H  55.41000 42.98900 42.87900
H  53.55400 48.86300 42.19400
H  52.19200 49.70800 44.71700
H  54.05500 47.20300 44.43900
H  54.41500 48.90800 44.91000
H  55.22100 48.09700 43.48300
H  53.70000 51.24400 43.32700
H  52.29000 51.98900 43.96000
H  51.85100 51.00000 41.17500
H  53.27900 52.06900 41.31700
H  51.84600 52.65300 41.89100
H  45.86800 51.92700 43.74300
H  46.95700 52.30900 42.41500
H  47.59800 52.14000 44.13500
H  44.14900 48.18600 40.30400
H  41.14100 45.64500 40.84400
H  40.76000 46.31400 42.33700
H  42.02700 45.02200 42.21800

