158

Mg 2.75100 -3.40600 45.19500
C  5.88200 -2.08900 44.10700
C  1.10500 -1.22600 43.12200
C  -0.06800 -5.43400 45.28400
C  4.52200 -5.95300 46.94000
N  3.44000 -1.92600 43.68400
C  4.73100 -1.42800 43.49300
C  4.67200 -0.10000 42.69500
C  3.16400 0.14000 42.41200
C  2.50700 -1.08800 43.20700
C  2.61900 1.62200 42.68800
C  5.55800 -0.21400 41.43900
C  6.59500 1.00300 41.20400
H  6.32500 1.97100 40.03700
N  0.73000 -3.33300 44.32500
C  0.24300 -2.33100 43.55500
C  -1.15000 -2.48700 43.29300
C  -1.47800 -3.70800 43.99400
C  -0.23800 -4.22400 44.54700
C  -1.94600 -1.69800 42.35100
C  -2.90900 -4.34600 44.00300
O  -3.82500 -3.74600 43.44700
C  -3.24200 -5.74100 44.64800
N  2.30300 -5.45200 46.02300
C  1.08000 -6.01400 45.88700
C  0.93000 -7.17300 46.92800
C  2.49900 -7.48400 47.20400
C  3.13900 -6.24300 46.70600
C  0.11600 -6.93100 48.20300
C  2.99100 -8.82500 46.65200
C  2.46700 -10.08900 47.42400
N  4.73800 -3.82500 45.66600
C  5.30900 -4.95100 46.39800
C  6.82800 -4.80200 46.34200
C  7.02700 -3.69900 45.54300
C  5.77800 -3.17300 45.02200
C  7.79300 -5.57000 47.07700
C  8.07000 -2.85700 44.94800
O  9.26100 -2.85100 45.15600
C  7.36500 -1.87700 43.95400
C  7.82300 -0.50400 44.36200
O  8.79200 0.02500 43.78200
O  7.15800 0.05000 45.39500
C  7.69300 1.23300 46.01200
H  0.66600 -0.50700 42.42800
H  -0.93000 -6.10400 45.27000
H  5.04400 -6.71300 47.52500
H  5.06300 0.68700 43.34100
H  2.95400 -0.13700 41.37900
H  3.47100 2.04400 43.22000
H  1.70800 1.57600 43.28400
H  2.45300 2.04800 41.69800
H  4.99900 -0.20400 40.50300
H  6.21200 -1.08500 41.44400
H  7.55100 0.54800 40.94300
H  6.69100 1.54100 42.14700
H  -1.42500 -0.78200 42.07300
H  -2.92500 -1.41700 42.73900
H  -2.16000 -2.17000 41.39200
H  -2.98400 -5.70700 45.70600
H  -2.71900 -6.50100 44.06800
H  -4.29400 -6.02700 44.61300
H  0.49600 -8.04100 46.43100
H  2.55500 -7.52700 48.29200
H  0.77300 -7.12300 49.05100
H  -0.81600 -7.49500 48.24200
H  -0.26300 -5.91300 48.11300
H  4.08000 -8.80500 46.69600
H  2.84300 -8.87500 45.57300
H  1.85300 -10.69900 46.76100
H  1.88100 -9.68300 48.24900
H  3.23600 -10.73300 47.85200
H  8.82600 -5.34000 46.81700
H  7.54700 -6.62700 47.17500
H  7.74400 -5.21800 48.10700
H  7.71100 -2.18700 42.96800
H  7.46600 1.22600 47.07800
H  7.15800 2.10600 45.64000
H  8.76900 1.20300 45.83600
Mg 24.83200 -5.20200 45.28900
C  26.22000 -2.22600 44.02800
C  21.93700 -4.35500 43.74100
C  23.86500 -8.37100 45.78500
C  28.07700 -6.02100 46.48700
N  24.18700 -3.51900 43.93300
C  24.89600 -2.38500 43.57600
C  24.10300 -1.47900 42.62600
C  22.61800 -1.98400 43.01600
C  22.89900 -3.40000 43.53400
C  21.86900 -1.12600 44.07100
C  24.59100 -1.67400 41.11600
C  25.06800 -0.39800 40.43600
H  26.15100 -0.51200 39.43500
N  23.12900 -6.17100 44.99600
C  22.03700 -5.61700 44.40000
C  20.97400 -6.61600 44.46200
C  21.44800 -7.76200 45.18100
C  22.85400 -7.50200 45.35800
C  19.51800 -6.46300 43.86800
C  20.58800 -8.99100 45.50500
O  19.35800 -9.07100 45.35500
C  21.24000 -10.24500 46.09200
N  25.79900 -6.96300 46.10000
C  25.16600 -8.15300 46.22000
C  26.13400 -9.21100 46.88700
C  27.35000 -8.32300 47.38300
C  27.08800 -7.02600 46.60400
C  25.58600 -10.15300 47.98900
C  28.76200 -8.94900 47.05300
C  29.65400 -9.12000 48.25900
N  26.84500 -4.35900 45.29900
C  27.99700 -4.73000 45.90500
C  29.01500 -3.65600 45.73700
C  28.30600 -2.69600 45.01100
C  27.03800 -3.15500 44.73200
C  30.42200 -3.54000 46.31500
C  28.54700 -1.40900 44.42000
O  29.53200 -0.70900 44.42400
C  27.17100 -1.08900 43.71600
C  26.68600 0.21900 44.26700
O  26.34500 0.52200 45.41100
O  26.67200 1.17900 43.25200
C  26.34700 2.57600 43.60800
H  20.95600 -4.02400 43.39300
H  23.56800 -9.41900 45.86700
H  28.95400 -6.44800 46.97900
H  24.33400 -0.49000 43.02100
H  22.06800 -2.17100 42.09300
H  22.12000 -0.07500 43.92400
H  22.06900 -1.47900 45.08200
H  20.79800 -1.30500 43.97700
H  23.64300 -1.95000 40.65400
H  25.36900 -2.43700 41.08100
H  25.45300 0.16500 41.28600
H  24.29300 0.08600 39.84200
H  18.82000 -6.27400 44.68300
H  19.06400 -7.39100 43.51800
H  19.42800 -5.65500 43.14200
H  20.51900 -11.06100 46.12900
H  21.65200 -9.96900 47.06300
H  21.98400 -10.61200 45.38500
H  26.59300 -9.86900 46.14900
H  27.15500 -8.07300 48.42600
H  25.72100 -11.19100 47.68500
H  24.52300 -9.92000 48.04900
H  25.99100 -10.08700 48.99900
H  29.32100 -8.32700 46.35300
H  28.71700 -9.97200 46.68100
H  29.83900 -10.19400 48.29600
H  29.04500 -8.82300 49.11200
H  30.56400 -8.55500 48.05500
H  30.76700 -4.52600 46.62700
H  30.27100 -3.06200 47.28300
H  31.16600 -3.03900 45.69500
H  27.24700 -1.18000 42.63200
H  27.25400 2.84800 44.14800
H  25.50500 2.73000 44.28400
H  26.18100 3.08100 42.65700

