158

Mg 28.23800 57.53400 42.61700
C  25.92100 55.64400 40.82700
C  30.68100 56.26300 40.71600
C  30.04500 60.14400 43.67200
C  25.34300 59.07200 44.26000
N  28.20100 56.33600 40.77600
C  27.19400 55.53700 40.30000
C  27.66800 54.61900 39.14500
C  29.24600 54.78700 39.31400
C  29.44000 55.78000 40.45400
C  30.10900 53.51500 39.48200
C  27.08700 55.03200 37.78200
C  26.52900 53.83600 37.00200
H  27.10500 53.45100 35.64600
N  30.13800 58.04500 42.39800
C  31.07300 57.33000 41.60900
C  32.34400 57.95300 41.77400
C  32.19900 59.07800 42.59900
C  30.74600 59.19300 42.90900
C  33.63800 57.42000 41.06900
C  33.29800 60.04700 42.93900
O  34.41400 59.95100 42.44900
C  33.15500 61.24300 43.94100
N  27.70900 59.46000 43.74300
C  28.70200 60.26600 44.11400
C  28.15400 61.48700 44.85300
C  26.74700 60.99900 45.21800
C  26.54100 59.82800 44.34900
C  29.00400 61.89500 46.03600
C  25.64200 62.06400 45.25600
C  24.85700 62.22400 46.59500
N  26.09800 57.31900 42.69900
C  25.11500 57.99400 43.39900
C  23.76600 57.45000 43.12100
C  24.09200 56.60800 42.06800
C  25.51300 56.45700 41.90300
C  22.33400 57.88600 43.54300
C  23.42600 55.71600 41.09400
O  22.23500 55.46800 40.97100
C  24.57700 54.99100 40.32500
C  24.36600 53.57900 40.52200
O  24.52100 52.95100 41.56500
O  24.23000 53.06200 39.24500
C  24.28100 51.58000 39.11200
H  31.51500 55.81200 40.17500
H  30.62100 61.02600 43.96300
H  24.49200 59.52700 44.77100
H  27.38700 53.59100 39.37600
H  29.62000 55.30600 38.43200
H  30.52600 53.52400 40.48900
H  30.82500 53.49300 38.66100
H  29.46500 52.64300 39.36900
H  27.78600 55.46300 37.06500
H  26.36200 55.83300 37.92400
H  25.50800 54.13700 36.76800
H  26.58800 52.93500 37.61300
H  33.59100 56.33200 41.10600
H  34.52100 57.78300 41.59500
H  33.76700 57.69600 40.02200
H  32.57700 62.03900 43.47300
H  34.11700 61.63800 44.26800
H  32.72500 60.84300 44.86000
H  28.07500 62.25200 44.08100
H  26.77500 60.41400 46.13800
H  28.36700 62.08400 46.90000
H  29.49400 62.81900 45.72900
H  29.73700 61.14300 46.33100
H  24.88900 61.76400 44.52800
H  25.84300 63.08000 44.91500
H  24.87700 63.28700 46.83800
H  25.24000 61.70600 47.47500
H  23.85400 61.85900 46.37400
H  22.06900 58.93800 43.44700
H  22.23600 57.48900 44.55300
H  21.75300 57.37400 42.77600
H  24.52500 55.33400 39.29200
H  24.49800 51.50100 38.04700
H  23.28500 51.27500 39.43400
H  25.01200 51.22500 39.83900
Mg 35.79100 48.83600 25.05300
C  35.92900 46.83100 28.01700
C  34.10500 51.14300 26.81000
C  35.34500 50.54100 22.24100
C  37.38500 46.21900 23.27800
N  34.95200 48.88700 27.12100
C  35.23700 48.03100 28.17500
C  34.84600 48.64100 29.50000
C  34.12500 49.92700 29.07200
C  34.43100 50.00000 27.57800
C  32.55000 50.00300 29.24900
C  36.04700 49.03400 30.40700
C  35.82400 48.83000 31.90300
H  34.44800 48.56100 32.44100
N  34.87300 50.64400 24.61500
C  34.25300 51.47200 25.49300
C  33.77300 52.62800 24.75200
C  34.06900 52.44000 23.34900
C  34.84900 51.21300 23.36300
C  33.06500 53.82200 25.48300
C  33.79500 53.23300 22.19000
O  34.20100 53.03700 21.01500
C  33.01000 54.49500 22.38400
N  36.30200 48.40700 23.13000
C  35.99900 49.29200 22.16300
C  36.49900 48.82500 20.71400
C  37.34800 47.51100 21.10400
C  37.00800 47.36100 22.58500
C  35.50100 48.58200 19.66100
C  38.82900 47.50000 20.76200
C  39.84000 48.19800 21.80100
N  36.47200 46.93100 25.48100
C  37.10700 45.96200 24.66000
C  37.50000 44.79500 25.47100
C  37.08900 45.10500 26.77000
C  36.43700 46.33500 26.72300
C  38.17700 43.57100 24.91300
C  37.11000 44.59600 28.13900
O  37.48000 43.51700 28.61700
C  36.38300 45.73900 29.09300
C  35.24800 45.11700 29.78000
O  34.08100 45.05100 29.34800
O  35.60800 44.63300 30.94500
C  34.47900 44.20700 31.87100
H  33.61800 51.96000 27.34800
H  35.26000 50.98300 21.24600
H  37.96700 45.45600 22.75800
H  34.12600 48.07800 30.09400
H  34.64900 50.81800 29.41900
H  32.23200 48.97900 29.45000
H  32.00900 50.30300 28.35200
H  32.41900 50.71100 30.06700
H  36.30400 50.08300 30.25300
H  36.86100 48.34800 30.17200
H  36.12800 49.66400 32.53400
H  36.46700 48.02200 32.25000
H  33.63000 54.75400 25.46000
H  32.75600 53.64300 26.51300
H  32.08900 54.11300 25.09400
H  32.54500 54.99200 21.53300
H  33.58100 55.14000 23.05200
H  32.04100 54.28600 22.83800
H  37.21000 49.54100 20.30400
H  36.92200 46.65500 20.58200
H  36.02900 48.38200 18.72900
H  35.04800 49.55400 19.46900
H  34.78500 47.79400 19.89500
H  38.93500 48.12200 19.87300
H  38.99800 46.44500 20.54600
H  39.36200 49.00000 22.36300
H  40.54700 48.66700 21.11700
H  40.33200 47.46100 22.43500
H  37.66500 43.06600 24.09300
H  38.00600 42.87800 25.73700
H  39.21900 43.81400 24.70400
H  37.11300 46.09800 29.81900
H  34.39000 44.78500 32.79200
H  34.62100 43.17200 32.18100
H  33.50600 44.28100 31.38600

