158

Mg 44.35200 3.79700 47.29100
C  42.27300 6.67000 46.88800
C  41.66200 1.86500 46.73400
C  46.37300 1.26900 46.79700
C  47.14300 6.06400 47.03100
N  42.19800 4.24600 46.85100
C  41.56200 5.40600 46.79800
C  40.08600 5.23700 46.51600
C  39.83300 3.71900 46.86300
C  41.33300 3.23500 46.81900
C  39.14000 3.47500 48.19800
C  39.75600 5.67900 45.04200
C  38.61200 6.66300 44.93700
H  38.35100 7.46000 43.59000
N  44.05400 1.76700 46.94600
C  42.82800 1.13700 46.84300
C  43.01900 -0.24600 46.76400
C  44.46800 -0.45200 46.75400
C  45.02600 0.88200 46.84900
C  41.88500 -1.25400 46.84200
C  45.11500 -1.80300 46.63800
O  44.48600 -2.82400 46.64500
C  46.58200 -1.98400 46.48400
N  46.49600 3.72600 46.83600
C  47.01300 2.50100 46.79400
C  48.54400 2.58500 46.82900
C  48.76400 4.07700 46.64700
C  47.41800 4.69400 46.88600
C  49.29100 1.97800 48.02700
C  49.34500 4.50900 45.26400
C  50.86200 4.82000 45.00600
N  44.67900 5.85300 47.16600
C  45.86700 6.61700 47.08800
C  45.53900 8.06600 46.95100
C  44.13100 8.11600 46.96900
C  43.67300 6.80100 47.09300
C  46.59600 9.15300 46.75600
C  42.97800 9.02900 46.87200
O  42.94600 10.23700 46.78900
C  41.68000 8.09400 46.83000
C  40.85300 8.37400 48.02500
O  41.19200 8.10300 49.14100
O  39.64200 8.90500 47.68800
C  38.67800 8.92000 48.84600
H  40.70800 1.36600 46.54900
H  47.06000 0.42100 46.81300
H  48.07200 6.63500 47.07600
H  39.62200 5.98400 47.15900
H  39.22100 3.27400 46.07900
H  39.00200 4.44100 48.68600
H  39.77100 2.85800 48.83800
H  38.18300 2.95300 48.19000
H  39.50600 4.84900 44.38200
H  40.63900 6.17100 44.63300
H  38.65700 7.37700 45.75900
H  37.66000 6.13500 44.98700
H  41.90800 -1.73100 47.82200
H  41.96700 -1.95200 46.00900
H  40.92400 -0.80400 46.59300
H  46.95500 -1.69100 45.50300
H  46.83000 -3.04500 46.48700
H  47.05000 -1.58100 47.38300
H  48.94900 1.98500 46.01500
H  49.37800 4.37800 47.49500
H  49.94100 1.18500 47.65700
H  48.67600 1.52700 48.80600
H  49.88100 2.74200 48.53500
H  48.72300 5.30100 44.84700
H  49.14900 3.66000 44.60800
H  51.25500 3.98800 44.42100
H  51.45600 4.76600 45.91800
H  51.07700 5.74000 44.46100
H  47.47500 8.88300 47.34300
H  46.20900 10.05900 47.22300
H  46.89500 9.24400 45.71200
H  41.21500 8.33100 45.87300
H  38.90000 9.60500 49.66500
H  38.50300 7.96400 49.33800
H  37.71000 9.31500 48.53800
Mg 42.76600 41.98100 26.34300
C  41.84000 43.99000 28.81600
C  44.10700 39.74000 28.52800
C  43.95600 40.16500 23.63700
C  41.66200 44.43300 23.93500
N  42.87500 41.85700 28.44900
C  42.26000 42.74600 29.30800
C  42.38600 42.21600 30.78900
C  43.19300 40.91700 30.65800
C  43.34700 40.76800 29.11200
C  44.51500 40.84200 31.42700
C  40.91900 42.22200 31.48800
C  40.76900 41.43600 32.77100
H  39.84300 41.99300 33.86500
N  43.81600 40.23100 26.09600
C  44.35700 39.50800 27.14600
C  44.95400 38.33900 26.56600
C  44.89300 38.34200 25.19100
C  44.21500 39.64400 24.94200
C  45.60000 37.34500 27.44300
C  45.40500 37.39200 24.15800
O  45.18600 37.56600 22.99900
C  46.11000 36.20900 24.62800
N  42.76200 42.23100 24.08600
C  43.32600 41.29600 23.20200
C  42.98100 41.60000 21.72500
C  42.01600 42.86500 21.88500
C  42.08700 43.20200 23.39000
C  44.24000 41.93000 20.88000
C  40.55900 42.68500 21.38400
C  39.51200 42.22700 22.45100
N  41.85700 43.81300 26.36000
C  41.65400 44.76400 25.38200
C  41.19600 45.97800 26.05300
C  41.22400 45.69200 27.44200
C  41.66100 44.37300 27.51800
C  40.70100 47.29400 25.45200
C  40.88800 46.22800 28.74600
O  40.39600 47.30300 29.08900
C  41.44500 45.13300 29.67500
C  42.67800 45.55900 30.48800
O  43.87200 45.51900 30.11300
O  42.29700 45.90000 31.73400
C  43.43100 46.28300 32.59800
H  44.58700 39.07900 29.25300
H  44.37200 39.70700 22.73700
H  41.26800 45.28800 23.38300
H  42.93200 42.95500 31.37600
H  42.53100 40.10200 30.95100
H  44.81000 41.79600 31.86500
H  45.29000 40.56300 30.71200
H  44.64000 40.06300 32.17900
H  40.13100 42.02000 30.76300
H  40.67500 43.22600 31.83500
H  41.74300 41.14700 33.16600
H  40.24400 40.52700 32.47800
H  46.61500 37.11900 27.11500
H  45.08200 36.40400 27.25900
H  45.75900 37.61400 28.48700
H  46.23500 35.55000 23.76900
H  45.46600 35.72300 25.36000
H  47.04600 36.48700 25.11200
H  42.39400 40.73800 21.40900
H  42.55800 43.62100 21.31800
H  45.17700 42.01400 21.43200
H  44.15600 42.77700 20.20000
H  44.23400 41.01400 20.28800
H  40.50700 42.06500 20.48900
H  40.18900 43.64100 21.01500
H  39.04000 43.03800 23.00600
H  39.97900 41.49900 23.11500
H  38.80800 41.50200 22.04400
H  40.65600 47.26300 24.36400
H  41.36300 48.10300 25.76200
H  39.69400 47.53100 25.79500
H  40.61500 44.94300 30.35500
H  43.64200 47.35200 32.61000
H  44.36600 45.74700 32.43300
H  43.23300 46.17900 33.66500

