158

Mg 25.13000 1.31600 30.08200
C  27.26900 0.98500 32.73200
C  22.42200 1.39000 32.34500
C  22.98600 1.22200 27.53600
C  27.80400 0.61900 27.96400
N  24.92400 1.28500 32.35700
C  25.97400 1.21400 33.22500
C  25.50700 1.51600 34.66300
C  23.91800 1.45100 34.51300
C  23.66400 1.39300 32.98500
C  23.15000 0.26300 35.24200
C  26.10200 2.87300 35.18400
C  26.75600 2.80100 36.61200
H  26.11600 3.70300 37.65700
N  23.00000 1.28500 30.00300
C  22.07500 1.27100 31.01600
C  20.76700 1.04200 30.46000
C  20.88800 0.92600 29.03800
C  22.30100 1.18100 28.78000
C  19.52600 0.88000 31.31600
C  19.84000 0.62000 27.94900
O  20.11400 0.34600 26.79700
C  18.42600 0.53900 28.33400
N  25.41300 0.98500 28.06300
C  24.37100 1.13200 27.20000
C  24.91600 1.22600 25.73700
C  26.42600 1.23900 25.95600
C  26.51300 0.92800 27.45100
C  24.42600 0.07800 24.81600
C  27.22500 2.53800 25.46400
C  26.82600 3.85900 26.12500
N  27.15700 0.82300 30.26800
C  28.13800 0.55400 29.31400
C  29.46200 0.39000 29.93500
C  29.17900 0.59300 31.31200
C  27.74800 0.74100 31.44000
C  30.81800 0.19900 29.30000
C  29.74500 0.87300 32.65100
O  30.90100 1.00400 33.05000
C  28.58200 1.02500 33.56000
C  28.61300 -0.05100 34.57300
O  28.62100 -1.23800 34.33800
O  28.77800 0.47000 35.81800
C  29.25900 -0.33400 36.90300
H  21.55200 1.53700 32.98900
H  22.37000 1.08600 26.64500
H  28.58900 0.70200 27.21000
H  25.74900 0.71700 35.36300
H  23.55000 2.43300 34.81000
H  22.73100 -0.36500 34.45600
H  22.24800 0.67200 35.69800
H  23.83000 -0.29600 35.88400
H  25.31200 3.62300 35.22200
H  26.86800 3.34500 34.56800
H  27.75100 3.22400 36.47400
H  26.86600 1.78900 37.00000
H  18.97200 1.81700 31.26900
H  19.72600 0.58100 32.34400
H  18.94800 0.03100 30.95000
H  18.12000 1.51800 28.70000
H  18.14400 -0.28000 28.99600
H  17.93000 0.30600 27.39200
H  24.68200 2.16400 25.23500
H  26.95600 0.44300 25.43200
H  23.66200 -0.54800 25.27700
H  25.26500 -0.56000 24.53700
H  24.14000 0.49600 23.85100
H  26.95600 2.62200 24.41100
H  28.31000 2.43300 25.45900
H  27.65100 4.24600 26.72400
H  25.98900 3.59400 26.77200
H  26.50400 4.53700 25.33500
H  30.76400 -0.02900 28.23600
H  31.42900 -0.41900 29.95800
H  31.32200 1.16500 29.30700
H  28.61000 1.99600 34.05400
H  28.71300 -0.15500 37.82900
H  30.28400 0.00100 37.06100
H  29.17800 -1.40400 36.70800
Mg -5.03600 24.99700 26.12000
C  -3.77400 26.21300 29.09200
C  -7.07200 22.82100 27.95600
C  -6.06500 23.45700 23.25800
C  -2.90800 26.95500 24.31300
N  -5.32200 24.61100 28.28800
C  -4.78100 25.37500 29.30200
C  -5.28400 24.94200 30.67300
C  -6.14500 23.66800 30.23400
C  -6.19700 23.69900 28.74100
C  -5.67100 22.28800 30.82600
C  -6.12400 26.09700 31.42300
C  -6.19100 26.02800 32.95600
H  -5.53100 24.78300 33.66800
N  -6.45200 23.47800 25.65100
C  -7.23500 22.74800 26.56500
C  -8.08200 21.79900 25.86100
C  -7.81300 22.03400 24.53400
C  -6.70600 22.97500 24.41800
C  -9.19700 21.01700 26.46600
C  -8.60600 21.36500 23.44100
O  -8.18900 21.50000 22.29500
C  -9.87000 20.62000 23.62400
N  -4.52600 25.14000 24.05000
C  -5.09700 24.41000 23.07200
C  -4.38000 24.71500 21.68300
C  -3.60500 25.99700 22.01400
C  -3.61700 26.02200 23.55800
C  -3.48200 23.52400 21.16200
C  -4.19700 27.32800 21.43600
C  -3.28400 28.12700 20.43000
N  -3.52500 26.23100 26.57100
C  -2.84700 27.14700 25.71000
C  -2.02500 27.97700 26.59200
C  -2.40300 27.69200 27.90100
C  -3.22400 26.52600 27.85900
C  -1.06500 29.05600 26.20600
C  -2.15400 28.02500 29.26900
O  -1.50600 28.95800 29.77900
C  -3.04300 27.04300 30.11000
C  -2.09300 26.38400 31.09600
O  -1.26100 25.52400 30.85800
O  -2.27800 26.93000 32.29500
C  -1.54500 26.49600 33.46800
H  -7.73900 22.22700 28.58400
H  -6.35300 22.98300 22.31700
H  -2.34700 27.77900 23.86700
H  -4.35300 24.70300 31.18600
H  -7.20500 23.81600 30.44400
H  -6.45800 21.65800 31.24000
H  -5.00500 22.49500 31.66300
H  -5.22400 21.67000 30.04700
H  -7.14800 26.18500 31.06000
H  -5.73900 27.08900 31.18400
H  -7.24700 25.97000 33.21900
H  -5.71000 26.90300 33.39300
H  -9.07900 21.06000 27.54900
H  -9.12000 19.94200 26.30500
H  -10.19600 21.40400 26.26500
H  -9.70600 19.65700 24.10800
H  -10.30100 20.47700 22.63400
H  -10.62900 21.04500 24.28000
H  -5.07800 24.99500 20.89400
H  -2.55300 25.82200 21.79000
H  -4.02300 23.31600 20.23900
H  -3.57400 22.68500 21.85000
H  -2.41200 23.71700 21.07500
H  -4.41800 28.04100 22.23000
H  -5.13700 27.05100 20.96000
H  -3.55800 28.08500 19.37600
H  -2.27900 27.70400 20.44400
H  -3.31200 29.19400 20.64800
H  -0.69300 28.87800 25.19700
H  -0.20800 29.19700 26.86400
H  -1.59900 30.00300 26.12000
H  -3.77300 27.61600 30.68200
H  -1.37900 27.29800 34.18800
H  -0.67500 25.92100 33.15200
H  -2.10500 25.72200 33.99200

