158

Mg 0.35300 7.85300 25.23600
C  1.16700 10.04300 27.87500
C  0.36600 5.12400 27.39300
C  -0.61600 5.95100 22.77100
C  0.60900 10.66400 23.03200
N  0.90200 7.61000 27.29700
C  1.00500 8.68100 28.20200
C  1.13600 8.04600 29.62700
C  0.98200 6.57200 29.46700
C  0.68600 6.42400 27.97700
C  2.20300 5.64300 29.92300
C  0.17600 8.57600 30.69100
C  0.53400 8.68100 32.16800
H  1.74900 7.92600 32.70300
N  -0.00200 5.80700 25.03200
C  0.01700 4.81900 26.02800
C  -0.37100 3.55500 25.51100
C  -0.65000 3.72200 24.11600
C  -0.50900 5.22800 23.91600
C  -0.48300 2.34600 26.40800
C  -0.85000 2.71700 23.09000
O  -0.98800 3.03900 21.93100
C  -0.83600 1.26300 23.35300
N  -0.03400 8.33200 23.24100
C  -0.37600 7.28500 22.48100
C  -0.55500 7.74300 21.01100
C  -0.28200 9.30800 21.10400
C  0.08900 9.44700 22.54700
C  0.21100 7.01400 19.93700
C  -1.45600 10.14500 20.66500
C  -1.17000 11.14100 19.55600
N  0.83100 9.92000 25.33700
C  0.96600 10.93800 24.34200
C  1.30300 12.19200 25.05800
C  1.36000 11.93000 26.44100
C  1.11600 10.47500 26.55800
C  1.43700 13.48100 24.41600
C  1.68400 12.38900 27.74800
O  2.12200 13.55800 28.06100
C  1.46300 11.20400 28.78700
C  2.66700 11.15600 29.65500
O  3.63000 10.45300 29.41100
O  2.46500 11.91000 30.80900
C  3.69300 12.01900 31.71600
H  0.25600 4.33000 28.13500
H  -0.97000 5.37500 21.91400
H  0.60300 11.49000 22.31800
H  2.12600 8.20800 30.05400
H  0.10300 6.28400 30.04500
H  2.89300 6.21600 30.54100
H  2.73900 5.20100 29.08200
H  1.88500 4.85700 30.60800
H  -0.81700 8.15200 30.53900
H  0.00300 9.60600 30.37900
H  -0.34000 8.28800 32.68800
H  0.53900 9.72100 32.49600
H  -1.49400 1.93700 26.40800
H  -0.32500 2.58000 27.46100
H  0.28400 1.58900 26.25100
H  -1.57100 0.99700 24.11200
H  0.09300 0.89900 23.79200
H  -0.96500 0.65600 22.45600
H  -1.62700 7.58600 20.89700
H  0.61600 9.53400 20.52900
H  -0.37200 6.18300 19.53900
H  1.14400 6.61900 20.33900
H  0.38000 7.76500 19.16500
H  -1.76600 10.76600 21.50500
H  -2.28300 9.51900 20.33000
H  -0.54400 10.80000 18.73200
H  -0.57900 11.82400 20.16600
H  -2.02200 11.71900 19.19600
H  0.68200 13.44400 23.63000
H  2.36100 13.47000 23.83800
H  1.40400 14.38500 25.02400
H  0.63000 11.51100 29.42000
H  4.58000 11.82500 31.11300
H  3.69300 11.38000 32.59900
H  3.90400 13.01400 32.10900
Mg 43.37500 5.07200 47.03500
C  40.93100 7.45900 46.96500
C  40.83000 2.63700 46.75800
C  45.68100 2.72100 46.58000
C  45.82000 7.52000 47.21100
N  41.09200 5.04100 46.79200
C  40.32100 6.16800 46.85300
C  38.90100 5.82100 46.88000
C  38.86200 4.26700 46.91600
C  40.34800 3.92900 46.81800
C  38.25000 3.62200 48.21000
C  38.10200 6.36000 45.67500
C  38.71200 6.09300 44.23100
H  38.94500 7.32600 43.23200
N  43.27600 2.98600 46.80200
C  42.13000 2.18600 46.73400
C  42.55200 0.79000 46.70800
C  43.99100 0.73900 46.70800
C  44.40400 2.16000 46.74700
C  41.63800 -0.47100 46.59400
C  44.87000 -0.52200 47.00500
O  44.45800 -1.64000 47.03600
C  46.35300 -0.37600 47.19300
N  45.51700 5.14200 47.09400
C  46.20400 4.03500 46.71500
C  47.76000 4.41900 46.42300
C  47.79800 5.82500 46.88200
C  46.30200 6.21700 47.08100
C  48.84500 3.52400 47.21000
C  48.63100 6.85300 45.97900
C  49.85600 7.43500 46.64900
N  43.37700 7.11300 47.14700
C  44.42600 7.96000 47.19100
C  43.88100 9.35400 47.06600
C  42.50200 9.15600 46.94600
C  42.27800 7.79000 47.10000
C  44.82800 10.54600 46.92900
C  41.36400 9.81500 46.85700
O  41.22100 11.03300 46.69300
C  40.21000 8.78800 46.86700
C  39.29200 9.00900 47.98000
O  39.53800 8.67000 49.14900
O  38.12200 9.63300 47.48800
C  37.14900 9.99200 48.59800
H  40.06900 1.86600 46.89800
H  46.44700 2.00200 46.28200
H  46.57600 8.30800 47.18300
H  38.36900 6.18400 47.75900
H  38.42100 3.96800 45.96500
H  38.86000 2.79700 48.58000
H  37.20400 3.43600 47.96600
H  38.22300 4.38500 48.98700
H  38.02000 7.43900 45.80600
H  37.12000 5.88900 45.67900
H  38.01200 5.47300 43.67100
H  39.62900 5.50900 44.30000
H  41.88500 -1.08000 45.72500
H  40.60900 -0.13100 46.47900
H  41.79600 -1.09700 47.47300
H  46.40500 0.31700 48.03300
H  46.84900 -0.01200 46.29400
H  46.68100 -1.34600 47.56800
H  47.90200 4.25600 45.35500
H  48.20300 5.83200 47.89400
H  49.30900 2.79400 46.54600
H  48.26600 2.94600 47.93000
H  49.67300 4.07200 47.65800
H  48.16600 7.81300 45.75800
H  48.94800 6.36900 45.05500
H  49.92900 8.51900 46.55300
H  50.79100 7.02800 46.26300
H  50.05100 7.14600 47.68100
H  45.64800 10.38900 46.22800
H  45.24900 10.78800 47.90500
H  44.19700 11.39100 46.65500
H  39.69000 8.92700 45.92000
H  36.80800 9.06700 49.06200
H  36.27600 10.46400 48.14600
H  37.69800 10.63200 49.28800

