158

Mg 41.08500 9.57800 29.49400
C  43.27600 10.88500 32.03400
C  38.97100 8.40600 31.95500
C  39.25500 8.49400 27.04800
C  43.59900 10.44500 27.17600
N  41.24000 9.51500 31.78600
C  42.10500 10.20700 32.58300
C  41.64800 10.29800 34.02100
C  40.39200 9.32300 34.05300
C  40.21900 8.91300 32.50800
C  40.53900 8.04000 34.83700
C  41.40000 11.74400 34.50400
C  40.41000 12.05500 35.59500
H  40.85700 12.79400 36.91500
N  39.40000 8.59500 29.49600
C  38.62300 8.24500 30.59200
C  37.43800 7.59500 30.12600
C  37.39800 7.67900 28.68700
C  38.73100 8.31100 28.33900
C  36.50200 6.94100 31.08000
C  36.34400 7.20400 27.68100
O  36.39300 7.24400 26.48000
C  35.06700 6.56700 28.31200
N  41.50800 9.18900 27.38800
C  40.44100 8.93500 26.54700
C  40.73800 9.16400 25.10000
C  42.25600 9.76300 25.15200
C  42.49800 9.73900 26.68600
C  40.52800 7.94400 24.23800
C  42.63400 11.08700 24.45000
C  42.01200 12.30600 25.16600
N  43.08600 10.37300 29.55300
C  43.90700 10.70000 28.51200
C  45.14800 11.27600 29.07900
C  44.90800 11.39900 30.45100
C  43.67600 10.84300 30.68000
C  46.27900 11.91000 28.28000
C  45.50100 11.86500 31.69100
O  46.60300 12.25000 32.07300
C  44.39600 11.69600 32.75000
C  44.95200 11.03000 33.91700
O  45.04900 9.85800 34.06900
O  45.35200 12.04900 34.86300
C  45.41000 11.68600 36.32200
H  38.15300 8.20500 32.65000
H  38.63900 8.19200 26.19800
H  44.26500 10.74900 26.36600
H  42.48300 9.94200 34.62400
H  39.47800 9.79900 34.40900
H  41.49800 7.94900 35.34900
H  40.26500 7.12200 34.31700
H  39.76800 8.02400 35.60700
H  41.08600 12.33400 33.64300
H  42.36700 12.14900 34.80200
H  39.88500 11.15300 35.90700
H  39.61100 12.69600 35.22400
H  35.68200 7.61600 31.32200
H  36.82800 6.69500 32.09100
H  36.05600 6.06100 30.61600
H  35.42300 5.62100 28.71800
H  34.38700 6.33000 27.49400
H  34.61600 7.21000 29.06700
H  40.16000 10.00800 24.72300
H  42.82900 8.95300 24.70000
H  40.48500 7.15100 24.98500
H  41.40400 7.74700 23.61900
H  39.52200 8.02500 23.82700
H  42.27500 11.15600 23.42300
H  43.71800 11.19400 24.42800
H  42.90900 12.88000 25.39600
H  41.26700 12.03500 25.91500
H  41.53100 12.87500 24.37100
H  45.89900 12.24100 27.31400
H  47.07600 11.17800 28.14700
H  46.68200 12.72500 28.88100
H  44.11300 12.72100 32.99100
H  44.41800 11.53400 36.74800
H  45.89600 12.50200 36.85600
H  45.93300 10.73600 36.43700
Mg 36.92600 49.29400 25.44200
C  37.01200 47.10500 28.25700
C  34.87100 51.32000 27.40100
C  36.06900 50.91000 22.67100
C  38.15000 46.61100 23.48100
N  36.13700 49.18400 27.60400
C  36.43200 48.33000 28.62400
C  36.03300 48.74800 30.02100
C  35.07300 49.91100 29.61700
C  35.37100 50.20400 28.15200
C  33.54300 49.76400 30.04000
C  37.35300 49.16200 30.63500
C  37.63200 48.63000 32.01900
H  36.38600 48.51200 32.93200
N  35.83200 50.96100 25.14400
C  35.16600 51.67600 26.06500
C  34.77600 53.02100 25.49300
C  35.05400 52.92500 24.07100
C  35.67800 51.55000 23.90800
C  34.42400 54.23200 26.38300
C  34.84100 53.88900 23.00300
O  35.04500 53.54600 21.84700
C  34.45900 55.31600 23.27000
N  37.17100 48.80500 23.44700
C  36.68200 49.67000 22.45900
C  36.96800 49.17700 21.04600
C  37.83700 47.88600 21.36600
C  37.69100 47.71800 22.80900
C  35.75400 48.99800 20.13700
C  39.34200 48.06100 20.89900
C  40.44700 48.60600 21.84500
N  37.52300 47.30800 25.74800
C  38.09400 46.41500 24.87700
C  38.35900 45.18700 25.60000
C  38.04000 45.48800 26.96700
C  37.47200 46.67500 26.98300
C  38.68500 43.86200 25.03300
C  37.94700 44.87400 28.25500
O  38.16300 43.73200 28.55900
C  37.51700 45.99800 29.20300
C  36.41300 45.39400 30.04300
O  35.26200 45.28800 29.67800
O  36.89400 45.08100 31.30200
C  35.89100 44.78400 32.32000
H  34.24600 51.96400 28.02300
H  35.88500 51.42100 21.72300
H  38.73500 45.87000 22.93200
H  35.45600 47.99400 30.55600
H  35.39200 50.80600 30.15200
H  32.87400 49.78000 29.17900
H  33.39900 50.72200 30.54000
H  33.29200 48.94600 30.71400
H  37.49000 50.23900 30.73400
H  38.17700 48.81000 30.01400
H  38.19000 49.38200 32.57700
H  38.31000 47.77900 32.07900
H  33.82300 54.97300 25.85500
H  35.27900 54.72900 26.84100
H  33.79700 53.93000 27.22200
H  35.18300 55.74700 23.96200
H  33.44400 55.32800 23.66800
H  34.47600 55.81500 22.30100
H  37.57000 49.96200 20.58900
H  37.56100 47.00500 20.78800
H  35.83400 48.19400 19.40600
H  35.51600 49.90500 19.58100
H  34.86600 48.80100 20.73800
H  39.38100 48.61400 19.96100
H  39.70800 47.06900 20.63600
H  39.96300 48.96800 22.75200
H  41.08000 49.33900 21.34400
H  40.96600 47.66400 22.02200
H  39.07300 43.22900 25.83100
H  39.50600 43.92400 24.31900
H  37.85800 43.41200 24.48300
H  38.38900 46.38400 29.73200
H  35.54500 43.75400 32.24500
H  34.97800 45.37400 32.24300
H  36.36100 45.12500 33.24300

