158

Mg 43.45900 5.73300 47.17300
C  41.59800 8.78500 46.60500
C  40.60700 4.02000 46.43400
C  45.36800 2.95400 46.84200
C  46.36200 7.69800 46.78300
N  41.38600 6.35400 46.68600
C  40.88000 7.59200 46.43400
C  39.36300 7.49300 46.14100
C  39.03600 5.96100 46.20500
C  40.39700 5.38700 46.46900
C  37.91800 5.49100 47.22000
C  38.85000 8.34000 44.86400
C  39.73300 8.14100 43.56800
H  39.04100 8.47000 42.28300
N  43.04700 3.72500 46.80300
C  41.76600 3.21800 46.52500
C  41.87400 1.75100 46.35800
C  43.24400 1.37600 46.61500
C  43.95300 2.65800 46.82300
C  40.66900 0.86600 46.20400
C  43.71300 -0.00000 46.50700
O  42.97900 -0.90600 46.25200
C  45.16900 -0.34000 46.71800
N  45.54500 5.40800 46.76700
C  46.09400 4.16600 46.73100
C  47.61600 4.17800 46.68500
C  47.97800 5.64400 46.94400
C  46.54600 6.31900 46.76200
C  48.29400 3.12800 47.67700
C  49.10400 6.34500 46.09400
C  50.34600 5.46800 45.70700
N  43.90000 7.80800 47.04200
C  45.12800 8.43600 46.91500
C  44.90500 9.88600 46.97500
C  43.51700 10.00400 46.91700
C  42.96900 8.74200 46.86400
C  46.00200 10.97300 46.84000
C  42.46600 11.02600 46.83400
O  42.47400 12.23100 46.86000
C  41.14300 10.19500 46.58200
C  40.26400 10.54100 47.71400
O  40.29500 9.96600 48.79300
O  39.43800 11.68100 47.43000
C  38.46900 11.93000 48.53100
H  39.77600 3.35600 46.18500
H  46.02800 2.08800 46.75700
H  47.25500 8.32200 46.70700
H  38.86800 7.99700 46.97100
H  38.70900 5.64400 45.21500
H  37.57800 6.36000 47.78300
H  38.31200 4.76000 47.92600
H  37.07900 5.03800 46.69100
H  38.84600 9.34700 45.28200
H  37.79800 8.15400 44.64600
H  40.04200 7.09900 43.49000
H  40.62800 8.76200 43.55700
H  40.87800 0.24300 45.33400
H  39.80400 1.44900 45.89000
H  40.47400 0.14700 47.00000
H  45.87200 0.06100 45.98700
H  45.31800 -1.41900 46.77000
H  45.38400 0.07300 47.70400
H  47.89400 3.84900 45.68400
H  48.14800 5.73100 48.01700
H  49.23800 3.49000 48.08400
H  48.48500 2.17000 47.19400
H  47.69000 2.92500 48.56100
H  49.40700 7.22900 46.65600
H  48.64800 6.61700 45.14200
H  50.45800 5.57700 44.62800
H  50.21900 4.39900 45.87700
H  51.23300 5.83100 46.22700
H  46.70100 10.71800 46.04300
H  46.56800 11.03100 47.77000
H  45.57300 11.93900 46.57500
H  40.59600 10.51300 45.69400
H  37.70700 11.15300 48.59400
H  37.84400 12.82300 48.50800
H  39.01000 11.98700 49.47500
Mg -12.88100 16.28700 40.99200
C  -9.85800 14.60000 40.35400
C  -11.35800 19.18600 39.73000
C  -15.93600 17.83000 40.61100
C  -14.49600 13.16100 40.95600
N  -10.81100 16.76700 40.15200
C  -9.74900 15.94600 40.05100
C  -8.66200 16.60500 39.28500
C  -9.08300 18.12400 39.31000
C  -10.48900 18.03900 39.80900
C  -8.08500 19.08300 40.06200
C  -8.35500 16.04500 37.85800
C  -6.87100 16.25500 37.47900
H  -6.26500 15.30700 36.48400
N  -13.51800 18.30100 40.51400
C  -12.72900 19.27300 39.95700
C  -13.57200 20.43800 39.79700
C  -14.90200 20.07400 40.16600
C  -14.83300 18.65700 40.44200
C  -13.07800 21.74300 39.24800
C  -16.04000 20.95200 40.16900
O  -15.89600 22.19200 39.87200
C  -17.35200 20.56100 40.80900
N  -14.99300 15.62800 40.90500
C  -16.05300 16.48500 40.81200
C  -17.38400 15.69500 40.99800
C  -16.91300 14.21800 40.95700
C  -15.35800 14.31200 40.95500
C  -18.19600 16.09100 42.18700
C  -17.37100 13.37600 39.79000
C  -18.16300 12.10500 40.08500
N  -12.36000 14.30500 41.01500
C  -13.10400 13.16300 41.06700
C  -12.19300 11.98800 41.07900
C  -10.87800 12.51700 40.94900
C  -11.06500 13.94200 40.85200
C  -12.48500 10.53900 40.96100
C  -9.44800 12.16600 40.68700
O  -8.88400 11.10300 40.46100
C  -8.75000 13.55400 40.38200
C  -7.80100 13.88900 41.44600
O  -8.02200 14.23800 42.59400
O  -6.56700 13.85300 40.86700
C  -5.44800 14.39000 41.74300
H  -10.80000 20.00400 39.26900
H  -16.93900 18.16800 40.34200
H  -14.93200 12.19600 41.22100
H  -7.72800 16.52700 39.84200
H  -9.02600 18.54600 38.30600
H  -7.69300 19.85000 39.39400
H  -7.19900 18.54200 40.39700
H  -8.47600 19.72600 40.84900
H  -8.95900 16.60000 37.14000
H  -8.67900 15.00900 37.75600
H  -6.25300 16.29800 38.37500
H  -6.76000 17.22800 37.00000
H  -13.78200 22.14900 38.52200
H  -12.16300 21.68800 38.65700
H  -12.79800 22.50600 39.97400
H  -18.06500 20.18700 40.07500
H  -17.87200 21.42800 41.21600
H  -17.11500 19.91900 41.65800
H  -18.03900 15.89900 40.15000
H  -17.29400 13.70600 41.84100
H  -19.15300 16.35900 41.73900
H  -17.58600 16.92200 42.54200
H  -18.24700 15.26100 42.89200
H  -16.54200 12.93400 39.23600
H  -17.97400 13.91100 39.05700
H  -17.89900 11.49100 39.22400
H  -19.24600 12.22300 40.12400
H  -17.81000 11.48600 40.91000
H  -13.27300 10.36900 40.22700
H  -12.59900 10.04900 41.92800
H  -11.63800 10.10800 40.42700
H  -8.17600 13.41100 39.46600
H  -4.55300 14.45500 41.12500
H  -5.27800 13.68000 42.55200
H  -5.53100 15.37900 42.19300

