158

Mg 55.28900 23.21500 45.10000
C  53.11600 25.90400 44.16400
C  53.12800 21.08400 43.68500
C  57.77100 21.10500 44.92900
C  57.62800 25.92800 46.03100
N  53.42400 23.59400 43.91400
C  52.69300 24.68700 43.68500
C  51.32900 24.37300 42.99000
C  51.23000 22.82600 43.26300
C  52.69400 22.42800 43.65800
C  50.08700 22.41400 44.26600
C  51.25900 24.65900 41.49600
C  49.85800 25.17600 41.03200
H  49.32200 24.47300 39.86900
N  55.44700 21.22900 44.46000
C  54.40200 20.54300 43.95400
C  54.84000 19.21400 43.65200
C  56.23900 19.11000 44.17100
C  56.55000 20.51300 44.54200
C  54.07700 18.05800 43.16500
C  57.10200 17.86900 44.02700
O  56.69400 16.83000 43.44200
C  58.35400 17.86800 44.72100
N  57.37300 23.52400 45.25200
C  58.17300 22.37100 45.26100
C  59.64000 22.73300 45.37700
C  59.58200 24.16700 45.98200
C  58.09900 24.61900 45.66600
C  60.61000 21.75900 46.24600
C  60.72400 25.12100 45.62100
C  61.40600 25.71000 46.92600
N  55.34500 25.44800 45.31300
C  56.31300 26.35800 45.70700
C  55.69600 27.64600 45.75200
C  54.43900 27.56200 45.21600
C  54.31000 26.21800 44.85800
C  56.36400 28.86200 46.22300
C  53.28300 28.29900 44.75000
O  53.00900 29.46700 44.77700
C  52.34000 27.19500 44.10400
C  52.02600 27.74500 42.78300
O  52.76800 27.87500 41.81900
O  50.81300 28.33300 42.87600
C  50.46300 29.15100 41.73700
H  52.45400 20.35400 43.23200
H  58.63400 20.44200 45.01000
H  58.43700 26.63700 46.21700
H  50.52700 24.86700 43.53900
H  51.01800 22.21100 42.38800
H  49.68200 21.42200 44.06500
H  49.30000 23.16900 44.23700
H  50.49600 22.35300 45.27500
H  51.56100 23.83700 40.84700
H  52.01900 25.40200 41.25400
H  50.12500 26.18500 40.71800
H  49.12600 25.19200 41.84000
H  54.37800 17.64000 42.20500
H  53.07300 18.36300 42.86700
H  53.99100 17.23400 43.87300
H  59.17500 18.19600 44.08400
H  58.56900 16.83000 44.97800
H  58.34800 18.34100 45.70300
H  59.88100 22.75200 44.31500
H  59.51300 24.07300 47.06600
H  61.07000 22.36100 47.02900
H  61.35000 21.22300 45.65200
H  59.88400 21.16700 46.80300
H  60.36300 25.92700 44.98200
H  61.58700 24.72700 45.08400
H  61.85400 24.94600 47.56100
H  60.64700 26.27000 47.47200
H  62.19700 26.41900 46.68400
H  56.08100 29.00900 47.26500
H  56.08700 29.70500 45.59000
H  57.45300 28.84600 46.16100
H  51.49300 27.15600 44.78900
H  50.29800 28.53100 40.85700
H  51.16400 29.98000 41.63900
H  49.53200 29.67200 41.96400
Mg -10.16900 17.63100 40.72700
C  -6.62200 17.23900 40.54400
C  -9.72400 20.99200 39.83100
C  -13.43900 17.88900 40.05000
C  -10.35200 14.12000 40.65800
N  -8.38600 18.85700 40.11600
C  -7.03600 18.53200 40.24900
C  -6.19100 19.74200 39.90600
C  -7.14900 20.89900 40.09900
C  -8.49500 20.25800 40.02200
C  -6.83300 21.91800 41.27200
C  -5.87300 19.59500 38.36200
C  -4.45400 19.52200 37.91100
H  -4.23500 18.57900 36.79300
N  -11.42700 19.23500 40.10400
C  -10.99900 20.53400 39.81800
C  -12.14100 21.28700 39.52400
C  -13.26500 20.43100 39.91100
C  -12.74500 19.11500 40.07600
C  -12.24700 22.80900 39.13100
C  -14.76200 20.93000 39.94500
O  -15.03500 22.10700 39.69000
C  -15.96600 20.09300 40.40400
N  -11.57200 16.17800 40.10400
C  -12.92800 16.56800 40.04500
C  -13.85600 15.40300 40.06700
C  -12.89800 14.17900 40.12300
C  -11.50400 14.83200 40.29900
C  -14.97000 15.52500 41.14800
C  -12.98700 13.13900 39.00200
C  -13.58300 11.80400 39.42500
N  -8.85300 16.01200 40.90100
C  -9.04200 14.64300 40.82900
C  -7.80600 13.94800 40.91700
C  -6.79500 14.93000 40.84400
C  -7.50800 16.17700 40.79900
C  -7.52100 12.50500 40.99100
C  -5.40400 15.16000 40.62700
O  -4.42500 14.40600 40.53200
C  -5.26100 16.68900 40.63400
C  -4.37200 17.12900 41.68300
O  -3.49300 17.96300 41.56600
O  -4.61600 16.48000 42.84100
C  -3.54300 16.62300 43.88200
H  -9.55600 22.07000 39.76700
H  -14.52200 17.94400 39.92200
H  -10.49900 13.03900 40.71300
H  -5.26700 19.70100 40.48300
H  -7.19700 21.51000 39.19700
H  -6.36200 22.82800 40.90200
H  -6.17300 21.37800 41.95100
H  -7.74300 22.10000 41.84300
H  -6.29700 20.38700 37.74400
H  -6.28100 18.69700 37.89800
H  -3.83400 19.06600 38.68200
H  -4.07000 20.50200 37.62600
H  -11.35900 23.11900 38.58200
H  -12.42100 23.34700 40.06300
H  -13.01500 23.09600 38.41300
H  -16.43600 19.49800 39.62100
H  -16.66700 20.64700 41.02900
H  -15.64300 19.31400 41.09500
H  -14.35800 15.40500 39.09900
H  -13.01700 13.71300 41.10100
H  -14.80700 16.41200 41.76000
H  -14.78500 14.78400 41.92600
H  -15.98000 15.51500 40.73800
H  -11.98900 12.97100 38.59700
H  -13.70500 13.44700 38.24200
H  -13.74900 11.70100 40.49700
H  -12.92400 11.06800 38.96300
H  -14.58100 11.79500 38.98700
H  -6.73100 12.26100 40.28100
H  -8.35700 11.88200 40.67400
H  -7.29200 12.15300 41.99700
H  -4.67400 16.84100 39.72800
H  -3.78400 15.85000 44.61200
H  -3.55000 17.62400 44.31300
H  -2.59400 16.46200 43.37000

