158

Mg 41.60100 41.20800 26.44200
C  40.91000 43.59700 28.83200
C  42.48800 39.07200 29.09900
C  42.11500 38.86200 24.19200
C  40.85700 43.51300 23.90200
N  41.87600 41.44300 28.70100
C  41.36500 42.41900 29.44700
C  41.48500 42.15100 30.93100
C  42.39000 40.87200 30.94000
C  42.28900 40.42800 29.49200
C  43.88300 41.07900 31.47100
C  40.19700 41.99800 31.77600
C  40.19200 42.75600 33.07200
H  39.47100 42.11300 34.34000
N  42.36500 39.32400 26.60800
C  42.51700 38.58600 27.77200
C  42.97200 37.29400 27.33800
C  43.02300 37.25500 25.91800
C  42.42000 38.51100 25.50300
C  43.31600 36.21200 28.35000
C  43.55000 36.15900 24.96200
O  43.70000 36.27500 23.75000
C  43.86700 34.79200 25.50600
N  41.60200 41.18100 24.32800
C  41.76800 40.01800 23.63400
C  41.46300 40.22400 22.11500
C  41.09000 41.77300 22.08600
C  41.24800 42.23600 23.52400
C  42.68700 39.76900 21.19200
C  39.70600 41.93500 21.53400
C  38.52700 41.91000 22.48700
N  41.03000 43.13700 26.33200
C  40.73100 43.97000 25.24700
C  40.35000 45.28100 25.69400
C  40.34300 45.22100 27.14200
C  40.76000 43.88400 27.45300
C  40.02400 46.56400 24.85800
C  39.93700 45.86100 28.36500
O  39.30600 46.90300 28.57400
C  40.33000 44.82200 29.55400
C  41.31600 45.52500 30.43200
O  42.39400 46.01700 30.14800
O  40.77000 45.68800 31.63300
C  41.50500 46.52700 32.57000
H  42.64700 38.32700 29.88100
H  42.01500 38.13400 23.38400
H  40.52300 44.25500 23.17400
H  42.07700 42.98800 31.30300
H  41.84900 40.13000 31.52700
H  44.00000 42.16200 31.44900
H  44.50400 40.54000 30.75600
H  44.01700 40.79500 32.51500
H  39.82900 40.97300 31.82500
H  39.40200 42.46000 31.19100
H  39.77400 43.75300 32.93600
H  41.21200 42.95400 33.40000
H  42.77000 36.33600 29.28600
H  44.37700 36.14900 28.58900
H  42.94600 35.22900 28.06000
H  44.83900 34.92600 25.98000
H  43.93600 34.09600 24.67100
H  43.03500 34.39600 26.08900
H  40.58600 39.60700 21.92200
H  41.82100 42.27500 21.45200
H  42.55900 38.74100 20.85300
H  43.61000 39.74000 21.77100
H  42.79600 40.49900 20.39000
H  39.47700 41.10400 20.86600
H  39.68500 42.89900 21.02500
H  38.90200 41.64900 23.47700
H  37.84500 41.07800 22.31200
H  38.07100 42.89900 22.52600
H  40.24100 47.46700 25.42800
H  38.96200 46.78100 24.74100
H  40.77200 46.60300 24.06600
H  39.40300 44.57000 30.06800
H  41.90800 47.45000 32.15200
H  42.36700 45.89400 32.78000
H  40.99300 46.70800 33.51500
Mg 26.29700 49.98600 27.16900
C  24.47900 51.27700 29.80600
C  28.72000 49.15500 29.67300
C  28.37500 49.10800 24.74400
C  24.08100 51.35600 24.84300
N  26.54500 50.28900 29.57700
C  25.62800 50.78100 30.42700
C  25.97000 50.47700 31.83200
C  27.40500 49.99500 31.76900
C  27.59200 49.72800 30.24100
C  28.52700 51.01300 32.11300
C  24.92400 49.47100 32.45100
C  24.58300 49.83900 33.89000
H  25.54100 50.39000 34.92200
N  28.27400 49.22600 27.25300
C  29.11800 49.01300 28.29400
C  30.36700 48.46400 27.80200
C  30.32600 48.44200 26.36600
C  28.97000 48.98500 26.07100
C  31.58200 48.20600 28.70500
C  31.33600 47.96600 25.35400
O  31.14500 47.97200 24.16200
C  32.60600 47.57400 25.81800
N  26.22800 50.23000 25.13300
C  27.15000 49.65400 24.34100
C  26.72100 49.74700 22.87200
C  25.20400 50.17000 23.02300
C  25.15400 50.67600 24.43000
C  27.63200 50.84900 22.22400
C  24.11700 49.03000 22.79600
C  22.81500 49.46400 22.04500
N  24.54900 51.03600 27.28100
C  23.72900 51.48700 26.23200
C  22.62600 52.17400 26.79800
C  22.77000 52.07000 28.19400
C  24.05600 51.46300 28.46700
C  21.49900 52.76000 25.97500
C  22.18400 52.32500 29.52200
O  21.17000 52.78800 29.76000
C  23.19400 51.74900 30.56100
C  23.49300 52.75100 31.52700
O  24.22500 53.74500 31.40700
O  22.75900 52.49600 32.63700
C  22.80600 53.45300 33.73200
H  29.47700 48.79200 30.37100
H  29.03500 48.85500 23.91200
H  23.19900 51.47400 24.21100
H  25.99700 51.46800 32.28400
H  27.46900 49.13400 32.43400
H  28.90400 50.80900 33.11500
H  28.10500 52.01800 32.12000
H  29.30200 51.04300 31.34700
H  25.35600 48.47200 32.38600
H  24.01300 49.48600 31.85300
H  24.13000 48.98300 34.38900
H  23.65400 50.39800 33.78200
H  31.45700 48.66500 29.68600
H  32.43700 48.76500 28.32400
H  31.72800 47.14300 28.89300
H  33.11200 46.97500 25.06100
H  32.67600 46.91100 26.68000
H  33.21000 48.47500 25.92500
H  26.74700 48.75500 22.42000
H  24.98600 50.96200 22.30600
H  28.63800 50.92900 22.63600
H  27.14400 51.81300 22.36900
H  27.81300 50.66500 21.16500
H  23.77800 48.54700 23.71200
H  24.62200 48.25600 22.21900
H  22.86300 49.52600 20.95800
H  22.35300 50.42500 22.26800
H  22.15200 48.61800 22.23000
H  21.99800 53.48500 25.33300
H  20.83800 53.34500 26.61400
H  20.99900 52.02700 25.34200
H  22.67200 50.91700 31.03300
H  23.63400 53.36400 34.43600
H  21.87900 53.23700 34.26400
H  22.81600 54.42700 33.24300

