158

Mg 47.52800 16.60900 29.65400
C  45.51000 16.13000 32.48700
C  49.77800 18.30600 31.65300
C  49.26900 17.64900 26.96800
C  45.12000 15.31100 27.72600
N  47.64100 17.11500 31.80900
C  46.72500 16.74800 32.74000
C  47.29000 17.10100 34.12200
C  48.51900 17.94800 33.83100
C  48.67900 17.82300 32.32900
C  48.55500 19.41000 34.57300
C  47.54400 15.76400 34.96800
C  46.94200 15.61900 36.40700
H  46.89800 16.89200 37.27700
N  49.40700 17.67500 29.40100
C  50.14900 18.26400 30.31000
C  51.42300 18.74300 29.71800
C  51.29100 18.62000 28.33200
C  49.91600 17.93800 28.17800
C  52.70900 19.30600 30.45400
C  52.19400 18.91700 27.20400
O  51.90400 18.70900 26.05600
C  53.57900 19.45600 27.50100
N  47.37400 16.21800 27.57000
C  48.15400 16.86400 26.63600
C  47.58300 16.67300 25.21500
C  46.22300 15.96900 25.50000
C  46.20300 15.78300 27.04500
C  47.38800 17.93900 24.32600
C  45.99500 14.66700 24.65100
C  45.50800 14.97200 23.18600
N  45.69500 15.79200 29.93500
C  44.79000 15.30200 29.05400
C  43.60200 14.86800 29.80100
C  43.78900 15.14200 31.14400
C  45.10300 15.69700 31.18000
C  42.36900 14.19700 29.25800
C  43.28300 15.01900 32.52800
O  42.28200 14.56500 32.98500
C  44.42900 15.56500 33.43000
C  43.70900 16.62300 34.22900
O  43.47400 17.80500 33.98700
O  43.15800 15.93500 35.32800
C  42.50300 16.86000 36.22100
H  50.37900 18.95300 32.29500
H  49.73900 18.05300 26.06900
H  44.24600 15.12300 27.09900
H  46.50500 17.71700 34.56100
H  49.31000 17.33900 34.26600
H  47.94200 19.44200 35.47400
H  48.12900 20.15700 33.90300
H  49.60000 19.65200 34.76700
H  48.61400 15.55700 34.98800
H  47.12000 14.91000 34.44000
H  47.45800 14.84200 36.97100
H  45.86900 15.42800 36.41800
H  53.47400 18.54100 30.58000
H  52.36100 19.49100 31.47000
H  52.99700 20.15800 29.83800
H  53.54400 20.50600 27.79100
H  54.27800 19.38100 26.66800
H  54.00800 18.78000 28.24000
H  48.22900 16.01000 24.63900
H  45.40200 16.62700 25.21600
H  47.63500 18.87500 24.82800
H  46.46900 18.01900 23.74500
H  48.09000 17.89800 23.49300
H  45.23100 14.09400 25.17700
H  46.85700 14.02000 24.49200
H  45.69100 16.03200 23.01200
H  44.42700 14.84500 23.12000
H  46.03200 14.33400 22.47500
H  41.45200 14.69200 29.57900
H  42.32100 13.17500 29.63300
H  42.25900 14.18300 28.17300
H  44.91600 14.79300 34.02500
H  41.90400 17.53300 35.60900
H  43.19500 17.32600 36.92300
H  41.81400 16.24400 36.80000
Mg -9.35100 37.45300 41.13700
C  -7.28800 34.87900 40.11700
C  -7.10900 39.70900 39.75900
C  -11.53500 39.93600 41.75100
C  -11.83900 35.09300 41.89900
N  -7.44500 37.29100 39.99500
C  -6.80000 36.12400 39.82600
C  -5.51200 36.37000 39.06600
C  -5.33600 37.90800 39.15400
C  -6.70900 38.37700 39.65200
C  -4.07500 38.48700 39.86700
C  -5.37200 35.70600 37.73700
C  -6.53900 35.97800 36.74100
H  -6.20400 35.93900 35.22300
N  -9.21100 39.56700 40.91800
C  -8.26200 40.26300 40.31700
C  -8.67200 41.60900 40.20100
C  -9.77600 41.82000 41.05200
C  -10.24000 40.40600 41.25100
C  -7.87400 42.63800 39.45300
C  -10.47500 43.09900 41.39300
O  -10.03600 44.12400 40.86200
C  -11.73700 43.19500 42.20900
N  -11.33700 37.50900 41.88800
C  -12.02500 38.69500 42.02000
C  -13.52100 38.40300 42.47200
C  -13.58200 36.84200 42.40600
C  -12.14100 36.41900 42.09300
C  -13.91700 39.08000 43.77400
C  -14.71100 36.13300 41.51200
C  -15.32200 34.80300 42.05100
N  -9.53200 35.39700 41.16500
C  -10.54900 34.51000 41.55300
C  -10.07600 33.19000 41.58200
C  -8.85000 33.29900 40.86400
C  -8.50900 34.65000 40.76400
C  -10.80700 32.02800 42.00800
C  -7.72600 32.50500 40.33200
O  -7.51800 31.31300 40.40100
C  -6.63000 33.56200 39.84700
C  -5.38700 33.31000 40.51600
O  -4.85000 34.02200 41.35100
O  -4.91200 32.19800 39.97300
C  -3.61400 31.83900 40.57700
H  -6.33200 40.41900 39.47000
H  -12.29300 40.66300 42.04700
H  -12.57400 34.30800 42.09000
H  -4.73300 35.94100 39.69700
H  -5.22800 38.45100 38.21500
H  -3.65700 39.27000 39.23500
H  -3.34000 37.73900 40.16500
H  -4.37700 38.92200 40.82000
H  -5.05500 34.67700 37.90800
H  -4.50600 36.24200 37.34700
H  -6.98600 36.93700 37.00400
H  -7.30200 35.23000 36.95800
H  -7.12100 43.03100 40.13600
H  -8.50000 43.39900 38.98600
H  -7.41500 42.14100 38.59900
H  -11.51900 42.64500 43.12500
H  -12.46700 42.72000 41.55400
H  -12.07700 44.21400 42.39300
H  -14.25400 38.81300 41.77600
H  -13.70800 36.54200 43.44600
H  -14.22300 38.41400 44.58100
H  -14.72800 39.79400 43.63000
H  -13.01100 39.53200 44.17800
H  -14.32000 35.97400 40.50700
H  -15.44200 36.87600 41.19500
H  -16.40500 34.75900 42.16700
H  -14.94500 34.76400 43.07300
H  -14.91500 33.91600 41.56500
H  -10.33600 31.11000 41.65400
H  -11.80800 32.16900 41.60100
H  -10.86200 31.99600 43.09600
H  -6.54300 33.35100 38.78100
H  -3.64500 31.71900 41.66000
H  -2.92300 32.68200 40.59100
H  -3.35700 30.97000 39.97100

