158

Mg 1.17500 -1.82700 43.24700
C  4.45300 -0.63500 43.14700
C  0.05900 1.14700 41.85700
C  -1.94600 -3.29700 42.69600
C  2.38300 -4.90100 44.18900
N  2.13000 0.06700 42.68000
C  3.46200 0.27600 42.69800
C  3.74300 1.66700 42.01000
C  2.35700 2.42800 41.88500
C  1.45900 1.15700 42.17000
C  2.21000 3.66100 42.77200
C  4.51900 1.51400 40.60200
C  5.98900 2.13600 40.44100
H  6.28300 2.73300 39.05600
N  -0.74400 -1.16100 42.40900
C  -0.95900 0.10800 41.94800
C  -2.33900 0.19200 41.52700
C  -2.98200 -1.03600 41.88800
C  -1.90000 -1.92000 42.38000
C  -2.81200 1.44700 40.62000
C  -4.54200 -1.32100 41.76200
O  -5.22500 -0.44600 41.16100
C  -5.20900 -2.65400 42.21600
N  0.28000 -3.88100 43.50900
C  -1.00200 -4.22700 43.30100
C  -1.34800 -5.76700 43.64900
C  0.12800 -6.18300 43.95800
C  1.00300 -4.94400 43.86000
C  -2.30500 -5.96400 44.83400
C  0.71400 -7.26600 42.97100
C  1.12800 -8.55500 43.63800
N  3.09100 -2.64900 43.60800
C  3.38600 -3.94100 44.02400
C  4.85000 -4.03200 44.19900
C  5.36200 -2.74000 43.87400
C  4.18100 -1.95300 43.57700
C  5.79000 -5.18100 44.47700
C  6.53000 -1.88000 43.73800
O  7.73400 -2.08500 43.91200
C  5.90600 -0.52100 43.11500
C  6.47100 0.57200 43.91700
O  6.30300 0.63500 45.14900
O  7.30300 1.42900 43.25900
C  7.81200 2.55500 44.04200
H  -0.16000 2.19100 41.62500
H  -2.90000 -3.81700 42.58700
H  2.84500 -5.76000 44.68000
H  4.38600 2.07700 42.78900
H  1.97200 2.63600 40.88700
H  2.27200 4.46000 42.03300
H  2.93700 3.70400 43.58300
H  1.18900 3.59700 43.14900
H  3.88700 1.76500 39.75000
H  4.61400 0.43700 40.46200
H  6.62900 1.31000 40.75000
H  6.11300 2.98100 41.11800
H  -3.42800 1.11100 39.78600
H  -2.04400 2.05600 40.14500
H  -3.48500 2.07200 41.20800
H  -6.25500 -2.69200 41.91100
H  -4.87400 -2.56400 43.24900
H  -4.72900 -3.45100 41.64800
H  -1.62200 -6.20700 42.69000
H  0.27500 -6.58500 44.96000
H  -2.80400 -5.08100 45.23200
H  -1.77500 -6.56500 45.57300
H  -3.14300 -6.48100 44.36600
H  1.62800 -6.95600 42.46400
H  0.01500 -7.43600 42.15300
H  1.76100 -8.25100 44.47100
H  1.65500 -9.29100 43.03000
H  0.26600 -9.10300 44.01900
H  5.84900 -5.84500 43.61500
H  5.39300 -5.76600 45.30700
H  6.74800 -4.81600 44.84900
H  6.29800 -0.44400 42.10100
H  8.50000 2.97500 43.30900
H  8.34800 2.19400 44.91900
H  6.96300 3.19000 44.29500
Mg 28.94400 57.50200 40.56000
C  26.07600 55.70600 39.65300
C  30.83800 55.03300 39.24900
C  31.52600 59.64400 40.25200
C  26.91800 60.30900 41.16400
N  28.42000 55.60800 39.38700
C  27.22000 55.10500 39.14000
C  27.29100 53.75600 38.52600
C  28.84700 53.51900 38.44900
C  29.43200 54.76700 39.15500
C  29.43800 52.23200 39.02800
C  26.54500 53.50400 37.18100
C  26.50200 54.61000 36.09800
H  26.72000 54.32800 34.55200
N  30.98700 57.27700 40.00600
C  31.56000 56.17300 39.57300
C  32.97500 56.38600 39.47800
C  33.26300 57.72300 39.85600
C  31.87400 58.25900 40.03300
C  33.95700 55.24600 39.11300
C  34.58100 58.39600 39.96800
O  35.61300 57.89600 39.55400
C  34.70800 59.72700 40.51500
N  29.21300 59.70900 40.81600
C  30.37600 60.32100 40.58000
C  30.37900 61.81800 40.96100
C  28.86100 61.97900 41.38300
C  28.27900 60.61000 41.09300
C  31.39500 62.21800 42.00100
C  28.12000 63.19400 40.74000
C  27.68200 64.27500 41.79100
N  27.05800 57.87600 40.79700
C  26.37900 59.03300 41.06800
C  24.96100 58.70300 41.28100
C  24.82000 57.41000 40.77000
C  26.10200 56.96300 40.39000
C  23.95100 59.59800 41.82400
C  23.80200 56.40700 40.43700
O  22.60700 56.34200 40.65500
C  24.60400 55.36700 39.53600
C  24.10400 53.98700 40.07700
O  23.32000 53.17400 39.54800
O  24.65000 53.79700 41.30200
C  24.31500 52.58800 41.94800
H  31.53400 54.24000 38.96800
H  32.34200 60.35500 40.10900
H  26.29300 61.17900 41.37600
H  26.93600 52.97400 39.19700
H  29.18000 53.54100 37.41100
H  30.33000 52.53700 39.57500
H  29.66500 51.49500 38.25700
H  28.73200 51.73700 39.69400
H  25.49500 53.30700 37.39700
H  27.02300 52.59300 36.82200
H  27.33400 55.29600 36.25700
H  25.57600 55.15500 36.27700
H  33.96000 54.51900 39.92400
H  34.98700 55.59900 39.05500
H  33.73900 54.80700 38.13900
H  34.09200 60.10500 41.33100
H  34.44000 60.35900 39.66800
H  35.78200 59.83200 40.66500
H  30.52200 62.26400 39.97700
H  28.70100 61.94800 42.46100
H  31.88000 61.32600 42.39700
H  30.96300 62.88600 42.74600
H  32.03500 62.93100 41.48000
H  27.28200 62.98000 40.07700
H  28.88900 63.74900 40.20300
H  27.34500 63.81100 42.71700
H  26.77100 64.74000 41.41300
H  28.51100 64.96500 41.94800
H  23.47300 60.16700 41.02700
H  24.38100 60.34300 42.49400
H  23.13200 59.09200 42.33500
H  24.34900 55.43000 38.47800
H  25.21900 52.24300 42.45000
H  23.91800 51.77300 41.34200
H  23.61900 52.95400 42.70300

