158

Mg 17.30500 -1.67200 27.27100
C  16.05400 0.24400 29.89700
C  19.08600 -3.50800 29.47700
C  19.02900 -2.90600 24.63800
C  15.59600 0.57800 25.02300
N  17.77400 -1.41700 29.35300
C  17.01600 -0.69200 30.25600
C  17.38700 -1.02100 31.69500
C  18.66400 -1.91300 31.52300
C  18.48100 -2.34500 30.03900
C  20.02700 -1.20100 31.84600
C  16.14700 -1.72900 32.39500
C  15.77600 -1.29200 33.84500
H  16.91700 -0.70200 34.66200
N  18.64500 -3.21800 27.03800
C  19.19500 -3.93200 28.10000
C  19.91900 -5.04700 27.56000
C  19.82500 -4.91300 26.11800
C  19.18200 -3.61000 25.86100
C  20.60300 -6.11300 28.33300
C  20.43100 -5.73600 25.01600
O  20.40700 -5.35200 23.82900
C  21.04800 -7.09100 25.35000
N  17.42500 -1.09200 25.19800
C  18.28100 -1.75500 24.42000
C  18.02000 -1.43700 22.97100
C  16.81700 -0.45000 22.98200
C  16.55600 -0.31600 24.46000
C  19.27700 -0.97200 22.23800
C  15.62900 -0.99800 22.16800
C  15.05800 -0.04700 21.00300
N  16.00400 0.02700 27.41600
C  15.33700 0.72600 26.44300
C  14.44600 1.67000 27.04100
C  14.75900 1.61500 28.39500
C  15.66200 0.57900 28.58900
C  13.61900 2.64100 26.29600
C  14.36600 2.13100 29.66300
O  13.53700 2.90200 30.06000
C  15.26400 1.30400 30.75200
C  16.13400 2.31300 31.49100
O  17.26000 2.68800 31.18500
O  15.50300 2.48900 32.73000
C  16.28400 3.39900 33.63100
H  19.65800 -4.08700 30.20600
H  19.51400 -3.31000 23.74600
H  14.99700 1.23600 24.38900
H  17.62600 -0.04800 32.12500
H  18.61600 -2.83500 32.10400
H  19.93500 -0.17300 32.19800
H  20.52900 -1.17600 30.87900
H  20.65700 -1.82400 32.48100
H  16.31900 -2.80400 32.44700
H  15.26400 -1.69300 31.75700
H  15.35200 -2.18800 34.29800
H  15.07200 -0.46200 33.78500
H  20.25800 -6.05600 29.36500
H  21.69100 -6.15900 28.38800
H  20.26400 -7.09800 28.01100
H  21.83700 -6.98400 26.09500
H  21.55200 -7.45000 24.45200
H  20.32700 -7.85000 25.65300
H  17.54600 -2.32900 22.56100
H  17.09000 0.52900 22.58800
H  19.95300 -0.41900 22.89100
H  18.94400 -0.35600 21.40300
H  19.87700 -1.81000 21.88400
H  14.82800 -1.20300 22.87900
H  15.80000 -1.93600 21.63900
H  14.02700 0.28700 21.11600
H  15.03000 -0.58900 20.05700
H  15.73300 0.74200 20.67100
H  13.06800 2.12000 25.51300
H  14.23500 3.30900 25.69400
H  12.95900 3.15800 26.99400
H  14.64600 0.83700 31.51800
H  17.35400 3.28900 33.45200
H  16.11800 3.07900 34.66000
H  15.99300 4.41400 33.35900
Mg -5.11700 25.41500 26.02100
C  -3.73000 26.83900 28.79600
C  -6.57100 23.03300 28.00100
C  -6.47200 24.06500 23.32700
C  -3.26600 27.70300 24.08800
N  -5.16700 25.08300 28.18900
C  -4.65200 25.88900 29.15900
C  -5.06200 25.38300 30.55800
C  -5.70200 23.98800 30.21200
C  -5.83600 24.01000 28.68400
C  -4.99700 22.74800 30.84700
C  -6.02800 26.30000 31.23800
C  -6.53500 25.80300 32.64500
H  -5.64000 24.90300 33.49800
N  -6.44100 23.81400 25.69000
C  -6.88200 22.90000 26.66300
C  -7.84800 22.10100 26.07400
C  -7.77300 22.34700 24.69300
C  -6.80500 23.40000 24.49100
C  -8.79300 21.31200 26.90100
C  -8.65900 21.68700 23.68900
O  -8.70000 22.12500 22.53600
C  -9.53600 20.46900 23.95600
N  -4.76600 25.75400 24.04300
C  -5.52300 25.06200 23.09200
C  -5.43500 25.70500 21.72600
C  -4.49000 26.95000 22.02800
C  -4.03600 26.81800 23.43800
C  -5.09900 24.86200 20.50400
C  -5.16100 28.36300 21.65400
C  -4.37900 29.11700 20.57900
N  -3.64700 26.86000 26.34900
C  -3.02400 27.73400 25.48700
C  -2.17100 28.67500 26.16900
C  -2.35100 28.40200 27.52700
C  -3.32600 27.25600 27.57100
C  -1.46300 29.80900 25.56000
C  -2.02100 28.71900 28.88400
O  -1.15100 29.41200 29.30800
C  -2.93900 27.76500 29.78900
C  -2.18300 27.02800 30.79600
O  -1.50300 26.06500 30.61300
O  -2.36400 27.67700 32.01700
C  -1.68400 26.90800 33.07400
H  -7.07900 22.41300 28.74200
H  -7.01100 23.74800 22.43200
H  -2.77400 28.42000 23.42800
H  -4.14800 25.30700 31.14800
H  -6.78100 23.94400 30.36100
H  -5.66400 22.35600 31.61500
H  -4.11700 22.95300 31.45700
H  -4.74400 21.98300 30.11300
H  -6.88300 26.37900 30.56700
H  -5.38400 27.17800 31.30000
H  -7.43300 25.27600 32.32300
H  -6.76100 26.64900 33.29500
H  -9.04400 21.83600 27.82300
H  -8.40800 20.30700 27.07600
H  -9.74900 21.11400 26.41500
H  -9.00100 19.85200 24.67900
H  -9.67800 19.88700 23.04600
H  -10.56900 20.70000 24.21600
H  -6.45900 25.98900 21.48200
H  -3.57100 26.65300 21.52300
H  -4.75200 23.88200 20.83100
H  -4.32800 25.34800 19.90600
H  -5.96900 24.66600 19.87800
H  -5.18100 29.05800 22.49400
H  -6.19000 28.21400 21.32400
H  -5.05100 29.73700 19.98500
H  -3.69400 28.47200 20.02800
H  -3.72100 29.82500 21.08300
H  -2.04400 30.03800 24.66700
H  -0.41300 29.55100 25.42400
H  -1.56400 30.71600 26.15700
H  -3.63500 28.46300 30.25500
H  -1.69200 25.82100 33.00500
H  -2.18500 27.03600 34.03300
H  -0.64500 27.22000 33.17500

