158

Mg 35.81000 1.35500 30.04000
C  33.74800 2.07100 32.66200
C  38.44800 1.48100 32.33000
C  38.03200 0.84100 27.49900
C  33.22100 1.63800 27.76000
N  36.08700 1.73900 32.26300
C  35.01800 1.90500 33.16100
C  35.49200 1.92500 34.61800
C  37.05400 2.07600 34.46700
C  37.22700 1.73300 32.87700
C  37.66800 3.48700 34.82600
C  35.15800 0.53400 35.31500
C  34.87600 0.63100 36.90700
H  35.21700 1.97600 37.75500
N  37.95400 1.13400 29.91500
C  38.84300 1.15300 30.96900
C  40.16600 0.84000 30.51000
C  40.11700 0.66700 29.08000
C  38.68300 0.80400 28.75500
C  41.37200 0.66600 31.36800
C  41.16200 0.48900 28.03700
O  40.96200 0.26300 26.85600
C  42.60400 0.68200 28.44100
N  35.64300 1.06800 27.97000
C  36.64200 1.02400 27.10400
C  36.16500 0.93400 25.64200
C  34.61300 1.16800 25.76600
C  34.43500 1.23900 27.32500
C  36.80100 1.94000 24.59800
C  33.65800 0.07300 25.14800
C  33.52000 -1.28300 25.93300
N  33.87900 1.77200 30.13800
C  32.91800 1.86600 29.15700
C  31.63000 2.18600 29.75400
C  31.87900 2.21100 31.20300
C  33.23800 1.93800 31.33700
C  30.30500 2.36700 28.98800
C  31.30700 2.31500 32.53500
O  30.12900 2.44300 32.87100
C  32.51200 2.19700 33.57400
C  32.32700 3.31200 34.51200
O  32.76300 4.51000 34.29200
O  31.73000 2.88100 35.69200
C  31.31300 3.96700 36.60600
H  39.31900 1.52000 32.98700
H  38.69400 0.76100 26.63400
H  32.49500 1.77800 26.95700
H  35.05000 2.78000 35.12900
H  37.54200 1.35600 35.12400
H  36.87700 4.23700 34.80500
H  38.41600 3.78400 34.09100
H  38.05800 3.39400 35.83900
H  35.82800 -0.25600 34.97800
H  34.19700 0.41000 34.81500
H  35.28700 -0.26300 37.37700
H  33.80200 0.44900 36.95800
H  41.12200 0.81600 32.41800
H  42.20900 1.26800 31.01400
H  41.66200 -0.38000 31.26400
H  42.76600 -0.01700 29.26200
H  42.64900 1.73200 28.73000
H  43.37700 0.52200 27.69000
H  36.33700 -0.12800 25.46800
H  34.42500 2.15300 25.33800
H  37.44000 1.44300 23.86800
H  37.28000 2.80500 25.05700
H  36.03600 2.44800 24.01100
H  34.08800 -0.15200 24.17200
H  32.64300 0.43300 24.97900
H  34.05600 -2.01600 25.33000
H  32.49200 -1.53400 26.19200
H  34.00300 -1.23100 26.90900
H  30.52300 2.33700 27.92000
H  29.83900 3.29400 29.32200
H  29.66200 1.56200 29.34400
H  32.30200 1.28500 34.13300
H  32.15100 4.54900 36.98800
H  30.66400 3.56800 37.38600
H  30.80400 4.77100 36.07400
Mg -4.57700 24.22300 27.25900
C  -3.18400 26.45400 29.61500
C  -5.21500 22.01700 29.86900
C  -5.47300 21.94900 25.00200
C  -3.56300 26.31500 24.66500
N  -4.32700 24.25800 29.46700
C  -3.88200 25.32700 30.21100
C  -3.92300 25.05800 31.72300
C  -4.27700 23.54500 31.79300
C  -4.69000 23.20000 30.29300
C  -3.07000 22.56800 32.26300
C  -5.04400 25.96600 32.35200
C  -4.67400 26.42900 33.71600
H  -5.00400 25.46200 34.78100
N  -5.40200 22.29100 27.44400
C  -5.54200 21.53000 28.64800
C  -6.16700 20.28000 28.30500
C  -6.10200 20.20800 26.92000
C  -5.64000 21.49000 26.38600
C  -6.72600 19.37000 29.38900
C  -6.59000 19.02100 25.95300
O  -6.62800 19.16500 24.75200
C  -7.24700 17.85200 26.61300
N  -4.71200 24.23800 25.10300
C  -5.21500 23.18700 24.39700
C  -5.19000 23.40500 22.95700
C  -4.64600 24.88700 22.82400
C  -4.22300 25.20500 24.24200
C  -4.39100 22.25900 22.19300
C  -5.52000 25.94800 22.12600
C  -4.81900 26.93000 21.20200
N  -3.68700 26.06700 27.11500
C  -3.29400 26.78500 25.97000
C  -2.60700 27.97600 26.44300
C  -2.51400 27.81200 27.83900
C  -3.18800 26.74500 28.21100
C  -1.95300 29.13800 25.67300
C  -2.05600 28.44100 29.03100
O  -1.44900 29.51900 29.22700
C  -2.54900 27.64900 30.28000
C  -1.30200 27.41300 30.98100
O  -0.49300 26.54400 30.71700
O  -1.17100 28.18500 32.05200
C  -0.23300 27.71000 33.05300
H  -5.24200 21.30600 30.69700
H  -5.75300 21.18000 24.28000
H  -3.32600 27.07800 23.92000
H  -2.92100 25.21500 32.12100
H  -5.16700 23.39300 32.40300
H  -3.45800 21.76000 32.88300
H  -2.35300 23.19100 32.79600
H  -2.46700 22.08600 31.49300
H  -6.03200 25.50800 32.40500
H  -5.17800 26.81800 31.68600
H  -5.01700 27.39700 34.08100
H  -3.58800 26.51600 33.66400
H  -6.11900 18.46400 29.38900
H  -7.76600 19.16700 29.13200
H  -6.68300 19.86300 30.36000
H  -7.36400 17.10100 25.83200
H  -8.28400 18.12600 26.80500
H  -6.62400 17.35700 27.35800
H  -6.19700 23.41100 22.53900
H  -3.76200 24.77800 22.19500
H  -3.82700 21.58600 22.83900
H  -3.72000 22.58700 21.40000
H  -5.17600 21.62700 21.77800
H  -6.13800 26.39500 22.90400
H  -6.16000 25.42400 21.41700
H  -5.19000 27.92600 21.44400
H  -4.98000 26.84400 20.12700
H  -3.77100 26.99200 21.49400
H  -2.64800 29.36200 24.86500
H  -0.95500 28.85800 25.33400
H  -1.80700 30.00500 26.31800
H  -3.25100 28.20200 30.90300
H  -0.52100 28.30200 33.92200
H  0.83900 27.77000 32.86400
H  -0.51700 26.68200 33.28000

