158

Mg 9.04200 4.24300 27.93500
C  10.23200 2.41300 30.55000
C  7.09100 6.19000 29.99200
C  7.92300 6.00700 25.14200
C  10.46000 1.82200 25.74800
N  8.67100 4.29200 30.04700
C  9.37100 3.49800 30.94400
C  8.93400 3.94100 32.42300
C  7.80000 5.03200 32.21300
C  7.84700 5.17400 30.63600
C  6.38900 4.58100 32.72000
C  10.16300 4.41600 33.29300
C  9.83500 5.08800 34.70900
H  10.28200 4.37900 36.00300
N  7.65700 5.93000 27.63700
C  7.05900 6.64200 28.58200
C  6.33300 7.74500 28.02200
C  6.51700 7.70500 26.63200
C  7.43800 6.55100 26.37400
C  5.58800 8.72100 28.83100
C  5.94800 8.65100 25.61700
O  6.24400 8.62600 24.44000
C  4.93500 9.70000 25.95100
N  9.02700 3.88200 25.82100
C  8.61400 4.74200 24.89700
C  9.05700 4.35600 23.47200
C  9.57400 2.99600 23.69800
C  9.73000 2.87300 25.22500
C  7.91300 4.40500 22.45600
C  10.79600 2.61500 22.83100
C  10.65100 1.36600 21.93900
N  10.05800 2.51200 28.05400
C  10.65700 1.68300 27.10700
C  11.45900 0.66100 27.71900
C  11.46400 0.99300 29.08300
C  10.54800 2.08100 29.24400
C  12.17600 -0.55900 26.99600
C  11.94500 0.55500 30.38100
O  12.70100 -0.30400 30.68400
C  11.20500 1.49500 31.36900
C  10.51100 0.73600 32.46000
O  9.42000 0.13500 32.40800
O  11.27700 0.81600 33.56600
C  10.60300 0.33200 34.73600
H  6.53400 6.63900 30.81800
H  7.70500 6.71800 24.34200
H  10.87000 1.13000 25.01000
H  8.41100 3.07100 32.82200
H  7.99100 6.04600 32.56300
H  6.41900 3.55000 33.07100
H  5.65900 4.68300 31.91700
H  6.05000 5.25400 33.50900
H  10.69900 5.03900 32.57700
H  10.81900 3.55000 33.37700
H  8.79300 5.39500 34.79200
H  10.29500 6.07600 34.75500
H  5.74400 9.75200 28.51400
H  5.85900 8.70000 29.88700
H  4.54300 8.42800 28.73600
H  4.57600 10.05900 24.98600
H  5.44900 10.48200 26.51100
H  4.16800 9.24500 26.57700
H  9.94400 4.95900 23.28000
H  8.73800 2.36700 23.39100
H  7.17300 5.18600 22.63200
H  7.45700 3.47800 22.10900
H  8.39500 4.73100 21.53400
H  11.64200 2.48700 23.50600
H  10.93900 3.45900 22.15700
H  11.34700 0.56200 22.17900
H  10.62200 1.63400 20.88300
H  9.68900 0.87800 22.09900
H  12.95500 -1.03300 27.59300
H  12.47700 -0.16600 26.02500
H  11.38500 -1.30100 26.88100
H  11.99700 2.12800 31.77100
H  9.74100 0.87300 35.12600
H  11.22900 0.48000 35.61500
H  10.34800 -0.72700 34.71600
Mg 48.87400 34.20000 26.41900
C  46.70100 33.01500 28.81300
C  49.42600 37.11400 28.23200
C  50.57100 35.39100 23.77300
C  47.86400 31.46300 24.38100
N  48.10900 35.00600 28.29200
C  47.40400 34.22800 29.21200
C  47.66200 34.74700 30.61600
C  48.00700 36.25200 30.31400
C  48.58000 36.12800 28.87400
C  46.79000 37.29200 30.47300
C  48.72600 34.07400 31.51200
C  48.35300 33.82200 32.92600
H  47.35900 34.73200 33.70000
N  49.96300 36.02400 26.04400
C  50.11700 37.05700 26.95000
C  50.89900 38.08000 26.26700
C  51.24500 37.60300 25.04200
C  50.62000 36.25700 24.92800
C  51.22100 39.43300 26.89100
C  52.14900 38.13700 23.97700
O  52.56500 37.50300 22.97900
C  52.60300 39.57200 24.13300
N  49.06800 33.60300 24.31000
C  49.94200 34.20900 23.53500
C  50.17900 33.47300 22.19200
C  49.37500 32.13200 22.46800
C  48.73200 32.44000 23.80300
C  49.72600 34.32600 20.95400
C  50.10300 30.76500 22.48500
C  51.38800 30.64100 21.59200
N  47.65700 32.51400 26.53500
C  47.26800 31.49300 25.65400
C  46.41900 30.56500 26.34700
C  46.10100 31.15600 27.57600
C  46.90800 32.32500 27.64200
C  46.07300 29.20700 25.82300
C  45.38300 31.01600 28.76800
O  44.74000 30.05900 29.19200
C  45.73500 32.23300 29.61600
C  46.26200 31.66500 30.86400
O  47.33500 31.11700 31.07900
O  45.28700 31.84700 31.82400
C  45.39100 31.03100 33.02400
H  49.71600 37.97400 28.83900
H  51.11200 35.78100 22.90800
H  47.62200 30.56200 23.81400
H  46.74600 34.61600 31.19300
H  48.78700 36.52600 31.02400
H  45.92500 36.90800 31.01300
H  46.50600 37.55500 29.45400
H  47.19100 38.11300 31.06800
H  49.64100 34.66000 31.59900
H  49.07100 33.18100 30.99000
H  49.30500 33.62500 33.42000
H  48.01500 32.79000 33.01500
H  50.87500 39.52600 27.92100
H  50.76600 40.15300 26.21100
H  52.26300 39.75400 26.91800
H  53.55800 39.63100 24.65500
H  51.87700 40.27000 24.55000
H  52.71500 40.00100 23.13700
H  51.25400 33.30700 22.13000
H  48.61500 32.02900 21.69400
H  49.38400 35.32300 21.23000
H  48.97800 33.76800 20.39000
H  50.59500 34.30900 20.29600
H  49.51800 29.88700 22.20600
H  50.44200 30.74700 23.52100
H  52.30700 30.94200 22.09400
H  51.27500 31.09700 20.60800
H  51.55600 29.58800 21.36500
H  45.01000 29.20100 25.58100
H  46.27100 28.56900 26.68500
H  46.83900 28.97500 25.08400
H  44.85700 32.85900 29.77400
H  45.74600 30.05300 32.69800
H  44.57200 30.93000 33.73600
H  46.15900 31.41600 33.69500

