158

Mg 41.22300 8.62500 29.79900
C  42.99600 9.98000 32.42900
C  38.95100 7.39100 32.06100
C  39.54800 7.33900 27.21400
C  43.88800 9.48100 27.73900
N  41.16500 8.56400 31.98700
C  41.91200 9.24200 32.87200
C  41.30300 9.21500 34.29900
C  40.10900 8.16200 34.11500
C  40.07100 8.00100 32.62000
C  40.23200 6.79700 34.86600
C  40.81700 10.64000 34.84300
C  40.13300 10.69000 36.20000
H  40.67500 11.69300 37.21500
N  39.48200 7.65300 29.66100
C  38.55500 7.28900 30.66400
C  37.32200 6.93400 30.12100
C  37.47700 7.17800 28.72400
C  38.92100 7.42400 28.43700
C  36.06900 6.55400 30.89600
C  36.45700 7.17200 27.62800
O  36.65000 7.35700 26.41500
C  35.09700 6.87900 28.03300
N  41.66400 8.28000 27.73500
C  40.84700 7.73100 26.84800
C  41.54500 7.64600 25.38900
C  43.00700 8.23300 25.73100
C  42.90300 8.69700 27.17800
C  41.44400 6.12700 24.97800
C  43.47200 9.20800 24.63400
C  44.82800 8.90600 23.99700
N  43.03400 9.65800 29.93700
C  43.99400 9.93600 29.01300
C  45.05000 10.67900 29.60500
C  44.65000 10.86700 30.96100
C  43.48000 10.13600 31.13200
C  46.30300 11.02500 29.00700
C  45.07200 11.40300 32.27000
O  46.01700 12.11900 32.52400
C  43.88100 10.99700 33.22300
C  44.45700 10.44400 34.42300
O  44.77200 9.32400 34.58900
O  44.66200 11.47400 35.36400
C  45.14200 11.01000 36.70000
H  38.20000 6.89800 32.68300
H  38.97800 6.88800 26.40000
H  44.73200 9.73100 27.09300
H  42.05300 8.72600 34.92100
H  39.17100 8.62100 34.42800
H  40.20500 5.94200 34.19000
H  39.52800 6.69200 35.69200
H  41.20800 6.74500 35.34900
H  40.17000 11.24600 34.20800
H  41.64400 11.32100 35.04400
H  40.04500 9.71800 36.68500
H  39.09000 10.95600 36.02800
H  36.33500 6.42800 31.94500
H  35.86900 5.54300 30.53900
H  35.16500 7.15500 30.79600
H  34.91900 7.69700 28.73100
H  34.97400 5.88000 28.45300
H  34.35300 6.88900 27.23600
H  40.95300 8.31900 24.77000
H  43.74900 7.43900 25.82500
H  42.40300 5.86100 24.53300
H  40.68600 6.06000 24.19800
H  41.14000 5.40900 25.73900
H  43.55000 10.18000 25.12200
H  42.65300 9.39700 23.94000
H  44.81800 8.94200 22.90800
H  45.41600 8.08800 24.41400
H  45.46000 9.72200 24.34800
H  46.94600 10.15900 28.84800
H  46.94200 11.67000 29.61100
H  46.34800 11.39700 27.98300
H  43.23000 11.79500 33.58000
H  46.15100 10.60700 36.61700
H  44.56000 10.25800 37.23300
H  45.26100 11.86400 37.36600
Mg 54.91200 23.27200 44.74300
C  52.43100 25.49400 43.60700
C  53.02700 20.69500 43.82800
C  57.70000 21.20200 44.97700
C  56.99700 26.07100 45.31500
N  52.93900 23.16000 43.84200
C  52.06600 24.14700 43.39300
C  50.75900 23.48000 42.85200
C  50.83000 22.01000 43.40500
C  52.31900 21.94100 43.78000
C  49.89700 21.79100 44.69500
C  50.58600 23.51600 41.32100
C  49.09100 23.79800 41.00000
H  48.53500 23.34600 39.65300
N  55.31300 21.20600 44.57100
C  54.36800 20.33300 44.09800
C  54.94800 18.99100 44.00900
C  56.28200 19.09500 44.44300
C  56.49200 20.51600 44.76200
C  54.26900 17.79200 43.46200
C  57.36800 17.93000 44.43900
O  57.10000 16.75200 44.16400
C  58.75600 17.99500 44.94000
N  57.03300 23.58400 45.07800
C  57.93400 22.59000 45.18800
C  59.36300 23.08800 45.48500
C  59.16500 24.65000 45.67800
C  57.66500 24.78700 45.38200
C  60.01500 22.32200 46.69400
C  60.03700 25.58400 44.78500
C  60.54400 26.83400 45.44100
N  54.80700 25.35100 44.58000
C  55.72100 26.33600 44.86500
C  55.00400 27.56900 44.79100
C  53.75600 27.34800 44.17000
C  53.71300 25.99600 44.09200
C  55.45500 28.94100 45.11600
C  52.54000 27.91500 43.73900
O  52.14000 29.09900 43.76200
C  51.65700 26.78000 43.25400
C  51.55600 26.81100 41.75900
O  52.48400 26.73100 40.99600
O  50.31500 27.16700 41.33300
C  50.10300 27.63900 39.96400
H  52.44700 19.83900 43.47700
H  58.61500 20.60700 44.93600
H  57.68300 26.89400 45.52700
H  49.94700 24.02400 43.33500
H  50.65400 21.29100 42.60500
H  48.98800 21.41400 44.22700
H  49.56200 22.63400 45.29900
H  50.40600 21.08200 45.34900
H  50.82700 22.51200 40.97100
H  51.22100 24.24600 40.81900
H  49.06600 24.88000 40.87600
H  48.38600 23.46800 41.76400
H  54.95200 17.19400 42.85800
H  53.26200 17.81800 43.04600
H  53.96400 17.08900 44.23700
H  58.72900 18.44800 45.93200
H  59.30800 18.63700 44.25300
H  59.14000 16.97600 44.97700
H  60.06200 22.94200 44.66100
H  59.21100 24.90500 46.73700
H  59.43100 21.48300 47.07400
H  60.11800 22.99400 47.54500
H  60.92200 21.86200 46.30100
H  59.52000 25.95900 43.90200
H  60.94900 25.10300 44.43200
H  59.99900 27.63100 44.93600
H  61.61900 26.96600 45.31300
H  60.30200 26.79300 46.50300
H  56.52400 28.99600 45.32000
H  54.94600 29.31300 46.00500
H  55.21300 29.49500 44.20900
H  50.65400 26.67300 43.66700
H  49.35900 28.43600 39.95800
H  49.71800 26.75200 39.46000
H  50.99600 28.11600 39.56100

