158

Mg 53.48600 24.33000 44.68400
C  50.72700 26.26000 44.16000
C  51.55200 21.58400 43.67800
C  56.26800 22.38500 44.20600
C  55.37300 27.06600 45.23100
N  51.32400 23.91700 44.07900
C  50.44500 24.95400 43.81500
C  49.11600 24.41300 43.19500
C  49.27100 22.95600 43.61700
C  50.79300 22.80300 43.76100
C  48.40100 22.60200 44.80500
C  49.10100 24.62600 41.68500
C  47.66700 24.83500 41.19500
H  47.41500 24.47700 39.74800
N  53.85400 22.28000 44.23800
C  52.92200 21.33400 43.86100
C  53.49500 20.10000 43.74200
C  54.83600 20.16400 43.99100
C  55.05200 21.65300 44.22200
C  52.66300 18.91500 43.36100
C  55.80100 19.13500 43.99900
O  55.52600 17.98800 43.64500
C  57.10800 19.42600 44.43100
N  55.58500 24.61000 44.61700
C  56.54500 23.72400 44.38100
C  57.96400 24.43900 44.34700
C  57.63700 25.91600 44.65700
C  56.14400 25.88600 44.91200
C  58.91100 23.78800 45.43000
C  57.90500 26.84000 43.38200
C  59.00300 27.95000 43.73500
N  53.10500 26.20600 44.89500
C  53.98300 27.22600 45.21900
C  53.21600 28.39600 45.50000
C  51.84300 28.09500 45.12000
C  51.89200 26.72000 44.67800
C  53.70900 29.74100 45.94300
C  50.59900 28.63100 44.85300
O  50.08300 29.71200 45.19100
C  49.81300 27.48300 44.22200
C  49.20200 27.96900 42.90600
O  49.70700 27.97600 41.76000
O  47.93600 28.33500 43.10100
C  47.22900 28.88900 41.91600
H  50.89300 20.74800 43.43300
H  57.10500 21.75700 43.89300
H  55.96500 27.94100 45.50700
H  48.22800 24.90800 43.58700
H  48.91400 22.42300 42.73500
H  47.68300 21.80400 44.61800
H  47.92900 23.48200 45.24300
H  49.10300 22.36200 45.60300
H  49.48300 23.73000 41.19700
H  49.72600 25.45700 41.35700
H  47.38500 25.88100 41.30900
H  47.00100 24.23600 41.81500
H  52.31000 18.85600 42.33100
H  51.84900 18.99400 44.08100
H  53.18500 17.96400 43.47300
H  57.79900 19.70400 43.63500
H  57.48900 18.43500 44.67800
H  57.20200 20.07600 45.30000
H  58.45400 24.30800 43.38200
H  58.09300 26.33100 45.55700
H  59.95100 23.81100 45.10500
H  58.61100 22.80500 45.79400
H  58.86800 24.40200 46.33000
H  56.97600 27.28300 43.02200
H  58.24000 26.25500 42.52600
H  59.81500 27.61500 44.38000
H  58.62100 28.74600 44.37500
H  59.40000 28.37000 42.81100
H  53.20500 30.62700 45.55800
H  54.76100 29.82700 45.66800
H  53.43700 29.89800 46.98700
H  48.94900 27.28300 44.85500
H  46.94200 27.95800 41.42600
H  47.74200 29.47200 41.15100
H  46.39800 29.50600 42.25600
Mg 31.44300 58.69800 39.82900
C  28.80800 56.83000 38.53600
C  33.53500 56.07000 39.56300
C  33.98300 60.93900 39.97700
C  29.15900 61.43100 40.31400
N  31.23300 56.77200 38.92500
C  30.03600 56.16000 38.49400
C  30.38400 54.73200 37.99700
C  31.70500 54.49400 38.76100
C  32.18500 55.84000 39.21800
C  31.62600 53.46900 39.98600
C  30.51500 54.48600 36.39100
C  29.38300 53.79400 35.60500
H  28.53900 54.62700 34.61000
N  33.49700 58.54100 39.67600
C  34.16600 57.38400 39.65000
C  35.56800 57.66400 39.49500
C  35.78300 59.01800 39.72900
C  34.40100 59.59000 39.80500
C  36.55100 56.55300 39.21800
C  37.13400 59.73500 39.92600
O  38.17800 59.08200 39.86100
C  37.28100 61.15800 40.21800
N  31.58400 60.93300 40.05800
C  32.76400 61.58300 40.17100
C  32.54700 63.10600 40.45100
C  31.03900 63.21300 40.79900
C  30.47600 61.75600 40.39500
C  33.68600 63.66000 41.34400
C  30.24800 64.33600 39.97300
C  29.43700 65.29600 40.85300
N  29.33800 59.07000 39.57400
C  28.53300 60.22500 39.82200
C  27.16500 59.92100 39.42900
C  27.20900 58.57900 39.01400
C  28.54300 58.17900 39.02200
C  26.02200 60.89400 39.37600
C  26.40700 57.48900 38.49600
O  25.20700 57.41900 38.24000
C  27.41800 56.30800 38.06900
C  26.93900 55.17300 38.93500
O  27.47500 54.89900 40.00100
O  25.87400 54.61600 38.37600
C  25.49300 53.34900 38.99200
H  34.14400 55.17500 39.71000
H  34.81100 61.61700 40.19400
H  28.46700 62.21300 40.63300
H  29.55800 54.06500 38.24200
H  32.46800 54.02000 38.14500
H  31.92400 52.44400 39.76400
H  30.58800 53.32300 40.28500
H  32.14700 53.82400 40.87600
H  31.43900 54.03000 36.03500
H  30.57900 55.51700 36.04100
H  28.65100 53.44700 36.33400
H  29.73400 52.92000 35.05700
H  36.96900 56.62500 38.21400
H  36.08500 55.58100 39.37700
H  37.30400 56.49200 40.00300
H  36.87200 61.75300 39.40100
H  38.28800 61.57700 40.23500
H  36.86400 61.34400 41.20800
H  32.66800 63.59100 39.48200
H  30.91600 63.38400 41.86800
H  34.16700 62.85900 41.90400
H  33.20900 64.26000 42.11800
H  34.43200 64.34300 40.93800
H  29.55700 63.83200 39.29700
H  30.98900 64.85600 39.36700
H  29.60400 66.33800 40.57900
H  29.75900 65.29700 41.89400
H  28.37900 65.04600 40.77700
H  25.14600 60.26600 39.21300
H  26.20800 61.50000 38.48900
H  25.87600 61.41700 40.32100
H  27.41400 55.96700 37.03400
H  25.17100 53.59200 40.00400
H  26.29700 52.61400 38.95200
H  24.62200 53.05600 38.40600

