158

Mg 2.39100 -2.24600 43.92000
C  5.83200 -1.71200 43.71700
C  1.93700 0.35900 41.89500
C  -0.82600 -2.92800 44.01000
C  3.04900 -5.46800 45.33000
N  3.76000 -0.95800 42.69400
C  5.11100 -0.84100 42.91400
C  5.62200 0.32300 42.03100
C  4.30400 1.10600 41.64900
C  3.25300 0.07800 42.06900
C  4.21700 2.42800 42.41100
C  6.33100 -0.31400 40.72500
C  7.67800 0.40400 40.35200
H  8.13000 0.48500 38.85500
N  0.69000 -1.41800 43.05300
C  0.75800 -0.24500 42.35200
C  -0.62800 0.12000 42.11700
C  -1.50000 -0.82000 42.74100
C  -0.59000 -1.76200 43.28900
C  -1.02400 1.43000 41.45800
C  -3.03900 -0.77300 42.80200
O  -3.67700 0.07200 42.11200
C  -3.96700 -1.76400 43.50500
N  1.25000 -3.99400 44.55600
C  -0.09000 -3.98500 44.51000
C  -0.65500 -5.34400 44.93400
C  0.61100 -6.25400 45.36100
C  1.77100 -5.17300 45.05700
C  -1.78800 -5.36500 45.91300
C  0.88100 -7.67800 44.67500
C  1.52100 -8.81100 45.59700
N  4.09600 -3.41900 44.46400
C  4.21800 -4.59000 45.14700
C  5.65000 -4.79500 45.45100
C  6.36900 -3.63800 45.01300
C  5.34700 -2.88000 44.35300
C  6.24400 -5.92200 46.21000
C  7.63000 -2.95600 44.98400
O  8.71400 -3.15200 45.50700
C  7.37800 -1.68400 44.13600
C  7.64500 -0.49500 45.04300
O  7.22200 -0.25200 46.15200
O  8.34700 0.40600 44.23800
C  8.48900 1.75400 44.74100
H  1.70600 1.20300 41.24200
H  -1.89800 -3.13500 43.99600
H  3.38200 -6.40700 45.77700
H  6.37900 0.81500 42.64200
H  4.11600 1.35100 40.60400
H  3.32500 3.03900 42.26700
H  5.09700 3.03000 42.18300
H  4.31900 2.18000 43.46700
H  5.63100 -0.19800 39.89800
H  6.48900 -1.38500 40.84800
H  8.46200 -0.07900 40.93500
H  7.59600 1.40300 40.77800
H  -1.62100 2.06100 42.11600
H  -1.59500 1.28100 40.54100
H  -0.14600 2.00600 41.16600
H  -4.00100 -2.73000 43.00200
H  -4.93200 -1.27300 43.63400
H  -3.44300 -1.87300 44.45500
H  -1.10300 -5.63500 43.98500
H  0.48600 -6.42400 46.43100
H  -1.79900 -4.54900 46.63500
H  -1.90500 -6.39300 46.25600
H  -2.67100 -5.10300 45.33000
H  1.52300 -7.44000 43.82600
H  -0.03900 -8.10900 44.27900
H  2.28300 -9.34600 45.03000
H  0.76700 -9.56500 45.81900
H  1.99400 -8.48700 46.52400
H  6.50200 -6.69400 45.48400
H  5.48500 -6.31000 46.89000
H  7.13800 -5.61800 46.75500
H  8.01800 -1.73000 43.25400
H  8.40800 1.83400 45.82500
H  7.78800 2.49400 44.35500
H  9.44100 2.13000 44.36800
Mg 30.22200 58.18400 40.10300
C  27.62400 55.67300 39.50600
C  32.39800 55.68500 39.36900
C  32.50300 60.58900 40.07900
C  27.65600 60.43200 40.74500
N  30.00000 55.83200 39.62300
C  28.88400 55.17500 39.21800
C  29.27000 53.75300 38.69200
C  30.83600 53.63600 39.10900
C  31.11000 55.09600 39.40700
C  31.10200 52.60600 40.27800
C  29.17400 53.59600 37.13500
C  27.75100 53.17500 36.66800
H  27.00500 54.13400 35.65600
N  32.19000 58.15200 39.72300
C  32.93600 57.03200 39.50300
C  34.29400 57.40900 39.35600
C  34.37300 58.83000 39.41000
C  33.01700 59.28400 39.69400
C  35.49100 56.43500 39.34700
C  35.66100 59.66600 39.29800
O  36.75400 59.15400 39.09100
C  35.67500 61.12100 39.52000
N  30.05300 60.31000 40.17800
C  31.18400 61.06300 40.27200
C  30.79300 62.48100 40.77800
C  29.24400 62.42600 41.07200
C  28.96600 60.94800 40.68400
C  31.73600 63.06800 41.89800
C  28.33400 63.42800 40.19600
C  27.21700 64.11200 40.97800
N  28.10700 58.14300 40.13800
C  27.25100 59.16300 40.44900
C  25.87900 58.62400 40.34600
C  26.00300 57.22600 40.06700
C  27.34600 57.00100 39.91800
C  24.66200 59.44700 40.62600
C  25.32200 55.93300 39.90000
O  24.11500 55.76000 39.96800
C  26.28400 54.84500 39.42400
C  26.18700 53.71400 40.48200
O  26.66200 53.70800 41.54900
O  25.47800 52.61900 40.00600
C  25.44300 51.48800 40.94700
H  33.13400 54.91700 39.12500
H  33.19600 61.38200 40.36600
H  26.90900 61.16800 41.04700
H  28.58600 53.07600 39.20400
H  31.47700 53.33500 38.28100
H  31.92900 51.95700 39.99000
H  30.21800 52.00400 40.48800
H  31.53200 53.01300 41.19300
H  29.81500 52.76100 36.85200
H  29.47000 54.55900 36.72000
H  27.10800 52.94600 37.51800
H  27.77200 52.20700 36.16800
H  36.04400 56.53700 38.41400
H  35.31600 55.39300 39.61500
H  36.12400 56.81100 40.15100
H  34.92500 61.58700 38.88200
H  36.68600 61.49700 39.36200
H  35.47900 61.45600 40.53800
H  30.83800 63.08800 39.87400
H  28.99200 62.59700 42.11800
H  32.33200 62.23700 42.27600
H  31.28700 63.50600 42.78900
H  32.31000 63.84500 41.39400
H  27.92300 62.91200 39.32800
H  29.06200 64.16000 39.84600
H  27.42500 65.17700 41.07700
H  27.22900 63.61300 41.94700
H  26.38500 63.88600 40.31100
H  23.80700 58.87300 40.98200
H  24.45100 59.75900 39.60300
H  24.88400 60.24500 41.33400
H  25.95400 54.40700 38.48200
H  25.57900 50.50800 40.49000
H  24.43400 51.31800 41.32300
H  26.05000 51.53000 41.85200

