158

Mg 35.30400 0.90400 29.36200
C  33.35700 2.11200 32.01800
C  37.94700 0.92000 31.58000
C  37.18200 -0.40300 26.97000
C  32.66600 1.48800 27.13700
N  35.55000 1.31700 31.61800
C  34.61700 1.76200 32.45700
C  35.08700 1.79100 33.93100
C  36.66900 1.79800 33.75400
C  36.76700 1.32500 32.24300
C  37.41000 3.13600 34.08500
C  34.50000 0.54800 34.64400
C  34.08400 0.67400 36.13500
H  35.03200 1.48700 37.04900
N  37.32900 0.28800 29.27600
C  38.18500 0.30000 30.32500
C  39.45900 -0.33100 29.88800
C  39.26900 -0.72000 28.58900
C  37.90000 -0.28200 28.17000
C  40.69000 -0.47900 30.88100
C  40.19400 -1.51600 27.64200
O  39.99100 -1.55400 26.43700
C  41.51000 -2.07600 28.05400
N  34.90500 0.43400 27.36600
C  35.89200 -0.00600 26.53100
C  35.39000 -0.12400 25.06700
C  33.86300 0.27700 25.18400
C  33.78100 0.74200 26.65500
C  36.24500 0.85900 24.11400
C  32.86000 -0.86400 24.75500
C  32.37100 -0.64000 23.31700
N  33.41100 1.65700 29.50300
C  32.39700 1.78600 28.52900
C  31.21600 2.37400 29.17300
C  31.63400 2.56300 30.54100
C  32.91600 2.07000 30.66700
C  29.95800 2.58900 28.48300
C  31.10800 3.03400 31.83900
O  29.99200 3.54100 32.13200
C  32.17800 2.63800 32.91900
C  32.56000 3.85300 33.68800
O  33.49800 4.57100 33.48800
O  31.83300 3.96500 34.86500
C  32.37300 4.60100 36.04100
H  38.83300 0.93200 32.21800
H  37.80400 -0.79700 26.16300
H  31.90400 1.52000 26.35500
H  34.71500 2.62300 34.53000
H  37.07700 0.91300 34.24300
H  37.82900 3.55600 33.17000
H  38.20500 2.84300 34.77100
H  36.65000 3.76700 34.54700
H  35.26900 -0.22500 34.66700
H  33.56200 0.29200 34.15300
H  34.06400 -0.33800 36.54000
H  33.05000 0.97900 36.29900
H  41.44100 -1.22400 30.61900
H  40.47500 -0.62400 31.94000
H  41.33100 0.39800 30.78300
H  42.16600 -1.22800 28.25300
H  41.81600 -2.68100 27.20000
H  41.35100 -2.61400 28.98800
H  35.52300 -1.15900 24.75200
H  33.60100 1.11800 24.54200
H  37.07300 0.98000 24.81200
H  35.75900 1.83400 24.14000
H  36.56900 0.37900 23.19100
H  31.99500 -0.72300 25.40400
H  33.11200 -1.91100 24.92500
H  31.33200 -0.92400 23.14800
H  32.84100 -1.26600 22.55900
H  32.56300 0.36500 22.94300
H  29.82100 1.84700 27.69600
H  29.89400 3.58500 28.04600
H  29.16100 2.43900 29.21100
H  31.95400 1.89000 33.67900
H  31.63300 5.25000 36.51000
H  33.15400 5.34700 35.89400
H  32.70000 3.84100 36.75000
Mg -4.17000 24.71700 26.84600
C  -2.83000 26.66300 29.28100
C  -5.72400 22.75300 29.23600
C  -5.43600 22.76100 24.37800
C  -2.40200 26.61200 24.37500
N  -4.27600 24.72200 28.99500
C  -3.74300 25.70300 29.74900
C  -4.39000 25.68900 31.11300
C  -5.05300 24.22500 31.15700
C  -5.00800 23.82000 29.72400
C  -4.30100 23.21000 32.13300
C  -5.31900 26.85500 31.50800
C  -5.15300 27.40000 32.85600
H  -4.96900 26.30000 33.93300
N  -5.42600 23.07300 26.81800
C  -6.00300 22.42600 27.92500
C  -6.72100 21.23200 27.45500
C  -6.67900 21.28100 26.02000
C  -5.83600 22.41000 25.68700
C  -7.26100 20.18200 28.44100
C  -7.31700 20.33000 24.98200
O  -7.18000 20.41600 23.75000
C  -8.20200 19.12000 25.41200
N  -4.07100 24.70600 24.60900
C  -4.65300 23.81500 23.78800
C  -4.49000 24.17100 22.31600
C  -3.63200 25.53900 22.44500
C  -3.33400 25.67100 23.94100
C  -3.86100 23.02000 21.53200
C  -4.42100 26.77700 21.87900
C  -3.54400 27.53600 20.77800
N  -2.90400 26.23500 26.74900
C  -2.27300 27.00700 25.72400
C  -1.43600 28.08200 26.26600
C  -1.71500 28.02600 27.61800
C  -2.50500 26.86100 27.87900
C  -0.56900 29.00300 25.50500
C  -1.48800 28.72500 28.87900
O  -0.85700 29.74900 29.14400
C  -2.20400 27.82300 29.99100
C  -1.33100 27.35800 31.14000
O  -0.27500 26.85700 30.99500
O  -1.78500 27.65900 32.41200
C  -0.99100 27.27600 33.53200
H  -6.17500 22.11500 29.99800
H  -5.61200 22.00700 23.60900
H  -1.97000 27.31600 23.66200
H  -3.63300 25.64000 31.89600
H  -6.10000 24.21400 31.46100
H  -3.61400 23.68200 32.83500
H  -3.83300 22.37400 31.61300
H  -5.13900 22.79500 32.69300
H  -6.37000 26.64400 31.31000
H  -5.16900 27.63900 30.76600
H  -6.04700 27.97800 33.09200
H  -4.25600 28.01600 32.78600
H  -7.16800 19.15800 28.07900
H  -8.32700 20.28100 28.64700
H  -6.65000 20.08400 29.33800
H  -9.11100 19.60100 25.77200
H  -7.77400 18.49600 26.19700
H  -8.46300 18.45700 24.58700
H  -5.49100 24.39000 21.94500
H  -2.61900 25.47200 22.04800
H  -3.86400 22.07100 22.06800
H  -2.86100 23.23000 21.15200
H  -4.52000 22.98200 20.66500
H  -4.54700 27.52000 22.66700
H  -5.38800 26.56900 21.42100
H  -2.73600 26.92000 20.38500
H  -3.26400 28.53000 21.12700
H  -4.08000 27.78100 19.86100
H  0.15500 29.36300 26.23700
H  -1.23500 29.77500 25.11800
H  -0.12500 28.37900 24.73000
H  -2.95900 28.39500 30.52900
H  -1.39500 27.97700 34.26300
H  0.09000 27.26600 33.39500
H  -1.33600 26.29000 33.84000

