158

Mg 26.06800 1.18900 29.18300
C  28.04000 0.70600 32.07500
C  23.27500 1.71800 31.12100
C  24.06900 1.51900 26.31300
C  28.71200 0.42900 27.27500
N  25.72800 1.17500 31.30700
C  26.67300 1.01300 32.34200
C  26.05400 1.30000 33.69600
C  24.52700 1.48200 33.33600
C  24.53000 1.50200 31.82400
C  23.52000 0.49200 33.97600
C  26.76500 2.58200 34.29900
C  27.31700 2.23700 35.74800
H  26.91600 3.11400 36.88500
N  23.92200 1.34900 28.80800
C  22.94700 1.58800 29.78400
C  21.69400 1.57000 29.06000
C  21.93900 1.53800 27.69900
C  23.32500 1.53600 27.55200
C  20.38100 1.75200 29.77600
C  20.94600 1.46700 26.44400
O  21.36000 1.38400 25.29100
C  19.52300 1.26800 26.74100
N  26.29700 0.89800 27.09200
C  25.38300 1.13800 26.06400
C  26.01900 0.79400 24.62000
C  27.53600 0.90500 25.02700
C  27.56300 0.81200 26.57300
C  25.80300 -0.57200 24.12400
C  28.26700 2.23600 24.63200
C  29.58800 2.07600 23.79900
N  28.00300 0.52600 29.51700
C  28.98900 0.23300 28.65300
C  30.12300 -0.31400 29.37600
C  29.82200 -0.02300 30.68100
C  28.52100 0.43900 30.79300
C  31.39000 -0.52500 28.60200
C  30.36000 0.09000 32.09100
O  31.50500 -0.08700 32.50100
C  29.17500 0.51100 33.05400
C  28.98900 -0.55800 34.02100
O  28.05100 -1.32900 33.97100
O  29.83600 -0.46800 35.05600
C  29.52500 -1.19000 36.29800
H  22.50500 2.07200 31.80900
H  23.58600 1.72300 25.35500
H  29.56700 0.15300 26.65400
H  26.23000 0.42500 34.32200
H  24.18100 2.48700 33.57800
H  23.26900 -0.34800 33.32800
H  22.61700 1.05800 34.20900
H  23.93700 0.06800 34.88900
H  26.10000 3.44300 34.36400
H  27.60400 2.84800 33.65700
H  28.39900 2.37000 35.71400
H  27.11000 1.20700 36.03700
H  19.85500 0.81900 29.97800
H  19.85400 2.58400 29.30900
H  20.51400 2.15000 30.78200
H  19.13100 2.20200 27.14500
H  19.40400 0.37700 27.35700
H  18.99200 1.19100 25.79300
H  25.66600 1.52100 23.88800
H  28.16100 0.10800 24.62400
H  25.03500 -0.44300 23.36100
H  25.41400 -1.27900 24.85600
H  26.66900 -0.98400 23.60500
H  28.51600 2.79800 25.53200
H  27.66600 2.90500 24.01600
H  29.32800 2.17300 22.74500
H  29.87900 1.03400 23.93000
H  30.35500 2.83600 23.95100
H  32.17800 0.07300 29.05900
H  31.20600 -0.24200 27.56500
H  31.69800 -1.56900 28.64400
H  29.39300 1.42700 33.60400
H  28.59600 -0.79100 36.70500
H  30.18600 -1.13800 37.16300
H  29.33600 -2.24100 36.07800
Mg -9.85500 39.51000 39.60200
C  -9.23700 36.13300 39.09400
C  -6.73700 40.31900 38.88800
C  -10.74200 42.80400 39.75900
C  -13.33000 38.70200 39.22400
N  -8.31500 38.40600 38.72200
C  -8.17200 37.03500 38.70800
C  -6.74400 36.64000 38.43900
C  -6.01100 37.88100 38.92100
C  -7.05200 38.95700 38.78700
C  -5.34200 37.78500 40.36400
C  -6.45200 36.24300 36.87200
C  -6.90000 37.22300 35.63700
H  -7.99500 36.68800 34.75500
N  -8.84400 41.33700 39.42400
C  -7.54000 41.42400 39.15800
C  -7.19200 42.81600 39.10400
C  -8.31100 43.62600 39.34500
C  -9.38500 42.64300 39.53400
C  -5.78600 43.40300 38.67600
C  -8.48600 45.13100 39.44100
O  -7.47200 45.79200 39.25500
C  -9.75900 45.82100 39.79200
N  -11.75400 40.64200 39.41800
C  -11.85300 41.96600 39.70500
C  -13.22600 42.51400 39.51200
C  -14.08100 41.19700 39.14000
C  -12.97100 40.10500 39.17100
C  -13.89200 43.20400 40.78000
C  -14.84300 41.31700 37.79700
C  -16.25600 40.82200 37.97700
N  -11.10000 37.74900 39.49600
C  -12.47300 37.60600 39.43100
C  -12.78800 36.18400 39.25000
C  -11.50100 35.54400 39.08000
C  -10.57300 36.54400 39.28200
C  -14.15700 35.56700 39.22000
C  -10.73000 34.35100 38.65300
O  -11.20900 33.30200 38.26300
C  -9.24700 34.65300 38.75900
C  -8.64400 33.67900 39.70900
O  -8.89200 33.53600 40.92300
O  -7.45000 33.32600 39.16400
C  -6.37500 32.83500 40.12700
H  -5.68000 40.55300 38.74200
H  -11.10700 43.80600 39.99500
H  -14.37700 38.47100 39.01800
H  -6.59100 35.71200 38.99100
H  -5.13700 38.02300 38.28500
H  -5.61600 36.78200 40.69000
H  -5.80600 38.50800 41.03500
H  -4.25400 37.84800 40.34800
H  -6.77000 35.21200 36.71500
H  -5.37200 36.21200 37.01800
H  -6.00000 37.41500 35.05200
H  -7.28400 38.15000 36.06200
H  -5.16200 42.61200 38.26100
H  -5.19800 43.73400 39.53200
H  -5.83000 44.23100 37.96800
H  -10.02000 45.47700 40.79300
H  -10.40300 45.52200 38.96500
H  -9.66200 46.90300 39.70000
H  -13.08400 43.23500 38.70700
H  -14.77000 41.02200 39.96600
H  -14.76100 42.80200 41.30300
H  -14.09400 44.24400 40.52700
H  -13.11400 43.34200 41.53000
H  -14.36700 40.61400 37.11400
H  -14.78200 42.36400 37.50100
H  -17.03600 41.58000 38.03300
H  -16.47700 40.15100 38.80700
H  -16.34000 40.21100 37.07700
H  -14.98300 36.22700 39.48800
H  -14.08800 34.59500 39.70800
H  -14.35800 35.48400 38.15200
H  -8.74800 34.50100 37.80200
H  -6.56900 32.72700 41.19400
H  -5.52800 33.52100 40.11400
H  -5.96800 31.87900 39.79600

