158

Mg 23.32300 -6.26400 45.18500
C  25.59000 -3.98000 43.70800
C  20.78200 -4.72500 43.41200
C  21.26200 -8.86200 46.03100
C  25.98700 -7.80700 46.73200
N  23.17300 -4.47200 43.81400
C  24.24600 -3.72500 43.38200
C  23.78700 -2.54700 42.49600
C  22.23500 -2.64100 42.64700
C  22.00900 -3.95500 43.34500
C  21.49600 -1.44300 43.38400
C  24.23100 -2.83900 41.05600
C  24.61100 -1.57100 40.21100
H  23.98700 -1.43900 38.87900
N  21.31700 -6.71900 44.71700
C  20.43600 -5.92100 44.01700
C  19.11200 -6.52900 43.97200
C  19.24400 -7.70700 44.77700
C  20.65600 -7.78500 45.24600
C  17.90300 -5.92300 43.25400
C  18.08300 -8.66100 45.03900
O  16.93900 -8.37600 44.59400
C  18.26300 -9.88200 45.94100
N  23.54800 -8.07700 46.36800
C  22.59400 -9.00400 46.48500
C  23.05600 -10.15200 47.38900
C  24.52300 -9.74600 47.78700
C  24.74400 -8.50400 46.86000
C  22.19200 -10.49800 48.58500
C  25.54600 -10.96400 47.69000
C  26.18300 -11.34100 49.06900
N  25.41600 -6.03500 45.24400
C  26.34400 -6.70000 45.95300
C  27.61600 -6.04100 45.81300
C  27.40100 -5.05700 44.88900
C  26.00400 -5.09500 44.55200
C  28.85600 -6.32500 46.54400
C  28.07200 -3.92300 44.22500
O  29.24400 -3.52100 44.25700
C  26.87800 -3.15200 43.39400
C  26.89100 -1.72800 43.82700
O  26.26100 -1.29200 44.75800
O  27.79500 -1.01500 43.14000
C  27.95800 0.39000 43.55000
H  19.97900 -4.26800 42.82900
H  20.70100 -9.73700 46.36500
H  26.82700 -8.36500 47.15100
H  24.22400 -1.61500 42.85500
H  21.70700 -2.73200 41.69800
H  22.15700 -0.60700 43.61600
H  21.22400 -1.71900 44.40300
H  20.59500 -1.11200 42.86800
H  23.40400 -3.23100 40.46500
H  25.09000 -3.50900 41.02500
H  25.68100 -1.64300 40.01700
H  24.38600 -0.62000 40.69400
H  17.25800 -6.64200 42.74900
H  18.09900 -5.13100 42.53200
H  17.33200 -5.42900 44.04100
H  17.24600 -10.26600 46.02600
H  18.59800 -9.57800 46.93300
H  18.93900 -10.63500 45.53800
H  22.98000 -11.02200 46.73600
H  24.51400 -9.36800 48.80900
H  22.01100 -11.56700 48.47300
H  21.23400 -9.98400 48.66100
H  22.75400 -10.39600 49.51300
H  26.29200 -10.91600 46.89700
H  24.96400 -11.80100 47.30500
H  25.76400 -12.27500 49.44500
H  26.01400 -10.50700 49.74900
H  27.27000 -11.26800 49.09700
H  29.19600 -5.35100 46.89700
H  29.64600 -6.82600 45.98600
H  28.69600 -6.83500 47.49500
H  27.07600 -3.09000 42.32400
H  27.04900 0.90300 43.23600
H  28.84200 0.88300 43.14500
H  28.07600 0.34300 44.63200
Mg 30.46900 57.86500 40.56000
C  27.47100 56.30300 39.69600
C  32.18300 55.37800 38.95800
C  33.11600 59.89600 40.51900
C  28.43900 60.70000 41.47800
N  29.82300 56.08700 39.45300
C  28.57400 55.49400 39.35300
C  28.68300 54.15800 38.65400
C  30.18000 53.84200 38.68200
C  30.83000 55.18300 39.07000
C  30.54600 52.60600 39.54200
C  28.13600 53.99200 37.24600
C  28.15900 55.20100 36.34700
H  28.23600 54.88600 34.81500
N  32.43500 57.55400 39.98400
C  33.01300 56.49900 39.35000
C  34.41000 56.74900 39.17100
C  34.74500 58.05800 39.60800
C  33.41000 58.54900 40.07700
C  35.30400 55.70400 38.39600
C  36.15000 58.69100 39.54300
O  37.09000 58.01400 39.08200
C  36.41700 60.07500 40.10100
N  30.78800 59.98000 41.00600
C  32.00400 60.45200 41.03200
C  31.95500 61.96000 41.47000
C  30.46800 62.19900 41.88300
C  29.84900 60.86500 41.46100
C  33.04200 62.39100 42.56000
C  29.75500 63.41000 41.19900
C  30.50000 64.70300 40.81800
N  28.32500 58.48700 40.58000
C  27.68500 59.56000 41.06000
C  26.27400 59.34600 40.83800
C  26.19400 58.03900 40.37200
C  27.44300 57.57000 40.19700
C  25.24700 60.37300 41.03200
C  25.22500 57.10500 39.88600
O  24.02300 57.23100 39.73400
C  26.08800 55.90400 39.31100
C  25.52700 54.69300 39.97900
O  25.25400 54.55600 41.16700
O  25.28000 53.73100 39.02300
C  24.44800 52.58800 39.50500
H  32.74300 54.48500 38.67200
H  33.88000 60.66100 40.36100
H  27.84400 61.54500 41.83300
H  28.00000 53.56400 39.26100
H  30.41100 53.80800 37.61800
H  30.47800 51.80000 38.81100
H  29.68200 52.37200 40.16500
H  31.47400 52.70900 40.10400
H  27.09300 53.74000 37.43700
H  28.47200 53.06000 36.79300
H  28.86300 55.99600 36.59500
H  27.16600 55.64500 36.42100
H  36.19100 56.08600 37.89100
H  34.68500 55.09700 37.73600
H  35.76800 55.12100 39.19200
H  36.36200 59.95300 41.18200
H  35.76000 60.89000 39.79700
H  37.39500 60.48500 39.84600
H  32.08600 62.46400 40.51300
H  30.27700 62.25200 42.95500
H  32.62000 62.94800 43.39600
H  33.78400 63.08000 42.15600
H  33.53500 61.44900 42.80200
H  29.01400 63.76700 41.91500
H  29.30000 63.09500 40.26000
H  30.11800 64.83000 39.80500
H  31.57600 64.56900 40.92600
H  30.11700 65.53700 41.40600
H  24.92900 60.74400 40.05700
H  25.69700 61.14500 41.65600
H  24.42200 59.81200 41.47100
H  25.82300 55.82200 38.25700
H  24.94500 51.81500 40.09100
H  24.23600 52.02300 38.59800
H  23.55800 52.96900 40.00600

