158

Mg 26.47900 50.30100 26.47100
C  24.28200 51.68000 28.99400
C  28.49700 49.28100 28.87900
C  28.72100 49.42900 24.11100
C  24.37800 51.91000 24.08000
N  26.33000 50.49000 28.66900
C  25.36800 50.96700 29.54700
C  25.73200 50.82000 31.05100
C  27.13100 50.17400 30.88400
C  27.35100 49.97000 29.35400
C  28.32900 51.04700 31.49100
C  24.57400 50.00800 31.81200
C  24.15500 50.47900 33.26600
H  25.17200 50.88400 34.27000
N  28.33000 49.42700 26.49100
C  28.96200 48.97400 27.57500
C  30.21300 48.32500 27.19900
C  30.31800 48.37300 25.78400
C  29.10500 49.08400 25.42500
C  31.20200 47.74900 28.20000
C  31.33700 47.75900 24.82000
O  31.25700 47.82800 23.58700
C  32.63300 47.14500 25.36900
N  26.44100 50.55100 24.37500
C  27.49800 50.06100 23.61200
C  27.25900 50.28400 22.10400
C  25.81600 50.97100 22.16200
C  25.49500 51.11000 23.61700
C  28.24100 51.24000 21.31600
C  24.65100 50.15600 21.50400
C  24.68900 48.61300 21.46000
N  24.73000 51.56600 26.46500
C  24.00600 52.03400 25.41700
C  22.84400 52.71000 25.85600
C  22.93700 52.57600 27.26500
C  24.10200 51.82800 27.57200
C  21.87200 53.46800 24.95900
C  22.24300 52.93000 28.45700
O  21.17900 53.51900 28.68100
C  23.09200 52.37100 29.67200
C  23.45000 53.52900 30.51500
O  24.11400 54.51800 30.17800
O  22.86100 53.42200 31.78400
C  22.75100 54.62700 32.58400
H  29.09000 48.84600 29.68600
H  29.29800 49.16600 23.22200
H  23.87600 52.50000 23.31100
H  25.65400 51.79900 31.52300
H  27.11300 49.21300 31.39700
H  28.02900 52.07600 31.69100
H  29.21100 50.90600 30.86600
H  28.55700 50.47400 32.39000
H  25.02300 49.02400 31.94800
H  23.72500 49.99000 31.12800
H  23.47100 49.80800 33.78500
H  23.54500 51.34500 33.00700
H  31.93000 48.55500 28.30000
H  31.68800 46.82600 27.88400
H  30.71300 47.61700 29.16500
H  33.16200 47.95300 25.87500
H  33.24400 46.73300 24.56600
H  32.53600 46.26400 26.00400
H  27.14200 49.28700 21.67800
H  25.63000 51.93400 21.68800
H  29.18100 51.42000 21.83600
H  27.65600 52.14400 21.15000
H  28.44400 50.87500 20.30900
H  24.46300 50.46200 20.47500
H  23.71900 50.41100 22.00800
H  23.75100 48.23300 21.86500
H  25.53100 48.23000 22.03600
H  24.80400 48.24500 20.44000
H  22.33100 53.81500 24.03300
H  21.46900 54.32800 25.49400
H  21.07600 52.76400 24.71600
H  22.39800 51.67300 30.14200
H  21.78500 54.58200 33.08700
H  22.78500 55.62400 32.14600
H  23.48800 54.49500 33.37700
Mg -1.44600 35.19400 26.83800
C  -3.52500 33.62900 29.10500
C  -0.45800 37.38100 29.40800
C  0.08300 37.19100 24.60700
C  -2.74900 33.33800 24.32600
N  -2.06000 35.55400 28.98700
C  -2.77100 34.67400 29.71600
C  -2.82800 35.20400 31.17100
C  -1.95700 36.50800 31.21500
C  -1.44700 36.50700 29.79200
C  -2.71200 37.78100 31.56200
C  -2.42800 34.16700 32.21300
C  -3.43900 33.56500 33.19000
H  -2.85200 33.06500 34.55100
N  -0.30300 36.94300 27.01200
C  0.03700 37.62300 28.13500
C  1.07700 38.62700 27.85900
C  1.25900 38.61000 26.41900
C  0.28700 37.55100 25.96800
C  1.79000 39.50300 28.83400
C  2.16700 39.47200 25.49800
O  2.32600 39.18700 24.31400
C  3.04200 40.50700 26.08900
N  -1.16600 35.14800 24.79300
C  -0.53800 36.10700 24.04800
C  -0.53200 35.76400 22.54800
C  -1.38400 34.42600 22.54300
C  -1.73700 34.26000 23.97800
C  -1.10900 36.94100 21.61200
C  -0.73700 33.10400 22.06200
C  -1.55500 32.16800 21.13500
N  -2.87500 33.73600 26.70700
C  -3.31300 33.05800 25.59300
C  -4.30800 32.10700 26.00800
C  -4.34800 32.22100 27.41800
C  -3.53400 33.27400 27.76700
C  -5.04800 31.14100 25.12500
C  -4.99100 31.66800 28.60400
O  -5.72600 30.73500 28.72300
C  -4.55700 32.66800 29.72700
C  -5.80800 33.36900 30.08600
O  -6.15700 34.47800 29.70900
O  -6.50700 32.68800 31.05300
C  -7.51400 33.49400 31.74800
H  -0.04900 37.73500 30.35600
H  0.62800 37.70900 23.81400
H  -3.20500 32.66400 23.59800
H  -3.88000 35.35800 31.41300
H  -1.09200 36.43300 31.87400
H  -3.31900 37.56200 32.44000
H  -3.33200 38.19400 30.76700
H  -1.95600 38.44600 31.97900
H  -1.55600 34.58400 32.71800
H  -2.21700 33.26900 31.63200
H  -3.93500 32.66500 32.82500
H  -4.24900 34.23700 33.47500
H  2.86700 39.58600 28.68900
H  1.77800 39.15000 29.86600
H  1.33400 40.49200 28.80100
H  3.73800 40.14000 26.84400
H  2.41700 41.17100 26.68800
H  3.55100 41.14000 25.36200
H  0.42100 35.46800 22.11000
H  -2.28500 34.53400 21.93800
H  -2.18700 36.91500 21.45300
H  -0.58400 37.09700 20.67000
H  -0.94000 37.90900 22.08300
H  -0.38500 32.57800 22.95000
H  0.24100 33.29500 21.62000
H  -2.60600 32.43600 21.02700
H  -1.55200 31.18800 21.61200
H  -1.11200 32.14100 20.14000
H  -4.44100 30.50800 24.47900
H  -5.61700 31.74700 24.41900
H  -5.78600 30.58700 25.70500
H  -4.18500 32.17700 30.62500
H  -8.21000 33.95100 31.04500
H  -6.99500 34.25700 32.32900
H  -7.99700 32.75000 32.38100

