158

Mg 48.95400 46.02300 42.65500
C  45.69900 46.65200 41.53600
C  48.65300 42.98200 41.11200
C  52.16800 45.58200 42.99800
C  49.23800 49.35400 43.69800
N  47.44500 45.03400 41.34500
C  46.23100 45.48200 41.03300
C  45.44600 44.53700 40.08700
C  46.26100 43.18600 40.43400
C  47.54200 43.72100 41.01200
C  45.55400 42.05500 41.25900
C  45.64900 45.00300 38.58300
C  44.38500 44.91500 37.65300
H  44.43400 44.07900 36.37500
N  50.25300 44.45800 42.06900
C  49.97800 43.33100 41.49600
C  51.10800 42.40800 41.43100
C  52.14800 43.09900 42.19300
C  51.56800 44.45200 42.45700
C  51.18100 40.95800 40.80000
C  53.51200 42.57800 42.63900
O  53.68300 41.39600 42.45400
C  54.63500 43.35100 43.27500
N  50.45000 47.33900 43.17100
C  51.71300 46.90800 43.26700
C  52.70600 48.09800 43.61400
C  51.76700 49.30100 43.74400
C  50.40100 48.62800 43.56700
C  53.56600 47.82200 44.87900
C  51.96300 50.47300 42.69600
C  52.82600 51.62700 43.29300
N  47.67400 47.64200 42.75600
C  47.90900 48.89500 43.39900
C  46.59400 49.56700 43.46900
C  45.72800 48.70800 42.74600
C  46.48900 47.59700 42.29500
C  46.37300 50.92800 44.00300
C  44.32500 48.58600 42.30400
O  43.31600 49.20900 42.49000
C  44.38300 47.26600 41.38400
C  43.14500 46.39200 41.70900
O  42.37800 45.96800 40.87800
O  42.90500 46.32200 43.08700
C  41.76600 45.47800 43.50000
H  48.44200 41.94900 40.82800
H  53.25400 45.47200 43.02900
H  49.34200 50.38900 44.02900
H  44.37300 44.47600 40.26700
H  46.57300 42.75500 39.48200
H  46.10100 41.85600 42.18000
H  45.60000 41.17000 40.62400
H  44.52000 42.37000 41.40100
H  46.38900 44.40300 38.05200
H  46.05600 46.01400 38.58900
H  44.16000 45.94800 37.38800
H  43.48900 44.77300 38.25700
H  50.25900 40.86900 40.22500
H  51.04700 40.23300 41.60300
H  51.95800 40.91600 40.03800
H  54.35200 43.92200 44.15900
H  55.12800 43.88000 42.46000
H  55.36500 42.62200 43.62700
H  53.35900 48.25300 42.75500
H  51.84600 49.74800 44.73500
H  53.25600 46.83200 45.21400
H  53.48500 48.47900 45.74600
H  54.59400 47.87800 44.52000
H  51.04200 50.90700 42.30600
H  52.50800 49.93500 41.92000
H  52.35100 52.55200 42.96500
H  53.86700 51.51000 42.99300
H  52.65500 51.71300 44.36600
H  46.57400 51.64900 43.21100
H  46.97700 51.07400 44.89900
H  45.31400 51.07800 44.21300
H  44.23600 47.51500 40.33300
H  41.74100 44.52500 42.97100
H  40.79100 45.95900 43.43400
H  41.87400 45.29500 44.56900
Mg 30.73100 58.52600 39.37800
C  28.06000 56.46300 38.50600
C  32.87200 55.89900 38.60200
C  33.30300 60.78800 39.43200
C  28.46800 61.30700 39.51200
N  30.50000 56.50200 38.60200
C  29.34600 55.90200 38.31200
C  29.46700 54.45200 37.76100
C  31.02400 54.15600 38.11400
C  31.52400 55.55300 38.51700
C  31.23500 53.19100 39.39200
C  29.18600 54.44600 36.21100
C  29.46000 55.76400 35.37600
H  28.37500 56.27200 34.38900
N  32.82500 58.35400 38.98600
C  33.50600 57.13900 38.67900
C  34.86100 57.44800 38.59100
C  35.04500 58.88900 38.88500
C  33.72800 59.43000 39.09300
C  35.96000 56.39500 38.39100
C  36.38600 59.51600 38.99700
O  37.46400 58.94100 38.79200
C  36.46100 61.02500 39.15300
N  30.81900 60.68800 39.43700
C  32.04200 61.34400 39.53400
C  31.89500 62.80100 39.80900
C  30.33100 62.96600 39.89200
C  29.79200 61.63700 39.53400
C  32.65500 63.29400 41.20400
C  29.71500 64.10900 39.03200
C  28.48500 64.75300 39.61100
N  28.63500 58.86200 39.11600
C  27.90300 60.05100 39.22900
C  26.49100 59.65200 39.03400
C  26.54200 58.26500 38.69200
C  27.84200 57.83600 38.87100
C  25.22900 60.52500 38.99400
C  25.74700 57.06900 38.27500
O  24.51400 56.96300 38.15700
C  26.65000 55.86400 38.24900
C  26.11300 54.89300 39.30500
O  26.26300 55.05200 40.48900
O  25.25000 54.03000 38.78600
C  24.35100 53.28100 39.70100
H  33.49000 55.06400 38.26600
H  34.05000 61.57900 39.51400
H  27.68900 62.07200 39.51500
H  28.72500 53.82400 38.25400
H  31.61300 53.73500 37.30000
H  31.71000 52.32100 38.93900
H  30.29700 52.72600 39.69500
H  31.68400 53.53300 40.32400
H  28.15300 54.10200 36.15100
H  29.86500 53.68400 35.82800
H  30.33100 55.54700 34.75800
H  29.70900 56.61600 36.00900
H  35.64300 55.46700 37.91600
H  36.43100 56.30600 39.37000
H  36.65500 56.78200 37.64500
H  35.85600 61.25300 40.03100
H  36.15700 61.53900 38.24100
H  37.49300 61.35100 39.27600
H  32.31300 63.31600 38.94400
H  29.99700 63.17400 40.90800
H  32.90300 62.45500 41.85400
H  32.08500 63.96200 41.85000
H  33.60800 63.75600 40.94400
H  29.49100 63.79000 38.01400
H  30.40500 64.95100 38.98600
H  27.82200 64.91700 38.76200
H  28.81900 65.67200 40.09300
H  28.04000 64.03900 40.30300
H  25.19700 60.91100 40.01300
H  24.35900 59.93700 38.70400
H  25.38000 61.38300 38.33800
H  26.58100 55.36500 37.28200
H  24.86200 53.13900 40.65300
H  24.12900 52.32500 39.22600
H  23.36100 53.73500 39.73800

