158

Mg 16.87100 -1.36600 27.81500
C  15.80900 0.46700 30.64000
C  18.67100 -3.32200 29.76300
C  18.19000 -2.70700 24.99200
C  14.94800 0.85100 25.79400
N  17.20300 -1.38300 29.94900
C  16.66100 -0.62000 30.95500
C  17.11200 -1.07600 32.31800
C  18.21100 -2.26600 31.95400
C  18.04400 -2.34800 30.45000
C  19.63600 -1.91300 32.41400
C  15.82400 -1.50200 33.15600
C  15.66600 -0.96300 34.60000
H  16.92600 -0.37400 35.30500
N  18.25500 -2.84200 27.46600
C  18.90700 -3.54400 28.42200
C  19.77000 -4.51600 27.80700
C  19.70900 -4.31500 26.36000
C  18.68000 -3.23900 26.19000
C  20.58600 -5.51600 28.52300
C  20.48200 -4.97400 25.24900
O  20.52900 -4.56000 24.07900
C  21.33900 -6.23500 25.40500
N  16.46100 -1.14900 25.73300
C  17.18600 -1.79400 24.74400
C  16.81300 -1.34800 23.30500
C  15.67800 -0.34600 23.61800
C  15.67600 -0.18200 25.17300
C  17.98700 -0.88600 22.48200
C  14.31000 -0.67000 23.09600
C  13.98900 -0.15900 21.69600
N  15.53000 0.28900 28.13100
C  14.86700 1.06000 27.21000
C  14.11300 2.15400 27.92900
C  14.46200 1.94900 29.26800
C  15.32900 0.82800 29.34700
C  13.09200 3.11600 27.22400
C  14.24200 2.42300 30.60100
O  13.57600 3.35300 31.01600
C  15.11300 1.56200 31.58800
C  16.01500 2.50700 32.25600
O  16.99000 3.09200 31.72800
O  15.55000 2.87900 33.49200
C  16.27600 3.92400 34.26100
H  19.24900 -4.03700 30.35200
H  18.75900 -2.98500 24.10200
H  14.52400 1.72200 25.29000
H  17.50900 -0.24600 32.90200
H  17.95300 -3.21700 32.42100
H  20.03700 -1.25400 31.64300
H  20.21500 -2.82200 32.57800
H  19.61600 -1.35000 33.34700
H  15.77600 -2.58900 33.21400
H  14.93400 -1.16600 32.62300
H  15.18700 -1.67200 35.27500
H  14.92800 -0.16700 34.49300
H  21.64400 -5.26400 28.45800
H  20.52700 -6.47700 28.01200
H  20.22200 -5.68000 29.53700
H  21.92600 -6.22900 24.48700
H  20.74900 -7.12300 25.63600
H  22.09600 -6.00400 26.15500
H  16.44200 -2.11200 22.62100
H  16.05300 0.61100 23.25500
H  17.91200 0.18700 22.30500
H  18.09900 -1.47300 21.57100
H  18.89300 -0.95600 23.08400
H  13.47200 -0.36200 23.72200
H  14.23800 -1.75500 23.16500
H  13.86000 -1.08900 21.14200
H  14.81100 0.44200 21.30900
H  13.06800 0.40000 21.53300
H  12.17700 3.15900 27.81500
H  12.88400 2.73000 26.22600
H  13.43500 4.14900 27.28300
H  14.54800 1.13800 32.41900
H  17.36200 3.88500 34.18600
H  16.03700 3.74100 35.30900
H  15.93900 4.91800 33.96800
Mg 25.26400 1.37900 29.38800
C  27.37300 1.28100 32.16800
C  22.60800 1.85800 31.51600
C  23.18000 1.30500 26.59800
C  28.03300 0.78600 27.39400
N  25.02400 1.59200 31.62600
C  26.00800 1.48500 32.52500
C  25.38400 1.46900 33.91000
C  23.83700 1.55800 33.67800
C  23.80400 1.75700 32.19000
C  23.00800 0.36600 34.14700
C  25.94100 2.74300 34.55000
C  26.69200 2.49800 35.81100
H  26.56600 3.38900 37.06100
N  23.23900 1.42700 29.15000
C  22.36100 1.67600 30.12500
C  20.97900 1.54200 29.62100
C  21.09300 1.42200 28.20900
C  22.55900 1.31400 27.89800
C  19.72400 1.56000 30.57200
C  20.07700 1.47100 27.27600
O  20.26600 1.33400 26.10100
C  18.64000 1.76500 27.62700
N  25.50100 1.02900 27.34400
C  24.56200 1.23000 26.36300
C  25.26100 1.25700 24.97800
C  26.79600 1.27500 25.22400
C  26.80300 1.03600 26.77100
C  24.73400 0.24700 23.97600
C  27.59900 2.49700 24.73500
C  27.16600 3.87500 25.22400
N  27.34100 1.08600 29.64800
C  28.30400 0.69500 28.74900
C  29.57300 0.45600 29.43600
C  29.22700 0.72900 30.73300
C  27.90300 1.08800 30.86400
C  30.85000 0.01700 28.83800
C  29.80400 0.83500 32.06400
O  30.94500 0.57700 32.41800
C  28.54300 1.13800 33.04800
C  28.46500 -0.01400 33.85100
O  28.00800 -1.10400 33.59200
O  29.07000 0.29300 34.98300
C  29.06000 -0.68900 36.05300
H  21.80400 2.11300 32.21000
H  22.54200 1.50700 25.73500
H  28.92700 0.63200 26.78700
H  25.64000 0.52200 34.38600
H  23.34900 2.45200 34.06600
H  22.07400 0.70600 34.59300
H  23.53100 -0.13300 34.96300
H  22.70600 -0.36800 33.40000
H  25.11100 3.41000 34.77900
H  26.58800 3.30000 33.87200
H  27.75900 2.51500 35.58800
H  26.29200 1.53200 36.11900
H  18.99400 0.90000 30.10400
H  19.34800 2.57700 30.68100
H  20.09500 1.11300 31.49400
H  18.05100 1.89500 26.71900
H  18.45100 2.70500 28.14600
H  18.18500 0.88600 28.08300
H  25.02000 2.24000 24.57400
H  27.37000 0.43500 24.83400
H  24.12900 0.80600 23.26300
H  24.14600 -0.56700 24.40000
H  25.59500 -0.09000 23.39900
H  27.45200 2.49700 23.65500
H  28.62700 2.29100 25.03400
H  26.52100 3.63700 26.07000
H  26.56400 4.41000 24.49000
H  27.96600 4.55800 25.51200
H  31.59800 -0.00100 29.63100
H  31.15600 0.82000 28.16700
H  30.66200 -0.94500 28.36100
H  28.74800 2.06300 33.58700
H  29.27200 -1.71400 35.75000
H  28.06900 -0.76200 36.50100
H  29.78300 -0.38500 36.81000

