158

Mg -1.10700 17.39100 26.08000
C  -1.45100 15.13100 28.93600
C  -1.89900 19.94100 28.15200
C  -0.89200 19.36800 23.39300
C  -0.90800 14.58200 24.00400
N  -1.53400 17.50900 28.34100
C  -1.53600 16.47800 29.29300
C  -1.95400 17.01800 30.65700
C  -2.01700 18.56200 30.37500
C  -1.87000 18.72100 28.83200
C  -3.30800 19.24800 30.92400
C  -1.02400 16.64100 31.86300
C  -1.05700 17.38500 33.18400
H  -1.23800 16.59300 34.42900
N  -1.35000 19.40200 25.83100
C  -1.70300 20.34200 26.81000
C  -1.68400 21.61600 26.20600
C  -1.28800 21.45100 24.94000
C  -1.09900 20.02700 24.61400
C  -2.11400 22.84600 27.01000
C  -0.99500 22.50300 23.86900
O  -0.77700 22.26600 22.73800
C  -1.05000 23.92200 24.28300
N  -0.91100 17.06200 24.01000
C  -0.83900 18.01900 23.06200
C  -0.69000 17.49500 21.62700
C  -0.47400 16.01200 21.97800
C  -0.82900 15.87600 23.39700
C  -1.97300 17.79000 20.72000
C  0.98300 15.43200 21.69000
C  2.17100 15.95200 22.60200
N  -1.21200 15.27100 26.36500
C  -1.08100 14.27100 25.40500
C  -1.00000 12.96200 26.02700
C  -1.17500 13.24700 27.43600
C  -1.23300 14.68100 27.58700
C  -0.90200 11.68100 25.32400
C  -1.32200 12.66000 28.69200
O  -1.29500 11.46400 29.01700
C  -1.46900 13.85100 29.72100
C  -0.41400 13.75700 30.63800
O  0.74700 14.09600 30.47200
O  -0.86200 13.14300 31.77200
C  0.21700 13.04200 32.79900
H  -2.17700 20.81500 28.74600
H  -0.87100 20.03500 22.52900
H  -0.70700 13.76400 23.30800
H  -2.92900 16.57000 30.85100
H  -1.11600 19.00700 30.79700
H  -3.80600 18.70800 31.72800
H  -3.98500 19.47900 30.10200
H  -3.02100 20.21400 31.33900
H  0.00900 16.68500 31.52100
H  -1.32300 15.60100 31.99000
H  -1.93500 18.02800 33.12900
H  -0.14800 17.98600 33.20600
H  -2.70000 23.54100 26.40900
H  -1.27500 23.41000 27.41800
H  -2.85400 22.56400 27.75900
H  -0.51200 24.09900 25.21400
H  -2.08600 24.25600 24.33100
H  -0.62700 24.56600 23.51200
H  0.25800 17.77900 21.16800
H  -1.17700 15.36400 21.45400
H  -2.74600 17.96000 21.47000
H  -2.35700 16.93900 20.15800
H  -1.74200 18.55300 19.97700
H  1.33500 15.54400 20.66400
H  0.93000 14.36100 21.88400
H  1.66100 16.61300 23.30300
H  2.85400 16.59800 22.05100
H  2.63000 15.10200 23.10600
H  -1.74200 11.41600 24.68300
H  -0.79400 10.89100 26.06700
H  -0.00000 11.80800 24.72500
H  -2.43400 13.82000 30.22700
H  -0.05400 13.71100 33.61500
H  1.27500 13.23800 32.62000
H  0.20300 12.08000 33.31100
Mg 1.64400 -0.98300 43.23800
C  5.16000 -0.54400 42.69000
C  1.20900 2.01200 41.65200
C  -1.62600 -1.75800 43.15500
C  2.39300 -4.34500 44.28000
N  2.99500 0.43300 42.20600
C  4.39300 0.44200 42.15000
C  4.85600 1.46400 41.18200
C  3.68500 2.49600 41.21400
C  2.56100 1.57400 41.70000
C  3.87200 3.71500 42.21200
C  5.12100 0.90000 39.73600
C  6.50300 1.24200 39.17200
H  6.55000 1.71200 37.71000
N  -0.06600 0.00800 42.56800
C  0.01600 1.31200 42.03200
C  -1.28700 1.76400 41.79300
C  -2.13500 0.70700 42.37100
C  -1.33900 -0.41400 42.72400
C  -1.64900 3.12600 41.16100
C  -3.66300 0.83900 42.44100
O  -4.18800 1.93900 42.26700
C  -4.57900 -0.24800 42.81700
N  0.52800 -2.79100 43.75600
C  -0.78000 -2.82900 43.56800
C  -1.30300 -4.21400 43.82300
C  -0.07000 -5.04300 44.25300
C  1.06000 -4.02900 44.10600
C  -2.34700 -4.26900 44.94600
C  0.30300 -6.20900 43.35900
C  0.73600 -7.45700 44.09300
N  3.40400 -2.21200 43.61000
C  3.52400 -3.52300 44.03700
C  4.93600 -3.84000 44.20700
C  5.60300 -2.67400 43.68900
C  4.65900 -1.74400 43.32300
C  5.42500 -5.13400 44.75500
C  6.91500 -2.09700 43.44700
O  7.99800 -2.52600 43.73400
C  6.71400 -0.67000 42.69300
C  7.49200 0.36300 43.37900
O  7.63300 0.42800 44.59200
O  7.93500 1.21900 42.41200
C  8.53400 2.41400 42.97000
H  1.09700 2.99600 41.19200
H  -2.70300 -1.93100 43.19600
H  2.72100 -5.28400 44.73000
H  5.74300 2.00000 41.52000
H  3.43000 2.92900 40.24700
H  4.33900 3.40000 43.14600
H  2.87400 4.07300 42.46700
H  4.44100 4.53700 41.77800
H  4.31600 1.26100 39.09500
H  4.99300 -0.17900 39.82000
H  7.12600 0.34800 39.15300
H  6.98600 1.99500 39.79500
H  -0.83000 3.61700 40.63600
H  -2.03200 3.81500 41.91400
H  -2.53900 3.01800 40.54100
H  -5.58600 0.11900 42.61800
H  -4.51400 -0.49100 43.87800
H  -4.53400 -1.08200 42.11800
H  -1.63100 -4.52600 42.83100
H  -0.04600 -5.35300 45.29700
H  -2.08800 -3.67600 45.82400
H  -2.34400 -5.31000 45.27100
H  -3.32200 -4.12600 44.48200
H  1.05100 -5.88400 42.63600
H  -0.61700 -6.48600 42.84300
H  0.42600 -8.43500 43.72500
H  0.40400 -7.34500 45.12400
H  1.82600 -7.45400 44.07600
H  5.12600 -6.04100 44.23000
H  5.08100 -5.18100 45.78900
H  6.51400 -5.09400 44.76900
H  7.08500 -0.74400 41.67100
H  9.40300 2.14300 43.57000
H  7.86900 3.02900 43.57600
H  8.79100 3.00300 42.09000

