158

Mg 49.89000 44.22200 43.00500
C  46.55900 44.66200 41.85500
C  49.66700 40.88400 42.40800
C  53.21900 44.09600 43.30800
C  50.19800 47.84800 42.90400
N  48.31400 42.95800 42.13000
C  46.97200 43.28400 41.82400
C  46.17800 42.04400 41.36000
C  47.21000 40.85400 41.55200
C  48.45200 41.56000 42.19700
C  46.78800 39.59200 42.40200
C  45.84900 42.23400 39.82700
C  44.32500 42.33500 39.61100
H  44.01400 43.19700 38.37900
N  51.20300 42.71000 43.00700
C  50.95300 41.38700 42.73800
C  52.19800 40.59300 42.80700
C  53.24500 41.52600 43.07500
C  52.59800 42.83900 43.11700
C  52.33900 39.06300 42.49800
C  54.73200 41.12400 43.21000
O  55.01600 39.94900 43.25900
C  55.83700 42.15600 43.34100
N  51.44200 45.82600 42.99600
C  52.74200 45.44600 43.21600
C  53.67500 46.65500 43.42900
C  52.72500 47.83900 43.38700
C  51.38400 47.18200 42.98200
C  54.66100 46.57000 44.59600
C  53.15300 49.05700 42.51300
C  53.22600 50.34200 43.32500
N  48.66600 45.95300 42.58500
C  48.89500 47.28300 42.68400
C  47.71900 47.94600 42.39000
C  46.76200 46.99400 42.14500
C  47.38200 45.75600 42.23500
C  47.56000 49.45500 42.59300
C  45.34500 46.81800 41.76400
O  44.37900 47.57200 41.70500
C  45.18600 45.23200 41.60300
C  44.13800 44.73300 42.56100
O  44.33500 44.34000 43.71800
O  42.92800 45.12200 42.09000
C  41.86000 44.84200 43.01300
H  49.71400 39.84200 42.08400
H  54.29300 44.10400 43.50500
H  50.12900 48.89500 42.60100
H  45.32400 41.87900 42.01600
H  47.57400 40.51600 40.58200
H  45.70600 39.60000 42.53300
H  47.22500 39.59900 43.40100
H  47.14200 38.73100 41.83600
H  46.17300 41.37600 39.23700
H  46.30700 43.14900 39.45300
H  43.88600 42.72700 40.52800
H  43.90300 41.33100 39.55100
H  53.31500 38.68600 42.19100
H  51.61800 38.91300 41.69500
H  51.93500 38.55200 43.37200
H  55.64100 42.75800 42.45400
H  56.82900 41.71000 43.42200
H  55.59300 42.63000 44.29200
H  54.28200 46.67600 42.52400
H  52.52500 48.23500 44.38300
H  54.83000 45.53200 44.88100
H  54.44600 47.17300 45.47800
H  55.57400 46.93100 44.12200
H  52.54500 49.16400 41.61400
H  54.17400 48.87300 42.18200
H  54.22600 50.72800 43.12600
H  53.12400 50.24400 44.40600
H  52.43600 51.04800 43.07100
H  48.13000 49.91400 43.40100
H  46.51400 49.69500 42.78200
H  47.97600 49.99100 41.73900
H  44.88800 45.00600 40.57900
H  41.84800 43.76000 43.14400
H  40.95800 45.12100 42.46700
H  41.93800 45.52200 43.86100
Mg 41.58100 41.02600 26.58800
C  41.21700 43.40100 29.06300
C  42.57000 38.74300 29.04700
C  42.79600 39.01300 24.17000
C  40.97200 43.43700 24.15900
N  41.87500 41.10300 28.82800
C  41.49400 42.15900 29.58500
C  41.50500 41.82700 31.03600
C  42.11200 40.39200 31.05000
C  42.18700 40.00500 29.53900
C  43.40600 40.27000 31.90500
C  40.23200 42.04000 31.83400
C  40.10800 41.28700 33.25200
H  39.25100 42.00500 34.36100
N  42.36300 39.13800 26.55300
C  42.62800 38.39300 27.67700
C  43.04700 37.02600 27.26800
C  43.27700 37.09900 25.79500
C  42.83700 38.46500 25.45800
C  43.38900 35.95200 28.21700
C  43.80000 36.09000 24.79100
O  43.88900 36.34600 23.55100
C  44.41000 34.72500 25.28400
N  41.76300 41.17300 24.49400
C  42.26600 40.20600 23.72700
C  42.23000 40.68600 22.20900
C  41.38900 41.92600 22.26100
C  41.41700 42.26100 23.70200
C  43.67400 40.83400 21.63200
C  39.91400 41.79000 21.81200
C  38.87700 41.34600 22.86300
N  41.21100 43.09500 26.56600
C  41.00200 43.91400 25.47800
C  40.81600 45.25300 25.99800
C  40.81500 45.13200 27.35100
C  41.06500 43.77300 27.66800
C  40.54200 46.45800 25.26400
C  40.63700 45.82900 28.68200
O  40.48900 47.04100 28.92400
C  40.89000 44.73900 29.77900
C  42.04400 45.19000 30.68200
O  43.14000 45.50000 30.38900
O  41.52200 45.32200 31.89900
C  42.50100 45.72700 32.94000
H  42.85100 38.09600 29.88100
H  43.42900 38.56500 23.40100
H  40.76900 44.19200 23.39700
H  42.22900 42.53400 31.44000
H  41.45100 39.68900 31.55800
H  44.21200 39.66500 31.48900
H  43.20800 39.85400 32.89200
H  43.83600 41.25700 32.07500
H  39.43800 41.72100 31.15700
H  40.20000 43.12900 31.86200
H  41.10700 41.09200 33.64200
H  39.51700 40.37500 33.16800
H  42.75500 35.15900 27.81900
H  43.02400 36.09500 29.23400
H  44.45600 35.73900 28.15000
H  44.90300 34.21800 24.45400
H  43.73900 34.04400 25.80700
H  45.25600 34.91900 25.94300
H  41.77700 39.83700 21.69700
H  41.81300 42.78400 21.74000
H  44.32400 40.06600 22.05100
H  44.05300 41.83300 21.84700
H  43.65600 40.75300 20.54500
H  39.93400 41.13700 20.94000
H  39.64200 42.79000 21.47200
H  39.28400 41.29300 23.87300
H  38.43300 40.39900 22.55500
H  38.06300 42.07000 22.83300
H  40.73400 46.33900 24.19700
H  41.19700 47.26600 25.59100
H  39.59900 46.95400 25.49300
H  39.98700 44.70400 30.38900
H  43.40000 45.12100 33.06000
H  42.12600 45.43300 33.92100
H  42.82100 46.76700 32.88000

