158

Mg 35.30300 49.01000 25.93800
C  35.72100 47.02600 28.78200
C  34.03900 51.55000 28.00400
C  34.50300 50.77500 23.26000
C  36.48400 46.40900 24.05100
N  34.89200 49.23400 28.16100
C  35.27500 48.31200 29.10100
C  35.09900 48.89100 30.47700
C  34.35400 50.24600 30.21600
C  34.39300 50.41100 28.68000
C  32.92300 50.37100 30.89500
C  36.41700 49.11500 31.27300
C  36.34200 48.94800 32.80200
H  34.99400 48.92800 33.48100
N  34.45300 50.88300 25.62500
C  34.05900 51.80300 26.58600
C  33.83300 53.11000 26.03300
C  33.87800 52.92100 24.59800
C  34.30700 51.49100 24.43900
C  33.60700 54.41000 26.84400
C  33.70900 53.97600 23.53700
O  33.85900 53.70000 22.36800
C  33.31900 55.43500 23.93600
N  35.44700 48.68700 23.91700
C  34.93500 49.46400 23.00200
C  34.96500 48.83800 21.62700
C  35.74000 47.50500 21.87800
C  35.97100 47.57200 23.38100
C  33.63700 48.66700 20.85500
C  37.03000 47.26000 21.05900
C  38.32100 47.81300 21.68600
N  35.89600 47.03800 26.31600
C  36.39500 46.12000 25.44700
C  36.75400 44.94300 26.08600
C  36.55700 45.15300 27.46900
C  36.07600 46.49500 27.53000
C  37.28600 43.65400 25.38300
C  36.52900 44.67600 28.84000
O  36.79100 43.57500 29.37600
C  36.03000 45.93800 29.74800
C  34.85700 45.49200 30.53900
O  33.71400 45.40000 30.08800
O  35.25300 45.27900 31.86200
C  34.14700 44.84600 32.67800
H  33.84900 52.37000 28.69900
H  34.19300 51.33100 22.37300
H  36.99800 45.66500 23.44000
H  34.50800 48.12600 30.98300
H  34.92800 50.98200 30.77900
H  32.14000 50.63800 30.18500
H  32.90600 51.23600 31.55800
H  32.66600 49.45100 31.41900
H  36.75700 50.12400 31.03600
H  37.18800 48.46600 30.85600
H  37.06900 49.59000 33.29900
H  36.77300 47.94800 32.85500
H  32.73400 54.98100 26.52800
H  34.46300 55.08200 26.77200
H  33.45100 54.14900 27.89100
H  34.00100 55.74300 24.72900
H  32.30900 55.41500 24.34400
H  33.44700 56.12100 23.09900
H  35.51200 49.49000 20.94600
H  35.06800 46.65200 21.78800
H  33.54500 47.63000 20.53000
H  33.44800 49.36000 20.03500
H  32.81000 48.78400 21.55500
H  36.90700 47.85700 20.15600
H  37.04700 46.18600 20.87200
H  39.06800 47.31200 21.07100
H  38.42200 47.59300 22.74900
H  38.48500 48.87000 21.47600
H  37.37200 42.88500 26.15000
H  38.16200 43.91500 24.78900
H  36.43400 43.33700 24.78200
H  36.83300 46.23800 30.42100
H  33.31400 45.54600 32.74300
H  34.46900 44.73800 33.71400
H  33.72500 43.85300 32.52500
Mg 26.84000 50.35000 26.49700
C  24.56600 51.36300 29.01600
C  29.14100 49.34000 28.79700
C  28.76700 49.46700 23.91500
C  24.68200 52.08700 24.19100
N  26.90200 50.46500 28.62200
C  25.82900 50.76100 29.48300
C  26.16000 50.24400 30.91500
C  27.59400 49.73300 30.76800
C  27.97000 49.86600 29.32700
C  28.65700 50.37800 31.77700
C  25.13600 49.14600 31.27400
C  24.26800 49.47300 32.51100
H  24.44500 48.72000 33.82900
N  28.65400 49.46200 26.40600
C  29.45500 49.05200 27.46100
C  30.56500 48.31600 26.89400
C  30.39700 48.28100 25.44700
C  29.23500 49.14300 25.20900
C  31.54700 47.66000 27.85900
C  31.13800 47.57400 24.37900
O  30.77200 47.46600 23.22400
C  32.27600 46.84700 24.95500
N  26.74300 50.67400 24.40800
C  27.68700 50.17900 23.53200
C  27.42200 50.48500 22.05400
C  26.01700 51.11800 22.18300
C  25.78000 51.34100 23.69800
C  28.50300 51.36800 21.35300
C  24.93600 50.27500 21.46700
C  24.15500 49.18800 22.23000
N  25.04000 51.53500 26.54300
C  24.38900 52.21400 25.56300
C  23.31700 52.94900 26.16100
C  23.21900 52.52700 27.48300
C  24.34000 51.70400 27.66600
C  22.34600 53.84700 25.40700
C  22.46400 52.66000 28.76600
O  21.50300 53.31200 29.14000
C  23.27400 51.78400 29.77000
C  23.37700 52.59800 31.05700
O  24.16900 53.50900 31.28400
O  22.31900 52.25100 31.86700
C  22.19800 53.15000 33.06400
H  29.76900 48.77200 29.48700
H  29.34300 49.09400 23.06500
H  24.10600 52.61400 23.42700
H  26.10900 51.02700 31.67100
H  27.59800 48.64300 30.75300
H  29.60500 49.84600 31.69100
H  28.24700 50.21200 32.77300
H  28.76800 51.45400 31.64400
H  25.65100 48.19800 31.43300
H  24.42000 49.04200 30.45900
H  23.25000 49.32400 32.15400
H  24.30700 50.53300 32.76100
H  31.50800 46.57100 27.88800
H  31.48700 48.07500 28.86500
H  32.60700 47.83900 27.68300
H  31.92700 46.06600 25.63000
H  32.86600 47.61700 25.45200
H  32.65400 46.22600 24.14200
H  27.46200 49.59600 21.42500
H  26.05500 52.08300 21.67700
H  29.39800 51.31400 21.97400
H  28.25300 52.42500 21.27100
H  28.69300 50.92800 20.37400
H  25.46800 49.75800 20.66800
H  24.24600 50.93200 20.93800
H  24.40000 49.16500 23.29200
H  24.41500 48.18400 21.89200
H  23.07100 49.29600 22.18500
H  21.94800 53.35200 24.52100
H  22.87400 54.71600 25.01400
H  21.54400 54.20400 26.05200
H  22.77900 50.85600 30.05800
H  21.11400 53.25500 33.09900
H  22.52200 54.18200 32.92500
H  22.59800 52.76300 34.00100

