158

Mg -1.87300 17.37900 27.23500
C  -2.45100 15.36000 30.08000
C  -2.71900 20.12600 29.24300
C  -1.97600 19.19100 24.34300
C  -1.73100 14.35700 25.30600
N  -2.36700 17.67800 29.42900
C  -2.58700 16.73100 30.38200
C  -2.95700 17.35000 31.76200
C  -3.29200 18.83400 31.39200
C  -2.75300 18.89600 29.96800
C  -4.78600 19.15200 31.59500
C  -1.83600 17.16500 32.81600
C  -2.47600 16.62000 34.17100
H  -1.63000 17.02900 35.36800
N  -2.19700 19.34300 26.87600
C  -2.36900 20.34600 27.81600
C  -2.49000 21.61400 27.11300
C  -2.18900 21.36500 25.71600
C  -2.13000 19.92900 25.60800
C  -2.71200 22.92800 27.80700
C  -1.94300 22.44500 24.56600
O  -1.73800 22.11100 23.42100
C  -2.03000 23.99300 24.81900
N  -1.72900 16.87800 25.15000
C  -1.90500 17.78100 24.18200
C  -1.83300 17.13000 22.80900
C  -1.51600 15.67100 23.14500
C  -1.63400 15.59900 24.65500
C  -3.07300 17.32700 21.90400
C  -0.11400 15.21400 22.76000
C  1.15600 16.01000 23.29100
N  -1.91300 15.33000 27.59300
C  -1.94000 14.21800 26.71200
C  -2.13600 13.00500 27.44500
C  -2.38300 13.45100 28.75500
C  -2.20100 14.86500 28.82700
C  -2.10100 11.64800 26.77400
C  -2.66400 12.95500 30.03200
O  -2.93000 11.84800 30.47900
C  -2.63200 14.17300 30.97600
C  -1.58500 13.90300 32.02700
O  -0.42500 14.01800 31.83300
O  -2.17800 13.35100 33.14700
C  -1.21500 12.99000 34.14400
H  -3.06600 21.01400 29.77500
H  -2.09200 19.56900 23.32500
H  -1.76100 13.46800 24.67300
H  -3.86100 16.86100 32.12600
H  -2.66100 19.50000 31.98000
H  -4.71600 20.12500 32.08300
H  -5.18200 18.41400 32.29300
H  -5.37600 19.14000 30.67900
H  -1.38800 18.12600 33.07000
H  -1.04100 16.56500 32.37500
H  -2.34000 15.53900 34.14500
H  -3.53200 16.85700 34.30100
H  -1.95800 23.66500 27.53000
H  -2.81300 22.84600 28.88900
H  -3.63400 23.38900 27.45200
H  -1.89100 24.62300 23.94000
H  -1.30700 24.33800 25.55900
H  -3.00900 24.35300 25.13500
H  -0.96000 17.60800 22.36300
H  -2.25000 15.01300 22.68000
H  -3.56300 18.26900 22.14800
H  -3.85800 16.58400 22.04800
H  -2.84500 17.44100 20.84400
H  -0.09900 15.15800 21.67200
H  -0.10300 14.21400 23.19300
H  0.89600 16.93900 23.79900
H  1.88300 16.25100 22.51500
H  1.81700 15.47200 23.97000
H  -1.11700 11.42300 26.36300
H  -2.78300 11.67700 25.92500
H  -2.56600 10.99500 27.51300
H  -3.62000 14.28000 31.42300
H  -0.57000 13.84400 34.35400
H  -0.55500 12.16400 33.88100
H  -1.67600 12.71000 35.09100
Mg 42.73700 41.39000 26.44800
C  41.60300 43.71300 28.92000
C  43.68800 39.29300 29.02800
C  43.81800 39.30500 24.09800
C  41.95500 43.77900 23.96300
N  42.69600 41.53200 28.76900
C  42.12600 42.53900 29.52900
C  42.13200 42.09500 30.98300
C  42.90200 40.74500 31.01900
C  43.14600 40.47600 29.50100
C  44.24800 40.70300 31.84100
C  40.81000 42.06000 31.77100
C  40.64200 43.08900 32.96500
H  40.23300 42.56400 34.35400
N  43.59000 39.56700 26.56400
C  43.93400 38.85000 27.69300
C  44.65600 37.71000 27.31800
C  44.62400 37.64500 25.94400
C  44.01000 38.89100 25.46300
C  45.30800 36.78600 28.27500
C  44.93100 36.43900 25.04300
O  44.87500 36.42700 23.80800
C  45.36800 35.20400 25.59000
N  42.85700 41.51000 24.38100
C  43.30100 40.49300 23.63000
C  43.07600 40.74600 22.06500
C  42.53500 42.22100 22.09700
C  42.47700 42.55100 23.57200
C  44.32100 40.52800 21.19500
C  41.09800 42.34900 21.46100
C  41.07400 42.71600 19.99000
N  42.00400 43.32900 26.36500
C  41.69000 44.13700 25.30800
C  41.19700 45.42200 25.85200
C  41.16400 45.20300 27.20100
C  41.63600 43.91200 27.52200
C  40.85200 46.71100 24.99500
C  40.76900 45.79400 28.46400
O  40.29300 46.91300 28.68000
C  41.02300 44.87300 29.54400
C  42.11700 45.45700 30.44500
O  43.27200 45.69600 30.16200
O  41.47800 45.81400 31.64500
C  42.42200 46.23800 32.75400
H  43.92800 38.58200 29.82100
H  44.19800 38.70700 23.26700
H  41.71600 44.52100 23.19800
H  42.77600 42.76200 31.55500
H  42.22500 39.99700 31.43000
H  45.10600 40.81400 31.17900
H  44.41600 39.85500 32.50400
H  44.44600 41.61400 32.40600
H  40.59100 41.07400 32.17900
H  39.98900 42.31600 31.10100
H  39.73600 43.63000 32.69200
H  41.51700 43.73900 32.99700
H  45.49400 37.32000 29.20700
H  46.24900 36.35700 27.93100
H  44.64400 35.96700 28.55100
H  45.55900 34.43300 24.84500
H  44.59300 34.90500 26.29600
H  46.34700 35.31000 26.05800
H  42.30800 40.07900 21.67300
H  43.25000 42.84400 21.56000
H  45.18700 40.86000 21.76800
H  44.13600 41.15300 20.32200
H  44.54600 39.51100 20.87200
H  40.50600 43.08700 22.00000
H  40.58700 41.40600 21.65400
H  40.21700 43.33800 19.73300
H  40.96300 41.80600 19.40000
H  41.96500 43.30200 19.76700
H  40.15600 46.43300 24.20400
H  41.74800 47.15400 24.56000
H  40.34600 47.44400 25.62300
H  40.12900 44.57400 30.09100
H  42.01500 45.97800 33.73100
H  42.40600 47.32800 32.77500
H  43.41800 45.80000 32.81700

