158

Mg 8.46100 4.50500 27.99800
C  9.77000 2.89300 30.74000
C  6.61500 6.45200 30.12700
C  7.05100 5.90700 25.27400
C  10.15600 2.24500 25.92200
N  8.12600 4.55300 30.25000
C  8.87500 3.91500 31.18400
C  8.58900 4.41500 32.61900
C  7.41400 5.51400 32.34100
C  7.37200 5.51900 30.77400
C  6.09400 5.15400 33.08300
C  9.88000 5.07000 33.25800
C  9.54200 5.77000 34.55700
H  10.37400 5.24700 35.81400
N  6.98700 5.94700 27.79100
C  6.40900 6.67300 28.79200
C  5.41800 7.61100 28.20200
C  5.65900 7.56700 26.76500
C  6.61000 6.46200 26.53900
C  4.53800 8.55500 29.06000
C  4.90900 8.27600 25.67300
O  5.12300 8.13900 24.47700
C  3.68600 9.10100 25.98800
N  8.43900 3.99200 25.89400
C  7.85100 4.80900 24.97200
C  8.20700 4.37500 23.52700
C  9.33900 3.35400 23.71700
C  9.31400 3.09500 25.26500
C  7.02000 3.98400 22.64000
C  10.69600 3.82100 23.23400
C  11.66200 2.61400 22.85900
N  9.71100 2.92300 28.24000
C  10.31600 2.06100 27.33800
C  11.08600 1.05400 27.97700
C  10.96700 1.35200 29.40300
C  10.12900 2.55300 29.43300
C  11.85900 -0.01100 27.27100
C  11.33900 0.99500 30.62300
O  12.17800 0.14100 30.96600
C  10.64000 1.95200 31.57300
C  9.88000 1.15800 32.60300
O  8.92300 0.42000 32.41000
O  10.45900 1.48900 33.82800
C  9.82600 0.98800 35.04000
H  6.19500 7.18300 30.82200
H  6.68000 6.37100 24.35700
H  10.74800 1.67600 25.20300
H  8.34300 3.55500 33.24200
H  7.73300 6.53500 32.54800
H  5.34400 4.92800 32.32400
H  5.85400 6.10300 33.56100
H  6.20800 4.31100 33.76500
H  10.37500 5.74600 32.56200
H  10.51100 4.19800 33.43100
H  8.48900 5.67200 34.81900
H  9.58300 6.85800 34.51900
H  4.79000 8.68700 30.11200
H  3.52000 8.17600 28.97000
H  4.60500 9.51000 28.53900
H  2.90200 8.55200 26.51000
H  3.27100 9.57500 25.09900
H  3.94600 9.94200 26.63100
H  8.58900 5.31000 23.11700
H  9.00200 2.41300 23.28200
H  6.17400 4.12800 23.31200
H  7.10700 2.89800 22.68400
H  6.95900 4.27900 21.59300
H  11.26900 4.41000 23.95000
H  10.63500 4.51000 22.39200
H  11.72900 2.74300 21.77900
H  11.27500 1.62400 23.09900
H  12.65900 2.80500 23.25600
H  12.78700 0.45800 26.94600
H  11.26600 -0.38300 26.43500
H  12.11900 -0.79600 27.98100
H  11.40600 2.49600 32.12500
H  10.63400 0.82300 35.75300
H  9.15800 0.12700 34.99400
H  9.21800 1.80800 35.42400
Mg 46.26400 3.76300 47.52900
C  44.25400 6.43300 47.38500
C  43.53100 1.70400 47.21200
C  48.36200 1.20500 47.25000
C  49.10500 5.91700 47.24100
N  44.08600 4.04400 47.37700
C  43.54500 5.26800 47.25300
C  41.99800 5.07900 46.78000
C  41.72500 3.58900 47.05800
C  43.17600 3.05000 47.16500
C  40.82700 3.20200 48.29800
C  41.68000 5.58600 45.31500
C  40.83200 6.84400 45.07500
H  40.76200 7.48200 43.71100
N  45.94000 1.74100 47.17100
C  44.76900 1.12900 47.04100
C  45.05500 -0.31700 46.73200
C  46.46100 -0.51000 46.72300
C  47.00600 0.80600 47.11400
C  44.00700 -1.28500 46.36900
C  47.10100 -1.77800 46.25000
O  46.39800 -2.71900 45.94100
C  48.58900 -1.94600 46.12500
N  48.46500 3.60300 46.90000
C  49.09400 2.44800 47.17900
C  50.64000 2.65500 47.42700
C  50.83700 4.10900 46.96300
C  49.40300 4.60800 46.99800
C  51.09700 2.50000 48.89000
C  51.36700 4.18700 45.50200
C  52.87400 4.44400 45.36100
N  46.68300 5.77300 47.40200
C  47.81500 6.49300 47.35400
C  47.46200 7.89800 47.55400
C  46.02700 7.93000 47.53800
C  45.66100 6.57000 47.41100
C  48.39600 9.04300 47.61400
C  44.81800 8.78400 47.66300
O  44.80000 9.98800 47.87800
C  43.65000 7.84300 47.46600
C  42.73300 7.99400 48.57700
O  42.84700 7.77900 49.78600
O  41.66500 8.54200 48.00000
C  40.51300 8.86100 48.92800
H  42.67800 1.09500 46.90300
H  49.00000 0.32300 47.34000
H  49.93000 6.63200 47.27200
H  41.40100 5.70000 47.44700
H  41.22900 3.13600 46.19800
H  40.23100 3.99200 48.75400
H  41.56200 2.85200 49.02300
H  40.24000 2.33300 47.99800
H  41.16500 4.84700 44.70200
H  42.61300 5.79000 44.79000
H  41.32400 7.59900 45.68800
H  39.81600 6.61900 45.40000
H  43.93800 -1.34200 45.28300
H  43.09600 -0.92300 46.84500
H  44.20700 -2.24400 46.84700
H  49.08800 -1.81400 47.08500
H  48.96100 -1.27200 45.35300
H  48.67400 -2.95900 45.73100
H  51.21700 1.97200 46.80300
H  51.58700 4.61600 47.57100
H  51.37200 3.42900 49.38900
H  51.87200 1.76600 49.10800
H  50.25200 2.11500 49.46000
H  50.72900 4.80600 44.87200
H  51.20500 3.18400 45.10800
H  53.15000 5.37700 45.85300
H  53.26700 4.46400 44.34400
H  53.39500 3.62200 45.85200
H  47.95600 9.75500 46.91600
H  49.45700 8.83300 47.47500
H  48.28600 9.35400 48.65300
H  43.29200 8.17200 46.49000
H  39.72200 8.38200 48.35200
H  40.27400 9.92300 48.86700
H  40.59300 8.64700 49.99400

