158

Mg 24.66400 -8.29300 47.45300
C  27.11100 -6.19700 46.16600
C  22.59400 -7.30900 44.77500
C  22.65400 -10.96800 47.96000
C  27.18200 -9.86400 49.30700
N  24.86200 -7.06300 45.64100
C  25.93400 -6.16700 45.42300
C  25.63600 -5.24800 44.22000
C  24.14300 -5.54100 43.84200
C  23.84200 -6.74200 44.78800
C  23.19000 -4.30800 44.07200
C  26.72200 -5.31800 43.09000
C  27.55000 -3.96600 42.74300
H  27.64900 -3.52900 41.24400
N  22.77400 -8.90400 46.66600
C  22.08600 -8.33900 45.59800
C  20.76700 -9.00000 45.51200
C  20.70900 -9.93200 46.51000
C  22.09000 -9.96600 47.15700
C  19.79900 -8.59700 44.40500
C  19.50900 -10.75400 46.86500
O  18.54900 -10.75700 46.13700
C  19.41200 -11.72600 48.00400
N  24.79000 -10.08500 48.65000
C  23.83100 -11.00500 48.75800
C  24.22500 -12.24600 49.49600
C  25.72600 -11.94600 49.86800
C  25.90600 -10.47400 49.29100
C  23.32300 -12.56600 50.77600
C  26.72100 -12.96800 49.29400
C  27.42300 -13.80300 50.40000
N  26.70500 -7.92900 47.91400
C  27.57600 -8.71300 48.60100
C  28.86200 -8.11300 48.48300
C  28.72300 -7.05700 47.60300
C  27.39100 -7.08100 47.23400
C  30.21400 -8.55000 48.97600
C  29.44700 -6.03500 46.93900
O  30.55600 -5.60800 47.07000
C  28.40600 -5.40600 45.99700
C  28.23800 -3.99000 46.36900
O  27.57300 -3.55000 47.30400
O  28.88700 -3.17800 45.46700
C  28.71100 -1.71400 45.67500
H  21.90900 -6.74200 44.14000
H  21.95700 -11.78100 48.17400
H  27.99900 -10.42600 49.76400
H  25.66800 -4.28700 44.73400
H  24.09000 -5.86500 42.80200
H  22.79600 -4.13000 45.07200
H  22.26600 -4.31200 43.49400
H  23.69900 -3.39100 43.77600
H  26.43100 -5.62400 42.08500
H  27.41500 -6.12500 43.32800
H  28.54200 -4.25300 43.09200
H  27.14000 -3.17100 43.36500
H  18.75400 -8.57900 44.71200
H  19.87500 -9.30000 43.57500
H  19.96700 -7.68900 43.82700
H  19.83800 -11.16000 48.83200
H  19.95600 -12.62400 47.71200
H  18.40200 -11.98400 48.32500
H  24.25100 -13.06800 48.78200
H  25.74800 -11.78000 50.94500
H  22.70400 -13.41300 50.48000
H  22.57600 -11.79800 50.97200
H  23.86500 -12.90100 51.66000
H  27.49300 -12.48700 48.69300
H  26.14900 -13.60400 48.61900
H  26.72200 -14.41500 50.96800
H  27.99600 -13.11000 51.01400
H  28.15900 -14.45600 49.93100
H  30.26700 -9.42600 49.62200
H  30.72800 -7.73000 49.47900
H  30.75700 -8.71400 48.04600
H  28.77400 -5.62400 44.99400
H  29.53700 -1.21000 45.17400
H  28.73600 -1.54700 46.75100
H  27.73700 -1.35100 45.34500
Mg 41.50200 41.35900 25.88200
C  40.64500 43.84700 28.33900
C  42.32100 39.27900 28.57400
C  42.36400 39.14500 23.66800
C  40.83100 43.68700 23.43700
N  41.45700 41.53600 28.08600
C  40.99700 42.55800 28.85600
C  40.83600 42.27600 30.38900
C  41.64500 40.90000 30.45000
C  41.78100 40.50900 28.95800
C  43.05300 40.90000 31.13700
C  39.35000 42.08800 30.77500
C  38.95000 42.88100 32.01500
H  38.76500 42.20800 33.43400
N  42.20800 39.42400 26.07300
C  42.50400 38.73400 27.26000
C  42.88700 37.38300 26.86300
C  42.92300 37.35900 25.47300
C  42.52300 38.65200 25.05400
C  43.23500 36.39100 27.93300
C  43.38900 36.26100 24.51700
O  43.29600 36.32000 23.30700
C  44.08700 35.04300 25.01100
N  41.75900 41.48800 23.88100
C  42.05100 40.36800 23.11000
C  41.89400 40.60600 21.62700
C  41.04300 41.94200 21.62900
C  41.24900 42.44100 23.04900
C  43.25100 40.68000 20.87300
C  39.58500 41.67500 21.20500
C  38.78700 40.88500 22.27000
N  40.96900 43.37700 25.85900
C  40.73000 44.19000 24.77200
C  40.47400 45.53000 25.16500
C  40.41300 45.45200 26.58900
C  40.66700 44.10100 26.91100
C  40.28700 46.75700 24.31500
C  40.16300 46.20000 27.84800
O  39.79900 47.35100 28.01900
C  40.37400 45.12600 29.00000
C  41.41400 45.60200 29.91400
O  42.63800 45.37700 29.84400
O  40.82500 46.21100 30.98500
C  41.64700 46.63200 32.08400
H  42.29700 38.77000 29.54000
H  42.55300 38.40700 22.88600
H  40.47800 44.41200 22.70100
H  41.28900 43.07400 30.97700
H  41.15200 40.09200 30.99000
H  43.32400 41.90900 31.44800
H  43.84900 40.55900 30.47500
H  43.06100 40.23600 32.00100
H  39.02100 41.05800 30.91400
H  38.79500 42.30600 29.86300
H  37.99300 43.39000 31.90400
H  39.67200 43.67200 32.21800
H  42.99800 36.64500 28.96600
H  44.28800 36.14000 28.06700
H  42.80100 35.40100 27.79200
H  45.05700 35.36500 25.39100
H  44.31200 34.40200 24.15900
H  43.48900 34.40300 25.65900
H  41.29300 39.81000 21.18600
H  41.53100 42.75100 21.08500
H  43.51700 41.72800 20.73400
H  43.16800 40.05700 19.98200
H  44.06100 40.25700 21.46900
H  39.58000 41.21900 20.21500
H  39.04600 42.61600 21.09500
H  38.00600 41.53200 22.66900
H  39.33400 40.48900 23.12700
H  38.29000 40.06600 21.75000
H  40.81400 47.57100 24.81200
H  39.27400 47.15500 24.25400
H  40.77400 46.60400 23.35200
H  39.43300 45.07800 29.54900
H  41.93100 47.68400 32.09000
H  42.57500 46.07700 32.22200
H  41.15400 46.37900 33.02300

