158

Mg 41.05800 9.47300 30.20300
C  43.10400 10.42900 32.86800
C  38.84900 8.16100 32.56100
C  39.41300 7.99800 27.71400
C  43.87200 9.97400 28.06300
N  41.02100 9.37800 32.46000
C  41.96500 9.81600 33.34800
C  41.44800 9.74000 34.79900
C  40.12800 8.80900 34.63500
C  39.96800 8.76100 33.08900
C  40.11200 7.43800 35.30500
C  41.29800 11.10800 35.52700
C  40.65200 11.05700 36.84500
H  41.11400 11.95900 37.96200
N  39.28100 8.48900 30.09800
C  38.55400 7.98900 31.16900
C  37.39300 7.25100 30.66500
C  37.46500 7.28600 29.25500
C  38.77500 7.91800 28.95600
C  36.38900 6.58100 31.58100
C  36.56700 6.77300 28.23300
O  36.84000 6.61700 27.02000
C  35.12700 6.37700 28.68600
N  41.66200 8.90900 28.20900
C  40.68200 8.46800 27.37600
C  41.15700 8.36000 25.89500
C  42.63900 8.89100 26.03200
C  42.76900 9.28100 27.52100
C  41.10400 6.87200 25.32900
C  42.96100 10.03700 25.07600
C  42.00700 11.32800 25.13500
N  43.05100 10.09300 30.41000
C  44.02500 10.33900 29.43600
C  45.12500 11.02100 29.98800
C  44.81900 11.07400 31.35600
C  43.54100 10.47700 31.57600
C  46.32800 11.45800 29.30800
C  45.28900 11.53400 32.64600
O  46.27600 12.18100 32.93500
C  44.19800 11.10100 33.69900
C  44.95400 10.17800 34.70800
O  45.85600 9.42600 34.34200
O  44.52600 10.39100 35.98600
C  45.17900 9.60900 37.01100
H  38.07100 7.88200 33.27500
H  38.99100 7.43600 26.87800
H  44.64400 10.25000 27.34200
H  42.24600 9.25200 35.36000
H  39.29000 9.38000 35.03600
H  40.79400 7.35200 36.15100
H  40.35100 6.74400 34.49900
H  39.10100 7.14200 35.58600
H  40.65500 11.79100 34.97400
H  42.30600 11.50100 35.65700
H  40.70100 10.04500 37.24900
H  39.60700 11.33300 36.70800
H  35.49700 7.20200 31.67000
H  36.82900 6.40600 32.56200
H  36.12000 5.62600 31.12800
H  34.70300 7.12100 29.36000
H  35.06000 5.39200 29.14700
H  34.45500 6.31000 27.83000
H  40.51500 9.00400 25.29400
H  43.35300 8.10900 25.77500
H  41.23000 6.15800 26.14300
H  41.74000 6.66300 24.46800
H  40.08000 6.73400 24.98100
H  43.07700 9.62100 24.07500
H  43.94400 10.36400 25.41500
H  42.57300 12.23300 25.35300
H  41.26100 11.33300 25.92900
H  41.42900 11.40500 24.21400
H  46.64800 12.47400 29.54100
H  46.08300 11.57200 28.25200
H  47.13700 10.74400 29.46100
H  43.83000 11.97000 34.24400
H  46.25800 9.73700 37.09400
H  45.01900 8.55300 36.79300
H  44.66700 9.80400 37.95300
Mg -4.58300 25.51300 25.77300
C  -3.67000 27.05500 28.80700
C  -6.65200 23.51800 27.57500
C  -5.06500 23.63200 23.06500
C  -2.36600 27.52500 24.21000
N  -5.07100 25.37200 28.00600
C  -4.60000 26.03600 29.03600
C  -5.17200 25.53200 30.35200
C  -6.10400 24.29100 29.97700
C  -5.94300 24.37200 28.43900
C  -5.49800 22.92700 30.36400
C  -5.84800 26.73200 31.16700
C  -5.46800 26.94000 32.57400
H  -5.25000 25.74400 33.42500
N  -5.80700 23.82700 25.37600
C  -6.60800 23.23700 26.18800
C  -7.40600 22.26900 25.44500
C  -6.96000 22.22100 24.08600
C  -5.92700 23.29200 24.11400
C  -8.45600 21.42400 26.09000
C  -7.31400 21.31300 22.89300
O  -6.84600 21.40900 21.71600
C  -8.10500 20.13100 23.16900
N  -3.89000 25.64200 23.85300
C  -4.21200 24.77000 22.83900
C  -3.43400 25.18000 21.55600
C  -2.86300 26.56500 21.92100
C  -3.08100 26.64200 23.39900
C  -2.45500 24.09100 21.03200
C  -3.65300 27.73900 21.22100
C  -3.03700 28.49800 20.01200
N  -3.35200 27.04400 26.26400
C  -2.43100 27.77200 25.54100
C  -1.73000 28.77500 26.37800
C  -2.26600 28.55100 27.63300
C  -3.18100 27.47900 27.55500
C  -0.56100 29.61800 26.02700
C  -2.00800 28.86000 29.03400
O  -1.21600 29.59400 29.59900
C  -2.96100 27.92400 29.80000
C  -2.19300 27.18700 30.83200
O  -1.63700 26.10200 30.61700
O  -2.18100 27.89500 32.00700
C  -1.26400 27.42400 33.04000
H  -7.30500 22.90700 28.20200
H  -5.21300 23.04500 22.15600
H  -1.78900 28.20100 23.57500
H  -4.39000 25.16500 31.01700
H  -7.18300 24.38700 30.10200
H  -4.49200 23.02800 30.77000
H  -5.48000 22.32100 29.45900
H  -6.27900 22.57600 31.03900
H  -6.88200 26.39000 31.12600
H  -5.77600 27.69300 30.65800
H  -6.33100 27.41800 33.03700
H  -4.59300 27.57700 32.70100
H  -7.99600 20.54800 26.54800
H  -9.29100 21.12700 25.45600
H  -9.00100 21.98600 26.84900
H  -8.19300 19.55500 22.24700
H  -9.07600 20.58400 23.37300
H  -7.66900 19.50100 23.94300
H  -4.22400 25.16400 20.80400
H  -1.78500 26.49100 21.77900
H  -2.32800 23.29900 21.76900
H  -1.41800 24.42400 20.98400
H  -2.86600 23.72900 20.08900
H  -3.80900 28.53700 21.94700
H  -4.64500 27.34600 20.99900
H  -2.92100 29.57300 20.14900
H  -3.61600 28.20200 19.13700
H  -1.99600 28.18400 19.93300
H  -0.21600 30.25300 26.84300
H  -0.87700 30.18000 25.14800
H  0.18900 28.88000 25.74400
H  -3.62000 28.51200 30.43900
H  -0.36300 28.01700 32.88300
H  -1.00300 26.36800 32.95800
H  -1.55700 27.68200 34.05700

