158

Mg 17.34700 -1.09000 27.76300
C  16.04000 1.01100 30.33300
C  18.96600 -2.81900 30.14800
C  19.05300 -2.61800 25.33000
C  15.99800 1.05100 25.40800
N  17.50400 -0.83400 29.91500
C  16.97900 0.08900 30.78200
C  17.42800 -0.21300 32.27200
C  18.51300 -1.29600 32.07800
C  18.28200 -1.68600 30.62800
C  19.98500 -0.98900 32.40700
C  16.35900 -0.62400 33.20100
C  16.41200 -0.07400 34.66800
H  17.73600 0.50100 35.28800
N  18.61900 -2.72600 27.76200
C  19.05300 -3.31600 28.85100
C  19.72100 -4.51200 28.44000
C  19.85600 -4.53100 26.99600
C  19.21000 -3.24400 26.64700
C  20.26100 -5.41100 29.45300
C  20.53100 -5.45900 25.97700
O  20.56800 -5.24800 24.76400
C  21.25400 -6.76200 26.46000
N  17.45400 -0.86000 25.68500
C  18.25600 -1.58200 24.88400
C  18.07000 -1.24300 23.39000
C  16.83400 -0.19600 23.45300
C  16.72400 -0.05100 24.92800
C  19.32900 -0.69400 22.71200
C  15.52800 -0.50300 22.65700
C  14.48200 -1.57600 23.16500
N  16.21100 0.72700 27.81700
C  15.69500 1.38300 26.78100
C  14.83400 2.45000 27.26400
C  14.87000 2.24800 28.65400
C  15.76700 1.24100 28.93400
C  14.02400 3.41600 26.54700
C  14.41100 2.79400 29.87200
O  13.62900 3.71500 30.13900
C  15.21800 2.02900 31.03400
C  15.97400 3.05700 31.74600
O  16.76500 3.84300 31.18000
O  15.60000 3.11300 33.07900
C  16.36300 3.99300 33.96200
H  19.50500 -3.40500 30.89600
H  19.58800 -3.14400 24.53700
H  15.71000 1.69700 24.57700
H  17.85800 0.70600 32.67000
H  18.22300 -2.10000 32.75500
H  20.54200 -0.82900 31.48400
H  20.48700 -1.88100 32.78100
H  20.14300 -0.21000 33.15200
H  16.21000 -1.69500 33.34100
H  15.40000 -0.22500 32.87000
H  16.10100 -0.95000 35.23700
H  15.61900 0.65100 34.85500
H  21.20300 -5.06100 29.87500
H  20.41100 -6.36000 28.93800
H  19.59700 -5.50300 30.31300
H  20.55900 -7.58000 26.64800
H  21.74300 -6.59600 27.41900
H  21.97700 -7.14000 25.73600
H  17.72300 -2.17800 22.95200
H  17.22200 0.75300 23.08300
H  19.16700 0.30400 22.30500
H  19.68800 -1.30500 21.88400
H  20.11300 -0.70400 23.46900
H  15.69500 -0.89900 21.65500
H  15.13000 0.49200 22.45900
H  13.68300 -0.98200 23.60700
H  14.83800 -2.31100 23.88800
H  14.02900 -2.04500 22.29100
H  13.82000 3.02900 25.54900
H  14.52800 4.37900 26.46800
H  13.06800 3.54400 27.05500
H  14.37400 1.62000 31.59000
H  17.30000 4.38800 33.56800
H  16.57400 3.66300 34.97900
H  15.78400 4.89700 34.14700
Mg 47.06400 24.92900 28.12300
C  48.18200 27.27900 30.56900
C  46.87800 22.58900 30.46700
C  46.19900 23.01400 25.68000
C  47.80900 27.62100 25.77800
N  47.81000 24.88400 30.22900
C  47.89200 25.99500 31.02000
C  47.60800 25.62400 32.53800
C  47.36000 24.13800 32.47200
C  47.41800 23.80200 30.96900
C  48.34000 23.17300 33.27600
C  46.43700 26.46400 33.21900
C  45.67900 25.92000 34.46200
H  45.62700 26.85100 35.76600
N  46.40200 23.08000 28.06600
C  46.41100 22.21900 29.16900
C  45.88700 20.93900 28.74300
C  45.65500 21.07300 27.33200
C  46.11500 22.41200 26.95000
C  45.88000 19.74000 29.60500
C  45.06800 20.07700 26.29900
O  44.69600 20.39700 25.21000
C  44.55800 18.73500 26.75400
N  47.06800 25.23200 25.98600
C  46.75100 24.21100 25.17100
C  46.64900 24.73900 23.64200
C  46.97100 26.27300 23.82800
C  47.24100 26.39800 25.30000
C  47.52400 23.98700 22.50500
C  45.86300 27.22600 23.34100
C  46.24200 28.14400 22.23300
N  48.09000 26.99900 28.13800
C  48.28500 27.91000 27.10800
C  48.83100 29.11200 27.62800
C  48.72700 28.98900 29.06000
C  48.29200 27.67000 29.25800
C  49.25800 30.33000 26.86100
C  48.87800 29.61200 30.40200
O  49.35700 30.68600 30.82200
C  48.33500 28.53700 31.40400
C  49.30100 28.40000 32.44300
O  50.42300 27.81100 32.30800
O  48.84300 28.82000 33.64400
C  49.75400 28.80100 34.85800
H  46.66800 21.79900 31.19100
H  45.74400 22.40200 24.89800
H  48.05900 28.45800 25.12300
H  48.54500 25.76400 33.07700
H  46.32400 23.94500 32.75400
H  48.94500 22.63600 32.54500
H  47.72900 22.45500 33.82400
H  48.94200 23.72200 34.00000
H  45.70100 26.67100 32.44200
H  46.80000 27.43500 33.55900
H  46.11900 24.95000 34.69200
H  44.70100 25.71300 34.02700
H  46.63800 19.05300 29.22800
H  44.98200 19.12300 29.61400
H  46.08700 20.04300 30.63100
H  43.92200 18.74400 27.63900
H  45.37500 18.03200 26.91800
H  43.98700 18.42300 25.88000
H  45.61900 24.65100 23.29700
H  47.90600 26.59800 23.37200
H  47.76600 22.94200 22.69600
H  48.45900 24.49700 22.27100
H  46.93300 24.10800 21.59800
H  45.51200 27.86900 24.14800
H  45.06500 26.57300 22.98700
H  45.58700 27.92000 21.39200
H  47.28900 28.15400 21.92800
H  46.01300 29.18100 22.48000
H  49.06700 31.26800 27.38400
H  48.77500 30.28700 25.88500
H  50.31800 30.20000 26.64400
H  47.39400 28.94700 31.77300
H  49.22500 28.20800 35.60500
H  49.98600 29.79300 35.24400
H  50.69300 28.25500 34.76900

