158

Mg 30.55100 57.56500 40.41000
C  27.83400 55.76800 38.99100
C  32.76800 55.23800 39.22700
C  33.07200 59.87400 40.83700
C  28.29700 60.20500 40.95700
N  30.27600 55.71000 39.07700
C  29.11100 55.11100 38.68100
C  29.39600 53.62300 38.31200
C  31.02000 53.48800 38.43100
C  31.42300 54.90400 38.95300
C  31.41700 52.24500 39.23700
C  28.77000 53.12700 37.00800
C  29.31600 53.85100 35.72700
H  28.34200 54.69400 34.92100
N  32.57200 57.49300 40.14900
C  33.36000 56.41300 39.70300
C  34.75500 56.75400 39.77200
C  34.81800 58.02300 40.36100
C  33.42100 58.51900 40.53800
C  35.83400 55.78700 39.41100
C  36.14400 58.70500 40.72500
O  37.20700 58.15700 40.38100
C  36.15300 59.93100 41.67800
N  30.68200 59.68700 40.90100
C  31.82100 60.42100 40.93900
C  31.55800 61.88100 41.25200
C  30.04600 61.89100 41.50600
C  29.60100 60.53900 41.07200
C  32.37300 62.55600 42.41400
C  29.31800 63.16800 40.84700
C  28.31100 63.82800 41.77500
N  28.48300 57.91100 40.14500
C  27.74800 59.04400 40.47800
C  26.40500 58.75600 40.30800
C  26.31800 57.46700 39.75200
C  27.65200 57.01300 39.63600
C  25.22500 59.62800 40.66400
C  25.45300 56.46700 39.17400
O  24.26300 56.42600 38.91200
C  26.38700 55.32300 38.68200
C  26.00900 54.01700 39.27500
O  26.43700 53.45600 40.26200
O  25.19900 53.33200 38.33900
C  24.67600 52.06600 38.93300
H  33.39100 54.37000 39.00300
H  33.92800 60.54600 40.75100
H  27.53200 60.93300 41.23500
H  29.01600 53.11000 39.19500
H  31.57500 53.50600 37.49300
H  30.65400 51.54500 39.57800
H  31.78300 52.76300 40.12300
H  32.15200 51.75400 38.59800
H  27.68800 53.25500 37.02700
H  29.13800 52.10000 37.00400
H  29.68900 53.19400 34.94200
H  30.14400 54.50800 35.99500
H  36.43100 56.36500 38.70500
H  35.57500 54.85300 38.91300
H  36.38600 55.56200 40.32400
H  36.10200 60.86300 41.11600
H  37.10700 59.76500 42.17800
H  35.42200 59.84500 42.48200
H  31.75900 62.44400 40.34100
H  29.88000 62.02300 42.57500
H  31.65400 63.12700 43.00100
H  33.12400 63.22000 41.98700
H  32.89900 61.90900 43.11600
H  28.73800 62.77700 40.01100
H  29.99500 63.90200 40.40900
H  28.20800 64.90600 41.65200
H  28.58500 63.73300 42.82600
H  27.33200 63.35000 41.72600
H  24.79300 59.98200 39.72800
H  25.32600 60.34000 41.48400
H  24.47200 58.96900 41.09400
H  26.27900 55.18300 37.60600
H  24.20700 52.26900 39.89600
H  25.36700 51.23000 39.03800
H  23.86900 51.65200 38.32900
Mg 5.97200 54.35100 40.81300
C  5.05100 51.01900 40.36600
C  9.11400 53.63100 39.39200
C  6.63500 57.55500 41.02500
C  2.58200 55.03700 41.85000
N  6.93600 52.56700 40.03800
C  6.38400 51.33600 39.89600
C  7.42000 50.30000 39.40500
C  8.81300 51.06000 39.52300
C  8.25700 52.49900 39.52100
C  9.56700 50.60700 40.81000
C  7.04700 49.99400 37.96300
C  7.67600 48.77800 37.28400
H  6.86300 48.13800 36.11100
N  7.55800 55.43100 40.22500
C  8.78200 54.96400 39.73900
C  9.63800 56.08300 39.53700
C  9.08900 57.23700 40.05800
C  7.69000 56.78600 40.48600
C  10.91900 56.00800 38.78400
C  9.72700 58.53300 40.09700
O  10.85700 58.71600 39.60800
C  9.07400 59.59000 40.79900
N  4.79100 56.06800 41.28200
C  5.33400 57.26300 41.39500
C  4.34600 58.37100 41.85400
C  3.03000 57.59200 41.88400
C  3.45600 56.10500 41.64200
C  4.64600 59.03400 43.27200
C  1.97900 57.96800 40.83200
C  0.93000 59.08200 41.20100
N  4.17200 53.26600 41.08200
C  2.94100 53.64400 41.58500
C  2.17800 52.44800 41.84800
C  3.00400 51.38500 41.34300
C  4.16100 51.91800 40.88800
C  0.85900 52.40000 42.50200
C  3.03300 49.94600 41.25300
O  2.31200 49.03800 41.65400
C  4.42500 49.70800 40.66300
C  4.36100 48.69200 39.56100
O  3.81400 48.75500 38.43900
O  5.09100 47.57800 39.98000
C  4.75200 46.35800 39.18100
H  10.16800 53.40500 39.21700
H  6.69200 58.64100 41.13400
H  1.62200 55.37000 42.25000
H  7.30400 49.39200 39.99600
H  9.36000 50.99200 38.58200
H  9.17900 49.72200 41.31300
H  9.45300 51.43400 41.51100
H  10.63200 50.60000 40.57500
H  7.26500 50.87500 37.35800
H  5.96800 49.90800 37.84000
H  8.00000 48.04400 38.02200
H  8.55000 49.18900 36.77700
H  11.79000 56.13900 39.42600
H  10.93300 56.83800 38.07700
H  11.01000 55.07200 38.23300
H  8.28700 59.97800 40.15200
H  9.72000 60.38200 41.17700
H  8.69200 59.02100 41.64700
H  4.55500 59.14700 41.11800
H  2.56000 57.58500 42.86700
H  3.66300 59.33100 43.63900
H  5.15500 59.94400 42.95300
H  5.35100 58.55800 43.95300
H  1.40600 57.16800 40.36400
H  2.56100 58.36200 39.99900
H  0.94100 59.79600 40.37700
H  1.26800 59.54900 42.12600
H  -0.06800 58.67000 41.35300
H  0.15700 52.32200 41.67200
H  0.66600 53.31900 43.05500
H  0.94300 51.48100 43.08300
H  5.05300 49.27400 41.44100
H  3.70000 46.08200 39.25100
H  5.38900 45.58400 39.61000
H  5.01300 46.51600 38.13400

