158

Mg 50.07600 45.64300 42.72200
C  46.85600 46.13500 41.18500
C  49.67700 42.25700 41.97200
C  53.31600 45.22800 43.29200
C  50.37600 49.01000 43.16100
N  48.38700 44.44500 41.66800
C  47.22600 44.83000 41.18100
C  46.51300 43.65400 40.50300
C  47.18500 42.42700 41.23200
C  48.53600 43.05000 41.67300
C  46.49400 41.70500 42.41800
C  46.60200 43.64300 38.98100
C  45.45300 43.08400 38.18200
H  45.85100 42.17300 36.96400
N  51.32600 43.94800 42.76200
C  50.98900 42.65600 42.34100
C  52.14400 41.81200 42.44100
C  53.25400 42.64000 42.91200
C  52.67300 43.98200 43.02200
C  52.22800 40.37600 42.10400
C  54.65200 42.20300 43.32900
O  54.93800 41.03100 43.19800
C  55.68800 43.17700 43.97300
N  51.67200 46.92900 43.02000
C  52.89300 46.52900 43.35600
C  53.82500 47.68800 43.53300
C  52.90300 48.93900 43.61500
C  51.55700 48.23700 43.25200
C  54.77100 47.57900 44.69500
C  53.23200 50.10200 42.59100
C  53.12900 51.50600 43.00000
N  48.82000 47.25400 42.43100
C  49.12900 48.55200 42.65000
C  47.95400 49.39600 42.18000
C  47.07500 48.46100 41.65400
C  47.67300 47.22600 41.79000
C  47.76900 50.99100 42.42500
C  45.75500 48.31900 41.05300
O  44.89700 49.21600 40.87100
C  45.65900 46.80100 40.62700
C  44.33900 46.21500 41.03400
O  43.58100 45.71100 40.19700
O  43.98800 46.50900 42.30300
C  42.69100 46.06300 42.73400
H  49.55400 41.19400 41.75500
H  54.38800 45.01800 43.32000
H  50.41700 50.08000 43.37600
H  45.45300 43.70000 40.75400
H  47.37500 41.62100 40.52200
H  47.13800 41.73000 43.29600
H  46.18500 40.68400 42.19300
H  45.61800 42.29900 42.68000
H  47.50600 43.12900 38.65200
H  46.71700 44.67300 38.64300
H  44.84800 43.79200 37.61600
H  44.74700 42.55900 38.82600
H  53.08800 40.36700 41.43400
H  51.42000 40.04100 41.45400
H  52.29300 39.72400 42.97600
H  56.10200 43.89200 43.26200
H  56.55100 42.57800 44.26500
H  55.43500 43.79600 44.83400
H  54.39000 47.70300 42.60100
H  52.85400 49.36300 44.61800
H  54.55800 46.71900 45.33000
H  54.91000 48.41600 45.38000
H  55.75400 47.43600 44.24800
H  52.47600 49.88200 41.83700
H  54.15400 49.97800 42.02300
H  52.58700 52.10300 42.26700
H  54.04800 52.08100 43.11600
H  52.56600 51.52700 43.93400
H  46.77100 51.19300 42.03500
H  48.59600 51.55700 41.99600
H  47.81600 51.17900 43.49800
H  45.71500 46.66800 39.54700
H  42.57300 45.00300 42.51000
H  41.84200 46.62600 42.34700
H  42.72800 46.20500 43.81500
Mg 42.90800 42.19400 25.77300
C  42.19200 44.43400 28.36500
C  44.13800 40.11900 28.26500
C  44.02200 40.27400 23.39700
C  42.41400 44.81300 23.52700
N  43.04000 42.29600 28.10200
C  42.66300 43.31100 28.91200
C  42.91000 42.92100 30.43500
C  43.82600 41.68100 30.29600
C  43.60100 41.28900 28.79400
C  45.35300 41.84300 30.62500
C  41.57100 42.69100 31.16700
C  41.83700 42.11600 32.63800
H  41.13100 42.81800 33.86400
N  43.82300 40.31700 25.81400
C  44.20400 39.57700 26.93800
C  44.75400 38.29900 26.49600
C  44.56500 38.36000 25.07400
C  44.12200 39.64900 24.69300
C  45.20000 37.26800 27.45100
C  44.81100 37.19300 24.10100
O  44.69800 37.27800 22.88400
C  45.28800 35.88800 24.64300
N  43.22400 42.50600 23.74500
C  43.72900 41.61400 22.97900
C  43.58500 41.96500 21.49200
C  42.84500 43.31200 21.55900
C  42.81200 43.55700 23.05400
C  44.89000 41.88100 20.62000
C  41.42700 43.44600 20.86600
C  40.07300 43.17800 21.49500
N  42.32200 44.19000 25.85900
C  42.16800 45.09500 24.83500
C  41.58000 46.35200 25.37000
C  41.41800 46.02800 26.74400
C  42.04500 44.76100 26.98700
C  41.35800 47.66400 24.66700
C  41.23400 46.67500 28.07500
O  40.96500 47.85600 28.30700
C  41.69600 45.64500 29.13100
C  42.77200 46.20000 30.02000
O  43.96900 46.11800 29.75300
O  42.17900 46.69800 31.16100
C  43.12900 47.23600 32.16300
H  44.50200 39.43100 29.03000
H  44.23500 39.61100 22.55600
H  42.23800 45.61100 22.80400
H  43.38800 43.78600 30.89300
H  43.50300 40.85200 30.92500
H  45.66700 42.87100 30.80700
H  45.95300 41.44500 29.80700
H  45.53100 41.38600 31.59800
H  40.95500 42.04500 30.54200
H  41.21700 43.72100 31.12600
H  42.88100 41.97100 32.91400
H  41.45800 41.09400 32.62100
H  45.39500 37.64800 28.45400
H  46.05600 36.67200 27.13600
H  44.35100 36.58500 27.48600
H  45.42300 35.12800 23.87300
H  44.63400 35.44900 25.39700
H  46.28000 36.04300 25.06700
H  42.94900 41.17400 21.09600
H  43.40700 44.14400 21.13400
H  45.13900 42.91700 20.39000
H  44.65900 41.44900 19.64600
H  45.75200 41.39800 21.08200
H  41.36400 42.76100 20.02000
H  41.42300 44.48400 20.53300
H  39.53500 42.45000 20.88800
H  39.47500 44.07200 21.67200
H  40.05200 42.69400 22.47200
H  42.19600 48.35600 24.74900
H  40.48700 48.14200 25.11400
H  41.16800 47.45300 23.61400
H  40.77300 45.42000 29.66600
H  44.02400 47.65800 31.70500
H  43.35000 46.46300 32.90000
H  42.60300 48.11600 32.53300

