158

Mg 47.27700 16.60900 28.14500
C  45.48700 16.25100 31.15400
C  49.83700 18.02300 29.81100
C  48.75800 17.03600 25.21300
C  44.56100 15.11700 26.48900
N  47.60100 17.11300 30.23500
C  46.71400 16.98600 31.29900
C  47.26700 17.74700 32.55800
C  48.66400 18.13100 32.08400
C  48.78300 17.65700 30.60000
C  48.99000 19.62400 32.21200
C  47.15700 16.93400 33.85300
C  46.78900 17.72000 35.17400
H  46.98100 19.26100 35.21300
N  48.98400 17.61100 27.55500
C  49.92600 18.05700 28.39800
C  51.12700 18.51900 27.67400
C  50.86400 18.22200 26.24400
C  49.51800 17.60300 26.28800
C  52.39300 19.02600 28.27500
C  51.70400 18.48000 25.03800
O  51.33500 18.37600 23.88000
C  53.11900 18.95000 25.28400
N  46.62300 16.38300 26.17400
C  47.50600 16.54500 25.18100
C  46.99200 16.03400 23.76500
C  45.71000 15.32500 24.22900
C  45.63000 15.57900 25.70700
C  46.85600 17.24700 22.83600
C  45.75200 13.74300 24.00400
C  44.89700 13.16600 22.82300
N  45.43100 15.90400 28.65800
C  44.40600 15.32900 27.86100
C  43.27600 14.84500 28.67500
C  43.64600 15.23600 29.97800
C  44.95800 15.80000 29.93100
C  42.07000 14.15000 28.28500
C  43.16300 15.36600 31.36400
O  42.07800 15.09400 31.86600
C  44.39100 16.01800 32.15800
C  43.83300 17.22100 32.79000
O  43.88600 18.33700 32.36000
O  43.40000 16.85100 34.02300
C  42.91800 17.88100 34.98900
H  50.64400 18.51700 30.35600
H  49.26400 17.13000 24.25000
H  43.72900 14.64400 25.96200
H  46.63400 18.61500 32.74000
H  49.38600 17.55300 32.66100
H  48.89900 20.16700 31.27200
H  50.04500 19.61100 32.48500
H  48.51900 20.09100 33.07800
H  48.14700 16.55600 34.10800
H  46.46100 16.09600 33.80500
H  47.32400 17.26000 36.00500
H  45.74900 17.62600 35.48700
H  52.64000 19.97800 27.80500
H  53.17900 18.27000 28.29400
H  52.15800 19.27200 29.31100
H  53.72400 18.35000 25.96300
H  52.97700 19.98900 25.58200
H  53.56300 18.94300 24.28900
H  47.81000 15.43100 23.37300
H  44.82600 15.65700 23.68400
H  45.78800 17.39000 22.67100
H  47.46000 17.18700 21.93000
H  47.04400 18.14600 23.42400
H  45.63700 13.30300 24.99500
H  46.74500 13.54500 23.60200
H  45.44900 13.28400 21.89100
H  44.07400 13.87100 22.70300
H  44.49900 12.15600 22.92400
H  42.36000 13.44700 27.50500
H  41.17700 14.75400 28.12500
H  41.71800 13.58800 29.15000
H  44.66400 15.26200 32.89500
H  41.83600 17.98800 34.92500
H  43.20100 18.86900 34.62700
H  43.21800 17.85600 36.03600
Mg -0.80300 33.68800 27.18500
C  -2.78200 31.91200 29.42600
C  0.49100 35.40900 29.80900
C  0.61200 35.82200 24.88000
C  -2.33700 32.00900 24.53400
N  -1.14600 33.62800 29.34400
C  -1.84700 32.73100 30.06500
C  -1.59400 32.83500 31.55700
C  -0.60000 34.06000 31.68800
C  -0.36400 34.37700 30.21800
C  -1.11800 35.21500 32.57200
C  -1.05000 31.58000 32.21300
C  -1.79800 30.96200 33.40400
H  -1.02800 30.89900 34.74100
N  0.44700 35.29800 27.35000
C  0.85400 35.84200 28.52500
C  1.76600 36.95100 28.18700
C  1.87100 37.08900 26.79300
C  0.98700 36.04500 26.24900
C  2.42600 37.77900 29.24900
C  2.60800 38.06600 25.95000
O  2.81700 37.90800 24.74900
C  3.16400 39.36200 26.55900
N  -0.86700 33.84300 25.04000
C  -0.30900 34.87700 24.31000
C  -0.80100 34.85200 22.81400
C  -1.45300 33.44900 22.74200
C  -1.61100 33.11500 24.22800
C  -1.73400 35.96600 22.50200
C  -0.55600 32.42700 21.95100
C  0.48600 31.44900 22.71600
N  -2.16000 32.19500 26.97500
C  -2.66500 31.50500 25.85200
C  -3.59400 30.50700 26.26600
C  -3.66200 30.67200 27.67700
C  -2.87800 31.71500 28.00800
C  -4.40700 29.59500 25.39000
C  -4.27100 30.23000 28.83800
O  -5.15900 29.40900 28.94900
C  -3.67100 30.95300 30.07400
C  -4.81400 31.65600 30.71700
O  -5.44700 32.59100 30.24600
O  -5.10700 31.06600 31.92400
C  -6.25900 31.47800 32.74500
H  0.90000 36.02200 30.61500
H  1.03900 36.58300 24.22300
H  -2.69300 31.30100 23.78200
H  -2.55500 33.16400 31.95200
H  0.35600 33.72500 32.09100
H  -2.00400 35.06200 33.18800
H  -1.30600 36.01300 31.85400
H  -0.36400 35.34800 33.34800
H  0.00600 31.75600 32.41700
H  -0.98200 30.78400 31.47200
H  -1.89300 29.89100 33.22500
H  -2.79400 31.39700 33.48800
H  3.50500 37.71500 29.10900
H  2.26400 37.38300 30.25100
H  1.99600 38.77900 29.30600
H  2.27700 39.66100 27.11800
H  3.48500 39.98700 25.72600
H  3.92900 39.03900 27.26500
H  0.07000 34.93400 22.16400
H  -2.42200 33.49500 22.24500
H  -1.63200 36.69000 23.31100
H  -2.78100 35.66300 22.48800
H  -1.50700 36.29200 21.48700
H  -0.06200 32.89600 21.10000
H  -1.31300 31.77000 21.52200
H  0.12200 30.42500 22.62700
H  0.47700 31.59900 23.79600
H  1.46800 31.66800 22.29600
H  -5.40500 29.59700 25.83000
H  -3.97600 28.64000 25.08800
H  -4.60900 30.17600 24.49100
H  -3.13500 30.25700 30.71900
H  -6.00100 32.40400 33.25800
H  -6.52000 30.66600 33.42400
H  -7.11100 31.70100 32.10300

