158

Mg 34.89400 3.30800 29.15800
C  32.79200 4.19400 31.82500
C  37.46300 3.05400 31.41800
C  36.83500 2.76900 26.54100
C  32.12500 3.77100 26.96800
N  35.01900 3.53200 31.36700
C  34.04700 3.82200 32.28800
C  34.56700 3.90900 33.72400
C  36.09000 3.74500 33.49200
C  36.21300 3.44400 31.98900
C  36.98500 4.96800 33.86600
C  33.98700 2.83800 34.69900
C  34.75000 2.62600 36.03800
H  35.54300 3.70200 36.71800
N  36.88800 2.97100 29.03800
C  37.76400 2.89400 30.03700
C  39.03500 2.46200 29.49000
C  38.85100 2.31600 28.08800
C  37.49400 2.79000 27.81300
C  40.25200 2.17600 30.34300
C  39.85900 1.81700 27.06700
O  39.65600 1.98900 25.88400
C  41.17800 1.22500 27.50800
N  34.46800 3.35500 27.01600
C  35.45600 3.02400 26.17700
C  34.97100 3.14800 24.72000
C  33.41400 3.12600 24.95500
C  33.29300 3.47600 26.39200
C  35.58700 4.52900 24.19000
C  32.74100 1.76400 24.59400
C  31.45500 1.73400 23.83400
N  32.84700 3.81800 29.29500
C  31.89400 3.93300 28.36900
C  30.66500 4.29500 28.94600
C  30.94100 4.42400 30.33700
C  32.29900 4.12200 30.48800
C  29.43200 4.52500 28.22500
C  30.41300 4.76900 31.61500
O  29.31300 5.18500 31.88300
C  31.53100 4.48300 32.68500
C  31.66900 5.53600 33.64500
O  32.27200 6.57300 33.48500
O  30.96600 5.19700 34.80300
C  30.84300 6.16300 35.91800
H  38.23700 2.95500 32.18100
H  37.49700 2.54600 25.70100
H  31.21300 3.89100 26.38000
H  34.30300 4.92900 34.00200
H  36.38400 2.86100 34.05700
H  36.47000 5.64000 34.55200
H  37.22400 5.56700 32.98800
H  37.92700 4.63800 34.30500
H  34.00500 1.91000 34.12600
H  32.97200 3.20600 34.84700
H  35.33600 1.72000 35.88600
H  34.01700 2.28200 36.76700
H  40.33100 1.08900 30.31500
H  40.12800 2.48700 31.38100
H  41.14600 2.73200 30.05900
H  41.84900 1.18500 26.65100
H  40.93200 0.25000 27.93000
H  41.70600 1.78500 28.28000
H  35.27600 2.33400 24.06200
H  32.98200 3.85600 24.26900
H  35.77300 5.22200 25.01000
H  34.97600 5.00600 23.42400
H  36.55900 4.31100 23.74800
H  32.59000 1.13300 25.46900
H  33.40300 1.29600 23.86500
H  30.81100 2.57900 24.07800
H  30.99000 0.78700 24.10700
H  31.56500 1.67100 22.75200
H  29.35300 5.45800 27.66600
H  28.65000 4.52400 28.98500
H  29.25500 3.67000 27.57200
H  31.26500 3.63600 33.31800
H  31.11200 7.16500 35.58400
H  31.55300 5.97600 36.72400
H  29.78600 6.23200 36.17200
Mg 47.40200 25.70200 28.85200
C  48.35600 27.76200 31.30700
C  46.46500 23.38000 31.21300
C  46.89500 23.32200 26.33100
C  49.07600 27.53800 26.56200
N  47.60600 25.57500 31.05400
C  47.84900 26.62100 31.88600
C  47.28800 26.32300 33.32900
C  46.82600 24.87300 33.28300
C  46.99100 24.56200 31.77300
C  47.34200 23.91800 34.35600
C  46.27800 27.30900 33.85200
C  46.64800 28.09400 35.11700
H  45.58200 28.26100 36.22600
N  46.71100 23.60700 28.77100
C  46.40800 22.85000 29.90000
C  45.88900 21.54000 29.45600
C  45.94800 21.56800 28.04100
C  46.46700 22.90800 27.62800
C  45.25300 20.54100 30.51800
C  45.58500 20.42100 27.08900
O  45.71000 20.54700 25.86800
C  45.01600 19.12700 27.69300
N  48.04000 25.40100 26.81400
C  47.59400 24.42600 25.93100
C  47.89400 24.79900 24.48000
C  48.13600 26.30600 24.57700
C  48.46900 26.45300 26.08600
C  49.07800 23.88700 24.09100
C  46.96900 27.26200 24.08000
C  45.54100 26.91200 24.65900
N  48.41800 27.41700 28.85700
C  49.11000 28.05200 27.86800
C  49.56200 29.39200 28.36300
C  49.27500 29.27800 29.69900
C  48.63700 28.06300 30.00800
C  50.28300 30.40000 27.54100
C  49.35100 30.01400 31.00400
O  49.72500 31.13900 31.22000
C  48.75100 29.06200 32.05200
C  49.84100 28.79800 33.04200
O  50.67600 27.89600 32.87200
O  49.79500 29.74300 34.13600
C  50.89900 29.54400 35.11000
H  45.94500 22.75400 31.94000
H  46.62100 22.52300 25.63900
H  49.43000 28.12500 25.71200
H  48.13500 26.30100 34.01600
H  45.74800 24.82300 33.43800
H  46.45800 23.40800 34.73800
H  47.87200 24.50100 35.10900
H  47.97900 23.16000 33.90000
H  45.34100 26.80700 34.09400
H  45.99000 27.94700 33.01600
H  46.92000 29.06900 34.71300
H  47.56900 27.73700 35.57800
H  44.21700 20.31700 30.26000
H  45.34700 20.95200 31.52300
H  45.82200 19.61300 30.48000
H  45.61800 18.59600 28.43000
H  44.79000 18.57600 26.78000
H  44.00900 19.24400 28.09300
H  47.01800 24.59100 23.86600
H  48.97800 26.60400 23.95200
H  49.57800 23.48900 24.97400
H  49.80500 24.52500 23.58800
H  48.85900 22.99400 23.50600
H  47.00800 27.09100 23.00400
H  47.36000 28.28000 24.05200
H  45.79700 26.29600 25.52000
H  45.01600 26.31200 23.91500
H  44.89500 27.75300 24.91400
H  50.17300 31.39800 27.96600
H  49.81800 30.31000 26.56000
H  51.31300 30.11300 27.32800
H  47.88600 29.50800 32.54200
H  51.81300 29.39300 34.53600
H  50.71500 28.75100 35.83500
H  50.99800 30.45400 35.70200

