158

Mg 16.56500 -2.59300 27.81000
C  15.49100 -0.35500 30.44500
C  18.65500 -4.03800 30.00500
C  18.25900 -3.94900 25.06200
C  14.62400 -0.69700 25.65400
N  16.99300 -2.19300 29.95800
C  16.41500 -1.35600 30.83700
C  16.98700 -1.51200 32.23800
C  18.18800 -2.55100 31.98000
C  17.91800 -2.97700 30.55700
C  19.63000 -2.11800 32.32400
C  15.93100 -1.98800 33.25100
C  16.17900 -1.70300 34.73100
H  17.51500 -1.20500 35.26200
N  18.17200 -3.93600 27.55400
C  18.84500 -4.45600 28.65200
C  19.66600 -5.58200 28.20200
C  19.59300 -5.49500 26.78800
C  18.59900 -4.47100 26.39500
C  20.33500 -6.57900 29.15800
C  20.45100 -6.24700 25.76600
O  20.42300 -6.04600 24.51400
C  21.29000 -7.52500 26.30500
N  16.47500 -2.34800 25.75900
C  17.27600 -2.98200 24.77100
C  16.92600 -2.56200 23.31800
C  15.66000 -1.58700 23.54000
C  15.56000 -1.54900 25.08700
C  18.04500 -1.89100 22.53700
C  14.31800 -2.01200 22.81000
C  13.68000 -0.96500 21.82700
N  15.30500 -0.90700 27.95700
C  14.56800 -0.27100 26.95800
C  13.77000 0.89200 27.56200
C  14.02700 0.82000 28.88400
C  14.98700 -0.21600 29.08300
C  13.01500 1.88100 26.85500
C  13.75200 1.47900 30.14300
O  13.00400 2.41900 30.45800
C  14.67500 0.73900 31.22100
C  15.67100 1.68900 31.81600
O  16.18100 2.62600 31.23100
O  15.90400 1.41000 33.18500
C  16.72600 2.48200 33.81000
H  19.12900 -4.61900 30.79900
H  18.62900 -4.31000 24.10000
H  13.89100 -0.16000 25.04800
H  17.42800 -0.55100 32.50200
H  18.01000 -3.46600 32.54500
H  19.73300 -1.03400 32.27200
H  20.33800 -2.67200 31.70800
H  19.96500 -2.40500 33.32100
H  15.89800 -3.07100 33.12900
H  14.96400 -1.56500 32.97900
H  15.97100 -2.68800 35.15000
H  15.28900 -1.19700 35.10700
H  21.40200 -6.36000 29.12000
H  20.27900 -7.60100 28.78300
H  20.02900 -6.53700 30.20300
H  20.54600 -8.19100 26.74300
H  22.12000 -7.20400 26.93300
H  21.71400 -8.15600 25.52400
H  16.58700 -3.48100 22.84200
H  15.96800 -0.54600 23.44300
H  18.27300 -2.54600 21.69600
H  18.92000 -1.76900 23.17600
H  17.80700 -0.87000 22.23800
H  13.58700 -2.15600 23.60600
H  14.39300 -3.02100 22.40300
H  13.64400 -1.48900 20.87200
H  14.42700 -0.19300 21.63900
H  12.71100 -0.54200 22.09100
H  13.41900 2.11200 25.86900
H  12.92200 2.80000 27.43500
H  12.03200 1.41200 26.81200
H  14.11100 0.29100 32.03900
H  16.59600 3.47600 33.38200
H  17.81200 2.39900 33.77500
H  16.47100 2.69200 34.84800
Mg 9.77700 47.00200 25.42000
C  7.48600 46.87500 27.97200
C  12.28600 47.70200 27.55900
C  11.83200 47.70100 22.70000
C  7.07600 46.75300 23.10500
N  9.81400 47.39500 27.56400
C  8.78000 47.16600 28.45000
C  9.36200 47.35100 29.89700
C  10.80100 47.82100 29.68500
C  10.99900 47.59500 28.16300
C  11.15300 49.22200 30.20900
C  9.13500 46.17400 30.93400
C  10.07800 46.16400 32.16800
H  9.33700 45.74200 33.42300
N  11.84500 47.56100 25.16000
C  12.70600 47.75200 26.16300
C  14.06900 47.86700 25.59300
C  13.95300 47.71600 24.18600
C  12.47000 47.70600 23.95000
C  15.31100 48.02100 26.41400
C  15.01100 47.61300 23.10500
O  14.66800 47.56300 21.91700
C  16.52900 47.41500 23.40700
N  9.50000 47.23700 23.13700
C  10.51900 47.44800 22.31800
C  10.08000 47.35600 20.88500
C  8.55400 46.99000 20.99500
C  8.34300 46.91700 22.53400
C  10.44800 48.58100 19.96000
C  8.02400 45.70600 20.26900
C  6.85400 45.83200 19.28000
N  7.68600 46.78800 25.48800
C  6.69600 46.74500 24.49700
C  5.36800 46.56800 25.06800
C  5.68100 46.63700 26.39800
C  7.07700 46.72100 26.64500
C  4.08900 46.29000 24.32300
C  5.11900 46.51500 27.74500
O  3.96100 46.28700 28.07700
C  6.24500 46.62300 28.73500
C  6.26400 45.43300 29.55400
O  7.10700 44.54900 29.46600
O  5.36300 45.52900 30.57500
C  5.45000 44.50300 31.69000
H  13.14600 47.74400 28.23100
H  12.57400 47.75500 21.90100
H  6.33600 46.42000 22.37500
H  8.80900 48.20700 30.28300
H  11.47600 47.08700 30.12600
H  11.84900 49.16300 31.04700
H  10.32200 49.70300 30.72300
H  11.55200 49.85100 29.41300
H  9.36600 45.31300 30.30700
H  8.12700 46.14100 31.34700
H  10.59800 47.12000 32.22400
H  10.82000 45.37800 32.03000
H  15.14500 47.90800 27.48600
H  15.72300 49.00900 26.20700
H  15.99000 47.20500 26.16600
H  16.42000 46.52300 24.02400
H  16.94800 48.29000 23.90400
H  16.95700 47.20300 22.42700
H  10.53800 46.51400 20.36500
H  7.95500 47.84500 20.67900
H  10.97400 48.22400 19.07500
H  10.99800 49.43500 20.35400
H  9.66000 49.05900 19.37800
H  7.86200 44.93200 21.01900
H  8.85000 45.30000 19.68500
H  6.72700 44.94900 18.65500
H  6.93500 46.72000 18.65200
H  5.93500 45.89600 19.86300
H  4.13400 46.38300 23.23800
H  3.35600 47.02700 24.65100
H  3.68100 45.31800 24.60200
H  6.15700 47.48500 29.39600
H  4.62000 44.53900 32.39600
H  6.44600 44.53000 32.13100
H  5.41400 43.51400 31.23300

