158

Mg 43.06100 41.57500 27.34200
C  42.23000 43.81300 29.77400
C  43.71400 39.19100 29.80800
C  44.40100 39.44100 24.93400
C  42.78600 44.06700 24.97200
N  43.09500 41.50400 29.55900
C  42.55800 42.53000 30.29400
C  42.42600 42.05800 31.78200
C  43.26000 40.76200 31.81100
C  43.42300 40.46500 30.28900
C  44.72800 41.04100 32.46600
C  40.90400 41.86600 32.11600
C  40.33900 42.76400 33.27100
H  39.80500 42.26500 34.66100
N  43.87000 39.59600 27.36000
C  43.95300 38.81000 28.47100
C  44.43800 37.51800 27.99600
C  44.64700 37.49200 26.61000
C  44.29100 38.89300 26.24800
C  44.74700 36.38800 28.93300
C  45.08800 36.32300 25.73100
O  45.36400 36.53200 24.55200
C  45.16400 34.93600 26.15900
N  43.31000 41.69800 25.26100
C  43.96800 40.69700 24.44700
C  44.05800 41.14400 22.96300
C  43.30000 42.49600 23.02500
C  43.05500 42.79100 24.53700
C  45.49200 41.14400 22.32100
C  42.00600 42.49500 22.17000
C  40.75400 41.66600 22.56500
N  42.60400 43.53900 27.34100
C  42.48700 44.43400 26.28600
C  41.98700 45.72400 26.76800
C  41.81400 45.56200 28.15300
C  42.30500 44.22300 28.43200
C  41.78500 46.99700 25.94400
C  41.42900 46.09500 29.40800
O  40.99000 47.18200 29.73300
C  41.67000 44.98900 30.48300
C  42.64800 45.52300 31.57100
O  43.88200 45.75100 31.59700
O  41.92000 45.53900 32.76400
C  42.71700 46.14100 33.92800
H  44.01300 38.45200 30.55400
H  44.89500 38.75100 24.24600
H  42.60700 44.86800 24.25100
H  42.93700 42.78500 32.41200
H  42.69100 39.98800 32.32600
H  45.55900 40.65100 31.87800
H  44.82000 40.52800 33.42300
H  44.94200 42.11000 32.48100
H  40.67000 40.81500 32.28400
H  40.27500 42.03500 31.24200
H  39.60200 43.35700 32.73000
H  41.18300 43.33600 33.65500
H  43.94000 35.65600 28.97400
H  44.81000 36.82100 29.93100
H  45.72800 35.99500 28.66600
H  46.00400 34.38400 26.58000
H  44.78600 34.54700 25.21300
H  44.26100 34.83400 26.76000
H  43.44100 40.43400 22.41200
H  43.97500 43.22000 22.56900
H  45.39100 40.66000 21.34900
H  46.05800 40.57200 23.05600
H  46.01700 42.09900 22.29800
H  42.40100 42.18000 21.20500
H  41.70600 43.53800 22.07000
H  40.45400 40.93200 21.81700
H  39.95000 42.38400 22.72500
H  40.92800 41.01400 23.42100
H  42.02300 47.89600 26.51200
H  40.73500 47.01000 25.65000
H  42.29800 46.91300 24.98600
H  40.72700 44.69800 30.94600
H  42.73300 47.19200 33.64000
H  43.68700 45.69400 34.14400
H  42.17200 46.09800 34.87200
Mg -12.63200 16.30500 42.79600
C  -9.38300 15.08100 42.18100
C  -11.88500 19.17200 41.23300
C  -16.06100 17.08000 42.44900
C  -13.65500 13.13100 43.95700
N  -10.82000 17.04300 41.88100
C  -9.54600 16.41900 41.85400
C  -8.45600 17.43700 41.34400
C  -9.29000 18.78100 41.31900
C  -10.74400 18.29900 41.51200
C  -9.01100 19.84300 42.32300
C  -7.88600 17.00600 39.97200
C  -6.33000 16.89800 39.77400
H  -5.79400 15.66400 39.11400
N  -13.86200 17.98500 41.99300
C  -13.23100 19.05700 41.48900
C  -14.24100 20.05000 41.19700
C  -15.48200 19.40800 41.40100
C  -15.16500 18.04800 41.89700
C  -14.02200 21.38400 40.59800
C  -16.83500 20.05200 41.15600
O  -16.91800 21.15100 40.61300
C  -18.12600 19.34600 41.49200
N  -14.64600 15.20100 43.13700
C  -15.82600 15.79000 42.96400
C  -16.95700 14.85500 43.36900
C  -16.21100 13.51000 43.90300
C  -14.79400 13.96100 43.70000
C  -18.04200 15.32900 44.30400
C  -16.65500 12.25800 43.12800
C  -15.74200 11.81400 41.98700
N  -11.77900 14.48300 43.08400
C  -12.26100 13.23800 43.53300
C  -11.18100 12.25600 43.65700
C  -10.10700 12.93400 43.03900
C  -10.46100 14.29800 42.76000
C  -11.28600 10.84900 44.29700
C  -8.68400 12.80800 42.67200
O  -7.95400 11.80100 42.84300
C  -8.17700 14.18800 42.08700
C  -7.14200 14.72900 43.09000
O  -7.30500 15.50900 43.99600
O  -5.95300 14.08600 42.81700
C  -4.78200 14.49300 43.58600
H  -11.53200 20.09700 40.77300
H  -17.12600 17.29700 42.34600
H  -13.73800 12.13300 44.39200
H  -7.56800 17.54400 41.96700
H  -8.96400 19.29900 40.41700
H  -8.06500 19.57000 42.79000
H  -9.76800 19.93400 43.10200
H  -9.06600 20.79300 41.79200
H  -8.20700 17.66900 39.16800
H  -8.36000 16.10700 39.57700
H  -5.84800 16.95100 40.75000
H  -5.88800 17.76100 39.27600
H  -14.34700 21.34900 39.55800
H  -12.95600 21.57000 40.72700
H  -14.59100 22.12100 41.16400
H  -19.04500 19.91500 41.35800
H  -17.99400 19.18700 42.56200
H  -18.07400 18.41900 40.92000
H  -17.50900 14.79300 42.43100
H  -16.41100 13.30800 44.95600
H  -17.66500 16.24400 44.76300
H  -18.38500 14.64300 45.07900
H  -18.94800 15.52800 43.73200
H  -17.63700 12.34500 42.66400
H  -16.67300 11.43200 43.83900
H  -15.15100 10.94500 42.27700
H  -15.01700 12.55900 41.66100
H  -16.38800 11.68900 41.11800
H  -11.63600 10.88900 45.32800
H  -10.29800 10.40300 44.18100
H  -12.07800 10.25600 43.84100
H  -7.75600 14.16100 41.08200
H  -4.34300 15.45000 43.30500
H  -3.98100 13.78800 43.35900
H  -5.05900 14.49800 44.64000

