158

Mg 54.84000 24.70500 43.54400
C  52.25100 27.08600 43.11800
C  52.71700 22.33400 42.44700
C  57.45000 22.55100 43.41000
C  57.02200 27.32800 44.25000
N  52.75700 24.71100 42.82200
C  51.88500 25.81300 42.73200
C  50.57600 25.34700 42.18600
C  50.64200 23.73600 42.23500
C  52.11100 23.58900 42.55600
C  49.76900 22.88200 43.13300
C  50.25400 25.89700 40.78500
C  51.41100 26.02400 39.79200
H  51.00800 25.84700 38.28100
N  55.04900 22.65700 43.05100
C  54.04400 21.89300 42.65100
C  54.54800 20.63000 42.52700
C  55.89800 20.58400 42.88100
C  56.21000 21.98400 43.18400
C  53.77000 19.43700 42.18000
C  56.77700 19.27800 43.03200
O  56.36800 18.12800 42.81900
C  58.22400 19.42100 43.44500
N  56.95500 24.94700 43.70400
C  57.76800 23.87600 43.78200
C  59.19700 24.26000 44.04400
C  59.12400 25.78200 44.25800
C  57.59700 26.09400 44.03200
C  59.68000 23.46400 45.29100
C  59.98300 26.78900 43.39400
C  59.53500 26.87800 41.90600
N  54.71700 26.79800 43.49800
C  55.61600 27.70900 44.04100
C  54.93400 28.94700 44.33600
C  53.63500 28.72200 44.00600
C  53.54600 27.46500 43.45300
C  55.58900 30.15200 44.94300
C  52.30700 29.33600 43.98000
O  51.97300 30.38200 44.39700
C  51.38500 28.38700 43.22200
C  50.90200 29.08500 41.96300
O  51.63100 29.34400 41.03400
O  49.53300 29.28900 41.99500
C  48.91600 29.53900 40.72800
H  52.03100 21.53700 42.15400
H  58.31000 21.89800 43.25000
H  57.72600 28.01100 44.73000
H  49.83400 25.77700 42.85800
H  50.46900 23.31100 41.24600
H  50.39300 22.51100 43.94600
H  49.31400 21.98400 42.71700
H  48.87500 23.31300 43.58400
H  49.72600 26.83500 40.95800
H  49.55800 25.19300 40.32900
H  52.28700 25.40700 39.99100
H  51.60700 27.09400 39.72900
H  54.24700 19.10800 41.25700
H  52.69500 19.59400 42.09600
H  53.93300 18.59000 42.84700
H  58.76400 18.49500 43.64100
H  58.38300 20.11300 44.27200
H  58.83000 19.77100 42.61000
H  59.71200 23.90700 43.15000
H  59.47000 26.06400 45.25300
H  60.30600 24.11600 45.89900
H  60.28300 22.66400 44.86000
H  58.96400 23.14200 46.04700
H  61.04500 26.74500 43.63800
H  59.91200 27.79900 43.79700
H  58.64300 27.45800 41.67100
H  59.33700 25.87900 41.51900
H  60.41800 27.12700 41.31600
H  56.58200 30.34800 44.54000
H  55.69300 30.01200 46.01900
H  55.08000 31.09700 44.75500
H  50.59800 28.24500 43.96300
H  48.81500 30.62000 40.63500
H  47.88500 29.20800 40.85400
H  49.37600 29.06200 39.86200
Mg 49.03600 35.16200 27.11700
C  47.17000 33.66300 29.73300
C  49.34500 37.94300 29.06700
C  50.60700 36.56700 24.47600
C  48.54500 32.28800 25.27800
N  48.58700 35.64500 29.35700
C  47.79000 34.86900 30.16500
C  47.91300 35.50900 31.58000
C  48.30500 36.99400 31.25100
C  48.73000 36.91200 29.80200
C  47.09400 38.08600 31.35600
C  48.95000 34.70100 32.34700
C  49.02100 34.97200 33.92800
H  48.08400 35.97100 34.69900
N  49.89300 36.97600 26.82000
C  49.92900 37.94800 27.76300
C  50.79100 39.02500 27.18600
C  51.10100 38.74500 25.86600
C  50.58500 37.34600 25.65900
C  51.03700 40.23900 28.03200
C  51.88100 39.61100 24.79500
O  52.21300 39.14100 23.72700
C  52.16600 41.08600 24.95400
N  49.29900 34.63300 25.05800
C  50.09500 35.31000 24.20900
C  50.64900 34.46100 23.01900
C  49.90500 33.08200 23.25700
C  49.31200 33.28300 24.68800
C  50.41800 35.07500 21.60000
C  50.80400 31.80000 23.14200
C  50.58400 30.85900 22.01300
N  48.08700 33.32200 27.43400
C  48.03600 32.29400 26.58900
C  47.27600 31.23500 27.24200
C  46.86000 31.70700 28.53100
C  47.38500 32.97500 28.53000
C  46.98700 29.83300 26.63700
C  46.12000 31.49300 29.78400
O  45.49300 30.47500 30.02600
C  46.20200 32.74200 30.64200
C  46.44100 32.38500 32.06300
O  47.36400 31.80400 32.55300
O  45.30900 32.56000 32.72300
C  45.33100 32.61100 34.16400
H  49.31800 38.91400 29.56700
H  51.19200 37.00700 23.66600
H  48.45000 31.42500 24.61400
H  46.90300 35.48600 31.99100
H  49.18300 37.26700 31.83700
H  46.65500 38.24000 30.37000
H  47.54000 39.06700 31.51700
H  46.33900 37.74600 32.06500
H  49.95600 35.02000 32.07300
H  48.84300 33.64000 32.12400
H  50.04600 35.32100 34.05800
H  49.08500 33.96600 34.34100
H  51.76800 40.10900 28.83000
H  50.29400 40.51500 28.78000
H  51.12100 41.17600 27.48100
H  52.77900 41.31100 25.82700
H  51.24500 41.66700 24.99700
H  52.72400 41.47300 24.10000
H  51.73500 34.42200 23.10200
H  49.09100 32.92500 22.55000
H  51.37800 35.06400 21.08400
H  49.92500 36.04300 21.50900
H  49.74000 34.39700 21.08100
H  50.68300 31.17400 24.02600
H  51.82300 32.18700 23.12400
H  50.29900 29.89100 22.42600
H  51.54000 30.61100 21.55200
H  49.85200 31.21300 21.28700
H  46.13700 29.93200 25.96200
H  46.76700 29.11900 27.43100
H  47.88800 29.42700 26.17800
H  45.26000 33.28200 30.74300
H  46.21900 33.09000 34.57600
H  45.36200 31.64300 34.66400
H  44.46800 33.19400 34.48500

