158

Mg 9.91400 47.36500 26.13500
C  7.85700 47.60000 29.02000
C  12.49100 48.87300 27.83400
C  11.77900 47.20000 23.35700
C  7.08000 46.52500 24.31200
N  10.15700 48.08600 28.26700
C  9.16400 48.09100 29.25400
C  9.86600 48.61000 30.60800
C  11.09800 49.43400 30.07100
C  11.29800 48.81200 28.61300
C  10.93200 50.98500 30.05300
C  10.32800 47.33900 31.43900
C  10.69400 47.52200 32.95000
H  10.39700 46.43800 34.01400
N  11.93700 47.75900 25.74500
C  12.81000 48.37500 26.60100
C  14.07200 48.56700 25.88200
C  13.83000 48.01000 24.58800
C  12.48400 47.61800 24.49900
C  15.31000 49.18400 26.53300
C  14.84700 47.81300 23.40500
O  14.60900 47.18600 22.32000
C  16.21500 48.30600 23.56000
N  9.52600 46.91700 24.08200
C  10.42200 46.95800 23.14000
C  9.82200 46.57500 21.70700
C  8.31200 46.40100 22.09900
C  8.31100 46.62100 23.58000
C  9.96000 47.69600 20.71900
C  7.58800 45.12300 21.56400
C  6.05700 45.22600 21.25100
N  7.81500 47.12200 26.51100
C  6.79500 46.71700 25.66300
C  5.62500 46.50100 26.45100
C  5.97600 46.82000 27.78800
C  7.28700 47.24100 27.73900
C  4.25100 46.16700 25.80500
C  5.45900 46.96800 29.15200
O  4.35600 46.73800 29.61600
C  6.69300 47.38200 30.05500
C  6.98100 46.21500 30.91500
O  7.36200 45.14600 30.48300
O  6.75000 46.52600 32.23700
C  6.97300 45.44800 33.20000
H  13.25600 49.42500 28.38400
H  12.18400 47.29100 22.34600
H  6.21100 46.20000 23.73500
H  9.21400 49.27100 31.17900
H  12.00700 49.25700 30.64500
H  11.16900 51.48700 29.11500
H  11.59900 51.44400 30.78200
H  10.00100 51.33100 30.50100
H  11.21500 46.99100 30.91000
H  9.65100 46.49400 31.31100
H  10.26900 48.47600 33.26300
H  11.77600 47.62900 33.03100
H  15.12500 49.69200 27.48000
H  15.91200 49.87400 25.94300
H  15.91100 48.32800 26.83900
H  16.28200 49.35000 23.87000
H  16.76100 48.29000 22.61700
H  16.64200 47.63500 24.30600
H  10.16200 45.57600 21.43500
H  7.74900 47.26900 21.75600
H  10.12300 48.62300 21.26900
H  9.07300 47.88100 20.11200
H  10.86100 47.50300 20.13700
H  7.64800 44.38100 22.36000
H  8.13800 44.66500 20.74100
H  5.50300 46.12800 21.51000
H  5.52600 44.44100 21.79000
H  5.91300 44.94800 20.20600
H  4.22300 45.41700 25.01500
H  3.88100 47.14300 25.48900
H  3.72000 45.81100 26.68700
H  6.47100 48.24900 30.67800
H  6.80500 44.42700 32.85800
H  6.28500 45.68600 34.01100
H  7.99100 45.45600 33.58900
Mg -11.26500 38.00700 42.69500
C  -9.06800 35.40100 41.46800
C  -9.42100 40.19100 40.98600
C  -13.83000 40.00400 42.96700
C  -13.26300 35.32200 44.16400
N  -9.54800 37.74000 41.26100
C  -8.81100 36.61900 40.96700
C  -7.61900 36.97300 40.09900
C  -7.60700 38.57500 40.24600
C  -8.97400 38.89500 40.85600
C  -6.40700 39.13000 41.08400
C  -7.78900 36.46100 38.65400
C  -6.62600 35.60900 38.24200
H  -5.54000 36.26800 37.38200
N  -11.65300 39.88100 42.06400
C  -10.71100 40.66100 41.45700
C  -11.17000 41.97100 41.38800
C  -12.43100 41.99400 42.06600
C  -12.73900 40.59300 42.40900
C  -10.36800 42.96500 40.69200
C  -13.23300 43.21400 42.30200
O  -12.87000 44.34700 41.87500
C  -14.53600 43.14100 43.04000
N  -13.25500 37.65000 43.43600
C  -14.12700 38.70100 43.38100
C  -15.49000 38.28700 43.98200
C  -15.35800 36.72800 44.15900
C  -13.85300 36.52400 43.91000
C  -16.00600 39.11800 45.18500
C  -16.20700 35.81200 43.18700
C  -17.21300 34.86800 43.82000
N  -11.11600 35.85100 42.98100
C  -11.95500 34.94800 43.68800
C  -11.22200 33.64500 43.67400
C  -10.10800 33.78900 42.82800
C  -10.10200 35.13000 42.40200
C  -11.71700 32.49000 44.33900
C  -9.03700 33.05000 42.21300
O  -8.79400 31.82500 42.29500
C  -8.28200 34.08400 41.27300
C  -6.80400 34.02900 41.64000
O  -6.23200 34.83900 42.38700
O  -6.21000 32.98000 41.01000
C  -4.76100 32.75100 41.36100
H  -8.80100 41.03100 40.66600
H  -14.68900 40.67600 43.01800
H  -13.87300 34.52300 44.59100
H  -6.71000 36.55100 40.52700
H  -7.45000 39.08200 39.29400
H  -5.93300 39.78400 40.35200
H  -5.63700 38.42500 41.39800
H  -6.68400 39.73100 41.95000
H  -7.70200 37.33400 38.00800
H  -8.78600 36.04200 38.51600
H  -7.03800 34.70900 37.78400
H  -6.20900 35.18300 39.15500
H  -9.42700 43.19700 41.19000
H  -10.86600 43.91600 40.50200
H  -10.13200 42.69200 39.66300
H  -15.26200 42.66100 42.38300
H  -14.73100 44.18800 43.27300
H  -14.37800 42.67900 44.01500
H  -16.30000 38.38600 43.26000
H  -15.63200 36.38000 45.15500
H  -16.84600 39.63800 44.72500
H  -15.27100 39.86700 45.47900
H  -16.38600 38.49300 45.99200
H  -15.50300 35.22500 42.59600
H  -16.69600 36.37000 42.38800
H  -17.56500 35.37600 44.71900
H  -16.77100 33.92800 44.14800
H  -18.13200 34.79600 43.23900
H  -12.29900 32.49700 45.26100
H  -10.86700 31.96500 44.77500
H  -12.07700 31.66900 43.72100
H  -8.42800 33.78200 40.23600
H  -4.52600 31.73700 41.03600
H  -4.64400 32.89200 42.43500
H  -4.06200 33.47200 40.93700

