158

Mg -3.18200 17.47100 26.75100
C  -2.97100 15.53100 29.77600
C  -3.19800 20.21600 28.69100
C  -3.53900 19.14100 23.98500
C  -3.38900 14.40900 24.94600
N  -2.98600 17.84900 28.95900
C  -2.87400 16.94300 29.96700
C  -2.83000 17.59200 31.35100
C  -2.70100 19.11800 30.96100
C  -3.09200 19.09800 29.49300
C  -3.57000 20.17800 31.73300
C  -1.70300 16.97700 32.35500
C  -1.07300 17.94400 33.45500
H  -1.01700 17.46900 34.87200
N  -3.18700 19.46600 26.41200
C  -3.28800 20.48100 27.30300
C  -3.36000 21.79300 26.57800
C  -3.27700 21.48600 25.19700
C  -3.31900 19.93600 25.16800
C  -3.29800 23.17400 27.08400
C  -3.04500 22.29300 23.91600
O  -2.88900 21.81500 22.77900
C  -3.00400 23.77200 24.01800
N  -3.52600 16.84800 24.79300
C  -3.74800 17.72900 23.77500
C  -3.93100 17.10600 22.42100
C  -3.74800 15.59000 22.76700
C  -3.52600 15.57900 24.27200
C  -5.09200 17.61000 21.58200
C  -2.74000 14.74700 21.84000
C  -1.30900 15.18700 22.08400
N  -3.33800 15.34700 27.20000
C  -3.34000 14.23600 26.34600
C  -3.40100 13.04200 27.17600
C  -3.45400 13.50000 28.51400
C  -3.25900 14.93000 28.44600
C  -3.45400 11.62800 26.77500
C  -3.46000 13.04800 29.85600
O  -3.59800 11.91100 30.29600
C  -3.13500 14.29600 30.74600
C  -1.91300 13.95500 31.48100
O  -0.74300 14.02200 31.06900
O  -2.34000 13.45600 32.70300
C  -1.25400 13.12300 33.58300
H  -3.05900 21.19800 29.14700
H  -3.78200 19.79500 23.14600
H  -3.45000 13.56700 24.25300
H  -3.80100 17.50300 31.83900
H  -1.63600 19.28500 31.12100
H  -2.84400 20.79500 32.26300
H  -4.24300 19.67200 32.42500
H  -4.14900 20.84900 31.09800
H  -0.92700 16.63600 31.67000
H  -2.13900 16.13600 32.89300
H  -1.43500 18.97000 33.38400
H  -0.04700 17.97500 33.08800
H  -2.43000 23.54200 26.53700
H  -3.16600 23.29200 28.15900
H  -4.14400 23.74200 26.69800
H  -3.90300 24.16900 24.49000
H  -3.01500 24.26800 23.04800
H  -2.07400 24.00900 24.53400
H  -3.04100 17.50700 21.93700
H  -4.69300 15.06200 22.63900
H  -5.72900 16.78500 21.26400
H  -4.81400 18.24900 20.74400
H  -5.75700 18.19400 22.21900
H  -3.00800 14.82600 20.78600
H  -2.92000 13.69000 22.03400
H  -0.94000 15.61900 21.15400
H  -0.69100 14.34500 22.39600
H  -1.30400 15.99200 22.81800
H  -2.46700 11.22500 26.54500
H  -4.28000 11.73900 26.07300
H  -3.87300 11.10600 27.63500
H  -3.94400 14.48300 31.45200
H  -1.67400 12.18700 33.95100
H  -1.36200 13.83600 34.40100
H  -0.22200 13.12500 33.23300
Mg 34.76000 2.71000 30.19000
C  32.79300 3.54400 32.94600
C  37.44800 2.52200 32.33000
C  36.67300 2.20300 27.49400
C  31.94800 2.81800 28.17000
N  35.10100 3.20300 32.33800
C  34.11900 3.38700 33.33300
C  34.65100 3.34100 34.73900
C  36.16400 2.97400 34.52100
C  36.26000 2.84100 32.97000
C  37.19900 4.01800 35.00300
C  33.88500 2.20000 35.53900
C  33.59200 2.44200 37.00200
H  34.48200 3.48000 37.75100
N  36.79600 2.41600 29.94800
C  37.74500 2.31500 30.91200
C  39.10300 2.05500 30.30900
C  38.86000 2.03000 28.89100
C  37.40700 2.18200 28.70700
C  40.26100 1.97200 31.20600
C  39.84800 1.88800 27.74300
O  39.51000 1.78700 26.58300
C  41.33400 1.85100 28.01700
N  34.41600 2.58900 28.10900
C  35.36000 2.34300 27.19000
C  34.83800 2.34900 25.73000
C  33.33400 2.13100 26.08400
C  33.21400 2.55900 27.53900
C  35.22000 3.66900 24.99300
C  32.91500 0.67900 25.88800
C  32.12800 0.23200 24.62700
N  32.68300 3.04800 30.43300
C  31.67700 3.05500 29.54100
C  30.46200 3.51800 30.20400
C  30.86800 3.70600 31.52900
C  32.23500 3.40800 31.62200
C  29.13900 3.71400 29.60400
C  30.34300 4.16400 32.77400
O  29.20000 4.47800 33.09900
C  31.62800 4.11600 33.78600
C  31.90800 5.39100 34.43600
O  32.78300 6.22700 34.17400
O  31.02500 5.46600 35.50000
C  31.39000 6.53600 36.46700
H  38.22700 2.33800 33.07200
H  37.14300 2.27200 26.51100
H  31.08400 2.93600 27.51200
H  34.55600 4.29200 35.26200
H  36.51600 1.99900 34.85800
H  36.82800 4.90500 35.51600
H  37.82800 4.52000 34.26800
H  37.86900 3.58700 35.74600
H  34.48900 1.29300 35.56800
H  32.88900 2.00000 35.14500
H  33.76400 1.51700 37.55300
H  32.54000 2.70300 37.11500
H  41.01900 1.40900 30.66000
H  39.97500 1.54400 32.16700
H  40.88200 2.82500 31.47900
H  41.66900 0.94400 28.52000
H  41.66200 2.73000 28.57200
H  41.97600 1.97000 27.14400
H  35.22900 1.50600 25.16100
H  32.87400 2.80200 25.35900
H  36.26900 3.91100 25.16400
H  34.54300 4.45700 25.32300
H  35.10500 3.64600 23.90900
H  32.36600 0.23900 26.72000
H  33.80500 0.05900 25.77800
H  31.23700 -0.32000 24.92700
H  32.67300 -0.38700 23.91500
H  31.84200 1.12500 24.07200
H  28.83200 4.75900 29.64400
H  28.38700 3.15500 30.16100
H  29.09300 3.45600 28.54600
H  31.21900 3.37300 34.47100
H  30.92900 6.33000 37.43300
H  31.00500 7.47800 36.07800
H  32.47200 6.57400 36.59700

