158

Mg 47.47500 17.04100 28.83200
C  45.61200 15.64900 31.68800
C  49.33400 18.70000 30.93600
C  49.10600 17.95200 26.07900
C  45.03600 15.47500 26.82100
N  47.38400 17.21900 31.12100
C  46.68400 16.55300 32.09600
C  47.14100 16.97200 33.52300
C  48.16300 18.13600 33.18100
C  48.26500 18.03000 31.65000
C  47.99400 19.57500 33.77100
C  47.87200 15.84600 34.39200
C  48.45300 16.21800 35.71500
H  48.04200 17.40500 36.50300
N  49.09100 18.10200 28.53400
C  49.71900 18.73400 29.55800
C  50.96200 19.26500 29.03500
C  50.96000 18.93200 27.62900
C  49.68800 18.37700 27.31300
C  52.01400 19.97900 29.93000
C  52.05500 19.06400 26.61000
O  51.88200 18.90300 25.35800
C  53.27500 19.56200 27.17400
N  47.02000 16.87900 26.76800
C  47.91200 17.37500 25.83200
C  47.37400 17.09600 24.34500
C  46.08300 16.29200 24.60000
C  45.98500 16.23100 26.13500
C  47.15400 18.38400 23.46100
C  46.13900 14.79600 24.09600
C  45.12700 14.42400 23.01100
N  45.73800 15.82500 29.16900
C  44.96900 15.20000 28.21400
C  43.91700 14.45000 28.82500
C  44.16200 14.61500 30.25000
C  45.30400 15.42600 30.33100
C  42.76100 13.71200 28.19400
C  43.59100 14.29900 31.47400
O  42.59500 13.69100 31.73200
C  44.47500 15.06300 32.50600
C  43.64100 16.05700 33.15300
O  42.83300 16.75500 32.64900
O  43.93500 15.99000 34.45900
C  43.34200 16.90800 35.47500
H  49.94000 19.24300 31.66500
H  49.65200 18.23600 25.17700
H  44.31200 15.06800 26.11200
H  46.29800 17.32000 34.12000
H  49.18200 17.86100 33.45300
H  47.90600 20.42800 33.09900
H  48.71500 19.74100 34.57200
H  46.98700 19.35200 34.12300
H  48.52500 15.24300 33.76100
H  47.06800 15.14200 34.60600
H  49.52100 16.28600 35.51000
H  48.16300 15.30900 36.24300
H  51.74600 20.08800 30.98100
H  52.31200 20.89800 29.42500
H  52.88200 19.33100 30.05700
H  53.16100 20.61800 27.41700
H  54.01200 19.52400 26.37200
H  53.52600 18.78700 27.89900
H  48.17600 16.56000 23.83700
H  45.18200 16.82900 24.30400
H  47.66400 18.22700 22.51000
H  47.71800 19.23900 23.83500
H  46.12900 18.75000 23.40700
H  46.07700 14.06400 24.90200
H  47.06500 14.55700 23.57300
H  45.66100 13.63100 22.48700
H  44.77400 15.27500 22.42800
H  44.20800 14.07400 23.48000
H  42.75000 13.82600 27.11000
H  41.81300 14.14800 28.51100
H  42.83700 12.66200 28.47900
H  44.74800 14.30500 33.24000
H  42.85800 16.22900 36.17800
H  42.62800 17.58600 35.00800
H  44.21900 17.36700 35.93200
Mg -12.42200 37.75400 41.96200
C  -10.00200 35.22400 41.56600
C  -10.46100 39.88400 40.11500
C  -15.05000 39.95300 41.96200
C  -14.56000 35.50500 43.49900
N  -10.50500 37.44800 40.84000
C  -9.70300 36.36500 40.78500
C  -8.51600 36.55800 39.90400
C  -8.54700 38.16800 39.79000
C  -9.93200 38.52800 40.29200
C  -7.49500 39.03500 40.56900
C  -8.49600 35.70600 38.57000
C  -7.39500 34.64200 38.42800
H  -6.42500 34.85700 37.23400
N  -12.68100 39.70100 41.22600
C  -11.71900 40.41200 40.54000
C  -12.19900 41.81500 40.44000
C  -13.59200 41.81800 40.80900
C  -13.85400 40.47500 41.36300
C  -11.41400 42.92300 39.87700
C  -14.57300 42.97400 40.52500
O  -14.19100 43.96100 39.95500
C  -16.04200 42.81200 40.68100
N  -14.65400 37.60200 42.50500
C  -15.40700 38.67600 42.54100
C  -16.81400 38.29000 42.98100
C  -16.68300 36.77200 43.34100
C  -15.23400 36.61800 43.19000
C  -17.44000 38.97900 44.22100
C  -17.51700 35.87500 42.35900
C  -18.56900 35.02300 43.13200
N  -12.37200 35.70500 42.27500
C  -13.13100 35.01400 43.19400
C  -12.50100 33.77800 43.54000
C  -11.24500 33.86100 42.97600
C  -11.22900 35.10100 42.21400
C  -13.10900 32.68400 44.32300
C  -10.02400 33.09200 42.80400
O  -9.55600 32.01600 43.29000
C  -9.11500 33.95900 41.80500
C  -7.83900 34.21700 42.50500
O  -6.92200 33.33700 42.62500
O  -7.79500 35.54500 42.97000
C  -6.54600 35.92600 43.55900
H  -9.80800 40.59500 39.60400
H  -15.87400 40.66500 41.88100
H  -15.09300 34.73500 44.06300
H  -7.63900 36.31700 40.50400
H  -8.41500 38.47300 38.75200
H  -6.70800 38.32900 40.83300
H  -7.94100 39.48500 41.45600
H  -7.16600 39.83600 39.90800
H  -8.55800 36.38200 37.71700
H  -9.42900 35.14600 38.61900
H  -7.91600 33.69100 38.31800
H  -6.78900 34.56300 39.33100
H  -11.29000 43.70800 40.62200
H  -11.89400 43.33600 38.99000
H  -10.38400 42.62900 39.67100
H  -16.32800 42.70400 41.72800
H  -16.28700 41.91400 40.11400
H  -16.56500 43.68000 40.28000
H  -17.48800 38.45600 42.14000
H  -16.87200 36.53500 44.38800
H  -16.70100 39.67400 44.61800
H  -17.63000 38.29900 45.05100
H  -18.26900 39.62000 43.92100
H  -16.84400 35.13500 41.92700
H  -18.05700 36.38400 41.56000
H  -18.32200 35.04900 44.19400
H  -18.48800 33.99000 42.79600
H  -19.56500 35.39200 42.88700
H  -12.50600 31.80100 44.11500
H  -14.15200 32.60000 44.01700
H  -13.10200 32.82600 45.40400
H  -8.97200 33.29800 40.95100
H  -6.41700 35.33600 44.46600
H  -6.65300 36.98300 43.80500
H  -5.59800 35.69700 43.07400

