158

Mg -0.64400 7.46500 26.88100
C  0.22200 9.71100 29.55000
C  -0.06100 4.90300 29.10300
C  -1.02200 5.29200 24.36800
C  -0.83300 10.16000 24.64100
N  -0.17500 7.42600 29.11700
C  0.15300 8.38800 30.02100
C  0.30500 7.88300 31.39900
C  0.58300 6.38700 31.15700
C  0.03400 6.15000 29.73200
C  1.96800 5.79100 31.33700
C  -0.98800 8.32500 32.19800
C  -0.74600 8.64000 33.67600
H  0.04600 7.56300 34.49600
N  -0.59400 5.31000 26.81700
C  -0.29200 4.47200 27.79000
C  -0.28900 3.12000 27.32800
C  -0.67500 3.21100 25.97500
C  -0.81100 4.64000 25.64000
C  0.01300 1.88000 28.23600
C  -0.84800 2.05600 24.95800
O  -1.06600 2.22500 23.73300
C  -0.89500 0.60700 25.47700
N  -0.69000 7.67200 24.86200
C  -1.02900 6.64900 24.10700
C  -1.28500 7.07200 22.64900
C  -1.59300 8.56700 22.83500
C  -0.98200 8.84900 24.16600
C  0.02700 6.77000 21.81200
C  -3.12300 8.79100 22.71700
C  -3.66600 9.87300 21.77600
N  -0.26200 9.56200 27.01800
C  -0.32800 10.48300 25.97800
C  0.03900 11.75700 26.54200
C  0.32400 11.50300 27.89700
C  0.07600 10.16000 28.19300
C  -0.03600 12.96700 25.77900
C  0.71900 12.07900 29.11400
O  1.01100 13.27200 29.38100
C  0.65100 10.96900 30.20600
C  1.85800 10.96700 31.10000
O  2.68300 10.13700 31.22100
O  1.85600 12.06500 31.97900
C  2.73700 11.99500 33.17700
H  0.17200 4.11900 29.82600
H  -1.16300 4.64200 23.50200
H  -1.05300 10.87100 23.84200
H  1.14000 8.43000 31.83600
H  -0.05100 5.73900 31.76200
H  1.91600 4.93300 32.00800
H  2.63000 6.55800 31.73900
H  2.34800 5.46300 30.37000
H  -1.79500 7.59700 32.11300
H  -1.29100 9.30900 31.84300
H  -1.72500 8.73500 34.14700
H  -0.25500 9.60500 33.80200
H  -0.66700 1.02800 28.24400
H  0.00500 2.09800 29.30400
H  1.02200 1.57500 27.95800
H  0.04500 0.06400 25.57200
H  -1.49200 -0.00400 24.80000
H  -1.42200 0.53800 26.42900
H  -2.15900 6.56600 22.23900
H  -1.10600 9.18100 22.07800
H  0.42000 7.72600 21.46700
H  -0.15800 6.34100 20.82600
H  0.75300 6.17600 22.36600
H  -3.46700 9.01700 23.72600
H  -3.66300 7.89600 22.40800
H  -4.27500 9.34300 21.04400
H  -2.80100 10.47400 21.49500
H  -4.29700 10.54200 22.36100
H  0.19000 13.79500 26.45000
H  -1.03000 13.15400 25.37300
H  0.67200 12.87700 24.95600
H  -0.14100 11.27000 30.89100
H  3.79100 12.03000 32.89900
H  2.64100 11.04700 33.70600
H  2.47500 12.80700 33.85400
Mg 16.16000 -0.91000 27.01100
C  15.02100 0.82400 29.90100
C  18.46600 -2.49600 28.98600
C  17.69300 -2.04900 24.31400
C  14.17400 1.06200 25.13800
N  16.63500 -0.81900 29.16900
C  15.99700 -0.16100 30.17900
C  16.39600 -0.52500 31.52100
C  17.69400 -1.35600 31.18700
C  17.58300 -1.64900 29.64700
C  19.11000 -0.74000 31.52200
C  15.29000 -1.21900 32.37500
C  15.18200 -0.70900 33.81300
H  16.40100 0.01900 34.53500
N  17.77800 -2.28600 26.69000
C  18.57700 -2.85100 27.62000
C  19.36000 -3.86300 27.01700
C  19.06600 -3.83900 25.62900
C  18.20900 -2.68800 25.48200
C  20.21800 -4.75500 27.84100
C  19.60100 -4.71000 24.41200
O  19.19200 -4.54700 23.26500
C  20.68200 -5.80300 24.59000
N  16.06800 -0.45200 25.05700
C  16.78700 -1.07100 24.07700
C  16.54700 -0.48500 22.69900
C  15.23300 0.36600 22.97400
C  15.05800 0.24600 24.45200
C  17.80200 0.31100 22.13600
C  13.97100 0.02100 22.20000
C  13.83900 0.80300 20.89500
N  14.78400 0.51100 27.44500
C  14.01000 1.17100 26.52700
C  13.06900 1.97500 27.22400
C  13.41000 1.87200 28.57600
C  14.54400 1.06400 28.62200
C  12.01100 2.70000 26.49200
C  13.06600 2.36200 29.84800
O  12.19600 3.10300 30.24500
C  14.07600 1.61300 30.80400
C  14.71200 2.73800 31.63700
O  15.51000 3.55300 31.24900
O  14.16700 2.72800 32.94100
C  14.26100 4.14300 33.42100
H  19.11900 -2.95900 29.72900
H  18.19600 -2.40900 23.41400
H  13.41700 1.64200 24.60600
H  16.79400 0.39800 31.94100
H  17.58000 -2.37600 31.55300
H  19.56100 -0.21700 30.67900
H  19.79500 -1.52800 31.83600
H  19.05900 0.06800 32.25200
H  15.46400 -2.29400 32.33100
H  14.33000 -1.09900 31.87200
H  15.15000 -1.68200 34.30300
H  14.29000 -0.18200 34.15200
H  20.66200 -5.52500 27.20900
H  19.69200 -5.22600 28.67200
H  20.99200 -4.07600 28.19700
H  21.45400 -5.49700 25.29700
H  20.99300 -6.06100 23.57800
H  20.13300 -6.69100 24.90200
H  16.28200 -1.39400 22.15900
H  15.51300 1.41300 22.86100
H  18.50400 -0.43100 21.75600
H  18.16600 0.90600 22.97400
H  17.46300 0.97500 21.34000
H  13.13200 0.17800 22.87800
H  13.98500 -1.03200 21.91800
H  14.76600 1.23900 20.52400
H  13.09600 1.55800 21.15300
H  13.65600 0.12300 20.06300
H  12.63900 3.36800 25.90300
H  11.34100 3.30300 27.10500
H  11.46500 1.97200 25.89200
H  13.54100 0.99000 31.52100
H  14.06900 4.91900 32.68000
H  15.15700 4.37000 33.99800
H  13.42000 4.26000 34.10500

