158

Mg 35.61200 0.82800 29.73500
C  33.42100 2.54400 31.97400
C  38.05600 1.20900 32.32900
C  37.90200 -0.17900 27.56600
C  33.25500 1.29900 27.32700
N  35.72300 1.71600 31.90400
C  34.63700 2.26900 32.55700
C  34.88900 2.34500 34.03900
C  36.46600 2.26400 34.10100
C  36.77200 1.62500 32.74900
C  37.25000 3.71600 34.31300
C  34.14300 1.11100 34.78600
C  33.67500 1.41700 36.24100
H  34.15400 2.65500 36.96700
N  37.69100 0.39100 29.95700
C  38.49100 0.63500 31.07800
C  39.86800 0.18000 30.78400
C  39.79200 -0.23600 29.41900
C  38.40700 -0.00000 28.94000
C  40.83900 0.02600 31.90100
C  40.81600 -0.79200 28.49200
O  40.61600 -1.12600 27.33900
C  42.08300 -1.16800 29.08600
N  35.57800 0.64800 27.73300
C  36.64500 0.14200 27.07500
C  36.35400 0.19300 25.54700
C  34.80000 0.47600 25.56600
C  34.48500 0.77700 26.96100
C  37.05600 1.28800 24.71700
C  33.95000 -0.66300 24.92500
C  32.85000 -0.14800 23.87400
N  33.67400 1.67000 29.64800
C  32.82400 1.72200 28.62300
C  31.49100 2.25300 29.01500
C  31.70300 2.66000 30.31000
C  33.02700 2.22400 30.63300
C  30.20900 2.16500 28.22200
C  31.07600 3.25000 31.46000
O  29.92200 3.64400 31.60900
C  32.20600 3.20900 32.63300
C  32.41500 4.61600 32.94700
O  33.24700 5.35400 32.52700
O  31.59200 4.89600 34.02400
C  31.68000 6.25400 34.60500
H  38.81500 1.27700 33.11100
H  38.60500 -0.50400 26.79600
H  32.58400 1.29100 26.46500
H  34.54900 3.33300 34.34900
H  36.82300 1.56900 34.86100
H  36.54200 4.47900 34.63300
H  37.61900 4.07300 33.35100
H  38.01400 3.67500 35.08900
H  34.76800 0.21800 34.75000
H  33.21500 0.84000 34.28100
H  33.94300 0.48800 36.74400
H  32.59100 1.52900 36.26900
H  41.64000 0.75600 32.01800
H  41.48900 -0.83000 31.72000
H  40.52100 -0.11800 32.93400
H  41.95900 -2.08200 29.66800
H  42.57700 -0.39200 29.67100
H  42.73500 -1.49300 28.27500
H  36.48500 -0.80700 25.13400
H  34.53100 1.39600 25.04800
H  37.90800 1.75400 25.21200
H  36.37300 2.12100 24.55200
H  37.27000 0.71200 23.81700
H  33.52500 -1.34200 25.66500
H  34.66300 -1.24200 24.33800
H  33.25900 -0.34000 22.88200
H  32.55700 0.89700 23.97000
H  31.87100 -0.57300 24.09500
H  30.38300 1.26200 27.63700
H  30.03100 3.03000 27.58300
H  29.36100 2.16500 28.90700
H  31.76400 2.59000 33.41400
H  32.13000 6.17800 35.59500
H  30.65900 6.63200 34.65500
H  32.33900 6.94100 34.07400
Mg 47.91100 44.99200 42.43800
C  44.50700 44.25800 42.47700
C  48.55900 41.44500 42.15600
C  51.13000 45.60800 41.61500
C  47.14900 48.37400 42.09300
N  46.68600 43.02200 42.52400
C  45.26700 43.04100 42.29000
C  44.68800 41.63000 42.06400
C  46.01400 40.77300 42.10600
C  47.14300 41.78400 42.21500
C  46.01200 39.64300 43.22100
C  43.87400 41.43800 40.78300
C  44.29300 42.10200 39.43200
H  44.21400 41.36400 38.09900
N  49.62100 43.72900 42.11400
C  49.65800 42.37700 42.01100
C  50.98400 41.91000 41.79800
C  51.73600 43.10600 41.46100
C  50.84600 44.24700 41.79900
C  51.45600 40.42000 41.64100
C  53.19200 43.16800 40.85900
O  53.89200 42.13600 40.80300
C  53.76800 44.44600 40.49100
N  48.97200 46.64200 41.86300
C  50.25400 46.71300 41.54200
C  50.83800 48.11400 41.46900
C  49.56700 48.96400 41.64900
C  48.46700 47.96800 41.95100
C  51.94600 48.42500 42.53300
C  49.34300 49.79400 40.36400
C  48.94100 51.31600 40.59500
N  46.16200 46.22800 42.51800
C  46.03600 47.55100 42.30100
C  44.56000 47.83200 42.10900
C  43.92600 46.58600 42.25300
C  44.96200 45.66200 42.49100
C  43.92700 49.16200 41.81600
C  42.64600 45.87700 42.14100
O  41.51900 46.19400 41.91800
C  43.03000 44.41600 42.22500
C  42.25200 43.92400 43.39900
O  41.23500 43.24100 43.27200
O  42.73700 44.44200 44.59600
C  41.88800 44.36500 45.77400
H  48.75300 40.37900 42.01600
H  52.14700 45.96300 41.43500
H  46.81700 49.41000 41.99200
H  43.99800 41.32200 42.85000
H  46.10000 40.22100 41.17000
H  46.04400 38.66100 42.75000
H  45.13300 39.80700 43.84600
H  46.92600 39.68100 43.81400
H  42.82300 41.60300 41.02200
H  43.85200 40.37400 40.54600
H  45.34200 42.33100 39.61900
H  43.83800 43.08800 39.34100
H  51.60900 40.18700 40.58800
H  50.78000 39.63400 41.98000
H  52.40300 40.24700 42.15200
H  53.03000 44.91100 39.83800
H  54.67900 44.30600 39.90800
H  54.06400 44.87400 41.44900
H  51.31900 48.17800 40.49300
H  49.70600 49.70500 42.43700
H  52.35000 47.50700 42.95900
H  51.51600 48.98900 43.36100
H  52.69600 49.01500 42.00600
H  48.46200 49.37800 39.87500
H  50.15900 49.73400 39.64400
H  48.06600 51.63000 40.02600
H  49.76700 51.94500 40.26400
H  49.03400 51.61500 41.63900
H  42.94000 49.07900 41.36200
H  44.57100 49.68300 41.10700
H  43.84900 49.77500 42.71400
H  42.73900 44.03500 41.24700
H  41.44300 43.37000 45.79400
H  41.13000 45.12100 45.57100
H  42.41300 44.55500 46.71000

