158

Mg -10.01800 38.23300 40.93100
C  -7.88300 35.41800 40.64500
C  -7.46900 40.05700 39.43400
C  -12.07400 40.73200 40.65500
C  -12.54900 36.06700 42.03400
N  -7.96300 37.75300 40.10300
C  -7.31500 36.58300 40.10000
C  -5.90900 36.69100 39.44500
C  -5.78800 38.21800 39.17600
C  -7.19700 38.74800 39.58000
C  -4.59400 39.00300 39.85000
C  -5.89600 35.73500 38.19600
C  -4.73700 34.73900 38.14000
H  -3.76800 34.95800 36.92800
N  -9.74900 40.20700 40.28800
C  -8.60400 40.80800 39.70100
C  -8.91900 42.20700 39.49400
C  -10.27100 42.45700 39.81900
C  -10.78000 41.11600 40.29300
C  -7.87800 43.21600 38.93900
C  -11.03600 43.74500 39.69100
O  -10.42600 44.69600 39.28900
C  -12.50400 43.86200 40.07900
N  -11.96900 38.34500 41.24300
C  -12.64200 39.56000 41.04000
C  -14.12300 39.37700 41.28700
C  -14.28200 37.89900 41.68300
C  -12.87300 37.36400 41.59800
C  -14.64000 40.32000 42.40700
C  -15.41700 37.10100 40.94600
C  -16.83700 37.66400 41.21200
N  -10.16400 36.18000 41.44100
C  -11.26200 35.48200 41.89800
C  -10.81200 34.10500 42.17600
C  -9.46500 34.04100 41.68800
C  -9.14800 35.33800 41.25400
C  -11.64300 33.11400 42.98200
C  -8.43800 33.12500 41.45600
O  -8.38500 31.89300 41.65200
C  -7.23500 33.98200 40.81300
C  -6.05300 33.93200 41.86400
O  -5.33000 32.97600 41.93800
O  -5.92600 35.00500 42.75000
C  -4.84300 34.81700 43.83700
H  -6.69300 40.67400 38.97800
H  -12.85100 41.49900 40.63900
H  -13.40900 35.45100 42.30300
H  -5.14300 36.38600 40.15800
H  -5.59400 38.41600 38.12200
H  -3.98400 38.27900 40.39000
H  -4.90200 39.82000 40.50300
H  -3.91100 39.20900 39.02600
H  -5.95300 36.34800 37.29700
H  -6.81700 35.15300 38.15400
H  -5.07200 33.70300 38.18200
H  -4.01800 34.84300 38.95300
H  -8.01300 44.23100 39.31400
H  -8.03500 43.33800 37.86700
H  -6.82500 42.98600 39.09900
H  -12.64900 43.68400 41.14500
H  -13.11300 43.12500 39.55600
H  -12.95200 44.84100 39.90600
H  -14.75100 39.52100 40.40800
H  -14.46100 37.86500 42.75800
H  -14.74200 39.96000 43.43100
H  -15.61600 40.61700 42.02100
H  -14.08600 41.25800 42.41400
H  -15.45500 36.04500 41.21300
H  -15.23500 37.04200 39.87300
H  -17.43500 36.78700 41.46000
H  -17.21800 38.07000 40.27400
H  -16.92100 38.41800 41.99400
H  -12.64100 32.90800 42.59400
H  -11.76600 33.35200 44.03800
H  -11.07500 32.19500 42.83600
H  -6.86200 33.52200 39.89800
H  -3.95000 34.26600 43.54200
H  -5.32300 34.35700 44.70000
H  -4.53000 35.81100 44.15800
Mg -4.40900 25.29700 26.06800
C  -2.83500 26.51900 28.96900
C  -6.21600 23.23900 27.82000
C  -5.43700 23.75200 23.16000
C  -2.09200 27.14500 24.10700
N  -4.43700 24.91400 28.17500
C  -3.81000 25.59100 29.18500
C  -4.43700 25.16900 30.50500
C  -5.32900 23.96700 30.12100
C  -5.30100 24.07600 28.59400
C  -4.82400 22.62500 30.72000
C  -5.30900 26.36000 31.11600
C  -5.32500 26.51000 32.64300
H  -4.74000 25.32400 33.46100
N  -5.89700 23.93600 25.59200
C  -6.55100 23.15200 26.47400
C  -7.48900 22.21700 25.80400
C  -7.25200 22.48200 24.37900
C  -6.14000 23.41100 24.29400
C  -8.58100 21.38400 26.44200
C  -7.91200 21.88500 23.14000
O  -7.54800 22.17400 21.99400
C  -9.09600 20.92900 23.28700
N  -3.81100 25.38800 23.94900
C  -4.39100 24.67000 22.97300
C  -3.70200 24.90400 21.58600
C  -2.78800 26.12200 21.93000
C  -2.93200 26.28200 23.42400
C  -2.98800 23.70700 20.93500
C  -3.07000 27.50300 21.14200
C  -1.77300 27.91400 20.31900
N  -2.76300 26.62300 26.46100
C  -2.00300 27.31000 25.57600
C  -0.98200 28.07600 26.28800
C  -1.26800 27.84900 27.65500
C  -2.40400 26.92800 27.67400
C  0.08300 28.91000 25.65600
C  -0.91300 28.19400 28.99900
O  -0.08700 28.99200 29.42400
C  -1.95700 27.40100 29.92600
C  -1.12500 26.62600 30.85100
O  -0.80600 25.48200 30.66100
O  -0.84900 27.27600 32.02400
C  -0.16700 26.53200 33.13200
H  -6.76100 22.53900 28.45700
H  -5.45200 23.14000 22.25600
H  -1.33600 27.64800 23.50100
H  -3.63700 24.87300 31.18300
H  -6.37500 24.16300 30.35700
H  -3.78400 22.55100 31.03500
H  -4.90200 21.84900 29.95800
H  -5.43200 22.40900 31.59900
H  -6.32100 26.44000 30.72100
H  -4.82800 27.28500 30.79800
H  -6.38700 26.58400 32.87700
H  -4.70100 27.35200 32.94500
H  -8.59800 21.62800 27.50500
H  -8.25900 20.36900 26.21200
H  -9.60400 21.60900 26.14000
H  -8.91300 20.20100 24.07800
H  -9.18600 20.51200 22.28300
H  -9.99400 21.51500 23.48200
H  -4.56500 25.31100 21.05900
H  -1.79500 25.69800 21.78000
H  -3.05700 22.87100 21.63100
H  -1.98600 24.04300 20.67000
H  -3.47500 23.57200 19.96900
H  -3.44000 28.27700 21.81400
H  -3.78700 27.32200 20.34000
H  -2.24400 27.95100 19.33600
H  -1.08400 27.07000 20.28500
H  -1.28300 28.77800 20.76800
H  -0.23600 29.51900 24.81000
H  1.00000 28.32800 25.56500
H  0.29400 29.62200 26.45300
H  -2.66200 28.04800 30.44700
H  0.90900 26.69400 33.19700
H  -0.30400 25.45100 33.09800
H  -0.62800 26.86300 34.06200

