158

Mg 24.89600 -5.18000 45.83500
C  27.13900 -2.93200 44.27500
C  22.44000 -4.05800 43.63700
C  22.94700 -7.82800 46.68900
C  27.62300 -6.64700 47.47200
N  24.79200 -3.82900 43.98500
C  25.80000 -2.87600 43.76400
C  25.24100 -1.86500 42.69400
C  23.66300 -1.91000 42.96600
C  23.61000 -3.32100 43.59800
C  23.08300 -0.76400 43.82600
C  25.67100 -2.18400 41.15500
C  26.15800 -0.92300 40.40300
H  26.11400 -1.08500 38.88700
N  22.97900 -5.85200 45.27900
C  22.13800 -5.27700 44.33600
C  20.95300 -6.06900 44.18900
C  21.01100 -7.12600 45.12300
C  22.39500 -6.93600 45.77700
C  19.88500 -5.69500 43.17900
C  19.91900 -8.12800 45.34300
O  18.84200 -8.10500 44.71200
C  19.92300 -9.13900 46.48700
N  25.20600 -6.93900 46.91600
C  24.22800 -7.84100 47.25200
C  24.78700 -9.02400 48.14900
C  26.15300 -8.46100 48.48600
C  26.35500 -7.27200 47.56000
C  23.88100 -9.49000 49.30800
C  27.23300 -9.55400 48.26000
C  28.52800 -9.46800 49.07800
N  26.94900 -4.81800 45.97600
C  27.96000 -5.58700 46.59100
C  29.23300 -4.96300 46.28200
C  28.95000 -3.95200 45.31800
C  27.54000 -3.91300 45.16300
C  30.55700 -5.41100 46.74300
C  29.59200 -2.88500 44.58900
O  30.78500 -2.51800 44.55400
C  28.34400 -2.13100 43.81400
C  28.34800 -0.70700 44.28000
O  27.65700 -0.21000 45.18800
O  29.37200 -0.07800 43.66000
C  29.92900 1.02900 44.39300
H  21.73200 -3.54700 42.98100
H  22.31300 -8.67900 46.94800
H  28.38500 -6.89900 48.21200
H  25.64400 -0.88100 42.93400
H  23.04800 -1.89500 42.06600
H  22.67400 -1.11700 44.77300
H  22.23400 -0.35400 43.27900
H  23.87700 -0.04200 44.01400
H  24.77300 -2.53600 40.64600
H  26.38100 -3.00900 41.21800
H  27.12900 -0.57000 40.75200
H  25.41000 -0.23100 40.79000
H  20.27700 -4.95500 42.48200
H  19.15800 -5.07900 43.70900
H  19.60200 -6.65300 42.74300
H  20.69200 -9.85400 46.19700
H  18.98400 -9.66300 46.66100
H  20.12000 -8.51700 47.36100
H  25.00000 -9.86100 47.48400
H  26.28000 -8.08500 49.50100
H  23.56900 -10.53300 49.24300
H  23.01500 -8.83300 49.39100
H  24.50900 -9.37100 50.19100
H  27.47900 -9.60400 47.20000
H  26.88300 -10.51200 48.64600
H  28.72600 -10.29000 49.76500
H  28.45200 -8.66000 49.80600
H  29.42900 -9.33100 48.48000
H  30.69700 -4.92000 47.70600
H  31.43700 -5.11600 46.17100
H  30.60500 -6.49900 46.71700
H  28.44800 -2.05700 42.73200
H  30.41000 1.61100 43.60700
H  30.74000 0.52400 44.91700
H  29.19800 1.64100 44.92200
Mg 49.04800 34.89200 27.22700
C  47.37700 33.24300 29.65600
C  49.26700 37.61800 29.17500
C  50.61300 36.38800 24.72800
C  48.32000 32.19500 25.01000
N  48.39600 35.34900 29.19300
C  47.88700 34.50300 30.12500
C  48.07300 34.94500 31.57300
C  48.19200 36.49600 31.31700
C  48.57800 36.51000 29.80600
C  46.88600 37.28400 31.61200
C  49.32300 34.32200 32.26300
C  49.16000 33.77500 33.74700
H  49.39200 34.89100 34.85000
N  49.86600 36.71500 27.04400
C  49.81100 37.71600 27.92700
C  50.45100 38.90700 27.34000
C  50.97100 38.53000 26.10500
C  50.43800 37.18100 25.84900
C  50.36900 40.27500 27.94900
C  51.86200 39.32300 25.18000
O  52.28200 38.85500 24.14000
C  52.39400 40.67700 25.61600
N  49.44300 34.29800 25.18300
C  50.15300 35.10500 24.39400
C  50.21300 34.61000 22.92900
C  49.82700 33.15600 23.03400
C  49.17900 33.18800 24.47000
C  49.37100 35.42400 21.93100
C  50.97700 32.04600 23.08800
C  51.21900 31.33000 21.72500
N  48.00100 33.06300 27.24000
C  47.75100 32.03800 26.30800
C  47.04800 30.95300 26.90200
C  46.80300 31.39800 28.23200
C  47.45000 32.67200 28.37000
C  46.60800 29.72900 26.23600
C  46.05300 31.17000 29.45400
O  45.35700 30.21300 29.70300
C  46.54600 32.22200 30.41500
C  47.23500 31.48900 31.58500
O  48.41300 31.22400 31.71500
O  46.36300 31.17500 32.52600
C  46.80300 30.36600 33.69100
H  49.52700 38.47200 29.80500
H  51.17800 36.75500 23.86800
H  48.21200 31.38500 24.28600
H  47.21500 34.67700 32.18900
H  48.99800 36.98800 31.86000
H  47.11000 37.79200 32.55000
H  46.07900 36.60500 31.88600
H  46.61500 37.94600 30.78900
H  50.15800 35.01800 32.34600
H  49.87000 33.57900 31.68200
H  49.82000 32.95100 34.01800
H  48.11800 33.45700 33.78600
H  51.36800 40.46600 28.34100
H  49.71900 40.42900 28.81000
H  50.22300 40.96800 27.12000
H  53.30700 40.92400 25.07400
H  52.67100 40.47300 26.65000
H  51.51900 41.30500 25.44500
H  51.24400 34.61800 22.57700
H  49.04100 32.91900 22.31600
H  48.53400 34.84700 21.53800
H  49.86700 35.69500 20.99800
H  49.09800 36.38700 22.36200
H  50.92700 31.30100 23.88200
H  51.86400 32.63900 23.31100
H  50.40500 31.49400 21.02000
H  51.30400 30.25500 21.88200
H  52.18600 31.68700 21.37000
H  46.84600 29.80100 25.17500
H  45.55700 29.44400 26.28300
H  47.24000 28.89300 26.53500
H  45.69100 32.69700 30.89600
H  46.85900 29.34800 33.30500
H  46.12200 30.55300 34.52200
H  47.79500 30.67600 34.01800

