158

Mg 49.89300 35.30100 28.52500
C  47.91000 34.06600 31.10100
C  50.03200 38.41200 30.35100
C  51.55400 36.79900 26.00100
C  49.19800 32.57600 26.63200
N  49.02400 36.17300 30.47000
C  48.46400 35.35400 31.37700
C  48.61600 35.92100 32.81900
C  49.01300 37.37400 32.59200
C  49.39700 37.32200 31.01700
C  48.06400 38.55200 32.95900
C  49.76800 35.12200 33.57600
C  49.79500 35.48300 35.09100
H  48.84400 36.39300 35.87400
N  50.64600 37.34600 28.29800
C  50.57300 38.42900 29.08300
C  51.17900 39.53900 28.42800
C  51.76400 39.07900 27.25100
C  51.37900 37.68200 27.15400
C  51.07000 40.95700 28.96600
C  52.63400 39.81100 26.23200
O  52.83500 39.33900 25.11300
C  53.20400 41.10900 26.67800
N  50.30300 34.84600 26.56800
C  51.04300 35.54100 25.68600
C  51.39200 34.68600 24.43700
C  50.81200 33.30100 24.81700
C  49.99200 33.58900 26.05600
C  50.98600 35.22600 23.08000
C  51.88200 32.12000 25.05400
C  51.57400 30.88100 24.22700
N  48.84000 33.62400 28.73800
C  48.62600 32.60100 27.94400
C  47.95700 31.52600 28.60500
C  47.61100 32.02800 29.83500
C  48.14700 33.34500 29.86200
C  47.63700 30.19100 27.99100
C  46.96400 31.80800 31.11300
O  46.28800 30.85000 31.41300
C  47.03900 33.07100 31.94800
C  47.17600 32.84800 33.46300
O  47.89600 32.09400 34.12300
O  46.11100 33.52500 34.06200
C  45.74200 33.12300 35.38600
H  50.21400 39.35300 30.87500
H  52.13900 37.02800 25.10800
H  49.09400 31.67500 26.02300
H  47.62600 35.91000 33.27400
H  49.97600 37.64400 33.02400
H  47.57300 38.15900 33.84900
H  47.33400 38.86100 32.21100
H  48.67900 39.40100 33.25800
H  50.70200 35.45800 33.12600
H  49.68900 34.03800 33.65500
H  50.77800 35.88100 35.34300
H  49.70000 34.55500 35.65500
H  50.51400 41.08100 29.89500
H  50.64700 41.62300 28.21300
H  52.08200 41.26200 29.23100
H  52.52900 41.91000 26.38000
H  54.12200 41.26300 26.11000
H  53.53000 41.05400 27.71700
H  52.46700 34.52100 24.50900
H  50.04200 33.08000 24.07900
H  51.93400 35.53100 22.63700
H  50.32900 36.09100 23.17200
H  50.51100 34.42800 22.51000
H  51.91600 31.99300 26.13600
H  52.87600 32.50900 24.83300
H  50.91100 30.22400 24.79100
H  52.49500 30.39800 23.90000
H  51.06200 30.92900 23.26600
H  47.06900 30.29300 27.06600
H  46.98700 29.65000 28.67800
H  48.57800 29.68500 27.77600
H  46.02800 33.45600 31.81700
H  44.86100 33.70400 35.65700
H  46.44900 33.45200 36.14800
H  45.53300 32.05400 35.34900
Mg 10.32800 46.74700 24.71900
C  8.07200 47.14000 27.43100
C  12.76100 48.31200 26.51800
C  12.29200 46.58800 21.97100
C  7.53100 45.81200 22.77200
N  10.36800 47.73500 26.58300
C  9.40200 47.63300 27.65700
C  9.96700 47.98600 28.99400
C  11.34400 48.73500 28.53500
C  11.51600 48.30500 27.09200
C  11.14700 50.25700 28.64600
C  10.26600 46.72000 29.86400
C  10.09900 47.10100 31.39400
H  9.85900 45.89300 32.34100
N  12.35100 47.18300 24.34800
C  13.19700 47.74900 25.28700
C  14.50700 47.66200 24.80900
C  14.38600 47.16700 23.49600
C  12.97900 46.98500 23.16700
C  15.70000 47.92400 25.69600
C  15.51700 46.84400 22.50900
O  15.29100 46.47800 21.37400
C  16.96100 46.78900 22.83000
N  9.88900 46.36700 22.70600
C  10.90300 46.37200 21.77400
C  10.42800 45.91600 20.41700
C  8.98200 45.41700 20.70700
C  8.76800 45.80600 22.16800
C  10.51000 46.93500 19.30700
C  8.74300 43.92100 20.46500
C  9.47700 43.01600 21.54200
N  8.22400 46.42400 25.04300
C  7.22200 46.13500 24.14500
C  5.88600 46.33700 24.73700
C  6.16600 46.57900 26.12000
C  7.58100 46.68000 26.20700
C  4.57900 46.17600 24.08200
C  5.67600 46.76300 27.43700
O  4.52900 46.57300 27.89000
C  6.89300 47.06800 28.42400
C  7.03000 45.92600 29.34200
O  7.50200 44.84200 29.05600
O  6.46700 46.41600 30.51100
C  6.47800 45.53400 31.65500
H  13.63200 48.63400 27.09100
H  12.94400 46.31800 21.13600
H  6.71900 45.86800 22.04400
H  9.12000 48.54500 29.39300
H  12.11800 48.46400 29.25300
H  10.37800 50.80800 28.10400
H  12.13200 50.66600 28.42200
H  10.94000 50.47100 29.69400
H  11.32900 46.49400 29.78600
H  9.68100 45.83000 29.63000
H  9.15100 47.60700 31.57900
H  10.86200 47.77900 31.77600
H  15.56500 47.57100 26.71900
H  16.05700 48.95300 25.66900
H  16.51000 47.30200 25.31300
H  17.03700 45.90100 23.45800
H  17.08300 47.78300 23.26000
H  17.64000 46.80800 21.97700
H  11.13200 45.15700 20.07800
H  8.30800 46.02700 20.10600
H  11.26700 47.69800 19.48600
H  9.52800 47.35400 19.08500
H  10.82200 46.36400 18.43300
H  9.10100 43.63400 19.47700
H  7.65700 43.83100 20.48200
H  8.73500 42.51700 22.16500
H  10.21600 43.54400 22.14400
H  10.16100 42.31700 21.06000
H  3.86800 46.91400 24.45400
H  4.35100 45.14400 24.34900
H  4.64400 46.41100 23.01900
H  6.75500 47.97500 29.01300
H  6.90500 46.19500 32.41000
H  7.11800 44.66600 31.49900
H  5.47200 45.25200 31.96800

