158

Mg 28.35500 56.43200 40.87800
C  25.76300 54.18000 40.34000
C  30.56300 54.12600 39.60200
C  30.66600 58.92100 40.63600
C  25.74100 58.90900 41.28500
N  28.13300 54.39000 39.99300
C  27.02600 53.64600 39.89300
C  27.27900 52.29200 39.18000
C  28.80100 52.27700 39.19000
C  29.19500 53.71800 39.59800
C  29.38000 51.07900 39.98300
C  26.44400 52.11600 37.91300
C  26.21000 53.42400 37.02600
H  26.77300 53.42600 35.64800
N  30.41500 56.49100 40.41700
C  31.11000 55.45300 39.88500
C  32.50200 55.87200 39.73100
C  32.55000 57.24300 40.16100
C  31.20000 57.62400 40.45000
C  33.65800 54.94500 39.20000
C  33.79800 58.13500 40.18200
O  34.94800 57.72000 39.90200
C  33.83700 59.60800 40.61300
N  28.15100 58.63900 40.53100
C  29.31500 59.40800 40.78300
C  28.90600 60.79600 41.01100
C  27.32200 60.84800 41.16200
C  27.01000 59.40400 40.85600
C  29.70200 61.56700 42.15400
C  26.43100 61.94700 40.50000
C  25.40200 62.68400 41.40100
N  26.22200 56.57800 40.84300
C  25.32600 57.59700 41.10000
C  24.02100 57.07800 41.35800
C  24.13200 55.69800 41.03600
C  25.47500 55.50500 40.69800
C  22.78100 57.75800 41.73100
C  23.45800 54.45000 41.08700
O  22.30800 54.04800 41.29800
C  24.38600 53.45600 40.38200
C  24.48500 52.09400 41.05000
O  23.74000 51.19800 40.71600
O  25.48200 52.08000 42.02900
C  25.53900 50.75800 42.60300
H  31.21200 53.34700 39.19500
H  31.31700 59.79000 40.52000
H  24.99100 59.65000 41.56700
H  26.83000 51.48700 39.76300
H  29.06500 52.21100 38.13500
H  29.01200 50.29200 39.32500
H  29.08600 51.11400 41.03200
H  30.46500 51.03000 39.89400
H  25.56100 51.52200 38.14600
H  26.96900 51.32200 37.38200
H  26.52200 54.34300 37.52200
H  25.13200 53.51400 36.89000
H  33.35800 54.60400 38.20900
H  33.66400 54.06400 39.84200
H  34.60000 55.49300 39.20800
H  33.24300 59.46900 41.51700
H  33.38300 60.19800 39.81800
H  34.84300 59.95500 40.84900
H  29.28200 61.36100 40.15900
H  27.31500 60.83100 42.25200
H  30.16700 60.82900 42.80700
H  28.96500 62.17100 42.68200
H  30.48000 62.16300 41.67700
H  25.92700 61.57300 39.60900
H  27.10300 62.73400 40.15800
H  25.55600 62.39800 42.44200
H  24.40200 62.40800 41.06600
H  25.43600 63.76900 41.30100
H  22.84900 58.68600 42.29900
H  22.21300 57.06600 42.35200
H  22.28200 57.95500 40.78200
H  23.95900 53.28400 39.39400
H  25.98300 50.14400 41.82000
H  24.59200 50.44900 43.04600
H  26.30100 50.75600 43.38300
Mg -10.13100 39.12000 39.83600
C  -9.44400 35.87900 38.58600
C  -7.12500 40.08500 39.04600
C  -11.18100 42.17400 40.37800
C  -13.43300 37.92000 40.62900
N  -8.49600 38.06700 38.92300
C  -8.40800 36.76800 38.44900
C  -7.00300 36.46500 37.90800
C  -6.24700 37.77400 38.24800
C  -7.30400 38.73500 38.78600
C  -5.01800 37.63600 39.10900
C  -6.90300 36.09700 36.32700
C  -7.33500 37.22000 35.31900
H  -8.74600 36.99700 34.74100
N  -9.16800 40.92200 39.81000
C  -7.91800 41.11900 39.48300
C  -7.63900 42.50500 39.44500
C  -8.82200 43.22000 39.79300
C  -9.78800 42.10600 40.04000
C  -6.26500 43.05500 38.99000
C  -8.87700 44.74000 39.87700
O  -7.91800 45.50200 39.71600
C  -10.21500 45.38800 39.98500
N  -12.16000 39.94600 40.37600
C  -12.23600 41.31400 40.53200
C  -13.68700 41.69000 40.80000
C  -14.38100 40.31800 41.19300
C  -13.32500 39.31800 40.68500
C  -14.06000 42.93100 41.65900
C  -15.82000 40.16500 40.63800
C  -16.94600 39.77600 41.60100
N  -11.27400 37.24800 39.72800
C  -12.54500 36.96300 40.17800
C  -12.74100 35.56400 40.05700
C  -11.53300 35.05800 39.46700
C  -10.71300 36.16500 39.22000
C  -14.00300 34.76100 40.40300
C  -10.83600 33.88100 39.02800
O  -11.18100 32.72700 39.10400
C  -9.40300 34.33400 38.45400
C  -8.33100 33.65700 39.22700
O  -8.25900 33.45100 40.42400
O  -7.46400 33.04900 38.26700
C  -6.51700 31.99500 38.73100
H  -6.10400 40.46700 38.97700
H  -11.54000 43.20200 40.44800
H  -14.41800 37.54400 40.91600
H  -6.51100 35.59500 38.34000
H  -5.91600 38.36200 37.39200
H  -5.09000 38.16200 40.06100
H  -4.16600 37.90800 38.48700
H  -4.85800 36.57800 39.31500
H  -7.49000 35.21900 36.05700
H  -5.88800 35.80700 36.05600
H  -6.61700 37.37500 34.51300
H  -7.39400 38.17300 35.84600
H  -6.26700 44.09700 38.67100
H  -5.92000 42.32400 38.25900
H  -5.57600 42.89100 39.81800
H  -10.60200 45.25700 40.99500
H  -10.91500 45.07300 39.21100
H  -10.08900 46.43900 39.72400
H  -14.00800 42.01100 39.80900
H  -14.34700 40.21300 42.27700
H  -13.48600 42.95000 42.58500
H  -15.08900 42.82200 42.00100
H  -14.06700 43.84500 41.06500
H  -15.77300 39.48300 39.78900
H  -16.07400 41.05300 40.05900
H  -17.58200 40.64800 41.75700
H  -16.60500 39.32500 42.53300
H  -17.69200 39.02800 41.33200
H  -14.77500 35.36400 40.88300
H  -13.64900 33.99800 41.09600
H  -14.46000 34.50900 39.44600
H  -9.34300 34.19900 37.37400
H  -5.95700 31.71300 37.83800
H  -6.89100 31.12300 39.26600
H  -5.84200 32.46300 39.44800

