158

Mg 40.24000 41.60400 27.10200
C  39.56100 44.05700 29.67200
C  41.24500 39.57700 29.39300
C  41.07500 39.65900 24.58300
C  39.32900 44.21600 24.82500
N  40.59300 41.97700 29.28900
C  40.07200 42.85500 30.12000
C  40.00800 42.37700 31.55100
C  40.73300 40.96500 31.40400
C  40.85200 40.79900 29.86900
C  42.00800 40.70700 32.22200
C  38.66500 42.40200 32.26600
C  38.62000 41.78100 33.65100
H  38.27500 42.66800 34.86100
N  41.04300 39.78000 26.97600
C  41.42200 39.09600 28.08900
C  41.96900 37.83800 27.64100
C  42.04100 37.91800 26.22500
C  41.35900 39.15200 25.85800
C  42.50100 36.75700 28.53200
C  42.69300 36.94300 25.25500
O  42.79200 37.24400 24.04200
C  43.36500 35.63900 25.74500
N  40.16600 41.89400 25.04700
C  40.46300 40.85500 24.22800
C  40.20300 41.23600 22.79700
C  39.31200 42.50900 22.86200
C  39.66500 42.93700 24.29400
C  41.54100 41.28000 21.98200
C  37.82300 42.25000 22.58000
C  37.27400 41.14000 23.49700
N  39.60000 43.64300 27.15400
C  39.34000 44.59100 26.16600
C  39.06500 45.91400 26.68300
C  39.07600 45.72900 28.06200
C  39.41100 44.38100 28.29900
C  38.73600 47.17500 25.86800
C  38.83700 46.36000 29.32200
O  38.42200 47.49000 29.63000
C  39.07300 45.28400 30.39000
C  39.95300 45.68500 31.52700
O  41.18000 45.55900 31.54700
O  39.19200 46.16700 32.53300
C  39.93800 46.45100 33.80100
H  41.50900 38.83000 30.14500
H  41.21400 39.03700 23.69600
H  39.16700 45.02300 24.10700
H  40.65900 43.08600 32.06300
H  39.93900 40.27600 31.69400
H  42.17400 41.60300 32.81900
H  42.78300 40.43100 31.50800
H  41.92500 39.90300 32.95400
H  37.97600 41.94000 31.55900
H  38.35200 43.43200 32.43400
H  39.55200 41.29000 33.93000
H  37.92800 40.94400 33.55300
H  43.58100 36.65400 28.41900
H  42.11100 35.74500 28.42200
H  42.35700 37.06900 29.56600
H  43.71100 35.13800 24.84100
H  42.64400 34.93000 26.15200
H  44.10000 35.95800 26.48400
H  39.59300 40.53500 22.22700
H  39.66600 43.28400 22.18200
H  41.71400 42.30200 21.64500
H  41.38600 40.58800 21.15400
H  42.36100 40.92500 22.60600
H  37.72200 42.07700 21.50800
H  37.30400 43.20500 22.65700
H  36.49900 41.51100 24.16800
H  38.01000 40.44400 23.89900
H  36.86600 40.49100 22.72200
H  38.57200 47.97800 26.58700
H  37.83900 46.86200 25.33400
H  39.56700 47.39900 25.19900
H  38.12900 44.99700 30.85200
H  40.74500 45.74400 33.99300
H  39.25600 46.31400 34.64000
H  40.42100 47.42200 33.91000
Mg -4.39800 24.64200 26.83200
C  -3.06000 26.63200 29.16500
C  -5.77300 22.61200 29.27900
C  -5.77400 22.60100 24.35200
C  -2.73300 26.36000 24.23900
N  -4.20800 24.53000 28.96600
C  -3.77300 25.59500 29.72300
C  -4.15500 25.34600 31.22600
C  -4.52800 23.85200 31.21600
C  -4.90900 23.62100 29.69500
C  -3.36600 22.93600 31.57600
C  -5.37400 26.24600 31.63500
C  -5.34900 26.77000 33.12500
H  -6.39400 26.28300 33.99900
N  -5.71000 22.91500 26.83600
C  -6.15800 22.28900 27.93300
C  -6.95500 21.15800 27.59400
C  -7.03200 21.12100 26.17400
C  -6.13900 22.25000 25.68300
C  -7.53900 20.13700 28.54600
C  -7.80800 20.14500 25.29400
O  -7.65100 20.14100 24.10800
C  -8.75000 19.11700 25.92700
N  -4.27900 24.50800 24.56700
C  -5.04000 23.65800 23.82600
C  -4.76100 23.81400 22.31400
C  -3.75400 25.01400 22.29500
C  -3.56200 25.34100 23.79400
C  -4.18000 22.49600 21.57200
C  -4.07300 26.21700 21.41100
C  -5.35000 26.95200 21.84100
N  -3.13900 26.24300 26.66400
C  -2.45200 26.80400 25.54700
C  -1.70300 27.89700 26.04200
C  -1.94700 27.95300 27.45100
C  -2.78200 26.86600 27.74800
C  -0.95400 28.82500 25.11900
C  -1.80500 28.63700 28.71800
O  -1.31600 29.71400 28.98000
C  -2.50000 27.81800 29.86200
C  -1.54100 27.39000 30.86700
O  -0.83100 26.39400 30.79800
O  -1.58000 28.29200 31.93800
C  -0.84000 27.79600 33.15200
H  -6.12200 21.96700 30.08800
H  -6.20200 21.92100 23.61400
H  -2.20700 26.97300 23.50300
H  -3.25600 25.59500 31.79000
H  -5.38800 23.81100 31.88300
H  -3.46300 21.97500 31.07000
H  -3.25400 22.77800 32.64800
H  -2.49500 23.49700 31.23700
H  -6.30300 25.77000 31.32100
H  -5.31800 27.19100 31.09500
H  -5.26800 27.85600 33.16800
H  -4.39300 26.54100 33.59500
H  -8.61400 20.27400 28.42900
H  -7.19100 20.25900 29.57200
H  -7.28700 19.10100 28.32100
H  -9.22900 18.57700 25.11000
H  -9.47300 19.66200 26.53200
H  -8.13300 18.42800 26.50400
H  -5.72400 24.09100 21.88400
H  -2.73700 24.70300 22.05700
H  -4.04100 21.74900 22.35300
H  -3.24600 22.75200 21.07100
H  -4.89700 22.13200 20.83600
H  -4.31700 25.70000 20.48300
H  -3.19900 26.82200 21.16900
H  -5.10800 27.78100 22.50600
H  -5.98100 26.36800 22.51000
H  -5.88800 27.24500 20.93900
H  -0.11400 28.36900 24.59500
H  -0.69600 29.68500 25.73700
H  -1.52500 29.09400 24.23100
H  -3.22500 28.45400 30.37100
H  -0.99400 26.72600 33.28900
H  -1.19500 28.40000 33.98700
H  0.24300 27.88100 33.06300

