158

Mg 1.70900 -1.40900 44.45400
C  5.07200 -0.53300 43.83500
C  0.89700 1.76000 42.95500
C  -1.51400 -2.36200 43.96400
C  2.74300 -4.47000 45.38700
N  2.87100 0.42200 43.41900
C  4.25000 0.46400 43.36900
C  4.75300 1.82400 42.79200
C  3.39400 2.65800 42.73900
C  2.31300 1.59000 42.98600
C  3.16900 3.72800 43.76600
C  5.47100 1.63600 41.45900
C  6.67700 2.58800 41.09900
H  6.92900 2.86000 39.63800
N  -0.10400 -0.40500 43.62800
C  -0.17200 0.83300 43.11200
C  -1.57200 1.14900 42.80500
C  -2.36900 -0.00000 43.12600
C  -1.35200 -1.01800 43.59900
C  -2.10500 2.47200 42.27800
C  -3.90300 -0.15700 43.04100
O  -4.59800 0.73200 42.59400
C  -4.57700 -1.40200 43.43200
N  0.77500 -3.11600 44.56500
C  -0.57000 -3.31400 44.46200
C  -0.94700 -4.81500 44.79300
C  0.43200 -5.42400 45.22000
C  1.41600 -4.29700 45.02300
C  -2.17500 -5.09000 45.65700
C  0.81300 -6.85500 44.54400
C  1.61900 -7.87600 45.46200
N  3.55200 -2.36800 44.56700
C  3.80000 -3.61600 45.05200
C  5.25400 -3.78300 45.12800
C  5.83800 -2.59200 44.69700
C  4.72800 -1.78500 44.30300
C  5.94600 -4.95600 45.58300
C  7.06700 -1.87000 44.50200
O  8.24100 -2.17700 44.72200
C  6.60300 -0.52900 43.90800
C  7.09600 0.63200 44.71300
O  6.55500 0.96900 45.74900
O  8.22500 1.23100 44.16900
C  8.48400 2.52100 44.70100
H  0.53700 2.72400 42.59100
H  -2.44100 -2.91800 43.81200
H  3.07600 -5.39700 45.85700
H  5.53300 2.32600 43.36300
H  3.15100 3.13900 41.79200
H  2.33400 3.49300 44.42700
H  2.91500 4.64400 43.23200
H  4.09900 3.99900 44.26500
H  4.81900 1.84500 40.61100
H  5.76900 0.59300 41.35900
H  7.59500 2.17300 41.51600
H  6.52100 3.53800 41.61000
H  -3.11500 2.53700 41.87500
H  -1.47100 2.66700 41.41200
H  -1.76000 3.32000 42.87000
H  -5.64700 -1.33400 43.23100
H  -4.45200 -1.52500 44.50800
H  -4.11500 -2.28700 42.99500
H  -1.24800 -5.18600 43.81300
H  0.44800 -5.54000 46.30400
H  -2.62100 -4.12700 45.90600
H  -2.00400 -5.48200 46.66000
H  -2.86000 -5.78500 45.17100
H  1.52600 -6.53500 43.78400
H  0.00400 -7.34900 44.00600
H  0.77300 -8.26100 46.03200
H  2.48800 -7.39600 45.91100
H  2.02800 -8.70900 44.89100
H  7.00500 -4.71200 45.49600
H  5.74400 -5.85300 44.99700
H  5.51200 -5.14600 46.56400
H  7.05700 -0.51300 42.91700
H  7.66400 3.09500 45.13300
H  8.82500 3.27900 43.99600
H  9.35600 2.43500 45.35000
Mg 7.09600 53.30300 42.00500
C  6.53500 49.84500 41.90200
C  10.08300 52.84700 40.62800
C  6.97700 56.60900 41.36900
C  3.52800 53.55700 42.88000
N  8.24700 51.54100 41.35600
C  7.74300 50.24300 41.35100
C  8.86100 49.27400 40.88700
C  10.14100 50.19000 40.82000
C  9.51300 51.59600 40.97500
C  11.03800 49.82200 42.00700
C  8.64500 48.64000 39.38400
C  7.75300 49.48500 38.41600
H  8.21100 49.62800 36.91700
N  8.36500 54.55400 41.27200
C  9.58500 54.16600 40.77900
C  10.27100 55.34900 40.39500
C  9.46500 56.46100 40.63200
C  8.15300 55.93100 41.05600
C  11.78500 55.33200 39.97700
C  9.90900 57.91100 40.40800
O  10.99600 58.06800 39.86900
C  9.03900 59.04000 40.79600
N  5.53900 54.76900 42.21800
C  5.83800 56.05700 41.93600
C  4.64700 56.86200 42.32300
C  3.44000 55.92200 42.40100
C  4.23600 54.66600 42.60000
C  4.81200 57.80900 43.51600
C  2.52100 55.92500 41.14200
C  0.94900 56.03800 41.32400
N  5.27800 51.95000 42.43200
C  4.04500 52.22900 42.90500
C  3.33200 50.98600 43.04200
C  4.32100 50.05800 42.71400
C  5.46200 50.64400 42.36500
C  1.97100 50.92100 43.51200
C  4.59300 48.66600 42.78600
O  3.83700 47.72500 43.09100
C  6.02400 48.42400 42.22200
C  5.79300 47.58100 41.07200
O  5.10400 47.88300 40.10900
O  6.39900 46.34400 41.29800
C  6.11400 45.39500 40.22100
H  11.05000 52.65900 40.15700
H  6.90900 57.67700 41.15400
H  2.49900 53.72300 43.20600
H  9.00000 48.46600 41.60500
H  10.76200 50.01500 39.94200
H  10.40800 49.72200 42.89000
H  11.68200 50.67000 42.23900
H  11.61600 48.93500 41.74400
H  8.20600 47.64200 39.38100
H  9.62600 48.49200 38.93300
H  7.87800 50.50100 38.79200
H  6.70100 49.21700 38.52100
H  11.91800 55.75600 38.98200
H  12.16100 54.31900 39.83200
H  12.47600 55.78400 40.69000
H  8.39700 59.36700 39.97800
H  9.66500 59.83400 41.20400
H  8.46100 58.74700 41.67200
H  4.41000 57.49800 41.47100
H  2.91700 56.17400 43.32300
H  3.90200 57.76700 44.11400
H  4.82600 58.79000 43.04100
H  5.72800 57.59900 44.06900
H  2.69600 54.95900 40.66800
H  2.93000 56.60900 40.39800
H  0.56900 56.94100 40.84500
H  0.73400 56.04600 42.39300
H  0.52200 55.12100 40.92100
H  1.46200 51.88500 43.49400
H  1.99300 50.49300 44.51400
H  1.60300 50.24100 42.74400
H  6.66900 47.88200 42.91400
H  6.35300 45.84500 39.25800
H  5.09700 45.00400 40.20000
H  6.80200 44.55000 40.26800

