158

Mg 36.44300 2.56500 30.27700
C  33.91300 3.36800 32.52400
C  38.72100 2.68300 32.81800
C  38.88800 2.05700 27.92700
C  34.04900 2.89800 27.59900
N  36.30900 2.93700 32.39700
C  35.18600 3.24200 33.11300
C  35.53900 3.27600 34.62900
C  37.14100 3.32500 34.61900
C  37.42200 2.95400 33.18500
C  37.68600 4.68100 35.00700
C  34.87900 2.11100 35.45300
C  34.40200 2.48100 36.85100
H  34.81100 3.76300 37.60100
N  38.49900 2.21700 30.41400
C  39.30500 2.41900 31.55200
C  40.60400 2.07700 31.26100
C  40.68600 1.99800 29.81900
C  39.33100 2.07900 29.31000
C  41.56200 1.75000 32.36800
C  41.90400 1.67800 28.95900
O  41.73000 1.65200 27.73300
C  43.20100 1.43800 29.58400
N  36.53700 2.71700 28.13500
C  37.62500 2.25200 27.39700
C  37.35800 2.35000 25.89900
C  35.81300 2.28500 25.92400
C  35.38200 2.67900 27.32700
C  37.94500 3.62900 25.32300
C  35.20200 0.94100 25.39100
C  35.41500 -0.36500 26.29700
N  34.43200 3.00200 30.07900
C  33.60700 3.04900 28.94700
C  32.21200 3.30600 29.40300
C  32.30100 3.46300 30.77300
C  33.66100 3.20400 31.14200
C  31.07200 3.22500 28.48100
C  31.57000 3.75700 32.03000
O  30.37600 4.05000 32.16600
C  32.57200 3.67900 33.18700
C  32.48700 5.04400 33.77500
O  32.97000 5.99100 33.24800
O  31.96400 5.00600 35.02500
C  32.16400 6.14400 35.85100
H  39.49600 2.83100 33.57400
H  39.62100 2.05900 27.11700
H  33.23000 2.94300 26.87900
H  35.11900 4.18400 35.06100
H  37.61000 2.54100 35.21300
H  38.39100 5.00400 34.24100
H  38.17100 4.45200 35.95500
H  36.98500 5.48200 35.24300
H  35.62700 1.32000 35.39500
H  33.98800 1.72500 34.95800
H  34.63900 1.55700 37.37900
H  33.32400 2.63700 36.79900
H  41.77100 2.58800 33.03400
H  42.56800 1.37100 32.18700
H  41.19500 0.99500 33.06300
H  44.03500 1.48600 28.88500
H  43.04900 0.49600 30.11100
H  43.33200 2.23400 30.31700
H  37.83700 1.49100 25.43000
H  35.52300 3.09000 25.24900
H  38.04100 3.46800 24.25000
H  38.79600 3.97800 25.90700
H  37.24700 4.46100 25.41500
H  35.67400 0.65100 24.45200
H  34.13600 1.08300 25.21000
H  36.21500 -0.21300 27.02200
H  35.53500 -1.31500 25.77700
H  34.44900 -0.46100 26.79300
H  31.17000 2.31400 27.89100
H  30.95500 4.03900 27.76600
H  30.13200 3.26300 29.03000
H  32.29000 2.95600 33.95300
H  31.27000 6.76400 35.78600
H  32.96900 6.76000 35.45000
H  32.32100 5.78700 36.86900
Mg 5.88500 54.52500 40.99100
C  5.54000 50.98100 40.95300
C  9.12500 53.97200 39.75200
C  6.32800 57.80100 40.44700
C  2.63000 54.85000 41.68000
N  7.06700 52.73300 40.14300
C  6.71800 51.38600 40.31600
C  7.91400 50.44600 39.95000
C  9.10300 51.50500 40.05800
C  8.39700 52.82100 39.96200
C  10.18100 51.22200 41.19100
C  7.68700 49.80100 38.53600
C  8.18000 50.62200 37.29200
H  7.44100 50.33400 35.97100
N  7.40800 55.69900 40.03500
C  8.69800 55.26500 39.66900
C  9.48900 56.38300 39.20700
C  8.69300 57.50800 39.49400
C  7.36400 57.03000 39.98900
C  10.97900 56.39900 38.79400
C  9.11900 59.02000 39.39400
O  10.23200 59.31500 38.94700
C  8.12500 60.19500 39.65900
N  4.63300 56.12500 40.94100
C  5.05800 57.35800 40.95000
C  4.10500 58.28400 41.79900
C  2.86500 57.39000 41.96500
C  3.37300 56.05800 41.48600
C  4.74600 58.73600 43.16000
C  1.61100 57.99400 41.29900
C  0.26300 57.49300 41.79600
N  4.32000 53.19700 41.22300
C  3.05400 53.52500 41.61500
C  2.39000 52.24800 42.00100
C  3.38900 51.21000 41.84200
C  4.47900 51.89500 41.33500
C  0.96100 52.18400 42.40500
C  3.63700 49.81100 41.94500
O  2.93700 48.89200 42.33300
C  5.07000 49.55600 41.29000
C  4.86300 48.70000 40.10800
O  4.25000 48.95900 39.06800
O  5.45200 47.47100 40.37300
C  5.38900 46.51500 39.27900
H  10.16300 53.77200 39.47700
H  6.36400 58.86500 40.69300
H  1.61300 55.09700 41.99200
H  7.98000 49.68500 40.72700
H  9.75500 51.51900 39.18400
H  11.14900 51.00700 40.73900
H  9.81900 50.40100 41.80900
H  10.47700 52.04600 41.84000
H  6.60600 49.88000 38.42100
H  7.93000 48.74200 38.61700
H  9.25500 50.51600 37.14400
H  7.97200 51.67300 37.49500
H  11.38100 55.42700 38.50700
H  11.47300 56.71100 39.71400
H  10.96500 56.99900 37.88300
H  8.62500 61.09900 39.31200
H  7.93300 60.35100 40.72100
H  7.20100 59.96500 39.12900
H  3.93700 59.21200 41.25200
H  2.60000 57.24600 43.01200
H  5.66700 58.22700 43.44300
H  3.95800 58.61300 43.90300
H  5.00300 59.79500 43.12400
H  1.73100 57.94800 40.21700
H  1.63700 59.03200 41.63100
H  -0.40100 58.28400 42.14500
H  0.37000 56.77300 42.60800
H  -0.27100 56.99300 40.98800
H  0.98100 52.37000 43.47900
H  0.61200 51.17300 42.19300
H  0.29500 52.87600 41.89100
H  5.82800 49.17600 41.97500
H  5.60200 45.57700 39.79300
H  6.05100 46.74900 38.44600
H  4.33900 46.43900 38.99900

