158

Mg 2.12400 -0.30200 43.89000
C  5.58800 0.39400 43.27500
C  1.37500 2.48800 42.08200
C  -1.12000 -1.07800 44.09300
C  2.99700 -3.51100 44.85300
N  3.35500 1.22200 42.86000
C  4.74500 1.34100 42.63200
C  5.12100 2.48000 41.74000
C  3.75300 3.28900 41.58100
C  2.75100 2.29800 42.30700
C  3.73700 4.68900 42.29600
C  5.65100 1.96500 40.32600
C  6.99000 2.37400 39.94700
H  7.04200 3.26000 38.71100
N  0.33400 0.59700 43.25600
C  0.28400 1.72400 42.50000
C  -1.06500 2.05500 42.25000
C  -1.84600 0.99600 42.80400
C  -0.89000 0.08500 43.35600
C  -1.45200 3.17200 41.28100
C  -3.37500 0.97100 42.66600
O  -3.87700 1.91800 42.10900
C  -4.27200 -0.08500 43.17700
N  1.14300 -1.94700 44.48700
C  -0.17400 -1.93800 44.60300
C  -0.58500 -3.32600 45.01900
C  0.59600 -4.19100 44.76100
C  1.67900 -3.13500 44.69700
C  -1.22000 -3.41500 46.44000
C  0.57000 -5.05600 43.42900
C  -0.18900 -6.46400 43.45500
N  3.87800 -1.28700 44.28000
C  4.08600 -2.59000 44.71000
C  5.45200 -2.78700 44.82900
C  6.10800 -1.57200 44.36300
C  5.05800 -0.77000 44.02100
C  6.04900 -4.00300 45.35600
C  7.42400 -0.99700 44.14000
O  8.56500 -1.44200 44.36900
C  7.17400 0.41500 43.47200
C  7.59600 1.43300 44.57000
O  7.20500 1.47600 45.72100
O  8.09800 2.57500 43.95200
C  8.16100 3.91400 44.62100
H  1.16100 3.45300 41.61900
H  -2.17200 -1.33900 44.22400
H  3.07900 -4.53600 45.22000
H  5.81400 3.14600 42.25500
H  3.46700 3.46500 40.54400
H  4.68100 5.09000 42.66600
H  3.10000 4.64800 43.18000
H  3.08200 5.43000 41.83800
H  4.83400 2.09900 39.61700
H  5.68600 0.89600 40.53700
H  7.56700 1.47300 39.73700
H  7.45200 3.00900 40.70300
H  -2.17600 2.83100 40.54000
H  -0.61400 3.63100 40.75600
H  -1.94700 3.92600 41.89300
H  -5.28900 0.22500 42.93700
H  -4.11200 0.10300 44.23900
H  -4.04200 -1.10500 42.86700
H  -1.45600 -3.55900 44.40700
H  0.76500 -4.94800 45.52700
H  -0.48100 -3.67300 47.20000
H  -2.03000 -4.13900 46.52900
H  -1.62000 -2.42400 46.65100
H  1.55800 -5.16900 42.98200
H  0.08400 -4.36700 42.73900
H  -0.26200 -6.73100 44.50900
H  0.45900 -7.18500 42.95600
H  -1.14400 -6.46600 42.93100
H  5.36500 -4.45300 46.07600
H  6.89800 -3.78900 46.00500
H  6.35000 -4.72500 44.59700
H  7.76000 0.58500 42.56900
H  9.03500 3.83000 45.26700
H  7.27500 4.09500 45.23000
H  8.22600 4.63400 43.80600
Mg 41.10200 7.34600 29.52400
C  42.75200 8.91800 32.19000
C  38.83700 6.05900 31.61300
C  39.87100 5.82400 26.80600
C  43.96300 8.25500 27.52500
N  40.87700 7.43700 31.64200
C  41.58500 8.22700 32.60500
C  40.95400 8.09400 33.98700
C  39.86600 6.96500 33.75600
C  39.91100 6.73700 32.24400
C  40.05500 5.68100 34.64700
C  40.34000 9.39100 34.51600
C  39.94400 9.35800 36.02000
H  40.31500 10.55600 36.98400
N  39.46900 6.23500 29.20600
C  38.64500 5.81400 30.19800
C  37.62100 4.98100 29.61600
C  37.75800 5.04400 28.21100
C  39.08300 5.67900 27.99600
C  36.59800 4.27300 30.51300
C  36.82700 4.52200 27.14300
O  36.98800 4.62800 25.95600
C  35.50500 3.91300 27.62000
N  41.82800 7.01400 27.45300
C  41.05400 6.45200 26.48800
C  41.75600 6.36400 25.12200
C  42.96200 7.31400 25.39000
C  42.95000 7.62800 26.87100
C  42.19200 4.91000 24.70100
C  42.82800 8.69800 24.51800
C  41.55600 9.56900 24.74000
N  42.96800 8.33500 29.81100
C  43.99200 8.67900 28.93100
C  45.09200 9.36500 29.55600
C  44.60600 9.58800 30.87300
C  43.38400 8.86900 30.94400
C  46.40500 9.63900 28.90900
C  44.84300 10.14600 32.17600
O  45.80500 10.87100 32.54800
C  43.56400 9.81000 33.11300
C  44.08300 9.07800 34.30800
O  44.67700 7.97300 34.31200
O  43.74100 9.83300 35.40800
C  44.06100 9.25500 36.70400
H  38.04100 5.78200 32.30800
H  39.34300 5.31500 25.99600
H  44.79100 8.45000 26.84000
H  41.64300 7.72900 34.74800
H  38.92900 7.47300 33.98400
H  41.04700 5.66900 35.09700
H  39.86700 4.76500 34.08600
H  39.30500 5.83500 35.42300
H  39.49600 9.68500 33.89200
H  41.01500 10.24500 34.46900
H  40.31300 8.44400 36.48300
H  38.88000 9.13300 36.09500
H  35.68600 4.86300 30.42000
H  36.85900 4.22800 31.57100
H  36.30300 3.27100 30.20200
H  35.60800 3.07200 28.30600
H  35.00300 3.45400 26.76900
H  34.88500 4.67200 28.09700
H  41.04500 6.83700 24.44400
H  43.86500 6.91500 24.92800
H  42.96400 4.95000 23.93200
H  41.34100 4.39500 24.25500
H  42.53300 4.32500 25.55500
H  42.86900 8.53200 23.44200
H  43.73300 9.13600 24.93800
H  40.90800 9.45300 23.87100
H  41.88100 10.58800 24.95000
H  41.02400 9.19300 25.61400
H  46.06200 9.80100 27.88700
H  47.12300 8.83800 29.08900
H  46.79900 10.56600 29.32600
H  43.08700 10.73900 33.42200
H  43.75900 8.20800 36.66200
H  43.44800 9.76500 37.44700
H  45.11500 9.39300 36.94900

