158

Mg 0.30100 8.36500 26.42500
C  0.86600 10.18300 29.50600
C  -0.06900 5.50000 28.37200
C  0.31000 6.73600 23.63100
C  1.23400 11.27400 24.80200
N  0.34600 7.96600 28.70300
C  0.56900 8.88300 29.72400
C  0.51600 8.11600 31.08800
C  0.46800 6.58000 30.62600
C  0.20300 6.64900 29.14200
C  1.71500 5.68100 30.99300
C  -0.66600 8.57300 32.00300
C  -0.47000 8.48300 33.58300
H  0.85900 7.89300 34.19400
N  0.08300 6.39100 26.04300
C  -0.00200 5.30900 26.88200
C  -0.03500 4.07300 26.09900
C  -0.08000 4.43900 24.75100
C  0.12400 5.89600 24.79100
C  -0.11400 2.68600 26.69800
C  -0.15600 3.59400 23.55500
O  -0.14400 4.07600 22.42400
C  -0.26300 2.09800 23.70800
N  0.43600 9.01900 24.46100
C  0.54100 8.10200 23.46400
C  0.69300 8.87600 22.13000
C  0.69700 10.37200 22.51600
C  0.91200 10.19600 24.03500
C  2.02200 8.43700 21.44000
C  -0.67900 11.06500 22.39700
C  -1.21200 11.23000 20.88800
N  0.89300 10.42100 26.97500
C  1.17100 11.42300 26.20500
C  1.43500 12.56200 27.00200
C  1.43600 12.06600 28.28400
C  0.97900 10.80900 28.27100
C  1.67700 13.93800 26.63900
C  1.66300 12.46600 29.68500
O  2.00100 13.54100 30.20000
C  1.24200 11.24000 30.50300
C  2.22900 10.86900 31.58800
O  3.27500 10.23000 31.46500
O  1.77800 11.35300 32.77300
C  2.70700 11.45100 33.91700
H  -0.02900 4.53900 28.88900
H  0.37800 6.21900 22.67100
H  1.48400 12.22100 24.31900
H  1.45500 8.33600 31.59500
H  -0.50700 6.20700 30.94200
H  2.41700 6.11400 31.70500
H  2.26700 5.42400 30.08900
H  1.44700 4.72900 31.45100
H  -1.48800 7.88900 31.79100
H  -0.94300 9.59600 31.75000
H  -1.25500 7.82300 33.95200
H  -0.67700 9.49700 33.92500
H  0.18800 2.65100 27.74500
H  0.49400 1.99200 26.11600
H  -1.16500 2.40500 26.63600
H  -0.64100 1.63100 22.79800
H  -1.00800 1.94200 24.48800
H  0.72900 1.74300 23.98700
H  -0.11100 8.77800 21.40100
H  1.48400 10.98000 22.07000
H  2.36700 7.67300 22.13600
H  2.73000 9.25600 21.31100
H  1.81400 7.92900 20.49800
H  -0.69500 12.06400 22.83300
H  -1.40100 10.44200 22.92400
H  -0.39400 11.08500 20.18300
H  -1.58700 12.24300 20.74500
H  -1.98100 10.50200 20.62900
H  1.90500 14.09000 25.58400
H  2.34300 14.39800 27.36800
H  0.71200 14.43600 26.73300
H  0.32400 11.55600 30.99700
H  2.93100 12.51100 34.04100
H  3.67600 11.04400 33.62900
H  2.34400 10.91700 34.79500
Mg 49.09600 34.87900 26.76800
C  47.25300 33.52900 29.53300
C  49.27800 37.84900 28.56200
C  50.35800 36.46800 23.96400
C  48.07800 32.25800 24.86300
N  48.63400 35.46100 28.96600
C  47.82400 34.75100 29.81500
C  47.78900 35.52300 31.12600
C  48.14800 37.00600 30.70900
C  48.76400 36.72900 29.33600
C  46.92900 38.00700 30.68000
C  48.66700 34.90500 32.29500
C  47.82800 34.84400 33.65300
H  47.26200 36.10500 34.26700
N  49.92000 36.79000 26.44000
C  49.88600 37.83000 27.31400
C  50.62300 38.94100 26.73500
C  51.00000 38.53000 25.42000
C  50.36300 37.18000 25.20800
C  51.13200 40.12100 27.59500
C  51.87400 39.20800 24.40000
O  52.17900 38.62700 23.35700
C  52.39500 40.61300 24.65700
N  49.17700 34.42600 24.71500
C  49.83300 35.18300 23.73800
C  49.85400 34.42600 22.36400
C  49.26100 32.98900 22.74700
C  48.81300 33.21800 24.16400
C  48.99500 35.24700 21.33700
C  50.26000 31.82900 22.76800
C  49.93900 30.58000 21.89900
N  47.93100 33.17700 27.07300
C  47.62300 32.18900 26.22700
C  46.79400 31.17500 26.79200
C  46.63400 31.65400 28.11900
C  47.30600 32.90000 28.22000
C  46.17600 29.91900 26.12100
C  46.01100 31.42800 29.45300
O  45.28700 30.50400 29.85900
C  46.36800 32.64300 30.35600
C  47.09100 32.05700 31.53800
O  48.27700 31.72900 31.60400
O  46.04200 31.66900 32.48400
C  46.44600 30.69100 33.47700
H  49.24500 38.86700 28.95500
H  50.77700 37.08300 23.16500
H  47.90500 31.32700 24.32000
H  46.77500 35.34200 31.48500
H  48.87200 37.40100 31.42200
H  46.05200 37.58900 31.17300
H  46.75000 38.28700 29.64200
H  47.12200 38.86600 31.32200
H  49.47000 35.62800 32.44200
H  49.13700 33.98400 31.95200
H  48.51800 34.42600 34.38500
H  47.00200 34.15100 33.49100
H  51.39600 39.79200 28.60000
H  50.47800 40.98000 27.44600
H  52.14400 40.34500 27.25700
H  52.61700 40.88700 23.62600
H  53.38200 40.49600 25.10500
H  51.71400 41.33300 25.11000
H  50.86500 34.37400 21.96000
H  48.34200 32.69400 22.24000
H  48.03100 34.81900 21.06300
H  49.65100 35.30000 20.46800
H  48.86500 36.25700 21.72700
H  50.46300 31.40500 23.75100
H  51.26900 32.10700 22.46200
H  49.43400 29.79600 22.46300
H  50.85700 30.13100 21.51900
H  49.40600 30.84000 20.98400
H  45.29700 29.65400 26.70900
H  46.89100 29.09800 26.07900
H  45.80600 30.06600 25.10600
H  45.49400 33.21300 30.67300
H  46.34300 29.72100 32.99000
H  45.68600 30.74600 34.25600
H  47.48300 30.87500 33.75500

