158

Mg 1.53500 -1.59600 43.86100
C  4.87100 -0.44300 43.61000
C  0.51700 1.04600 42.11900
C  -1.61400 -2.92100 44.05500
C  2.84300 -4.68000 44.86800
N  2.61900 0.04900 42.81700
C  3.95000 0.46200 43.05400
C  4.22000 1.93100 42.62000
C  2.81100 2.39200 42.03200
C  1.92700 1.07600 42.27600
C  2.26100 3.68900 42.54500
C  5.42200 2.34800 41.68700
C  5.78700 1.33500 40.58800
H  5.74700 1.90800 39.16900
N  -0.30800 -0.98800 43.18600
C  -0.48000 0.15900 42.50100
C  -1.94100 0.38100 42.30400
C  -2.55600 -0.77000 42.97400
C  -1.47600 -1.61000 43.43200
C  -2.61900 1.62800 41.74600
C  -4.06000 -0.93300 43.17700
O  -4.89900 -0.27000 42.48200
C  -4.61200 -1.91200 44.20900
N  0.72900 -3.52400 44.40000
C  -0.58000 -3.77900 44.53200
C  -0.86100 -5.17500 45.00000
C  0.58500 -5.83000 45.00200
C  1.48800 -4.59800 44.70200
C  -1.54900 -5.20900 46.36100
C  0.80900 -6.93400 43.88400
C  1.28300 -8.28500 44.50400
N  3.43600 -2.46900 44.25100
C  3.80900 -3.66500 44.75900
C  5.24700 -3.67500 45.00700
C  5.68000 -2.44800 44.56800
C  4.55400 -1.71600 44.07900
C  5.98100 -4.75900 45.55400
C  6.85700 -1.56200 44.46700
O  8.04600 -1.74200 44.74800
C  6.33500 -0.18800 43.92700
C  6.51400 0.84900 44.89600
O  5.76600 1.03000 45.88200
O  7.51000 1.65400 44.45300
C  7.63200 2.90500 45.29100
H  0.05100 1.93200 41.68400
H  -2.60800 -3.35500 44.17700
H  3.24200 -5.56700 45.36400
H  4.42300 2.49600 43.52900
H  2.91900 2.52000 40.95500
H  3.15300 4.24500 42.83400
H  1.64300 3.57000 43.43400
H  1.61000 4.19900 41.83500
H  6.29700 2.55900 42.30100
H  5.03100 3.26200 41.24000
H  5.17200 0.43800 40.65300
H  6.78000 0.95700 40.83200
H  -2.59300 1.47900 40.66600
H  -2.09800 2.53600 42.05000
H  -3.62200 1.83700 42.11800
H  -5.62100 -1.60200 44.48200
H  -4.01800 -1.98100 45.12000
H  -4.65500 -2.91700 43.78900
H  -1.45600 -5.69600 44.25100
H  0.82600 -6.24100 45.98200
H  -2.18300 -4.32800 46.46600
H  -0.88800 -5.33200 47.21900
H  -2.27000 -6.02300 46.28400
H  1.53200 -6.52400 43.17900
H  -0.08100 -7.22600 43.32600
H  0.57900 -9.06800 44.22200
H  1.47200 -8.34000 45.57600
H  2.22700 -8.54100 44.02300
H  6.70700 -4.44100 46.30200
H  6.53500 -5.27000 44.76600
H  5.28100 -5.47800 45.98100
H  6.90300 -0.09400 43.00100
H  6.63700 3.26700 45.54700
H  8.14600 3.61900 44.64800
H  8.27800 2.75000 46.15600
Mg 1.54000 41.83500 25.63000
C  2.57700 42.23400 29.02800
C  -1.56100 40.89400 26.88700
C  0.47800 41.63500 22.52700
C  4.75500 42.77500 24.57400
N  0.60000 41.76900 27.73900
C  1.21900 41.89000 28.94800
C  0.25000 41.74800 30.09600
C  -1.00900 40.99100 29.42000
C  -0.66400 41.17400 27.91400
C  -1.28700 39.47800 29.86500
C  0.00900 43.05300 30.77400
C  -0.74100 43.01600 32.13200
H  -1.47100 41.74600 32.60200
N  -0.33600 41.34100 24.80100
C  -1.48000 41.02500 25.49200
C  -2.40700 40.59200 24.50500
C  -1.93100 40.92100 23.24500
C  -0.58100 41.38200 23.48200
C  -3.82700 40.15500 24.84800
C  -2.54000 40.69400 21.83800
O  -2.03500 41.25900 20.85200
C  -3.81700 39.90500 21.67100
N  2.51200 42.06800 23.84000
C  1.85000 41.89700 22.68500
C  2.84100 42.05100 21.47800
C  4.19500 42.35800 22.19700
C  3.81300 42.51800 23.61300
C  2.71800 40.84900 20.50500
C  4.94500 43.56100 21.63600
C  5.02700 43.60500 20.13000
N  3.33000 42.39300 26.54600
C  4.56000 42.80800 25.98000
C  5.50500 43.06600 27.11200
C  4.82000 42.77000 28.27400
C  3.48800 42.42400 27.91300
C  6.94300 43.39100 26.99400
C  4.91900 42.65400 29.72300
O  5.87300 42.85100 30.48400
C  3.49000 42.23100 30.27700
C  3.57300 40.87600 30.91700
O  4.28200 39.95200 30.56300
O  2.65800 40.75000 31.95600
C  2.54100 39.41600 32.50600
H  -2.51000 40.48800 27.24200
H  0.17100 41.68700 21.48000
H  5.81500 42.93000 24.36200
H  0.58000 41.03300 30.85000
H  -1.87800 41.60300 29.66300
H  -1.31900 38.73100 29.07100
H  -2.25400 39.49300 30.36800
H  -0.57200 39.11400 30.60300
H  -0.57600 43.65000 30.07500
H  1.00700 43.48400 30.85100
H  -1.31200 43.94400 32.13100
H  0.14300 43.15400 32.75500
H  -4.58600 40.45000 24.12400
H  -4.21500 40.56800 25.77900
H  -3.79300 39.10000 25.11800
H  -3.81700 39.02900 22.32000
H  -3.84700 39.58200 20.63000
H  -4.71000 40.49100 21.88900
H  2.46000 42.84400 20.83400
H  4.86200 41.49700 22.22700
H  3.35500 40.03300 20.84500
H  2.89800 41.11500 19.46300
H  1.68700 40.49600 20.54700
H  5.94800 43.31800 21.98700
H  4.62800 44.51200 22.06500
H  4.71300 44.49900 19.59100
H  4.46900 42.79200 19.66500
H  6.06400 43.32600 19.94500
H  7.27600 43.30300 25.96000
H  7.55400 42.66700 27.53200
H  7.16200 44.33200 27.49800
H  3.07500 42.90700 31.02500
H  2.20600 38.64800 31.80900
H  1.83700 39.44300 33.33700
H  3.51000 39.15500 32.93300

