158

Mg -0.48500 7.69500 27.21100
C  -0.21500 10.15900 29.70200
C  0.07700 5.33800 29.68700
C  -0.55200 5.52400 24.77000
C  -0.55700 10.35800 24.78500
N  -0.13900 7.70400 29.47000
C  -0.31100 8.89000 30.21300
C  -0.48700 8.51900 31.66300
C  -0.02000 6.98800 31.74800
C  -0.07500 6.59600 30.24800
C  1.36700 6.71900 32.39100
C  -1.91200 8.81300 32.27200
C  -2.19200 8.53500 33.75700
H  -0.93000 8.31200 34.66800
N  -0.31100 5.73100 27.20000
C  -0.08700 4.90700 28.30800
C  0.02100 3.54000 27.80000
C  -0.25300 3.53300 26.40600
C  -0.43000 5.00600 26.05700
C  0.32000 2.33400 28.67200
C  -0.31500 2.36400 25.40900
O  -0.67300 2.64500 24.28300
C  -0.17500 0.97800 25.79300
N  -0.62600 7.94200 25.07100
C  -0.70000 6.88300 24.26200
C  -0.89500 7.32200 22.75200
C  -1.08500 8.87700 22.86200
C  -0.70000 9.06900 24.32700
C  0.15900 6.80300 21.74600
C  -2.47300 9.36500 22.57000
C  -2.62900 10.68500 21.85600
N  -0.26100 9.79100 27.16700
C  -0.39500 10.75500 26.14200
C  -0.20600 12.07600 26.73200
C  -0.03700 11.88700 28.08100
C  -0.09300 10.45700 28.34600
C  -0.26200 13.32200 25.94200
C  0.14300 12.57400 29.29300
O  0.30700 13.79800 29.58300
C  -0.03800 11.50000 30.42800
C  1.04800 11.49300 31.46300
O  2.13100 10.98800 31.25300
O  0.64100 12.04400 32.62600
C  1.62400 12.09400 33.70200
H  0.20100 4.47500 30.34500
H  -0.51200 4.95600 23.83800
H  -0.73900 11.19600 24.10900
H  0.12600 9.17700 32.27900
H  -0.84700 6.49900 32.26200
H  1.13000 6.14800 33.28900
H  1.75700 7.70900 32.62800
H  1.99100 6.19100 31.67000
H  -2.53200 8.13000 31.69100
H  -2.17900 9.87000 32.24100
H  -2.71700 7.58000 33.76900
H  -2.76800 9.33400 34.22500
H  -0.60700 1.76200 28.68600
H  0.69900 2.58100 29.66400
H  1.07100 1.74100 28.14800
H  0.73100 0.75200 26.35500
H  -0.04000 0.35900 24.90600
H  -1.05900 0.73500 26.38300
H  -1.82900 6.83400 22.47100
H  -0.33100 9.47300 22.34800
H  0.50900 7.36500 20.88000
H  -0.18100 5.81600 21.43400
H  1.04300 6.49600 22.30500
H  -2.95400 9.35500 23.54800
H  -2.95900 8.69100 21.86400
H  -1.67300 11.20400 21.78700
H  -3.35600 11.26500 22.42400
H  -3.01500 10.63200 20.83800
H  -1.27900 13.30700 25.55000
H  0.54200 13.50800 25.23100
H  -0.10100 13.99300 26.78600
H  -0.93000 11.76100 30.99800
H  1.03200 11.67900 34.51700
H  2.03400 13.07300 33.95000
H  2.42600 11.37400 33.54000
Mg 36.43200 49.14800 25.59700
C  36.93300 47.30800 28.27600
C  34.98800 51.52200 27.52400
C  35.54900 50.84700 22.73300
C  37.67400 46.60800 23.45000
N  35.93000 49.30600 27.65800
C  36.23700 48.49300 28.66100
C  35.79800 48.93400 29.96000
C  35.03100 50.26400 29.72600
C  35.33100 50.36100 28.22900
C  33.52800 50.30700 30.09800
C  37.03700 49.06400 30.90600
C  36.69700 48.64400 32.34700
H  35.21100 48.80100 32.83000
N  35.40000 50.94000 25.21200
C  34.93700 51.80600 26.12000
C  34.31400 52.96100 25.50100
C  34.47200 52.78800 24.08800
C  35.12500 51.43500 23.91700
C  33.79100 54.13200 26.38200
C  34.08100 53.78300 22.99100
O  34.29100 53.45400 21.84700
C  33.51000 55.10700 23.27700
N  36.48900 48.74400 23.36900
C  36.13800 49.62200 22.46100
C  36.47800 49.17100 21.06900
C  37.22900 47.79100 21.28100
C  37.11400 47.67500 22.76800
C  35.31000 49.20700 20.03300
C  38.62000 47.76400 20.67900
C  39.73800 48.57400 21.41000
N  37.05500 47.17000 25.71900
C  37.61100 46.27900 24.81800
C  38.08700 45.10400 25.55500
C  37.81800 45.45300 26.96000
C  37.20100 46.68700 26.99200
C  38.74000 43.92800 25.03100
C  37.87700 45.05400 28.32600
O  38.30700 43.98500 28.73800
C  37.26300 46.17000 29.24500
C  36.07700 45.56400 29.93300
O  34.98100 45.53800 29.48600
O  36.48700 45.02700 31.15100
C  35.43200 44.70500 32.11400
H  34.51600 52.22500 28.21300
H  35.28200 51.33400 21.79300
H  38.09200 45.82000 22.82000
H  35.15700 48.21500 30.47000
H  35.62100 51.02700 30.23300
H  33.09000 49.46000 30.62600
H  32.87700 50.52000 29.25000
H  33.48800 51.17000 30.76300
H  37.41500 50.08500 30.87500
H  37.84900 48.45200 30.51300
H  37.33500 49.29100 32.94900
H  37.09100 47.62800 32.35700
H  32.74600 54.34100 26.15200
H  34.36600 55.01400 26.10000
H  33.87500 54.14600 27.46900
H  32.53100 54.86800 23.69400
H  33.38600 55.61500 22.32100
H  34.13700 55.70500 23.93800
H  37.18200 49.89900 20.66600
H  36.61900 47.03700 20.78400
H  34.45100 49.47300 20.64900
H  35.13000 48.30600 19.44600
H  35.55600 49.98900 19.31400
H  38.62600 48.29200 19.72500
H  39.09100 46.78100 20.67600
H  39.82300 48.44500 22.48900
H  39.70800 49.63200 21.15000
H  40.67500 48.21400 20.98400
H  39.67400 43.88300 25.59100
H  38.93100 44.07500 23.96800
H  38.07400 43.09000 25.23800
H  37.93700 46.36500 30.07900
H  35.98600 44.45800 33.02000
H  34.95600 43.75900 31.85700
H  34.65300 45.42000 32.38000

