158

Mg 36.15600 49.56800 24.97500
C  36.13200 47.98500 28.16200
C  34.66900 52.25200 26.51200
C  35.50100 50.77900 21.93900
C  37.12800 46.52900 23.46100
N  35.25900 49.91400 27.08800
C  35.64100 49.27700 28.20700
C  35.38600 50.18400 29.47300
C  34.60500 51.36900 28.87200
C  34.77400 51.14000 27.36700
C  33.11700 51.45100 29.19400
C  36.75500 50.49800 30.16500
C  36.96000 49.88600 31.57800
H  35.64600 49.79200 32.44800
N  35.36300 51.32300 24.31500
C  34.92000 52.36300 25.11200
C  34.65800 53.51200 24.34200
C  34.90000 53.09400 23.00500
C  35.20300 51.64500 23.02100
C  34.10100 54.86500 24.77700
C  34.78000 53.92800 21.69400
O  34.76700 53.41200 20.60900
C  34.64500 55.41300 21.73500
N  36.24700 48.75100 22.92700
C  35.94000 49.48500 21.88300
C  36.46400 48.92300 20.58600
C  36.97500 47.47300 21.01900
C  36.70100 47.52400 22.58200
C  35.59000 48.87500 19.23400
C  38.44700 47.16800 20.67100
C  39.55400 47.85200 21.50300
N  36.58700 47.69100 25.60400
C  37.01000 46.55400 24.89300
C  37.31000 45.46600 25.85900
C  37.02900 46.01700 27.14500
C  36.58400 47.35700 26.94800
C  37.60400 43.99900 25.56500
C  37.05600 45.70100 28.55200
O  37.61200 44.78300 29.14000
C  36.35100 46.97100 29.29700
C  35.10000 46.45100 29.82700
O  33.93200 46.48400 29.48000
O  35.35700 45.86400 31.10300
C  34.19400 45.27400 31.80400
H  34.28300 53.16700 26.96400
H  35.32900 51.20600 20.94900
H  37.57000 45.60800 23.07600
H  34.78000 49.65800 30.21100
H  35.05000 52.34300 29.08000
H  32.69500 50.52300 29.58000
H  32.59900 51.80400 28.30300
H  33.04100 52.17000 30.00900
H  36.86300 51.57700 30.04900
H  37.54400 50.08500 29.53700
H  37.52700 50.64300 32.12000
H  37.54400 48.97800 31.72700
H  34.81000 55.69100 24.72100
H  33.80000 54.76700 25.82100
H  33.19400 54.95800 24.17900
H  33.60700 55.67400 21.94200
H  34.88500 55.78300 20.73800
H  35.50900 55.80600 22.27300
H  37.29200 49.62200 20.47400
H  36.23600 46.73000 20.71800
H  35.49300 47.87900 18.80300
H  36.13100 49.35900 18.42100
H  34.62800 49.38700 19.26500
H  38.67100 47.51000 19.66100
H  38.62700 46.10200 20.81100
H  39.02600 48.37600 22.30000
H  40.01400 48.60800 20.86600
H  40.29400 47.21000 21.98000
H  38.61800 43.96100 25.16700
H  36.93800 43.66300 24.77100
H  37.41900 43.47100 26.50100
H  36.82500 47.34600 30.20400
H  34.66500 44.87100 32.70100
H  33.76000 44.42200 31.28100
H  33.47000 46.06900 31.98000
Mg 17.03600 52.81600 27.10400
C  18.86500 50.85800 29.46000
C  14.63800 53.34900 29.58900
C  14.85800 53.74100 24.70100
C  19.19800 51.49100 24.64000
N  16.70200 52.04200 29.20200
C  17.68900 51.45300 29.96100
C  17.48700 51.68600 31.46300
C  15.93900 52.18700 31.51800
C  15.65200 52.51100 29.99400
C  14.88100 51.16600 31.92900
C  18.53200 52.81700 31.98000
C  19.33000 52.38200 33.22600
H  18.51900 51.56200 34.23500
N  15.12400 53.66600 27.16900
C  14.29200 53.75900 28.30100
C  13.06600 54.46900 27.87500
C  13.11500 54.61700 26.45900
C  14.38400 53.93400 26.06400
C  11.95100 54.78100 28.85900
C  12.07600 55.26600 25.53700
O  12.20800 55.14700 24.32800
C  10.97500 55.99000 26.10700
N  16.94400 52.44300 24.97700
C  15.97600 53.10000 24.18200
C  16.33400 53.15700 22.71400
C  17.81700 52.61200 22.73900
C  18.07900 52.25200 24.21900
C  15.16100 52.30400 22.05000
C  18.82800 53.68300 22.32100
C  19.66300 53.34200 21.11900
N  18.78000 51.54900 27.05300
C  19.50600 51.09600 25.97900
C  20.56300 50.26600 26.36400
C  20.45500 50.20800 27.73900
C  19.25800 50.92300 28.06900
C  21.68400 49.56000 25.61400
C  21.04200 49.64800 28.98900
O  22.01300 48.92600 29.18800
C  20.10400 50.22300 30.12100
C  19.79900 49.10800 31.09300
O  18.86300 48.30600 31.00300
O  20.71400 49.21400 32.11900
C  20.56600 48.22500 33.20600
H  13.87100 53.51700 30.34800
H  14.30600 54.09700 23.82900
H  19.92700 51.01900 23.97700
H  17.72300 50.78700 32.03200
H  15.86100 53.07500 32.14500
H  14.30300 51.42900 32.81500
H  15.20900 50.14200 32.10800
H  14.08800 51.01700 31.19600
H  18.04700 53.76200 32.22500
H  19.22300 52.84700 31.13700
H  19.77200 53.12200 33.89300
H  20.13000 51.71700 32.90200
H  11.78700 55.83000 28.61100
H  12.17000 54.68000 29.92200
H  10.97800 54.32600 28.67300
H  10.42300 55.41000 26.84700
H  10.28100 56.19100 25.29200
H  11.40700 56.86200 26.59800
H  16.18900 54.20100 22.43400
H  17.97700 51.67700 22.20300
H  14.79000 51.56100 22.75600
H  15.48400 51.81800 21.13000
H  14.27900 52.91700 21.86400
H  19.66300 53.77600 23.01600
H  18.40800 54.67300 22.14700
H  20.71400 53.25100 21.39200
H  19.65800 54.02300 20.26700
H  19.33700 52.40800 20.66000
H  21.48800 49.41300 24.55200
H  22.03300 48.75600 26.26100
H  22.46400 50.31400 25.72100
H  20.68800 51.00600 30.60500
H  19.55900 48.28100 33.61800
H  21.30700 48.50100 33.95600
H  20.60600 47.19200 32.86000

