158

Mg 17.27500 -3.12000 27.75500
C  16.55300 -1.02100 30.60700
C  19.22700 -5.01600 29.75900
C  18.46000 -4.50600 24.96800
C  15.39200 -0.82100 25.68200
N  17.88700 -2.89000 29.88400
C  17.38900 -2.10800 30.87600
C  17.81400 -2.57600 32.25000
C  18.92800 -3.64000 31.89100
C  18.66300 -3.89800 30.42400
C  20.44700 -3.37200 32.26900
C  16.69000 -3.11500 33.22900
C  16.62600 -2.51700 34.63400
H  17.91700 -1.96800 35.31300
N  18.52100 -4.64500 27.41600
C  19.19500 -5.34500 28.37800
C  19.88600 -6.49600 27.77400
C  19.61100 -6.30200 26.35800
C  18.75200 -5.13100 26.19800
C  20.62500 -7.49400 28.56100
C  20.02000 -7.17200 25.19700
O  19.73800 -6.99400 24.03500
C  20.77100 -8.44300 25.56900
N  16.82700 -2.83500 25.63500
C  17.56300 -3.49400 24.70100
C  17.47300 -2.81100 23.32700
C  16.23500 -1.84900 23.59800
C  16.12300 -1.79100 25.07600
C  18.67000 -2.08100 22.77800
C  14.90400 -2.38800 22.96300
C  13.91300 -1.31900 22.46600
N  16.22300 -1.32600 28.02800
C  15.40700 -0.56700 27.12400
C  14.77300 0.47500 27.85100
C  15.21000 0.31200 29.15800
C  16.10900 -0.76500 29.26100
C  13.78500 1.38600 27.23900
C  15.13600 0.87800 30.42300
O  14.47300 1.82400 30.74600
C  15.94700 0.03100 31.47900
C  16.85800 0.95100 32.27100
O  18.07800 1.08500 32.23700
O  15.98500 1.57400 33.13100
C  16.60800 2.54400 34.02500
H  19.66800 -5.78300 30.39900
H  18.97800 -4.78300 24.04700
H  14.88400 -0.16200 24.97500
H  18.38100 -1.72200 32.62200
H  18.75000 -4.63000 32.31100
H  20.93500 -4.29900 32.57200
H  20.69200 -2.70300 33.09400
H  21.10100 -3.17600 31.41900
H  16.76000 -4.20000 33.30900
H  15.75200 -2.90300 32.71500
H  16.29900 -3.26800 35.35300
H  15.87500 -1.74200 34.48000
H  21.51400 -7.85500 28.04400
H  19.84400 -8.21700 28.79600
H  21.02400 -7.05000 29.47400
H  20.40900 -9.05000 26.40000
H  21.80800 -8.14900 25.73500
H  20.72300 -9.09600 24.69800
H  17.28100 -3.46600 22.47800
H  16.48800 -0.89500 23.13500
H  18.65200 -1.02600 23.05200
H  18.74100 -2.08500 21.69100
H  19.52700 -2.62200 23.18000
H  14.32800 -2.95400 23.69500
H  15.13800 -3.01300 22.10100
H  13.50200 -1.51300 21.47500
H  14.28600 -0.29500 22.46200
H  13.14500 -1.29500 23.23900
H  12.94500 0.77600 26.90600
H  14.17100 1.83900 26.32500
H  13.54900 2.23100 27.88600
H  15.22500 -0.45800 32.13300
H  16.95300 3.40000 33.44500
H  17.51300 2.16000 34.49700
H  15.93400 2.72600 34.86300
Mg -8.78700 40.30200 43.07100
C  -8.03300 37.00700 41.79900
C  -5.83300 41.39300 41.62000
C  -9.86500 43.53600 43.51600
C  -11.75800 39.14400 44.30500
N  -7.21800 39.29600 41.69700
C  -7.11200 37.99100 41.37600
C  -5.75100 37.69200 40.71700
C  -5.02700 39.04700 40.89200
C  -6.09000 40.02100 41.40500
C  -3.78400 39.04800 41.81900
C  -5.81700 37.25700 39.16300
C  -5.18600 35.93600 38.80900
H  -3.98700 36.21100 37.85700
N  -7.97500 42.20200 42.69600
C  -6.69200 42.43500 42.06400
C  -6.48800 43.90800 42.03500
C  -7.60700 44.53800 42.60800
C  -8.59200 43.44300 42.94900
C  -5.20800 44.62700 41.46000
C  -7.83000 45.96200 42.76800
O  -7.00900 46.72600 42.21700
C  -8.90700 46.63400 43.62700
N  -10.57400 41.24800 43.70000
C  -10.73000 42.54100 43.92500
C  -12.02200 42.78100 44.60200
C  -12.74800 41.38200 44.77200
C  -11.61800 40.52400 44.27400
C  -11.88700 43.50900 45.99200
C  -14.14400 41.20200 44.07100
C  -15.22200 40.90700 45.08900
N  -9.68300 38.49200 43.15000
C  -10.88400 38.14800 43.80200
C  -11.12100 36.69800 43.72700
C  -10.00600 36.22500 42.98000
C  -9.22900 37.35700 42.57400
C  -12.27200 35.92600 44.19000
C  -9.49800 35.05100 42.34400
O  -9.82800 33.88000 42.54800
C  -8.19500 35.46200 41.61800
C  -7.03100 34.69700 42.06100
O  -6.46400 34.79800 43.12900
O  -6.84700 33.76400 41.08400
C  -5.61300 32.93800 41.31800
H  -4.83600 41.72600 41.32500
H  -10.20100 44.54300 43.77000
H  -12.66300 38.80100 44.81100
H  -5.26100 36.90300 41.28700
H  -4.69900 39.35700 39.89900
H  -4.08800 39.40400 42.80300
H  -3.01500 39.74800 41.49400
H  -3.48800 38.00000 41.85500
H  -5.33900 38.06000 38.60200
H  -6.88400 37.20400 38.94500
H  -5.86100 35.22500 38.33200
H  -4.71100 35.49900 39.68700
H  -5.42100 45.06400 40.48400
H  -4.40400 43.89100 41.44100
H  -4.80300 45.40100 42.11200
H  -8.65300 47.69100 43.69600
H  -9.08100 46.13900 44.58300
H  -9.85600 46.56300 43.09500
H  -12.64400 43.45900 44.01700
H  -12.77100 41.05900 45.81300
H  -10.84300 43.72300 46.21700
H  -12.20900 42.84500 46.79500
H  -12.39300 44.47400 46.01900
H  -14.21800 40.51400 43.22900
H  -14.40800 42.14200 43.58700
H  -15.47900 41.67600 45.81800
H  -14.86600 40.04300 45.65000
H  -16.15700 40.52600 44.67600
H  -13.16300 36.55500 44.20700
H  -12.11700 35.32800 45.08800
H  -12.33600 35.18400 43.39400
H  -8.37000 35.25200 40.56300
H  -4.80100 33.66500 41.33400
H  -5.40700 32.46000 40.36000
H  -5.64400 32.33200 42.22300

