158

Mg -1.84400 17.41700 26.71400
C  -2.26700 15.16300 29.53900
C  -2.51200 19.92500 29.01200
C  -1.65900 19.38700 24.32000
C  -1.77600 14.59600 24.69100
N  -2.56400 17.48400 28.99500
C  -2.54500 16.46500 29.93700
C  -2.75900 17.01500 31.36800
C  -2.96200 18.57000 31.13200
C  -2.68700 18.69900 29.60400
C  -4.37100 19.00400 31.60500
C  -1.54300 16.67200 32.31300
C  -1.52900 17.43800 33.64200
H  -1.44100 16.67800 34.98300
N  -1.94300 19.38100 26.67800
C  -2.19600 20.26500 27.67900
C  -2.06800 21.65100 27.15800
C  -1.85300 21.52400 25.76500
C  -1.82800 20.04700 25.48300
C  -2.22000 22.86900 28.05400
C  -1.63200 22.58700 24.67600
O  -1.57900 22.32400 23.49400
C  -1.48900 23.98600 25.05200
N  -1.54900 17.04800 24.71200
C  -1.56200 18.07900 23.89000
C  -1.20500 17.67300 22.41700
C  -1.01000 16.11700 22.60500
C  -1.43100 15.86100 24.07700
C  -2.31300 18.00900 21.31700
C  0.39500 15.56000 22.27900
C  1.47000 15.38100 23.40900
N  -1.88900 15.37700 26.97600
C  -1.87600 14.33600 26.04500
C  -2.05600 13.04200 26.62300
C  -2.17600 13.34300 27.99100
C  -2.02600 14.75400 28.19100
C  -2.15200 11.68400 26.04600
C  -2.25500 12.73600 29.29500
O  -2.34800 11.54600 29.59400
C  -2.29000 13.83200 30.29700
C  -1.00600 13.64100 31.15200
O  -0.05100 14.31300 30.86900
O  -1.09900 12.73500 32.15900
C  -0.11400 12.81700 33.24100
H  -2.34900 20.74400 29.71500
H  -1.54500 19.98900 23.41600
H  -1.89700 13.71400 24.05800
H  -3.61300 16.54400 31.85500
H  -2.24300 19.17800 31.68100
H  -4.99600 18.12200 31.74000
H  -4.83100 19.69300 30.89700
H  -4.36800 19.63100 32.49700
H  -0.62000 16.98200 31.82100
H  -1.53700 15.60600 32.53900
H  -2.50200 17.92500 33.56700
H  -0.81800 18.26300 33.62800
H  -1.20300 23.14200 28.33500
H  -2.93500 22.63700 28.84300
H  -2.79300 23.60200 27.48600
H  -2.43000 24.40300 25.41200
H  -1.12700 24.48500 24.15400
H  -0.71500 24.13800 25.80500
H  -0.32900 18.11700 21.94500
H  -1.66500 15.59100 21.91100
H  -3.10300 17.26800 21.44200
H  -1.93500 17.90500 20.30000
H  -2.81600 18.97100 21.42200
H  0.76200 16.21100 21.48500
H  0.25200 14.63800 21.71500
H  0.98800 15.22500 24.37400
H  2.29800 16.07900 23.53800
H  1.96800 14.45700 23.11700
H  -1.48900 11.63100 25.18300
H  -3.15800 11.58000 25.63800
H  -1.83500 10.96700 26.80400
H  -3.11700 13.64500 30.98200
H  0.86600 13.23600 33.01200
H  0.10400 11.80400 33.57900
H  -0.51600 13.47100 34.01500
Mg 1.56900 42.28500 25.23500
C  2.96600 42.19200 28.52400
C  -1.43000 41.07300 26.61200
C  0.37700 41.79600 22.06400
C  4.62000 43.14900 23.96200
N  0.86200 41.69500 27.30000
C  1.53300 41.88100 28.46700
C  0.60900 41.62300 29.71900
C  -0.66500 40.97600 29.02500
C  -0.37500 41.13500 27.53400
C  -1.04300 39.54800 29.52100
C  0.35900 43.02400 30.48800
C  0.27800 42.99200 32.05500
H  0.09200 41.67500 32.80800
N  -0.29900 41.65700 24.44600
C  -1.39500 41.30900 25.18300
C  -2.44900 40.93300 24.28900
C  -2.04700 41.05600 22.97400
C  -0.61000 41.56500 23.06900
C  -3.78400 40.41100 24.80000
C  -2.74000 40.74000 21.68900
O  -2.18300 40.84100 20.55100
C  -4.23400 40.27800 21.77300
N  2.42300 42.53300 23.21200
C  1.74400 42.21500 22.08200
C  2.61100 42.60500 20.86200
C  3.92900 43.22700 21.46000
C  3.68400 42.96800 22.99000
C  2.93200 41.31400 20.08200
C  4.23400 44.66200 20.99300
C  4.42000 44.85300 19.48400
N  3.40600 42.62400 25.99900
C  4.58700 42.87900 25.31300
C  5.68200 42.96000 26.25100
C  5.07100 42.81400 27.52200
C  3.71600 42.49000 27.33100
C  7.16000 43.28100 25.90900
C  5.30300 42.71200 28.95000
O  6.37400 42.68000 29.56500
C  3.97000 42.34800 29.68600
C  4.29800 41.01300 30.35300
O  4.42100 39.92800 29.78500
O  4.28900 41.18800 31.71400
C  4.14600 40.06900 32.63400
H  -2.37300 40.92500 27.14200
H  0.05600 41.55300 21.04900
H  5.61800 43.44300 23.62800
H  0.92200 40.86500 30.43700
H  -1.47900 41.68500 29.17700
H  -0.92000 38.96600 28.60800
H  -2.09900 39.66800 29.76600
H  -0.46900 39.08000 30.32100
H  -0.51300 43.60100 30.17800
H  1.22500 43.63200 30.22600
H  -0.47200 43.70500 32.39900
H  1.19900 43.37600 32.49200
H  -4.69300 40.86900 24.41200
H  -3.85400 40.50300 25.88400
H  -3.82500 39.32700 24.69200
H  -4.26000 39.36500 22.36700
H  -4.43800 40.01900 20.73400
H  -4.91700 41.07500 22.06700
H  1.98700 43.20800 20.20200
H  4.86400 42.76400 21.14400
H  2.79100 40.42100 20.69200
H  3.94900 41.29500 19.69000
H  2.30900 41.08600 19.21800
H  5.16700 45.01100 21.43400
H  3.51800 45.34500 21.45100
H  4.64200 44.00400 18.83800
H  5.36300 45.38700 19.36400
H  3.52300 45.31400 19.07000
H  7.18000 44.32100 25.58400
H  7.24400 42.61000 25.05300
H  7.80900 43.00500 26.74000
H  3.57100 42.93300 30.51400
H  5.13900 39.85200 33.02800
H  3.82100 39.23000 32.01900
H  3.52500 40.33800 33.48800

