158

Mg -1.93100 17.51100 27.32100
C  -2.10300 15.47900 30.18000
C  -2.39700 20.24500 29.34200
C  -2.00300 19.36200 24.52200
C  -2.09900 14.61600 25.42200
N  -2.21300 17.79800 29.49500
C  -2.14800 16.83800 30.41600
C  -2.27500 17.46000 31.82000
C  -2.78300 18.94300 31.52200
C  -2.38400 19.04200 30.00400
C  -4.28900 19.15800 31.82400
C  -0.93900 17.45200 32.63300
C  -1.12500 16.83900 34.07200
H  -0.07500 17.16700 35.19100
N  -1.94800 19.47900 26.98500
C  -2.12900 20.43100 27.96600
C  -2.20200 21.69400 27.34200
C  -2.02300 21.52600 25.96800
C  -2.02700 20.02400 25.73400
C  -2.21300 23.01300 28.08100
C  -1.83300 22.54000 24.88200
O  -1.67500 22.22400 23.70400
C  -1.72100 23.98500 25.18600
N  -1.93200 17.02700 25.23000
C  -1.95700 18.00800 24.29600
C  -1.86000 17.30200 22.85800
C  -1.64300 15.82900 23.12700
C  -1.93300 15.78700 24.68300
C  -2.94900 17.60100 21.85100
C  -0.25600 15.20400 22.80400
C  1.08100 15.92900 23.08600
N  -2.19600 15.44500 27.71900
C  -2.27000 14.42400 26.80800
C  -2.25000 13.16900 27.51900
C  -2.17900 13.52100 28.87000
C  -2.10000 14.93500 28.91200
C  -2.23100 11.79100 26.93500
C  -2.11000 13.04300 30.22600
O  -2.14000 11.90800 30.69400
C  -2.12500 14.31800 31.12200
C  -0.86900 14.16000 31.90700
O  0.22400 14.55400 31.46800
O  -1.00500 13.56000 33.13900
C  0.18900 13.35500 33.94000
H  -2.42200 21.05900 30.07000
H  -1.96600 19.91100 23.57900
H  -1.93600 13.74700 24.78100
H  -2.97600 16.83800 32.37600
H  -2.19100 19.68900 32.05300
H  -4.59400 18.44800 32.59300
H  -4.79000 19.13300 30.85700
H  -4.35100 20.16000 32.25000
H  -0.46400 18.41900 32.79900
H  -0.17300 16.93800 32.05200
H  -1.26400 15.75800 34.07200
H  -2.00900 17.26100 34.55000
H  -3.10100 23.54500 27.74100
H  -1.35700 23.60800 27.76200
H  -2.13000 23.01800 29.16700
H  -0.79600 24.10700 25.74900
H  -2.56500 24.30700 25.79600
H  -1.67000 24.46300 24.20700
H  -0.91400 17.67200 22.46300
H  -2.37400 15.21500 22.60100
H  -3.68800 18.27800 22.28000
H  -3.56200 16.71200 21.70100
H  -2.59600 18.07400 20.93400
H  -0.25500 14.92800 21.75000
H  -0.28500 14.25600 23.34100
H  1.77500 15.25200 23.58300
H  1.02200 16.86400 23.64400
H  1.63400 16.05600 22.15500
H  -1.45800 11.72100 26.16900
H  -3.20200 11.47500 26.55500
H  -1.84900 11.13700 27.71900
H  -2.93300 14.36900 31.85200
H  -0.20300 12.71500 34.73100
H  0.69100 14.26200 34.27700
H  0.88700 12.77700 33.33600
Mg -10.87100 16.83500 41.33800
C  -7.58300 15.52000 41.02900
C  -9.67400 19.96300 40.75200
C  -14.04200 17.74400 40.99800
C  -11.90000 13.39600 41.64700
N  -8.83900 17.60900 40.83600
C  -7.63100 16.92600 40.87100
C  -6.49900 17.92700 40.58400
C  -7.14800 19.31200 40.81800
C  -8.60900 18.97500 40.81100
C  -6.68100 20.06600 42.04500
C  -5.81700 17.79100 39.06500
C  -4.29000 17.52000 39.00800
H  -3.78200 16.31600 38.17400
N  -11.77800 18.62800 40.94400
C  -11.15100 19.82300 40.70900
C  -12.13200 20.85300 40.49700
C  -13.40700 20.24200 40.62300
C  -13.14100 18.80100 40.81400
C  -11.79500 22.26400 40.14100
C  -14.80300 20.96800 40.45500
O  -14.79100 22.16500 40.21200
C  -16.17500 20.30000 40.55000
N  -12.67500 15.70300 41.30700
C  -13.86400 16.34000 41.13800
C  -15.07400 15.36100 41.31900
C  -14.30600 13.98300 41.50900
C  -12.83900 14.36400 41.53500
C  -16.11800 15.69500 42.45300
C  -14.74300 12.83500 40.55500
C  -14.98800 11.55100 41.35200
N  -10.01400 14.82300 41.41500
C  -10.54300 13.53700 41.58700
C  -9.53900 12.59800 41.63600
C  -8.29900 13.30500 41.48800
C  -8.67000 14.66300 41.24300
C  -9.80500 11.12300 41.89200
C  -6.89000 13.15800 41.53200
O  -6.24200 12.15500 41.78900
C  -6.39900 14.53000 41.09000
C  -5.37000 14.89700 42.00000
O  -5.45100 15.49400 43.05900
O  -4.16900 14.42600 41.45500
C  -2.98500 14.55700 42.32500
H  -9.33100 20.99800 40.69000
H  -15.03700 18.19200 40.95600
H  -12.17400 12.42600 42.06600
H  -5.65200 17.73800 41.24300
H  -6.98500 20.00000 39.98800
H  -5.68400 19.77700 42.37800
H  -7.36100 19.73100 42.82800
H  -6.71100 21.13700 41.84400
H  -6.09500 18.71900 38.56400
H  -6.26200 16.92800 38.57000
H  -3.87600 17.36800 40.00500
H  -3.78700 18.42000 38.65400
H  -12.17500 22.46800 39.14000
H  -10.73400 22.48600 40.02200
H  -12.14800 22.94400 40.91600
H  -16.14400 19.43700 39.88600
H  -17.02300 20.94900 40.32900
H  -16.26800 19.99600 41.59200
H  -15.67800 15.47400 40.41900
H  -14.48200 13.61100 42.51800
H  -16.12900 15.03200 43.31800
H  -17.09500 15.77000 41.97600
H  -15.84000 16.73200 42.64400
H  -13.94500 12.70000 39.82500
H  -15.65700 13.21500 40.09800
H  -15.84100 11.79000 41.98800
H  -14.15300 11.50100 42.05100
H  -15.09900 10.55300 40.93000
H  -10.58400 10.78600 41.20900
H  -10.04600 10.76400 42.89200
H  -8.93000 10.56700 41.55700
H  -5.89700 14.56400 40.12300
H  -2.57800 15.56700 42.38100
H  -2.18100 13.92100 41.95600
H  -3.17400 14.18400 43.33200

