158

Mg 29.07700 57.86500 40.54700
C  26.39400 55.98300 39.59500
C  31.16200 55.75800 38.81200
C  31.45500 60.25300 40.60700
C  26.76300 60.33100 41.79700
N  28.75400 56.30900 39.06600
C  27.56700 55.56000 38.97200
C  27.72500 54.48100 37.91000
C  29.26300 54.20700 38.01800
C  29.83600 55.44100 38.71000
C  29.77300 52.88400 38.74600
C  27.14100 54.84300 36.59400
C  27.76800 56.06000 35.87200
H  27.88900 56.00600 34.33900
N  31.04900 57.90400 39.95200
C  31.72700 56.94800 39.31600
C  33.13300 57.18100 39.31600
C  33.25900 58.46600 39.94400
C  31.89200 58.97900 40.17500
C  34.21200 56.25900 38.78100
C  34.53900 59.11500 40.21100
O  35.56500 58.72500 39.78200
C  34.58200 60.24500 41.13900
N  29.08500 60.02000 41.07400
C  30.18200 60.76300 40.95400
C  30.02500 62.15200 41.53800
C  28.55000 62.10500 42.13700
C  28.07900 60.71800 41.68000
C  31.09600 62.53900 42.66200
C  27.67400 63.38900 41.81000
C  26.73200 63.78300 42.92100
N  27.00800 58.04100 40.83200
C  26.20300 59.08700 41.34200
C  24.88400 58.57900 41.39800
C  24.87500 57.41700 40.68100
C  26.19900 57.15100 40.33400
C  23.71900 59.21900 42.13400
C  24.08300 56.23500 40.21900
O  22.90900 55.97000 40.44000
C  25.09100 55.32300 39.34500
C  25.16100 54.00800 39.99700
O  25.45400 53.84600 41.19500
O  24.80800 53.06300 39.11400
C  24.70400 51.66700 39.61200
H  31.78900 54.93900 38.45300
H  32.32000 60.90700 40.73400
H  26.10000 61.13200 42.12900
H  27.19400 53.63400 38.34500
H  29.59300 54.16800 36.97900
H  30.42400 53.10400 39.59200
H  30.28400 52.22900 38.04000
H  28.99300 52.24100 39.15200
H  26.06900 54.99200 36.71600
H  27.28600 53.89500 36.07700
H  28.78700 56.15900 36.24600
H  27.26100 56.93400 36.27900
H  33.90500 55.21400 38.71900
H  35.12700 56.25900 39.37300
H  34.40900 56.63800 37.77800
H  34.48600 61.17100 40.57100
H  35.61600 60.17100 41.47600
H  33.91500 60.14800 41.99500
H  30.09000 62.79500 40.66000
H  28.65400 61.98800 43.21500
H  30.52700 62.63300 43.58700
H  31.63800 63.46200 42.45600
H  31.81000 61.71800 42.73000
H  27.10700 63.10600 40.92300
H  28.39100 64.16200 41.53400
H  26.88000 64.80400 43.27500
H  26.86300 63.19400 43.82900
H  25.68200 63.77500 42.62900
H  23.03400 58.40800 42.38400
H  23.25700 59.88000 41.40200
H  24.17400 59.75600 42.96600
H  24.73100 55.30400 38.31700
H  25.68200 51.26500 39.87300
H  24.32200 50.91900 38.91800
H  24.21500 51.65800 40.58700
Mg 1.53200 41.99100 25.01500
C  2.90300 42.09100 28.21400
C  -1.44500 41.34700 26.55500
C  0.29600 41.56400 21.99200
C  4.74300 42.62600 23.68200
N  0.83900 41.70000 27.18300
C  1.52800 41.85200 28.31400
C  0.66800 41.93100 29.51600
C  -0.67100 41.35300 28.92800
C  -0.43300 41.50100 27.44200
C  -1.21500 39.96900 29.34700
C  0.44200 43.29300 30.15500
C  1.20800 43.54700 31.44700
H  0.29700 43.62200 32.72400
N  -0.24300 41.57400 24.35900
C  -1.42100 41.37600 25.17100
C  -2.52600 41.07000 24.30500
C  -2.11800 41.29900 22.99000
C  -0.60200 41.47000 23.06000
C  -3.92900 40.77700 24.78000
C  -2.95600 41.30200 21.70600
O  -2.53200 41.47500 20.58700
C  -4.43000 41.21400 21.72700
N  2.44800 41.96500 23.11900
C  1.67600 41.83200 22.00700
C  2.36600 42.20100 20.76700
C  3.72300 42.82100 21.34500
C  3.66700 42.40500 22.78600
C  2.62900 40.99600 19.85200
C  3.80200 44.33200 21.15100
C  4.56600 44.79900 19.84900
N  3.51100 42.29700 25.76600
C  4.67000 42.58400 25.09000
C  5.77600 42.75500 26.06400
C  5.08100 42.52400 27.28100
C  3.72200 42.22100 27.05900
C  7.18700 43.04100 25.52400
C  5.35100 42.57700 28.71400
O  6.33600 42.76600 29.43000
C  3.94900 42.27100 29.31200
C  4.08500 40.96400 30.05500
O  4.64700 39.96700 29.56800
O  3.49900 41.01400 31.26700
C  3.14200 39.76900 31.94400
H  -2.45900 41.28800 26.95500
H  -0.18300 41.55200 21.01000
H  5.68100 42.83800 23.16400
H  1.08200 41.22200 30.23400
H  -1.48900 42.02700 29.18400
H  -1.07600 39.16100 28.62900
H  -2.27200 39.99400 29.61300
H  -0.75400 39.58700 30.25800
H  -0.58400 43.53700 30.43300
H  0.67000 44.10900 29.46900
H  1.87000 44.40000 31.30000
H  1.84800 42.70600 31.71400
H  -4.16500 39.85300 24.25300
H  -4.67000 41.54200 24.54700
H  -4.04900 40.74200 25.86200
H  -4.91400 41.41800 20.77200
H  -4.77600 41.99900 22.40000
H  -4.65300 40.24000 22.16200
H  1.84100 43.04800 20.32600
H  4.63200 42.37000 20.94900
H  1.87100 40.23100 20.02000
H  3.63700 40.60100 19.97800
H  2.46500 41.20100 18.79400
H  4.60800 44.58200 21.84100
H  2.88000 44.84300 21.42900
H  5.36900 45.45600 20.18300
H  3.88200 45.35700 19.21000
H  4.97000 43.97700 19.25900
H  7.64900 43.93200 25.94900
H  7.12200 43.16000 24.44200
H  7.84500 42.17700 25.62400
H  3.63100 43.02900 30.02700
H  3.57400 39.65100 32.93800
H  3.20900 38.87700 31.32100
H  2.09400 40.01300 32.11800

