158

Mg 25.82000 0.89300 29.44000
C  27.69000 0.39800 32.35800
C  23.16200 1.45300 31.40300
C  24.08700 1.06100 26.63100
C  28.66900 -0.07300 27.62800
N  25.38800 0.70100 31.68800
C  26.35700 0.53700 32.68200
C  25.73500 0.79700 34.07300
C  24.27700 1.14800 33.67000
C  24.28300 1.14100 32.18000
C  23.18300 0.22100 34.30800
C  26.49600 1.91600 34.92200
C  27.04200 1.62700 36.34100
H  26.92500 2.70600 37.47800
N  23.93700 1.22300 29.07500
C  22.92500 1.45000 30.03000
C  21.62000 1.64800 29.35400
C  21.95800 1.67400 27.96700
C  23.38200 1.27900 27.83900
C  20.32000 1.74700 30.18700
C  21.02900 1.77700 26.78900
O  21.34600 1.56000 25.60900
C  19.62900 2.24500 27.02500
N  26.32400 0.44300 27.40300
C  25.41500 0.63000 26.39300
C  26.05200 0.59700 25.03900
C  27.56300 0.31600 25.43300
C  27.54600 0.25700 26.88000
C  25.63700 -0.42700 23.94800
C  28.60100 1.30500 24.89800
C  29.76100 0.61600 24.03900
N  27.73900 0.26600 29.85500
C  28.82300 -0.01100 29.02100
C  30.05900 -0.18100 29.80900
C  29.58800 0.01600 31.13100
C  28.21600 0.20700 31.13400
C  31.26800 -0.67400 29.29600
C  30.07400 -0.08800 32.44400
O  31.23600 -0.37700 32.83600
C  28.86500 0.16900 33.29200
C  28.62100 -1.09200 34.00200
O  27.93000 -1.99600 33.60500
O  29.23100 -0.97100 35.20400
C  28.70400 -1.71900 36.36000
H  22.29400 1.78300 31.97800
H  23.56400 0.99000 25.67600
H  29.53900 -0.36000 27.03400
H  25.77700 -0.19500 34.52300
H  23.93400 2.13400 33.98500
H  22.81400 0.67700 35.22700
H  23.68600 -0.71600 34.54800
H  22.29500 -0.05900 33.74100
H  25.77800 2.73500 34.98000
H  27.19600 2.33000 34.19600
H  28.12300 1.49600 36.28700
H  26.67600 0.64500 36.63800
H  20.36700 1.20600 31.13200
H  19.65600 1.15200 29.56100
H  19.99100 2.75400 30.44500
H  19.12200 1.48500 27.61900
H  19.17600 2.46900 26.05900
H  19.63400 3.21500 27.52400
H  25.96200 1.60600 24.63800
H  27.94600 -0.68500 25.23500
H  24.64600 -0.77400 24.24000
H  26.43300 -1.17100 23.93100
H  25.53000 -0.10200 22.91300
H  29.16000 1.71800 25.73700
H  28.15500 2.14400 24.36300
H  29.42400 0.86800 23.03300
H  29.88800 -0.45000 24.22800
H  30.71500 1.11700 24.20400
H  31.43200 -1.67000 28.88400
H  31.96100 -0.61300 30.13500
H  31.68200 -0.00500 28.54100
H  29.06300 0.98300 33.99000
H  27.77900 -1.25600 36.70500
H  29.43800 -1.83100 37.15800
H  28.56700 -2.77400 36.12200
Mg 26.09700 50.27600 27.03600
C  23.92800 51.68500 29.43500
C  28.29400 49.44700 29.65100
C  28.20900 49.13800 24.73100
C  23.92500 51.45400 24.58100
N  26.11500 50.57200 29.29800
C  25.08300 51.11000 30.00900
C  25.31000 50.76300 31.52500
C  26.76800 50.30500 31.59900
C  27.07500 50.11100 30.10000
C  27.83000 51.25900 32.30700
C  24.29000 49.64400 32.05900
C  23.70100 49.86600 33.46800
H  24.62500 50.55700 34.53400
N  28.01900 49.39100 27.13900
C  28.75000 49.15200 28.30900
C  30.04800 48.49500 27.94400
C  29.97500 48.29300 26.51900
C  28.70200 48.95600 26.06500
C  31.14200 48.08500 29.02200
C  30.89000 47.50300 25.61400
O  30.62500 47.30200 24.46400
C  32.27800 46.96000 26.13600
N  26.05400 50.23000 24.94000
C  27.00300 49.65000 24.24500
C  26.71400 49.80500 22.69300
C  25.22000 50.29800 22.66500
C  25.04800 50.72500 24.11600
C  27.81100 50.62000 21.93900
C  24.03400 49.28300 22.38200
C  22.98500 49.84200 21.45600
N  24.30900 51.46700 26.98700
C  23.59900 51.87100 25.88700
C  22.39700 52.50100 26.30800
C  22.49100 52.48000 27.75700
C  23.68200 51.83800 28.06600
C  21.31800 53.11300 25.39700
C  21.78800 52.82800 29.00900
O  20.65500 53.31600 29.21400
C  22.72500 52.22100 30.14900
C  23.03700 53.26600 31.16900
O  23.68400 54.22500 30.88000
O  22.46400 53.08900 32.36300
C  22.71500 54.00700 33.43300
H  29.02000 49.12700 30.40200
H  28.95100 48.94100 23.95500
H  23.33000 51.66900 23.69100
H  25.24900 51.67500 32.12000
H  26.78900 49.30800 32.03900
H  28.45100 51.69300 31.52300
H  28.35700 50.72000 33.09400
H  27.29400 52.04200 32.84400
H  24.62200 48.61200 32.17100
H  23.45900 49.62900 31.35500
H  23.44200 48.90000 33.90000
H  22.78400 50.45500 33.44000
H  31.33500 47.03100 28.82300
H  30.80100 48.00300 30.05500
H  31.99700 48.73000 28.81900
H  32.97400 46.53200 25.41500
H  32.04300 46.04000 26.67200
H  32.81600 47.59600 26.83800
H  26.75400 48.79100 22.29600
H  25.05000 51.21600 22.10200
H  27.35600 51.54900 21.59400
H  28.21000 50.03400 21.11100
H  28.59500 50.91800 22.63500
H  23.61100 48.90000 23.31100
H  24.47500 48.42000 21.88300
H  21.96700 49.53000 21.68900
H  23.13100 49.46300 20.44400
H  22.97800 50.93200 21.43200
H  20.50100 52.49600 25.77200
H  21.50300 52.83500 24.36000
H  21.14700 54.17000 25.60100
H  22.33400 51.36700 30.70100
H  22.69900 55.03700 33.07600
H  23.73700 53.99900 33.81200
H  21.90300 53.86800 34.14700

