158

Mg 24.75200 -6.47900 46.80200
C  27.42500 -4.39600 45.84400
C  22.77100 -4.79500 44.66000
C  22.45900 -9.00400 46.98200
C  27.09000 -8.57200 48.37700
N  25.07200 -4.88200 45.37800
C  26.24900 -4.13800 45.15800
C  26.05400 -3.02900 44.14500
C  24.46700 -2.89600 44.09800
C  24.07800 -4.29700 44.68800
C  23.75800 -1.84300 44.95500
C  26.75600 -3.35400 42.73900
C  27.68300 -2.28300 42.01700
H  27.18400 -2.10300 40.56200
N  22.79400 -6.78500 46.15300
C  22.16300 -5.91600 45.27200
C  20.81900 -6.42700 45.03600
C  20.75000 -7.67400 45.68600
C  21.98500 -7.83700 46.33500
C  19.88300 -5.70500 44.24900
C  19.44700 -8.54800 45.65400
O  18.46300 -8.18700 45.06900
C  19.32700 -9.99700 46.37400
N  24.74800 -8.52600 47.71500
C  23.67100 -9.29800 47.65000
C  23.99400 -10.66100 48.15800
C  25.42200 -10.44400 48.83700
C  25.80300 -9.14400 48.22700
C  23.00300 -11.42200 49.06100
C  26.42200 -11.55100 48.35600
C  27.43500 -12.10300 49.38500
N  26.84100 -6.38300 47.21600
C  27.63300 -7.27800 47.87700
C  29.02900 -6.80300 47.92100
C  28.96300 -5.63300 47.19900
C  27.68900 -5.41100 46.75400
C  30.19100 -7.54100 48.52800
C  29.77700 -4.49700 46.79400
O  30.91900 -4.19400 47.01200
C  28.83800 -3.72100 45.77100
C  28.77600 -2.26100 46.06900
O  28.34400 -1.81900 47.11100
O  29.46100 -1.64200 45.06200
C  29.48400 -0.15900 45.26500
H  22.21500 -4.18900 43.94200
H  21.71800 -9.80500 46.94800
H  27.73400 -9.27500 48.91000
H  26.48900 -2.11800 44.55600
H  24.19400 -2.88000 43.04300
H  24.52100 -1.19900 45.39100
H  23.16700 -2.32500 45.73400
H  23.16000 -1.13800 44.37800
H  26.12100 -3.91700 42.05500
H  27.54000 -4.07100 42.98200
H  28.71600 -2.61900 41.93900
H  27.57100 -1.29600 42.46700
H  19.34500 -6.28400 43.49900
H  20.40300 -4.95600 43.65200
H  19.06800 -5.25000 44.81100
H  18.27800 -10.28500 46.29600
H  19.57300 -9.84900 47.42500
H  19.90900 -10.72000 45.80300
H  24.08800 -11.11900 47.17300
H  25.51100 -10.39300 49.92200
H  22.08700 -10.83400 49.11600
H  23.32300 -11.69400 50.06700
H  22.78200 -12.36100 48.55300
H  27.08500 -11.15800 47.58600
H  25.91600 -12.37200 47.84700
H  27.64400 -13.17300 49.37800
H  27.12100 -11.75900 50.37000
H  28.40600 -11.67300 49.14100
H  30.43500 -7.02700 49.45800
H  31.02800 -7.63600 47.83600
H  29.90300 -8.49800 48.96300
H  29.21000 -3.82100 44.75100
H  30.22700 0.19200 44.54800
H  29.82100 0.15200 46.25400
H  28.47000 0.15200 45.01700
Mg 27.10000 50.44000 26.60200
C  24.95100 51.31600 29.31100
C  29.48800 49.74200 28.92600
C  28.97300 49.41100 24.08700
C  24.74700 51.75400 24.33900
N  27.15900 50.48200 28.83500
C  26.18200 50.76100 29.72700
C  26.62400 50.42800 31.21100
C  28.15900 50.04400 31.04200
C  28.29400 50.16800 29.51500
C  29.14800 50.94700 31.90500
C  25.79300 49.41400 31.93700
C  24.95100 49.82800 33.15900
H  24.97500 48.89800 34.48800
N  28.88500 49.63300 26.55100
C  29.71800 49.40400 27.63500
C  30.97100 48.80900 27.12200
C  30.91200 48.75600 25.64400
C  29.56000 49.29300 25.34200
C  32.15300 48.36200 28.01100
C  32.06900 48.55200 24.59900
O  31.88100 48.78100 23.40200
C  33.50200 48.09000 25.15800
N  26.95900 50.75200 24.46000
C  27.83800 50.19100 23.64100
C  27.51900 50.52200 22.20400
C  26.03300 51.03300 22.32600
C  25.87000 51.22400 23.75300
C  28.54500 51.56500 21.53600
C  24.94800 50.04700 21.67600
C  23.86500 50.69700 20.72900
N  25.30700 51.25500 26.68600
C  24.49200 51.73700 25.71600
C  23.27500 52.36200 26.33500
C  23.46900 52.17600 27.69100
C  24.70800 51.48400 27.93100
C  22.20600 53.14700 25.57700
C  22.82100 52.46400 28.94700
O  21.78000 52.93900 29.31300
C  23.72700 51.79900 30.04000
C  24.10700 52.75200 31.10500
O  24.84400 53.69800 30.90100
O  23.37400 52.47700 32.24700
C  23.22500 53.54600 33.25300
H  30.17800 49.34000 29.67000
H  29.38700 48.77800 23.29800
H  24.08700 52.13800 23.55800
H  26.47500 51.37000 31.73800
H  28.26700 48.97700 31.23800
H  29.90300 50.33800 32.40300
H  28.56400 51.38100 32.71600
H  29.71700 51.62300 31.26700
H  26.34800 48.53000 32.25200
H  24.96900 49.21900 31.25100
H  23.93300 49.82800 32.77100
H  25.27300 50.84600 33.37900
H  31.84300 48.36200 29.05600
H  32.90900 49.14300 28.08800
H  32.48100 47.35300 27.76000
H  33.93200 48.88900 25.76200
H  34.17200 48.07600 24.29900
H  33.56300 47.09100 25.58700
H  27.43800 49.55000 21.71800
H  25.98100 52.00900 21.84400
H  29.54000 51.54100 21.98100
H  28.22200 52.60100 21.63000
H  28.62500 51.20700 20.50900
H  24.38400 49.62800 22.51000
H  25.30200 49.23900 21.03600
H  22.86100 50.45900 21.07900
H  23.98500 50.39900 19.68700
H  23.92700 51.78500 20.72600
H  21.74400 52.66900 24.71300
H  22.59800 54.14000 25.35700
H  21.32500 53.21500 26.21400
H  23.10800 51.01800 30.48200
H  23.33200 54.48700 32.71200
H  23.66100 53.41500 34.24300
H  22.15000 53.52200 33.43100

