158

Mg 24.38700 -5.53900 45.77900
C  26.55500 -3.57200 43.87400
C  21.92600 -4.93700 43.40200
C  22.65900 -8.15100 46.92300
C  27.23800 -6.75100 47.52700
N  24.27800 -4.46200 43.80900
C  25.28400 -3.64100 43.31500
C  24.86600 -2.95300 42.06400
C  23.32600 -3.20800 41.96400
C  23.14100 -4.26200 43.10900
C  22.49300 -1.89400 41.91900
C  25.72200 -3.33600 40.77600
C  26.46100 -2.12000 40.24000
H  26.17300 -1.69500 38.85200
N  22.51500 -6.32700 45.33600
C  21.63400 -5.88900 44.36200
C  20.39500 -6.59400 44.42600
C  20.57200 -7.56900 45.50400
C  21.98400 -7.39200 45.97700
C  19.13200 -6.31300 43.63200
C  19.46300 -8.47000 45.97100
O  18.35000 -8.52300 45.47600
C  19.67600 -9.18400 47.31300
N  24.87200 -7.31000 46.91000
C  23.95300 -8.14400 47.36000
C  24.48200 -9.15400 48.35800
C  25.92100 -8.69200 48.63400
C  26.01100 -7.42400 47.63500
C  23.56400 -9.36600 49.57600
C  27.09400 -9.71000 48.23800
C  28.16100 -9.95000 49.40900
N  26.51300 -5.11000 45.85500
C  27.45700 -5.56700 46.70200
C  28.71100 -4.84400 46.41700
C  28.36400 -4.01500 45.29900
C  27.07200 -4.26400 44.96700
C  30.06600 -5.13700 47.07900
C  28.88400 -3.12100 44.39500
O  30.02600 -2.63000 44.27700
C  27.73000 -2.70600 43.45200
C  27.50100 -1.23900 43.67000
O  26.91900 -0.66800 44.60600
O  28.12500 -0.50200 42.64100
C  28.37300 0.96400 42.88400
H  21.08300 -4.69600 42.75100
H  22.04600 -8.95400 47.33700
H  28.03000 -7.16800 48.15300
H  24.82400 -1.88100 42.26000
H  23.05100 -3.81600 41.10200
H  21.65400 -2.05600 42.59600
H  22.12000 -1.85300 40.89500
H  23.03900 -0.96600 42.08300
H  25.05200 -3.78200 40.04200
H  26.42300 -4.13600 41.01300
H  27.52100 -2.34000 40.37200
H  26.25800 -1.21800 40.81700
H  19.44900 -5.85400 42.69600
H  18.43900 -5.62600 44.11900
H  18.52800 -7.20500 43.46900
H  18.72800 -9.56700 47.69300
H  20.14000 -8.47500 47.99900
H  20.36500 -10.02500 47.24400
H  24.52100 -10.15400 47.92400
H  25.95200 -8.25500 49.63200
H  23.25300 -10.40900 49.64900
H  22.78300 -8.60600 49.60200
H  24.19400 -9.30400 50.46300
H  27.54400 -9.48600 47.27100
H  26.50200 -10.62200 48.15300
H  27.84400 -9.45200 50.32500
H  29.09300 -9.50600 49.06000
H  28.22000 -11.02400 49.58700
H  29.92100 -4.93100 48.14000
H  30.87400 -4.49700 46.72600
H  30.36700 -6.18100 46.99100
H  28.00800 -2.97300 42.43300
H  28.70900 1.30900 41.90600
H  29.22100 1.04000 43.56600
H  27.60500 1.63200 43.27500
Mg 48.10500 15.66200 27.87900
C  46.21100 15.55400 30.86800
C  50.47400 17.55000 29.31100
C  49.65700 16.05600 24.69700
C  45.34800 14.52200 26.18900
N  48.32300 16.51900 29.84900
C  47.48700 16.26400 30.95200
C  48.15500 16.75700 32.25900
C  49.32600 17.61900 31.65300
C  49.42500 17.19400 30.18300
C  49.19200 19.16800 31.80300
C  48.56500 15.56800 33.27500
C  48.47700 15.94400 34.76100
H  48.44100 17.44100 35.20800
N  49.90200 16.51300 27.16600
C  50.80000 17.12800 27.98300
C  52.05900 17.25800 27.25800
C  51.81100 16.93000 25.86400
C  50.37400 16.50800 25.84400
C  53.18500 17.89300 27.99200
C  52.76600 16.99900 24.73700
O  52.47600 16.71700 23.60500
C  54.24000 17.40400 24.95400
N  47.66300 15.25600 25.73600
C  48.41200 15.55300 24.63900
C  47.63600 15.37100 23.29600
C  46.28500 14.73600 23.85000
C  46.44400 14.79500 25.35100
C  47.44300 16.74700 22.56100
C  45.98400 13.34800 23.31200
C  44.71600 13.26600 22.42300
N  46.22500 14.98200 28.42000
C  45.23300 14.54600 27.63500
C  44.05300 14.16000 28.40400
C  44.39600 14.56500 29.75400
C  45.69200 15.07900 29.62300
C  42.84500 13.54900 27.85500
C  43.98800 14.66400 31.12800
O  42.90400 14.37100 31.56600
C  45.24200 15.22400 31.91000
C  44.86000 16.45300 32.59700
O  44.75100 17.57200 32.06800
O  44.84600 16.26300 33.94900
C  44.40600 17.50700 34.61200
H  51.20200 18.16000 29.84900
H  50.03900 16.21100 23.68600
H  44.47400 14.09100 25.69700
H  47.37500 17.40100 32.66600
H  50.23300 17.22700 32.11300
H  49.08300 19.56600 30.79400
H  50.06200 19.60100 32.29600
H  48.29800 19.41700 32.37400
H  49.55500 15.20800 32.99400
H  47.93200 14.69100 33.13700
H  49.29000 15.49900 35.33600
H  47.61800 15.40300 35.15900
H  53.49500 18.88000 27.64700
H  54.05100 17.24300 27.86700
H  53.03500 17.96700 29.06900
H  54.79200 16.78100 25.65800
H  54.33300 18.44400 25.26800
H  54.72300 17.36500 23.97800
H  48.13300 14.68200 22.61300
H  45.42600 15.35900 23.60000
H  47.85800 17.49600 23.23600
H  46.36600 16.87600 22.45100
H  48.00100 16.74700 21.62500
H  45.80100 12.60400 24.08700
H  46.83100 13.06600 22.68700
H  43.83600 13.06400 23.03400
H  44.88200 12.43700 21.73500
H  44.50900 14.21100 21.92100
H  42.12100 13.48600 28.66700
H  43.03500 12.49100 27.67800
H  42.43700 14.07400 26.99100
H  45.55500 14.55500 32.71100
H  44.21700 17.21800 35.64500
H  43.51000 17.88700 34.12000
H  45.15100 18.29900 34.68900

