158

Mg 40.56700 9.37500 29.40100
C  42.53800 10.78600 31.90700
C  38.64700 7.99700 31.99000
C  38.78600 7.53300 27.08600
C  42.75500 10.40800 27.02100
N  40.62300 9.44600 31.65500
C  41.50100 10.18400 32.42700
C  40.97900 10.23600 33.95900
C  39.65200 9.37400 33.85600
C  39.60000 8.94300 32.40700
C  39.63700 8.18100 34.87500
C  40.59500 11.57900 34.64700
C  39.75400 11.59700 35.99200
H  40.19900 12.60300 37.11500
N  38.90000 7.92800 29.57300
C  38.25100 7.48400 30.70300
C  37.13500 6.56100 30.36200
C  37.22400 6.39200 28.95400
C  38.34300 7.30800 28.48100
C  36.09100 6.00800 31.35500
C  36.38100 5.48100 28.06900
O  36.33500 5.60000 26.85900
C  35.55500 4.40000 28.65800
N  40.78400 8.96900 27.33400
C  39.85400 8.27900 26.59300
C  40.18200 8.36900 25.08100
C  41.42700 9.39200 25.09300
C  41.68300 9.61200 26.57000
C  40.33900 7.05200 24.33100
C  41.21200 10.72800 24.31400
C  40.34400 11.80300 25.03300
N  42.28000 10.33600 29.42800
C  43.13300 10.63700 28.33700
C  44.32300 11.35100 28.92500
C  44.09000 11.37000 30.33400
C  42.83500 10.84300 30.56500
C  45.52300 11.79000 28.06400
C  44.69000 11.81100 31.62600
O  45.73800 12.29800 31.87500
C  43.55200 11.55700 32.67300
C  44.17700 10.77700 33.74800
O  44.64000 9.61300 33.59400
O  44.22700 11.48200 34.94400
C  44.68800 10.67100 36.04200
H  37.87600 7.75400 32.72500
H  38.21900 7.05000 26.28800
H  43.42600 10.65600 26.19500
H  41.66300 9.78300 34.67600
H  38.76400 9.98900 34.00500
H  40.64200 7.78400 35.01700
H  39.03500 7.32300 34.57600
H  39.16300 8.44800 35.82000
H  39.92400 12.05800 33.93400
H  41.47100 12.18000 34.89000
H  39.58100 10.60600 36.41200
H  38.77400 12.02800 35.78800
H  36.10200 4.91800 31.37900
H  35.04200 6.21500 31.14800
H  36.39600 6.36900 32.33700
H  35.02500 3.83500 27.89100
H  34.90700 4.98000 29.31500
H  36.28300 3.82100 29.22500
H  39.23200 8.84200 24.83000
H  42.30400 8.86800 24.71400
H  41.34900 6.64100 24.34200
H  40.11200 7.29900 23.29400
H  39.65300 6.24800 24.59900
H  40.67300 10.38900 23.42900
H  42.12500 11.24200 24.01300
H  39.33000 11.79200 24.63300
H  40.61400 12.82900 24.78300
H  40.29100 11.70000 26.11700
H  46.24900 10.97700 28.04900
H  45.95200 12.59100 28.66600
H  45.20500 12.11200 27.07200
H  43.25900 12.50200 33.12900
H  45.76200 10.79100 36.18500
H  44.30400 9.65600 35.94200
H  44.22000 11.20200 36.87100
Mg 46.62100 25.41100 28.57100
C  47.83700 27.72600 31.03800
C  45.51200 23.31700 31.00500
C  46.33000 23.16400 26.09900
C  48.37700 27.53000 26.18600
N  46.57800 25.62200 30.74800
C  47.11500 26.63000 31.56100
C  46.80200 26.35200 33.03400
C  46.25300 24.87800 32.98800
C  46.04900 24.54300 31.50500
C  47.25800 23.80100 33.64700
C  45.74100 27.37200 33.57400
C  45.39900 27.50100 35.10700
H  46.12300 26.67900 36.21900
N  45.89700 23.51600 28.54600
C  45.42500 22.84600 29.64000
C  44.91900 21.51600 29.12400
C  45.15700 21.45700 27.70700
C  45.79600 22.75500 27.35200
C  44.23600 20.40600 30.02100
C  44.76300 20.46800 26.61500
O  45.06400 20.60200 25.42000
C  43.72100 19.35800 27.05500
N  47.30600 25.36800 26.44700
C  46.88700 24.34800 25.65300
C  47.20000 24.62200 24.18000
C  47.74700 26.09200 24.16800
C  47.82900 26.39000 25.71300
C  48.13000 23.59600 23.43500
C  46.83400 27.10100 23.45400
C  47.55300 28.36700 22.97800
N  47.77400 27.24900 28.53600
C  48.38400 27.96500 27.51800
C  49.09800 29.11100 28.04900
C  48.87800 29.07800 29.46300
C  48.10700 27.91600 29.67200
C  49.92500 30.09900 27.13400
C  49.15500 29.73100 30.70300
O  49.78700 30.75900 30.95900
C  48.49900 28.82200 31.76800
C  49.58500 28.34900 32.73600
O  50.51500 27.65700 32.45500
O  49.25700 28.91700 33.96100
C  50.21300 28.82200 35.11000
H  45.18900 22.55500 31.71800
H  46.07000 22.53200 25.24700
H  48.71700 28.31500 25.50800
H  47.69100 26.43100 33.66100
H  45.30700 24.73200 33.51000
H  46.86200 23.06900 34.35100
H  48.03800 24.28000 34.23700
H  47.74800 23.27600 32.82700
H  44.86300 27.09900 32.98800
H  46.11800 28.32000 33.19000
H  44.34900 27.20800 35.14400
H  45.42700 28.54300 35.42700
H  43.26000 20.25900 29.55900
H  44.18300 20.59300 31.09300
H  44.79200 19.46900 30.05700
H  42.90300 19.86400 27.56900
H  44.24200 18.69400 27.74400
H  43.24900 18.73700 26.29300
H  46.25000 24.70000 23.65200
H  48.74700 26.05000 23.73700
H  47.36700 22.95900 22.98700
H  48.66700 23.14400 24.26900
H  48.70200 24.14000 22.68300
H  46.13500 27.49000 24.19400
H  46.31300 26.69300 22.58800
H  47.19400 29.22400 23.54900
H  47.46100 28.60900 21.92000
H  48.63100 28.41000 23.13400
H  49.40300 30.83600 26.52500
H  50.65900 29.62200 26.48500
H  50.64800 30.66700 27.71900
H  47.80400 29.54000 32.20300
H  49.68100 28.32000 35.91800
H  50.58300 29.83200 35.29200
H  51.18900 28.38100 34.90800

