158

Mg 16.75000 -1.66000 27.73500
C  15.50100 0.39100 30.41300
C  18.53900 -3.41900 30.02200
C  18.44900 -3.32300 25.07500
C  15.05800 0.21200 25.51300
N  16.92800 -1.53800 29.96300
C  16.39100 -0.63200 30.83100
C  16.90900 -0.80100 32.27900
C  17.92500 -2.02100 32.09100
C  17.81100 -2.37200 30.60600
C  19.40600 -1.90800 32.59700
C  15.62400 -1.04200 33.17200
C  15.76000 -0.58100 34.72700
H  17.16200 -0.22200 35.28300
N  18.21000 -3.15900 27.57500
C  18.81300 -3.74200 28.63200
C  19.71500 -4.80500 28.20000
C  19.60700 -4.84600 26.76300
C  18.71400 -3.78200 26.41800
C  20.61200 -5.57700 29.18200
C  20.17500 -5.86500 25.76900
O  19.92400 -5.82700 24.59600
C  21.20400 -6.97000 26.20200
N  16.85200 -1.58900 25.57000
C  17.54400 -2.26500 24.71300
C  17.37600 -1.72400 23.19500
C  16.24500 -0.66000 23.44700
C  16.00200 -0.67500 24.95000
C  18.69500 -1.16200 22.62200
C  14.95800 -0.89600 22.56900
C  14.42900 0.35400 21.97600
N  15.57500 -0.04000 27.90400
C  14.85800 0.61900 26.87000
C  14.04000 1.73400 27.39700
C  14.26800 1.67300 28.78200
C  15.17500 0.56900 29.02300
C  13.20800 2.61000 26.55900
C  13.90900 2.33000 30.04900
O  13.21600 3.31500 30.30700
C  14.69400 1.54500 31.16400
C  15.58400 2.47700 31.96800
O  16.78500 2.73200 31.75300
O  14.85400 3.00900 32.97700
C  15.73200 3.62300 34.03500
H  19.21800 -3.83200 30.77100
H  18.96800 -3.79100 24.23500
H  14.48700 0.76600 24.76500
H  17.42700 0.02700 32.76300
H  17.46500 -2.88000 32.58200
H  19.48900 -0.98400 33.16900
H  20.12200 -1.77600 31.78500
H  19.65100 -2.81800 33.14400
H  15.38400 -2.10100 33.07400
H  14.80500 -0.51700 32.67900
H  15.44200 -1.38700 35.38900
H  15.02000 0.19800 34.90700
H  20.52000 -6.64000 28.95900
H  20.37500 -5.30300 30.21000
H  21.64200 -5.26000 29.01600
H  20.68600 -7.84200 26.60100
H  21.81200 -6.44800 26.94100
H  21.85500 -7.18200 25.35400
H  17.00600 -2.55200 22.58900
H  16.57300 0.37500 23.35000
H  18.39400 -0.51200 21.80100
H  19.28000 -1.93900 22.12900
H  19.20700 -0.44600 23.26500
H  14.19200 -1.24700 23.26000
H  15.22500 -1.66000 21.83900
H  14.30300 0.20400 20.90400
H  15.04700 1.22900 22.18000
H  13.45200 0.60200 22.39000
H  13.74700 3.54900 26.43600
H  12.28500 2.94800 27.03200
H  13.02400 2.21800 25.55900
H  13.96100 1.20700 31.89700
H  15.24100 3.66500 35.00700
H  16.04300 4.59900 33.66100
H  16.53700 2.92300 34.26000
Mg 47.68500 24.99100 29.16700
C  48.43700 27.41600 31.79500
C  46.23600 23.08800 31.46600
C  47.27000 22.83900 26.71100
C  49.34600 27.30600 27.04200
N  47.55300 25.19900 31.42100
C  47.82500 26.24300 32.21000
C  47.39400 25.94600 33.75100
C  46.83200 24.51500 33.55700
C  46.88000 24.17500 32.09600
C  47.38600 23.42300 34.52600
C  46.52400 27.05600 34.35700
C  46.80800 27.58900 35.78000
H  47.17900 26.57600 36.89300
N  46.86100 23.22700 29.07900
C  46.26100 22.58600 30.14800
C  45.60500 21.35800 29.61700
C  45.75300 21.42600 28.24700
C  46.61100 22.53400 27.93200
C  44.85500 20.41400 30.49900
C  45.21300 20.50700 27.21600
O  45.42200 20.62500 26.02200
C  44.39700 19.18100 27.58200
N  48.35100 25.06400 27.21700
C  48.01200 23.99900 26.37100
C  48.60300 24.20300 24.96700
C  49.05800 25.72400 25.02600
C  48.97500 26.06100 26.49100
C  49.75500 23.14700 24.72400
C  48.29300 26.77500 24.22000
C  49.11500 27.59700 23.22600
N  48.55300 27.10100 29.32500
C  49.28900 27.80700 28.36900
C  49.75200 29.07800 28.89600
C  49.39900 28.96300 30.30100
C  48.73500 27.72700 30.48600
C  50.26700 30.24000 28.10700
C  49.46400 29.63300 31.58000
O  49.98300 30.69000 31.90100
C  48.86000 28.55000 32.65600
C  49.91100 28.25400 33.73700
O  50.70300 27.35700 33.83200
O  49.87400 29.32700 34.57400
C  50.72200 29.32700 35.78000
H  45.77400 22.40600 32.18300
H  47.13700 22.14800 25.87600
H  49.75400 28.04800 26.35200
H  48.40800 25.96000 34.15200
H  45.75300 24.59400 33.69100
H  47.74600 22.60900 33.89700
H  46.61900 23.03500 35.19700
H  48.17500 23.75300 35.20100
H  45.53800 26.60000 34.27200
H  46.44800 27.85700 33.62200
H  45.84800 27.98500 36.11100
H  47.45400 28.45500 35.92200
H  43.78600 20.33100 30.30200
H  44.76900 20.76200 31.52900
H  45.24500 19.40400 30.62800
H  43.48500 19.33500 28.15900
H  45.00800 18.47700 28.14700
H  44.12100 18.79100 26.60300
H  47.84500 24.17000 24.18300
H  50.09000 25.70100 24.67600
H  50.06400 22.75000 25.69100
H  50.72500 23.48900 24.36400
H  49.25700 22.44000 24.06100
H  47.85100 27.45700 24.94700
H  47.44200 26.33700 23.69800
H  48.75100 27.38100 22.22200
H  50.17600 27.39900 23.38100
H  48.98800 28.65600 23.44700
H  50.48500 30.03200 27.06000
H  51.20400 30.57300 28.55200
H  49.59100 31.07400 28.29700
H  47.93500 28.95000 33.07200
H  51.74600 29.01800 35.56600
H  50.30800 28.59400 36.47100
H  50.75600 30.33400 36.19500

