158

Mg 35.28400 49.15200 24.92200
C  35.77100 47.24700 27.85700
C  34.79600 51.86200 26.85200
C  34.80600 50.81600 22.11000
C  36.21500 46.29700 23.09800
N  35.05500 49.44100 27.10000
C  35.45400 48.59500 28.09200
C  35.38800 49.30500 29.44800
C  35.26000 50.82300 29.10100
C  35.06300 50.72000 27.58200
C  34.00600 51.54300 29.75600
C  36.64300 48.94900 30.33000
C  36.38300 48.35100 31.75000
H  34.94900 48.41300 32.32900
N  34.86100 51.04900 24.57700
C  34.64900 52.04100 25.45200
C  34.49000 53.33400 24.82000
C  34.38400 53.01700 23.42900
C  34.72100 51.57200 23.30600
C  34.41600 54.60800 25.66900
C  34.10600 53.92200 22.30400
O  34.26000 53.59800 21.17400
C  33.74700 55.39300 22.40500
N  35.21900 48.53800 22.87500
C  35.15800 49.46200 21.87800
C  35.64900 48.91800 20.51300
C  36.49500 47.63000 20.98500
C  35.99800 47.48700 22.44300
C  34.32400 48.53000 19.68800
C  38.09000 47.67800 20.90500
C  38.84200 46.39700 20.35000
N  35.77400 47.18900 25.30900
C  36.14500 46.16100 24.44900
C  36.70600 45.01500 25.16400
C  36.50400 45.35000 26.56800
C  35.95400 46.67300 26.58400
C  37.23100 43.80200 24.50600
C  36.60700 44.85800 27.88600
O  37.07300 43.79600 28.37100
C  36.17500 46.10100 28.81900
C  35.08900 45.56800 29.67200
O  33.91200 45.51200 29.35700
O  35.59000 44.83200 30.76100
C  34.50700 44.25400 31.57000
H  34.63600 52.80800 27.37300
H  34.42700 51.30700 21.21100
H  36.55000 45.41000 22.55500
H  34.43200 48.90300 29.78200
H  36.22200 51.31000 29.26000
H  34.28800 52.47800 30.24000
H  33.56200 50.90900 30.52300
H  33.33400 51.93200 28.99100
H  37.09000 49.90500 30.60600
H  37.39500 48.36400 29.80100
H  37.02300 48.79100 32.51500
H  36.88700 47.38600 31.80400
H  34.25700 55.48600 25.04200
H  35.40800 54.77200 26.08800
H  33.66900 54.40500 26.43700
H  32.89600 55.55600 23.06800
H  33.43500 55.68400 21.40200
H  34.65400 55.91500 22.71000
H  36.39100 49.62200 20.13700
H  36.37500 46.71200 20.40900
H  33.53800 49.16600 20.09500
H  34.06300 47.48500 19.85900
H  34.52600 48.77800 18.64700
H  38.47700 47.94400 21.88900
H  38.25000 48.49300 20.19900
H  39.91900 46.55400 20.28800
H  38.57800 46.12000 19.32900
H  38.61000 45.46100 20.85800
H  37.94300 44.17900 23.77100
H  36.30500 43.34200 24.16100
H  37.75600 43.28400 25.30800
H  37.04500 46.22500 29.46400
H  33.95900 43.48000 31.03200
H  33.90300 45.02500 32.04600
H  35.15300 43.63800 32.19500
Mg 9.20600 48.76800 26.27200
C  7.10300 48.92600 28.99500
C  11.73800 49.99300 28.14300
C  11.15900 48.76300 23.51500
C  6.39400 48.12900 24.18800
N  9.30500 49.54600 28.30300
C  8.36300 49.40600 29.25800
C  8.82100 49.88400 30.66500
C  10.30000 50.44300 30.29700
C  10.45800 50.00400 28.80800
C  10.43200 51.96700 30.48700
C  8.78900 48.80900 31.81700
C  9.80400 48.66400 32.91300
H  9.54300 47.62200 34.04700
N  11.24300 49.21100 25.89400
C  12.09800 49.74100 26.82000
C  13.40300 49.84000 26.13800
C  13.27500 49.40400 24.81300
C  11.82200 49.08800 24.68500
C  14.67000 50.09600 26.90300
C  14.29500 49.15200 23.66600
O  14.01900 48.64600 22.52700
C  15.78400 49.41600 23.93500
N  8.79700 48.67200 24.11300
C  9.82600 48.51800 23.24800
C  9.26600 47.99200 21.85800
C  7.79400 47.71400 22.19800
C  7.60100 48.28400 23.53800
C  9.44400 49.05100 20.64700
C  7.43400 46.18000 22.02100
C  6.13300 45.97900 21.35000
N  7.17100 48.37800 26.46300
C  6.15800 48.17600 25.56100
C  4.87700 48.02500 26.29500
C  5.23300 48.26800 27.67000
C  6.61300 48.48100 27.70200
C  3.59200 47.94400 25.68100
C  4.64600 48.27800 29.04100
O  3.55000 48.00200 29.41900
C  5.84200 48.67100 29.93400
C  5.92500 47.60200 30.84000
O  6.59200 46.61000 30.67500
O  5.10300 47.77300 31.92000
C  4.96500 46.64700 32.90100
H  12.51400 50.33100 28.83300
H  11.78600 48.50400 22.65900
H  5.49100 47.83400 23.65000
H  8.28800 50.70200 31.14900
H  11.02600 49.87900 30.88300
H  9.41800 52.36600 30.51700
H  11.09500 52.56400 29.86100
H  10.85200 52.03500 31.49000
H  8.75100 47.76600 31.50100
H  7.88400 48.84500 32.42300
H  9.91500 49.62000 33.42500
H  10.71400 48.31800 32.42300
H  14.46300 49.90500 27.95600
H  15.10700 51.06900 26.67600
H  15.44700 49.37300 26.65600
H  16.41300 49.23700 23.06300
H  16.18700 48.73800 24.68700
H  15.82500 50.41100 24.37800
H  9.77100 47.09400 21.50300
H  7.09400 48.22800 21.53900
H  10.03500 49.91600 20.94600
H  8.60300 49.69500 20.39000
H  9.97200 48.66300 19.77500
H  7.30700 45.80300 23.03600
H  8.33100 45.72200 21.60200
H  5.61400 45.06600 21.64200
H  6.23600 45.91800 20.26700
H  5.44400 46.78900 21.58500
H  3.27400 46.91900 25.87500
H  3.81100 48.12400 24.62900
H  3.00000 48.75600 26.10300
H  5.53300 49.61300 30.38700
H  4.00600 46.27400 32.54000
H  4.83000 47.03400 33.91100
H  5.71300 45.85900 32.98200

