158

Mg 47.33400 16.92400 28.81800
C  45.71900 16.50500 31.89100
C  49.85600 18.59100 30.47400
C  48.72400 17.42600 25.91300
C  44.51400 15.59200 27.19200
N  47.73400 17.42600 30.99600
C  47.01300 17.04900 32.07700
C  47.62500 17.48000 33.32600
C  48.87600 18.36900 32.93900
C  48.84200 18.13500 31.40700
C  48.81700 19.84900 33.35800
C  47.99200 16.31000 34.16500
C  48.36000 16.67500 35.63800
H  48.43300 18.10700 36.21500
N  49.05400 17.85000 28.26900
C  50.02700 18.42400 29.06100
C  51.06200 18.89700 28.25600
C  50.77500 18.48700 26.88200
C  49.43300 17.89600 26.99500
C  52.24900 19.66000 28.77400
C  51.64300 18.70500 25.63700
O  51.24200 18.36600 24.53500
C  52.91900 19.37600 25.65400
N  46.57400 16.70800 26.74700
C  47.43700 16.93700 25.76100
C  46.74500 16.57400 24.40000
C  45.45100 15.89900 24.85300
C  45.53400 15.95300 26.33500
C  46.47500 17.78800 23.44600
C  45.33000 14.37700 24.43500
C  44.37300 14.13800 23.15100
N  45.47800 16.10600 29.43000
C  44.48200 15.54300 28.61700
C  43.38600 15.10300 29.48000
C  43.82700 15.43100 30.81700
C  45.10100 16.03100 30.70100
C  42.07800 14.47900 29.01300
C  43.47100 15.34400 32.17300
O  42.41700 14.96200 32.69200
C  44.66900 16.01600 32.99500
C  44.01700 17.08800 33.72400
O  43.81100 18.23500 33.22400
O  43.92400 16.77200 35.11000
C  43.77400 17.85900 36.08300
H  50.71600 18.99900 31.00900
H  49.23600 17.68800 24.98400
H  43.68400 15.12100 26.66200
H  46.80200 18.05000 33.75800
H  49.74700 17.93200 33.42800
H  48.68300 20.47000 32.47300
H  49.71800 20.16700 33.88400
H  48.00600 20.15900 34.01700
H  48.76500 15.68900 33.71200
H  47.26000 15.50500 34.22400
H  49.30600 16.14200 35.72300
H  47.62200 16.18500 36.27200
H  53.15300 19.40700 28.21900
H  52.45100 19.38700 29.81000
H  52.08200 20.73300 28.68300
H  53.64000 18.72300 26.14600
H  52.86900 20.34900 26.14200
H  53.22700 19.52100 24.61900
H  47.42400 15.89600 23.88200
H  44.64500 16.60300 24.64400
H  46.80300 18.76200 23.81000
H  45.43700 17.86100 23.12200
H  47.11600 17.58600 22.58800
H  45.11300 13.66300 25.22900
H  46.26200 13.93300 24.08600
H  43.84500 15.02000 22.78800
H  43.62600 13.39300 23.42500
H  44.87900 13.65800 22.31300
H  41.27700 14.70500 29.71600
H  42.42400 13.44600 29.01900
H  41.86700 14.86200 28.01500
H  45.21200 15.32600 33.64200
H  43.76500 17.41700 37.07900
H  42.90200 18.51200 36.06800
H  44.68400 18.43600 35.92000
Mg 50.10300 47.05700 42.61700
C  46.76900 46.93500 41.41200
C  50.70100 44.12500 40.83900
C  53.40100 47.58500 42.88900
C  49.43800 50.37400 43.51200
N  48.85900 45.87800 41.00800
C  47.47400 45.92800 40.79300
C  47.06600 44.77600 39.91100
C  48.34400 43.87100 39.72700
C  49.43600 44.66200 40.58700
C  48.15500 42.37300 40.07800
C  46.35700 45.24200 38.56300
C  44.94900 44.57000 38.12300
H  45.00400 43.77700 36.88600
N  51.74500 45.91400 42.19100
C  51.80500 44.73400 41.40200
C  53.13600 44.24800 41.37700
C  53.91100 45.13200 42.16000
C  53.00100 46.31600 42.48300
C  53.51500 42.97800 40.68000
C  55.37700 44.99200 42.59400
O  56.14200 44.13400 42.06200
C  55.96500 45.74200 43.66600
N  51.27700 48.65300 43.17900
C  52.56500 48.61300 43.30100
C  53.13000 49.97300 43.68100
C  51.89100 50.80600 44.04800
C  50.72900 49.90500 43.57100
C  54.20300 49.89900 44.77300
C  51.80800 52.27300 43.38800
C  51.52100 52.47400 41.83800
N  48.40100 48.31000 42.68000
C  48.32000 49.66400 43.08800
C  46.88500 50.08100 42.99600
C  46.25900 48.98300 42.41500
C  47.20700 47.97200 42.18800
C  46.23400 51.38600 43.44200
C  44.96200 48.52100 41.90900
O  43.86000 49.08300 41.90400
C  45.23300 47.14700 41.25800
C  44.38500 46.05500 41.80000
O  44.80100 45.34600 42.69800
O  43.08500 46.01200 41.26200
C  42.10400 45.29000 42.13600
H  50.84400 43.15100 40.36800
H  54.45200 47.86000 42.78100
H  49.21100 51.29000 44.06100
H  46.25500 44.34000 40.49300
H  48.75700 44.02400 38.72900
H  48.33900 41.71300 39.23100
H  47.21300 42.00100 40.48300
H  48.92600 42.13900 40.81100
H  47.03000 45.09200 37.71900
H  46.26100 46.32600 38.63000
H  44.13300 45.29200 38.11900
H  44.70400 43.87300 38.92400
H  53.70800 42.22800 41.44700
H  54.49100 43.05300 40.20100
H  52.63400 42.60800 40.15700
H  55.16400 46.05000 44.33800
H  56.50200 46.57100 43.20500
H  56.61200 45.06400 44.22100
H  53.53900 50.45400 42.79200
H  51.84600 50.97100 45.12500
H  54.56200 48.93500 45.13500
H  53.76000 50.43600 45.61200
H  55.03700 50.46500 44.35800
H  52.78700 52.72500 43.54500
H  51.05300 52.86600 43.90200
H  50.95200 51.62700 41.45500
H  52.39000 52.79200 41.26200
H  50.88200 53.35300 41.75700
H  46.19600 52.20100 42.71900
H  46.85400 51.70600 44.27900
H  45.20200 51.14300 43.69400
H  44.87900 47.12100 40.22700
H  41.20800 44.94200 41.62200
H  41.87300 45.95200 42.97100
H  42.44700 44.37600 42.62100

