158

Mg 17.31200 -2.09700 27.61800
C  16.37400 -0.43000 30.50300
C  19.33500 -4.02700 29.54500
C  18.28500 -3.78500 24.73800
C  15.57800 0.22600 25.74900
N  17.85400 -2.14100 29.71900
C  17.25700 -1.44900 30.74000
C  17.69500 -1.96900 32.11900
C  18.90800 -2.90100 31.80000
C  18.76100 -3.05200 30.26500
C  20.37000 -2.63900 32.23200
C  16.54200 -2.64700 32.87300
C  16.42300 -2.16600 34.34900
H  17.74600 -1.93000 35.13900
N  18.65500 -3.64700 27.22000
C  19.26500 -4.33700 28.19800
C  19.99600 -5.43100 27.58200
C  19.67800 -5.48000 26.11800
C  18.85300 -4.24000 25.92700
C  20.78600 -6.45700 28.38500
C  20.16900 -6.44700 25.05100
O  19.81700 -6.32800 23.87500
C  21.30200 -7.47300 25.34000
N  16.98400 -1.89700 25.53100
C  17.41600 -2.72000 24.53400
C  17.00500 -2.17400 23.16100
C  15.88700 -1.04800 23.53200
C  16.24400 -0.83300 25.03300
C  18.20300 -1.77400 22.19800
C  14.37900 -1.24900 23.34400
C  13.90100 -0.84800 21.95200
N  16.13500 -0.52000 27.89400
C  15.49300 0.36400 27.08500
C  14.77000 1.41000 27.83700
C  15.13300 1.16400 29.19800
C  15.90900 -0.02000 29.18600
C  14.01200 2.56900 27.21100
C  15.07100 1.69800 30.48100
O  14.51600 2.73700 30.79000
C  15.64100 0.61200 31.43200
C  16.62300 1.32100 32.39800
O  17.80100 1.55300 32.18300
O  15.91800 1.70700 33.54700
C  16.68600 2.52100 34.45200
H  19.74700 -4.77200 30.23000
H  18.52700 -4.38500 23.85800
H  15.01100 0.96100 25.17400
H  18.06200 -1.08700 32.64400
H  18.65300 -3.85300 32.26500
H  20.39400 -1.58900 32.52600
H  21.06400 -2.68000 31.39200
H  20.72800 -3.16700 33.11500
H  16.65700 -3.72800 32.78600
H  15.66900 -2.32400 32.30600
H  16.04500 -3.00300 34.93500
H  15.69600 -1.36800 34.50200
H  21.03900 -6.16300 29.40400
H  21.67400 -6.95300 27.99500
H  20.05100 -7.25700 28.47200
H  21.59100 -8.04600 24.45900
H  21.02800 -8.18800 26.11600
H  22.22800 -6.98200 25.64000
H  16.48800 -3.00900 22.68700
H  16.10400 -0.09500 23.05000
H  19.16400 -1.77700 22.71200
H  18.12200 -0.88200 21.57700
H  18.19900 -2.57100 21.45400
H  13.75400 -1.02100 24.20700
H  14.21900 -2.32700 23.31100
H  12.83300 -1.01700 22.09200
H  14.26800 -1.54100 21.19500
H  13.96600 0.19600 21.64400
H  13.95700 3.47700 27.81100
H  13.00200 2.16400 27.13800
H  14.48900 2.79100 26.25600
H  14.85200 0.13800 32.01500
H  17.69900 2.24400 34.74300
H  16.09600 2.53600 35.36800
H  16.70400 3.55500 34.10800
Mg 48.28000 34.98000 27.36100
C  46.49400 33.45200 30.06600
C  49.08100 37.47600 29.35200
C  49.88500 36.28800 24.73400
C  46.96800 32.46000 25.31900
N  47.78500 35.30200 29.47000
C  47.15900 34.57300 30.45200
C  47.38800 35.14100 31.86200
C  47.89200 36.57600 31.49100
C  48.25200 36.48000 29.94700
C  46.85200 37.78600 31.85600
C  48.31900 34.24100 32.70300
C  47.87100 33.94100 34.13700
H  46.98900 35.00700 34.85000
N  49.43000 36.56900 27.14000
C  49.69300 37.53200 28.05900
C  50.63100 38.50900 27.52700
C  50.95200 38.15900 26.17500
C  50.11100 36.97400 25.95600
C  51.10500 39.70700 28.38700
C  51.74100 38.92900 25.14700
O  51.91300 38.61700 23.94000
C  52.31100 40.20300 25.64700
N  48.44000 34.35000 25.34200
C  49.10500 35.09200 24.41200
C  49.03100 34.47200 22.96800
C  48.29300 33.16100 23.26600
C  47.84500 33.29500 24.73100
C  48.29600 35.32500 21.88000
C  49.22600 32.01500 23.07700
C  48.72200 30.75000 22.39600
N  46.95600 33.35700 27.55500
C  46.59900 32.36300 26.67100
C  45.92200 31.20300 27.38400
C  45.80000 31.72400 28.66600
C  46.49900 32.94900 28.76200
C  45.38100 29.93600 26.69300
C  45.25800 31.46300 29.95200
O  44.55000 30.55400 30.27200
C  45.60700 32.62600 30.90300
C  46.16500 31.87400 32.03100
O  47.36200 31.49100 32.03300
O  45.15800 31.53700 32.96700
C  45.58000 30.52000 33.85800
H  49.52100 38.10800 30.12600
H  50.37600 36.75100 23.87500
H  46.75400 31.55600 24.74600
H  46.45400 35.08300 32.42100
H  48.85900 36.75500 31.96200
H  47.37100 38.35300 32.62900
H  45.90600 37.36500 32.19600
H  46.57800 38.32600 30.95000
H  49.26000 34.72900 32.95800
H  48.54300 33.43800 32.00200
H  48.78300 33.79600 34.71700
H  47.41100 32.97300 34.33500
H  50.86500 39.52600 29.43400
H  50.48400 40.55500 28.09900
H  52.11900 40.05700 28.18900
H  53.06600 39.98400 26.40300
H  51.55300 40.92200 25.95800
H  52.77300 40.64600 24.76500
H  50.05900 34.37300 22.61700
H  47.51900 33.05700 22.50500
H  48.98300 35.68300 21.11300
H  47.64300 36.06600 22.34100
H  47.59800 34.75200 21.26800
H  49.66400 31.67800 24.01700
H  50.08500 32.36700 22.50700
H  49.31600 30.43900 21.53600
H  47.66500 30.84500 22.14600
H  48.84000 29.99000 23.16800
H  44.58400 30.19800 25.99700
H  45.16700 29.21100 27.47700
H  46.18400 29.55800 26.06000
H  44.70500 33.15500 31.21100
H  45.63500 29.54900 33.36700
H  44.87400 30.32200 34.66400
H  46.55300 30.64700 34.33300

