158

Mg 0.54800 7.53000 25.26700
C  0.99600 9.40600 28.21000
C  1.19100 4.75600 27.21500
C  0.38300 5.74400 22.54300
C  0.74300 10.53100 23.43100
N  1.02600 7.15100 27.54200
C  0.96200 8.05500 28.52300
C  1.03800 7.36000 29.91300
C  1.29600 5.87700 29.55300
C  1.17000 5.93100 28.02300
C  2.63700 5.22500 30.05500
C  -0.24700 7.69200 30.71000
C  -0.14800 7.55100 32.25200
H  1.17700 7.01000 32.82700
N  0.37600 5.49700 24.96500
C  0.79500 4.57700 25.85100
C  0.51200 3.31900 25.17700
C  0.26600 3.59200 23.77500
C  0.37900 4.99400 23.69400
C  0.60300 1.97400 25.90400
C  -0.11900 2.62600 22.58500
O  -0.23500 2.96500 21.44300
C  -0.53700 1.20300 22.99300
N  0.72500 8.07200 23.22900
C  0.40700 7.14200 22.38400
C  0.32800 7.76300 20.98900
C  -0.01900 9.27000 21.38500
C  0.46200 9.32500 22.77800
C  1.49400 7.63900 20.03600
C  -1.47800 9.65300 21.26900
C  -1.82700 11.10000 20.70600
N  0.87800 9.61200 25.72000
C  0.98900 10.66400 24.85600
C  1.33800 11.87300 25.62600
C  1.40100 11.38500 26.95500
C  1.04300 10.05000 26.93600
C  1.35500 13.26100 25.07900
C  1.59600 11.83000 28.29800
O  1.93600 12.90700 28.72900
C  1.21400 10.59000 29.21900
C  2.44900 10.44200 30.16100
O  3.51700 9.85400 29.78800
O  2.24100 11.08300 31.32600
C  3.46800 11.03400 32.14300
H  1.45100 3.86100 27.78500
H  0.18000 5.26300 21.58400
H  0.81100 11.42000 22.80100
H  1.88900 7.85500 30.38200
H  0.52600 5.19400 29.91000
H  3.24900 5.99300 30.52700
H  3.21800 4.83900 29.21700
H  2.40500 4.32400 30.62400
H  -0.97300 6.96100 30.35600
H  -0.62400 8.67500 30.42500
H  -0.89200 6.83000 32.59200
H  -0.30000 8.47200 32.81300
H  1.09100 2.01900 26.87700
H  1.04800 1.20300 25.27500
H  -0.41900 1.65600 26.10900
H  0.34800 0.60400 23.20600
H  -0.95400 0.80300 22.06900
H  -1.28800 1.30500 23.77600
H  -0.51800 7.30000 20.48100
H  0.52500 9.86900 20.65400
H  2.26000 7.12900 20.62000
H  2.02700 8.56900 19.83900
H  1.18300 7.16000 19.10800
H  -2.03200 9.59100 22.20500
H  -1.98200 8.92100 20.63800
H  -2.17500 10.96200 19.68200
H  -0.95000 11.73500 20.83200
H  -2.66000 11.42200 21.33000
H  0.56000 13.26300 24.33300
H  2.31900 13.43000 24.59900
H  1.33900 13.92500 25.94300
H  0.29600 10.82100 29.76000
H  3.38000 11.73400 32.97300
H  4.36000 11.25600 31.55800
H  3.49400 10.02700 32.55900
Mg 49.37200 45.04200 42.77500
C  45.97900 45.43000 41.39000
C  49.17900 41.73900 41.75700
C  52.65300 44.94700 43.02600
C  49.36900 48.54500 43.04700
N  47.77700 43.80800 41.69900
C  46.44400 44.12500 41.31300
C  45.86100 42.85200 40.68500
C  46.71500 41.67900 41.26300
C  47.96900 42.43300 41.62500
C  46.07200 40.94100 42.42600
C  45.84900 42.92500 39.05900
C  44.44100 42.85300 38.41800
H  44.08700 43.88400 37.33900
N  50.70200 43.47000 42.58100
C  50.39400 42.17000 42.15800
C  51.65000 41.43300 42.34200
C  52.69600 42.30900 42.75400
C  52.03900 43.68000 42.85700
C  51.77400 39.92600 41.97800
C  54.08100 41.87400 43.26200
O  54.47800 40.77300 43.10500
C  54.97500 42.74800 44.15400
N  50.86800 46.55500 42.99300
C  52.16300 46.26400 43.08600
C  53.10000 47.54000 43.10500
C  52.02200 48.69600 43.22200
C  50.63100 47.92200 43.05700
C  54.10100 47.40800 44.36300
C  52.12700 49.83500 42.23500
C  52.65200 51.22500 42.82900
N  47.99400 46.69400 42.41000
C  48.06800 47.99900 42.68600
C  46.73000 48.64700 42.66800
C  45.96300 47.74000 42.09200
C  46.70100 46.50800 41.94700
C  46.36300 50.00700 42.99600
C  44.66600 47.52700 41.53100
O  43.73500 48.27500 41.34600
C  44.56000 45.99200 41.13500
C  43.51900 45.35200 42.03500
O  42.77400 44.39100 41.74900
O  43.26900 46.02800 43.17700
C  41.88800 45.86600 43.72100
H  49.13900 40.68700 41.46600
H  53.74200 44.94000 42.94500
H  49.34800 49.63400 43.12300
H  44.80900 42.83700 40.97000
H  46.88200 40.89600 40.52300
H  45.99900 39.86400 42.27200
H  45.07100 41.33400 42.60200
H  46.69400 41.09700 43.30700
H  46.30800 42.01300 38.67800
H  46.40500 43.80400 38.73400
H  43.69100 43.06000 39.18100
H  44.17900 41.93200 37.89800
H  52.58600 39.81400 41.26000
H  50.89100 39.43000 41.57600
H  52.13500 39.26500 42.76700
H  55.38000 43.59700 43.60100
H  55.82100 42.10900 44.40700
H  54.37300 43.06400 45.00600
H  53.76700 47.61500 42.24600
H  52.05200 49.12400 44.22400
H  53.83400 46.52900 44.95100
H  54.02200 48.26600 45.03100
H  55.10100 47.31200 43.94100
H  51.18800 50.01300 41.71000
H  52.81400 49.60300 41.42100
H  52.25200 52.06700 42.26500
H  53.73600 51.18700 42.72000
H  52.37500 51.37200 43.87200
H  45.29200 50.19700 42.92200
H  46.92600 50.69600 42.36700
H  46.60500 50.12400 44.05200
H  44.31000 46.04300 40.07600
H  41.18600 46.03400 42.90400
H  41.63200 46.62300 44.46300
H  41.78000 44.97900 44.34500

