158

Mg 1.19700 8.58100 27.50100
C  2.16600 10.84700 30.01400
C  1.62200 6.12800 29.64400
C  0.76500 6.65300 24.92500
C  1.54400 11.32500 25.27100
N  1.81300 8.50300 29.63500
C  1.96500 9.51400 30.50100
C  1.88100 9.09100 31.93300
C  2.14400 7.55000 31.69800
C  1.80000 7.32300 30.23300
C  3.64000 7.09700 32.06500
C  0.50700 9.49200 32.48300
C  0.29200 9.58000 33.99800
H  1.49600 9.17500 34.87500
N  1.15500 6.55800 27.32400
C  1.42400 5.70100 28.31400
C  1.33000 4.30700 27.82700
C  1.02200 4.39000 26.43400
C  0.98600 5.91700 26.13500
C  1.61200 3.09800 28.68900
C  0.86100 3.34100 25.36400
O  0.33900 3.55700 24.23400
C  1.12800 1.89200 25.71700
N  1.33200 8.92600 25.43900
C  0.94500 7.94200 24.63400
C  0.99500 8.35400 23.13500
C  0.97000 9.92600 23.22800
C  1.32800 10.08100 24.71000
C  2.22200 7.77400 22.42400
C  -0.37300 10.58500 22.99400
C  -0.39300 11.85300 22.10500
N  1.71400 10.69100 27.57500
C  1.80700 11.65200 26.62200
C  2.18200 12.94900 27.15300
C  2.36200 12.64700 28.49400
C  2.03100 11.29400 28.73700
C  2.20500 14.19300 26.38400
C  2.78000 13.16300 29.78600
O  3.25000 14.22900 30.17300
C  2.56700 12.08600 30.84200
C  3.74700 11.87300 31.76200
O  4.77800 11.20500 31.58800
O  3.42900 12.46700 32.95000
C  4.62500 12.61800 33.84900
H  1.68300 5.22000 30.24700
H  0.61200 5.98000 24.07800
H  1.48800 12.22800 24.66000
H  2.63400 9.51800 32.59500
H  1.48900 6.93300 32.31300
H  3.65700 6.71700 33.08700
H  4.20000 8.03200 32.03200
H  4.08400 6.34400 31.41400
H  -0.24800 8.80800 32.09200
H  0.20200 10.48000 32.13900
H  -0.57200 9.01100 34.34300
H  0.14000 10.61700 34.29800
H  1.04700 2.24300 28.31700
H  1.21500 3.26000 29.69100
H  2.68300 2.90200 28.73300
H  2.06200 1.73600 26.25700
H  1.22300 1.36800 24.76600
H  0.24600 1.59300 26.28300
H  0.08100 7.98700 22.66700
H  1.66400 10.34400 22.49900
H  2.57000 8.38000 21.58700
H  1.74600 6.90800 21.96300
H  2.99000 7.54000 23.16100
H  -0.83700 10.82400 23.95100
H  -1.14300 9.95900 22.54400
H  -0.25400 11.40300 21.12200
H  0.51500 12.44800 22.21100
H  -1.30600 12.36400 22.40900
H  1.24600 14.70900 26.42300
H  2.46300 14.08400 25.33100
H  2.89600 14.91000 26.82800
H  1.76200 12.38400 31.51300
H  5.31500 13.33400 33.40200
H  5.15500 11.73600 34.20900
H  4.29400 13.08800 34.77500
Mg 24.83300 -5.48200 46.00100
C  27.27600 -3.45800 44.61500
C  22.56300 -4.12800 43.86100
C  22.94000 -8.09200 46.66000
C  27.50100 -7.07600 47.94300
N  24.97900 -4.08800 44.43300
C  26.02100 -3.31300 44.01200
C  25.70200 -2.29400 42.95100
C  24.12800 -2.15500 43.19600
C  23.85000 -3.52800 43.87100
C  23.61900 -1.01100 44.04400
C  26.23700 -2.65900 41.57200
C  26.76600 -1.49300 40.70800
H  26.21500 -1.41200 39.23900
N  22.88700 -6.01800 45.30400
C  22.10500 -5.31800 44.56500
C  20.93100 -6.10500 44.28000
C  20.94000 -7.25700 45.13300
C  22.24800 -7.17600 45.78500
C  19.92200 -5.66000 43.18800
C  19.86200 -8.20400 45.23900
O  18.82500 -7.91400 44.66700
C  20.03700 -9.40000 46.09500
N  25.26600 -7.30300 47.11800
C  24.18200 -8.14800 47.32500
C  24.58900 -9.35200 48.25300
C  26.03700 -8.95400 48.67600
C  26.31100 -7.66500 47.87400
C  23.50300 -9.65800 49.35100
C  27.15400 -10.08100 48.40500
C  27.54500 -11.01000 49.61100
N  26.87400 -5.22800 46.40600
C  27.82300 -5.89100 47.14300
C  29.07400 -5.19600 47.06400
C  28.90500 -4.21200 46.10600
C  27.57500 -4.30500 45.67800
C  30.23900 -5.64400 47.84500
C  29.63300 -3.28400 45.29700
O  30.82100 -3.01000 45.26100
C  28.54900 -2.73200 44.35500
C  28.61100 -1.29400 44.60700
O  28.66900 -0.66900 45.66300
O  28.70200 -0.58100 43.44500
C  28.51600 0.90200 43.47500
H  21.79500 -3.71300 43.20600
H  22.28900 -8.89000 47.02000
H  28.30200 -7.58000 48.48800
H  26.13600 -1.36100 43.31100
H  23.58800 -2.20400 42.25000
H  24.19100 -0.08600 43.97500
H  23.47200 -1.41800 45.04400
H  22.64800 -0.74300 43.62800
H  25.42700 -3.15300 41.03700
H  26.92500 -3.49000 41.72600
H  27.83600 -1.65000 40.84500
H  26.65900 -0.52800 41.20300
H  20.36700 -5.03400 42.41400
H  19.03000 -5.26200 43.67200
H  19.52100 -6.49000 42.60800
H  19.37700 -10.25100 45.92900
H  19.78200 -9.19400 47.13500
H  21.01200 -9.74600 45.75200
H  24.62100 -10.28400 47.68900
H  26.06200 -8.78400 49.75300
H  22.56000 -9.13200 49.19700
H  23.97800 -9.38800 50.29400
H  23.14100 -10.68600 49.36800
H  28.08700 -9.65000 48.04100
H  26.66500 -10.70300 47.65500
H  28.55800 -10.77900 49.94200
H  27.45100 -12.05100 49.30100
H  26.88500 -10.79300 50.45100
H  31.10000 -5.17900 47.36600
H  30.36200 -6.70800 47.64500
H  30.11500 -5.26400 48.85900
H  28.83100 -2.89400 43.31400
H  27.50000 0.98100 43.08900
H  29.19500 1.30900 42.72600
H  28.67500 1.43300 44.41300

