158

Mg 7.85500 3.23500 27.37500
C  9.37300 1.96100 30.16300
C  6.01600 5.34300 29.41200
C  6.17100 4.06800 24.67400
C  9.21500 0.38900 25.56300
N  7.88300 3.73900 29.50400
C  8.58400 3.04900 30.40900
C  8.28900 3.54100 31.84800
C  7.25700 4.71500 31.55800
C  7.07400 4.61200 30.05300
C  5.87800 4.67800 32.32300
C  9.55900 3.90400 32.74800
C  9.33900 4.82300 33.98000
H  10.27600 4.90500 35.23000
N  6.50800 4.66400 27.03500
C  5.79600 5.38600 28.01700
C  4.88200 6.27600 27.34700
C  5.05700 6.02700 25.92800
C  5.95600 4.90300 25.80800
C  3.96600 7.30500 27.94700
C  4.55100 6.83900 24.79400
O  4.94300 6.63600 23.60800
C  3.63000 7.93500 24.92900
N  7.90000 2.43700 25.31100
C  7.03300 3.03300 24.40700
C  7.06800 2.26400 23.06500
C  8.15600 1.18600 23.33800
C  8.43100 1.30500 24.78400
C  5.70900 1.76000 22.59100
C  9.37700 1.25900 22.41900
C  9.69200 0.09200 21.44600
N  9.03200 1.58000 27.71300
C  9.51700 0.56100 26.90900
C  10.37900 -0.37400 27.63800
C  10.32800 0.16100 28.93100
C  9.48700 1.28800 28.94000
C  11.11000 -1.58800 27.15200
C  10.75500 -0.03700 30.31600
O  11.45300 -0.92600 30.77800
C  10.17400 1.12500 31.10000
C  9.41700 0.51200 32.19900
O  8.28700 0.04700 32.14100
O  10.04900 0.69000 33.43500
C  9.39900 0.30900 34.65100
H  5.28100 5.96400 29.92900
H  5.55200 4.37000 23.82700
H  9.60900 -0.44500 24.97900
H  7.74400 2.87900 32.52000
H  7.74500 5.67600 31.72600
H  5.54900 5.66600 32.64500
H  5.93000 4.25500 33.32600
H  4.93900 4.38500 31.85200
H  10.29300 4.43700 32.14400
H  10.08700 3.00700 33.07300
H  8.40500 4.48800 34.43200
H  9.32100 5.84500 33.60000
H  4.30700 8.28900 27.62700
H  4.01200 7.21200 29.03200
H  3.01800 6.99700 27.50600
H  4.16100 8.69900 25.49700
H  2.72300 7.71400 25.49100
H  3.30200 8.43200 24.01600
H  7.40400 2.91200 22.25600
H  7.74600 0.18400 23.21200
H  4.93900 2.10000 23.28300
H  5.80000 0.67400 22.56400
H  5.46000 2.05600 21.57200
H  10.26800 1.33200 23.04100
H  9.36000 2.14800 21.78800
H  8.74900 -0.38400 21.17900
H  10.47300 -0.50800 21.91400
H  10.21500 0.49600 20.57900
H  11.55600 -1.28900 26.20300
H  10.39300 -2.39700 27.01000
H  11.86500 -1.92600 27.86100
H  10.99700 1.76100 31.42500
H  10.00800 -0.13500 35.43900
H  8.58300 -0.39000 34.46600
H  8.97300 1.23400 35.04000
Mg 6.59200 54.03900 41.64700
C  5.53300 50.59700 41.05400
C  9.76200 53.04600 40.54500
C  7.35500 57.27700 41.65600
C  3.26700 54.67500 42.55200
N  7.44600 52.17600 40.63000
C  6.84600 50.93400 40.61800
C  7.73200 49.85900 40.08200
C  9.08500 50.51800 40.26600
C  8.76300 52.02700 40.44600
C  10.05300 49.97300 41.35900
C  7.53100 49.37400 38.55600
C  6.82400 50.35400 37.65100
H  7.66000 51.03100 36.52900
N  8.33800 55.04000 41.08400
C  9.57100 54.41300 40.72200
C  10.52100 55.47900 40.57700
C  9.84200 56.76200 40.76800
C  8.45800 56.41800 41.15600
C  11.93800 55.22400 40.13600
C  10.55300 58.08500 40.59400
O  11.72600 58.18600 40.30400
C  9.78200 59.39200 40.65800
N  5.38400 55.75800 41.85400
C  6.00900 56.95900 42.08300
C  4.91800 58.00100 42.40400
C  3.65400 57.19000 42.71600
C  4.07300 55.77900 42.38900
C  5.44700 59.08300 43.51000
C  2.36100 57.58300 41.94000
C  1.08400 57.75900 42.73300
N  4.76900 52.87000 41.78100
C  3.54100 53.29100 42.25300
C  2.57000 52.22800 42.34600
C  3.33600 51.13600 41.90400
C  4.66100 51.57500 41.53200
C  1.21900 52.33000 42.94200
C  3.40200 49.67400 41.69500
O  2.56100 48.78700 41.97700
C  4.81300 49.29600 41.16700
C  4.64900 48.43900 39.93800
O  4.24000 48.71100 38.86400
O  5.20600 47.21500 40.31200
C  5.23900 46.16600 39.36800
H  10.75100 52.89200 40.11000
H  7.61900 58.33700 41.66000
H  2.20500 54.79600 42.77900
H  7.72700 48.98500 40.73300
H  9.66300 50.46700 39.34200
H  9.69000 49.14500 41.96900
H  10.31800 50.69900 42.12700
H  10.93300 49.59800 40.83800
H  6.99500 48.42500 38.56100
H  8.49500 49.05700 38.15900
H  6.29900 51.18800 38.11600
H  6.06700 49.73400 37.17000
H  12.00100 55.80400 39.21500
H  12.16100 54.18500 39.89700
H  12.61300 55.68400 40.85800
H  10.48000 60.20400 40.45800
H  9.27600 59.48100 41.62000
H  9.02900 59.31400 39.87400
H  4.85800 58.64400 41.52600
H  3.40500 57.13100 43.77600
H  5.59900 60.05400 43.03800
H  6.38100 58.67900 43.90000
H  4.70900 59.13900 44.31000
H  2.08100 56.75400 41.28900
H  2.49900 58.48400 41.34300
H  1.34500 57.74500 43.79100
H  0.35100 56.96500 42.58600
H  0.63100 58.73300 42.54900
H  0.65700 53.04500 42.34000
H  1.25500 52.63500 43.98800
H  0.77400 51.35200 43.12100
H  5.36300 48.76600 41.94500
H  5.87600 45.44700 39.88500
H  5.56900 46.43700 38.36600
H  4.20400 45.82300 39.34300

