158

Mg 9.13300 47.99800 25.15300
C  7.09600 48.62100 27.86900
C  11.88700 48.87000 27.00600
C  10.92200 47.21800 22.40300
C  6.14200 47.77200 23.04200
N  9.42100 48.67900 27.17100
C  8.44100 48.80000 28.16800
C  9.13100 49.08300 29.46200
C  10.58700 49.60700 29.13900
C  10.65400 49.04100 27.64600
C  10.70800 51.15800 29.12200
C  9.05800 47.97100 30.53700
C  9.08100 48.42700 32.08600
H  9.35500 47.17200 33.06000
N  11.18100 47.94400 24.74600
C  12.18600 48.39200 25.67900
C  13.44100 48.29600 24.97900
C  13.17000 47.80500 23.62900
C  11.70000 47.64600 23.52900
C  14.76900 48.71000 25.60600
C  14.16500 47.67300 22.47200
O  13.77600 47.35400 21.33000
C  15.59300 47.71600 22.70500
N  8.58100 47.64400 22.93600
C  9.56500 47.23000 22.07100
C  8.86500 46.55800 20.85800
C  7.49300 47.35200 20.87000
C  7.31600 47.56500 22.35800
C  9.62200 46.63300 19.43500
C  6.28200 46.71800 20.18100
C  5.23800 47.74600 19.86900
N  7.09000 48.07600 25.38700
C  5.96000 47.98500 24.45400
C  4.76900 48.17100 25.19700
C  5.14900 48.35400 26.54700
C  6.58100 48.28800 26.61500
C  3.38700 48.09400 24.64500
C  4.60500 48.68900 27.78300
O  3.43400 49.00300 28.08000
C  5.88900 48.83600 28.72000
C  5.76400 48.07900 29.91100
O  5.55600 46.86700 29.87400
O  5.83700 48.82300 31.10400
C  5.31100 48.06200 32.28600
H  12.74900 49.15300 27.61400
H  11.51900 46.89400 21.54800
H  5.14100 47.65000 22.62400
H  8.53300 49.93200 29.79700
H  11.32800 49.19000 29.82100
H  9.75600 51.67000 29.26400
H  11.29700 51.51800 28.27900
H  11.15600 51.44400 30.07400
H  9.95100 47.34800 30.49100
H  8.20800 47.32400 30.32300
H  8.18400 49.00400 32.31200
H  9.91100 49.11400 32.24900
H  14.67300 48.97900 26.65800
H  15.19600 49.55300 25.06300
H  15.39500 47.82200 25.52000
H  15.95200 46.89900 23.33100
H  15.72600 48.71400 23.12400
H  16.24900 47.68500 21.83400
H  8.73200 45.50300 21.10000
H  7.73900 48.32700 20.44900
H  8.96000 47.08300 18.69500
H  9.89300 45.61900 19.14100
H  10.48300 47.29900 19.39000
H  5.84100 45.86500 20.69600
H  6.70300 46.24700 19.29300
H  5.49300 48.68400 20.36200
H  4.27200 47.43900 20.27100
H  5.21400 48.02400 18.81600
H  2.69300 47.44700 25.18200
H  3.38300 47.76500 23.60500
H  2.90900 49.07100 24.72600
H  5.94000 49.86500 29.07400
H  4.41400 48.55300 32.66400
H  6.08300 48.14800 33.05100
H  5.02700 47.02500 32.10600
Mg -2.03000 35.48200 26.73600
C  -3.72400 33.72600 29.31700
C  -0.84900 37.66100 29.16900
C  -0.48000 37.03100 24.38200
C  -3.62400 33.22500 24.48100
N  -2.24200 35.66700 28.97100
C  -2.90500 34.79500 29.81100
C  -2.82800 35.19800 31.27200
C  -2.03100 36.53700 31.11100
C  -1.71300 36.67600 29.69300
C  -2.69000 37.75500 31.74000
C  -1.99600 34.18000 32.12700
C  -1.85500 34.54000 33.53800
H  -2.66500 33.64000 34.44900
N  -0.84700 37.17800 26.76400
C  -0.46500 37.96600 27.86300
C  0.40300 39.04100 27.37600
C  0.54100 38.86800 25.97000
C  -0.37400 37.64900 25.61000
C  1.07700 40.03000 28.26700
C  1.33500 39.57400 24.84900
O  1.47100 39.11300 23.74100
C  2.20800 40.78600 25.30800
N  -2.06700 35.19900 24.78300
C  -1.16100 35.85800 24.07600
C  -0.97000 35.15800 22.64200
C  -2.00300 33.95200 22.63200
C  -2.58700 34.09400 24.02500
C  -1.09400 36.21300 21.50500
C  -1.31500 32.54100 22.36100
C  -2.14000 31.59300 21.40200
N  -3.48800 33.90400 26.82300
C  -4.03200 33.11600 25.83800
C  -4.98900 32.20200 26.41600
C  -4.85100 32.42300 27.80700
C  -3.97000 33.41200 28.00300
C  -5.77900 31.17500 25.67900
C  -5.23000 31.91400 29.13600
O  -5.78900 30.87000 29.43800
C  -4.63300 32.87500 30.15500
C  -5.71200 33.67100 30.75400
O  -6.55700 34.17500 30.04900
O  -5.77300 33.54600 32.13000
C  -6.91600 34.20400 32.81200
H  -0.58000 38.38800 29.93700
H  0.05600 37.51600 23.56300
H  -3.94300 32.46200 23.76800
H  -3.82000 35.36000 31.69500
H  -1.05300 36.37900 31.56700
H  -3.72500 37.52200 31.98900
H  -2.64600 38.64700 31.11600
H  -2.31500 38.06800 32.71400
H  -0.98200 34.32200 31.75300
H  -2.47300 33.20100 32.10900
H  -2.08000 35.57800 33.78200
H  -0.80500 34.48300 33.82400
H  0.55200 40.98000 28.16800
H  2.09400 40.17500 27.90200
H  1.15200 39.82500 29.33400
H  2.42500 41.41100 24.44200
H  3.07200 40.40100 25.84900
H  1.63300 41.38600 26.01300
H  0.08300 34.88100 22.70300
H  -2.63600 34.21100 21.78400
H  -1.63500 37.09400 21.85200
H  -1.69400 35.84400 20.67400
H  -0.12200 36.51900 21.11700
H  -1.03500 32.08800 23.31200
H  -0.36000 32.73500 21.87300
H  -1.54700 31.10000 20.63100
H  -2.98100 32.12400 20.95600
H  -2.53100 30.79900 22.03700
H  -5.67300 31.32900 24.60500
H  -6.73900 31.19700 26.19400
H  -5.40400 30.18400 25.93800
H  -4.17500 32.23700 30.91100
H  -7.77800 34.15400 32.14700
H  -6.61100 35.22800 33.02800
H  -7.11000 33.63500 33.72200

