158

Mg 35.91300 2.04100 30.52900
C  33.24900 3.11000 32.59400
C  38.04800 2.73000 33.10900
C  38.40500 1.02100 28.44900
C  33.61000 2.05100 27.78800
N  35.65400 2.80200 32.60600
C  34.46600 3.15800 33.28000
C  34.70300 3.26700 34.84000
C  36.25100 3.31300 34.89400
C  36.71400 2.92000 33.46400
C  36.89600 4.69100 35.35800
C  34.09000 2.10300 35.63200
C  33.80700 2.24900 37.11300
H  34.21000 3.57800 37.76000
N  37.91100 1.86800 30.72100
C  38.59300 2.09200 31.91400
C  39.90400 1.57100 31.76400
C  40.08700 1.20500 30.36300
C  38.77300 1.39900 29.76500
C  40.96900 1.50400 32.85900
C  41.29400 0.70900 29.65200
O  41.29700 0.66200 28.43700
C  42.71700 0.41200 30.32900
N  36.02200 1.60500 28.48300
C  37.16600 1.11900 27.86900
C  36.81200 0.74500 26.39900
C  35.34500 1.10900 26.21100
C  34.91800 1.60900 27.60600
C  37.76300 1.24800 25.30800
C  34.42600 -0.14100 25.76600
C  33.21400 0.11200 24.89400
N  33.75900 2.43000 30.20500
C  33.02300 2.43600 29.03400
C  31.56300 2.77200 29.37500
C  31.68100 3.02700 30.73300
C  33.01200 2.90800 31.18800
C  30.30000 2.78900 28.47000
C  30.88500 3.33900 31.94500
O  29.68800 3.51900 32.11400
C  31.89400 3.42300 33.08300
C  31.74400 4.75600 33.72200
O  32.19600 5.86000 33.34400
O  31.17900 4.49200 34.95200
C  30.88900 5.69700 35.71400
H  38.77200 2.74000 33.92600
H  39.19000 0.74300 27.74300
H  33.14900 2.18900 26.80800
H  34.39200 4.23500 35.23200
H  36.56300 2.45300 35.48600
H  36.13500 5.44100 35.57500
H  37.50000 5.12700 34.56100
H  37.66000 4.59400 36.12900
H  34.71500 1.22500 35.46700
H  33.10500 2.04300 35.16800
H  34.27500 1.46100 37.70400
H  32.74600 2.00700 37.17500
H  41.54300 0.57900 32.90800
H  40.50600 1.90000 33.76300
H  41.71100 2.25700 32.59300
H  43.39400 0.46800 29.47600
H  42.66000 -0.53600 30.86300
H  43.04500 1.19700 31.01100
H  36.84800 -0.33500 26.53900
H  35.21100 1.97600 25.56500
H  38.73900 1.68100 25.52500
H  37.17900 1.96100 24.72600
H  38.02800 0.39900 24.67800
H  34.06000 -0.67700 26.64100
H  35.09100 -0.77100 25.17600
H  33.39800 -0.37400 23.93500
H  32.95200 1.15500 24.71600
H  32.36800 -0.38900 25.36500
H  30.11500 1.84300 27.96100
H  30.36500 3.59300 27.73700
H  29.45500 2.99000 29.12900
H  31.61100 2.64600 33.79400
H  31.71200 6.41100 35.73300
H  30.63400 5.53300 36.76100
H  29.96700 6.11000 35.30500
Mg 27.05100 50.61200 25.94100
C  25.54200 51.91900 28.85100
C  29.73300 49.82300 28.10000
C  28.51500 49.14800 23.38400
C  24.70200 52.09400 23.96500
N  27.46600 50.68200 28.26500
C  26.64100 51.18700 29.24600
C  27.13100 50.93000 30.66900
C  28.58600 50.53800 30.34100
C  28.61200 50.30500 28.82600
C  29.58800 51.49400 30.95400
C  26.30900 49.80100 31.48700
C  25.60700 50.13600 32.84300
H  26.43200 50.89700 33.96700
N  28.83800 49.65300 25.72000
C  29.81500 49.50900 26.72200
C  30.93000 48.83500 26.10800
C  30.58600 48.36200 24.81400
C  29.25500 49.03800 24.58000
C  32.25500 48.52700 26.95200
C  31.28900 47.42400 23.86900
O  30.80300 47.03100 22.78700
C  32.66400 46.93900 24.24100
N  26.80700 50.80800 23.87000
C  27.40600 49.91200 23.06200
C  26.70900 49.98500 21.64000
C  25.41900 50.80300 21.96500
C  25.68000 51.27300 23.34200
C  27.61900 50.76900 20.72200
C  24.17200 49.91000 21.96300
C  22.87700 50.58600 21.41000
N  25.54200 51.81700 26.21700
C  24.55000 52.24800 25.35100
C  23.47200 52.93600 26.06900
C  23.81700 52.83700 27.38200
C  25.06900 52.10200 27.48600
C  22.28900 53.53900 25.52600
C  23.41500 53.15100 28.72300
O  22.40700 53.72700 29.12900
C  24.53100 52.59500 29.72000
C  25.15800 53.66400 30.53500
O  26.14700 54.31000 30.23700
O  24.40000 53.79100 31.69800
C  24.82700 54.84400 32.67300
H  30.52700 49.67900 28.83600
H  28.82200 48.44000 22.61100
H  23.80900 52.31600 23.37800
H  27.05300 51.82700 31.28400
H  28.84400 49.53900 30.69100
H  30.33600 50.98300 31.56000
H  29.05900 52.23300 31.55500
H  29.88200 51.90700 29.98900
H  26.96300 48.95300 31.69000
H  25.52000 49.42500 30.83500
H  25.24600 49.15000 33.13600
H  24.79300 50.80500 32.56200
H  32.26000 49.22600 27.78800
H  33.11900 48.76600 26.33300
H  32.22500 47.50000 27.31600
H  32.69700 46.35000 25.15800
H  33.36500 47.75300 24.42900
H  32.95400 46.25900 23.44000
H  26.50600 48.99000 21.24400
H  25.35000 51.66800 21.30500
H  27.67700 50.38200 19.70500
H  28.65000 50.54100 20.99500
H  27.64100 51.85900 20.74900
H  24.08700 49.49100 22.96600
H  24.41300 48.99400 21.42300
H  22.65800 49.97000 20.53700
H  23.01900 51.62600 21.11600
H  22.00900 50.49700 22.06200
H  21.43600 52.86100 25.55000
H  22.32100 53.68800 24.44600
H  22.00900 54.41900 26.10400
H  24.03500 51.96100 30.45500
H  25.03100 55.72700 32.06800
H  25.78600 54.58400 33.12100
H  23.94600 55.04700 33.28300

