158

Mg 10.05500 47.22700 25.87800
C  8.17000 46.97900 28.92700
C  12.67200 48.56700 27.87900
C  11.91900 47.49500 23.19500
C  7.25200 46.24300 24.14800
N  10.41600 47.55200 28.15500
C  9.48900 47.40200 29.16900
C  10.01200 48.00200 30.53200
C  11.29900 48.75000 30.07800
C  11.46700 48.30400 28.63500
C  11.09900 50.27600 30.08800
C  10.21400 46.95100 31.72500
C  9.49200 47.27000 33.04300
H  9.41600 46.11400 34.13000
N  12.09800 47.87200 25.60600
C  13.02100 48.28900 26.53700
C  14.31600 48.32400 25.91500
C  14.06800 48.05100 24.53400
C  12.68500 47.80300 24.37100
C  15.54300 48.65200 26.68600
C  14.94000 48.04700 23.43400
O  14.60200 48.08900 22.24700
C  16.39100 47.91900 23.69400
N  9.54700 46.99600 23.99000
C  10.57400 47.14900 23.06800
C  10.03500 46.53600 21.75000
C  8.65000 45.91200 22.07000
C  8.49700 46.33500 23.45800
C  10.03800 47.54300 20.55900
C  8.69800 44.37700 22.01800
C  8.85800 43.56200 23.28200
N  8.07400 46.77600 26.38800
C  6.99600 46.56100 25.53400
C  5.77300 46.42200 26.28400
C  6.20400 46.55100 27.65500
C  7.57300 46.74700 27.63000
C  4.44400 46.29700 25.73600
C  5.82800 46.58200 29.07700
O  4.73600 46.59400 29.60000
C  7.06800 46.78500 30.00200
C  7.29400 45.55900 30.85400
O  7.94100 44.55400 30.52700
O  6.52000 45.68600 32.01300
C  6.48300 44.45900 32.82400
H  13.51900 48.79800 28.52800
H  12.39800 47.65900 22.22700
H  6.43800 45.75800 23.60500
H  9.21000 48.70000 30.77200
H  12.21200 48.48700 30.61400
H  10.05000 50.57000 30.10700
H  11.35800 50.77200 29.15300
H  11.65300 50.67700 30.93700
H  11.27000 46.94900 31.99500
H  9.93200 46.00500 31.26200
H  8.43600 47.50500 32.90900
H  10.00000 48.14700 33.44500
H  16.06700 49.49700 26.23900
H  16.09500 47.76800 26.36700
H  15.41200 48.75800 27.76300
H  16.79000 48.62700 24.42000
H  16.99100 47.95600 22.78500
H  16.46900 46.91500 24.11200
H  10.79000 45.78400 21.52300
H  7.80400 46.19900 21.44600
H  10.39500 48.52800 20.86000
H  8.99500 47.76700 20.33500
H  10.63600 47.05800 19.78700
H  9.42300 44.02800 21.28200
H  7.78600 44.04300 21.52400
H  8.86800 44.12200 24.21700
H  9.91400 43.29600 23.23500
H  8.22600 42.67500 23.30900
H  4.36100 47.20300 25.13500
H  3.65600 46.25200 26.48700
H  4.44200 45.44600 25.05600
H  6.99400 47.72400 30.55100
H  6.49800 44.74700 33.87600
H  7.29400 43.75100 32.65100
H  5.57400 43.88800 32.63800
Mg -5.90300 24.87800 26.16800
C  -4.37300 26.14700 28.94600
C  -7.92600 22.89900 28.17400
C  -6.87400 23.04300 23.40000
C  -3.54600 26.48000 24.23300
N  -5.99300 24.41700 28.25400
C  -5.34900 25.14300 29.25500
C  -5.90300 24.75500 30.66400
C  -6.78100 23.49100 30.42400
C  -6.97500 23.61100 28.88800
C  -6.16800 22.14800 30.92600
C  -6.67500 25.95500 31.24700
C  -6.35400 26.28600 32.71800
H  -5.79400 25.26100 33.75300
N  -7.32000 23.29700 25.80900
C  -8.17700 22.73800 26.77600
C  -9.16900 21.95900 26.12500
C  -8.83100 21.94900 24.73700
C  -7.63100 22.80400 24.59400
C  -10.22600 21.24300 26.90900
C  -9.49500 21.23700 23.57000
O  -8.97600 21.08900 22.49500
C  -10.84400 20.66600 23.79200
N  -5.42400 24.77800 24.02100
C  -5.83000 23.90800 23.06200
C  -5.08500 24.06400 21.74300
C  -4.26500 25.40300 22.02900
C  -4.50600 25.65600 23.46600
C  -4.24200 22.78000 21.42100
C  -4.52900 26.73000 21.27400
C  -4.23600 26.58700 19.78900
N  -4.36300 26.20600 26.43100
C  -3.45500 26.80100 25.59600
C  -2.49100 27.66700 26.30700
C  -2.95000 27.53000 27.65400
C  -3.99400 26.52600 27.69200
C  -1.32200 28.46400 25.69700
C  -2.62400 27.87100 29.00900
O  -1.84900 28.66900 29.51400
C  -3.61600 27.01400 29.87700
C  -2.68500 26.25700 30.72000
O  -1.73200 25.62400 30.34200
O  -2.97100 26.39900 32.09100
C  -1.87000 26.01000 33.01100
H  -8.43500 22.25200 28.89100
H  -7.03100 22.46200 22.48800
H  -2.85800 26.95200 23.52900
H  -5.01800 24.47700 31.23600
H  -7.77700 23.56600 30.86000
H  -5.77800 21.58600 30.07800
H  -6.95600 21.55600 31.39200
H  -5.40900 22.38100 31.67200
H  -7.74100 25.73400 31.17800
H  -6.43300 26.82400 30.63500
H  -7.22200 26.78000 33.15400
H  -5.53300 26.99500 32.61500
H  -10.34700 21.80100 27.83700
H  -9.94000 20.20200 27.05900
H  -11.22100 21.30400 26.46700
H  -11.23600 20.32000 22.83500
H  -11.47400 21.51300 24.06200
H  -10.87400 19.85700 24.52200
H  -5.88200 24.24300 21.02200
H  -3.21800 25.16000 21.84800
H  -3.26100 23.01000 21.00500
H  -4.76700 22.11800 20.73300
H  -4.08200 22.14900 22.29500
H  -3.86400 27.51000 21.64300
H  -5.54400 27.03900 21.52500
H  -3.29000 26.99500 19.43100
H  -5.03100 27.09600 19.24400
H  -4.30300 25.53600 19.50400
H  -1.74900 29.43400 25.43900
H  -0.81900 28.05200 24.82200
H  -0.52300 28.66400 26.41100
H  -4.12000 27.82200 30.40600
H  -1.44400 25.04600 32.73500
H  -2.24800 26.08100 34.03100
H  -1.13400 26.80900 32.92000

