158

Mg 2.10800 -1.56800 43.56000
C  5.52000 -0.62100 43.06200
C  1.21700 1.58400 42.15800
C  -0.99400 -2.73800 42.90500
C  3.18200 -4.72700 44.39000
N  3.28300 0.39500 42.83900
C  4.67600 0.45600 42.62900
C  4.99800 1.64000 41.80000
C  3.68100 2.53900 41.98900
C  2.60400 1.45500 42.38300
C  3.80600 3.77600 42.95600
C  5.35700 1.16800 40.37300
C  6.69800 1.53300 39.79200
H  6.65600 2.25300 38.46400
N  0.27700 -0.71900 42.71000
C  0.15400 0.60300 42.29100
C  -1.24300 0.87200 41.99400
C  -1.95000 -0.40000 42.19800
C  -0.90000 -1.31500 42.54700
C  -1.84700 2.20300 41.71200
C  -3.46000 -0.59200 42.13000
O  -4.16800 0.41300 41.89900
C  -4.14300 -1.89800 42.34300
N  1.19000 -3.46900 43.78800
C  -0.07100 -3.71300 43.44800
C  -0.40400 -5.20500 43.59900
C  0.90900 -5.79500 44.08800
C  1.85600 -4.56500 44.12300
C  -1.68700 -5.52600 44.42000
C  1.55000 -6.98000 43.22500
C  1.37300 -8.42200 43.74900
N  3.98200 -2.51300 43.95100
C  4.23900 -3.77800 44.19300
C  5.66000 -3.95500 44.17800
C  6.18700 -2.73000 43.73300
C  5.08700 -1.86900 43.58200
C  6.47900 -5.14500 44.43700
C  7.43100 -1.99900 43.42600
O  8.58500 -2.43800 43.43100
C  7.01300 -0.63400 42.82000
C  7.79700 0.36900 43.52900
O  7.61700 0.77400 44.66600
O  8.83500 0.84100 42.66700
C  9.41000 2.00100 43.17300
H  0.89800 2.55900 41.78300
H  -1.99000 -3.17900 42.82500
H  3.69700 -5.68600 44.47300
H  5.79400 2.08600 42.39700
H  3.38000 3.05900 41.08000
H  4.64500 3.65700 43.64200
H  2.84100 3.78800 43.46400
H  3.95800 4.66100 42.33800
H  4.60500 1.61900 39.72500
H  5.17600 0.10100 40.23900
H  7.31100 0.64300 39.65600
H  7.18600 2.19800 40.50500
H  -2.74800 2.08900 41.11100
H  -1.15900 2.90900 41.24600
H  -2.20400 2.63100 42.64900
H  -5.22900 -1.81200 42.31000
H  -3.83100 -2.23700 43.33100
H  -3.87500 -2.66300 41.61500
H  -0.70500 -5.43500 42.57700
H  0.71100 -6.12200 45.10900
H  -1.55300 -6.25500 45.22000
H  -2.48300 -5.87900 43.76400
H  -1.93500 -4.54000 44.81400
H  2.60000 -6.77100 43.02300
H  1.04800 -6.93000 42.25900
H  2.19200 -8.67100 44.42400
H  1.24000 -9.00500 42.83800
H  0.43000 -8.60800 44.26300
H  7.51500 -4.86900 44.63500
H  6.55800 -5.71300 43.51000
H  6.11900 -5.80200 45.22800
H  7.25400 -0.58900 41.75800
H  10.09800 1.77500 43.98800
H  8.70600 2.77500 43.47700
H  9.98000 2.52700 42.40700
Mg -11.19800 16.90400 41.64400
C  -7.77100 16.09000 41.45200
C  -10.39900 20.15800 40.88300
C  -14.38900 17.53700 41.64200
C  -11.79900 13.42600 42.20100
N  -9.24900 18.03500 41.37800
C  -8.02700 17.47900 41.27000
C  -7.00400 18.56300 40.82800
C  -7.89100 19.87200 40.71200
C  -9.27300 19.35600 40.99300
C  -7.45400 21.16100 41.53600
C  -6.39300 18.21200 39.47900
C  -4.83700 18.08100 39.23300
H  -4.25600 18.55000 37.91500
N  -12.26100 18.61500 41.12800
C  -11.78500 19.82600 40.95300
C  -12.89300 20.85300 40.78500
C  -14.04000 20.05200 40.93000
C  -13.64400 18.66000 41.15400
C  -12.71400 22.36400 40.57200
C  -15.42800 20.50400 40.92700
O  -15.65600 21.74500 40.96700
C  -16.60100 19.63200 41.06900
N  -12.84300 15.66300 41.81900
C  -14.08300 16.17800 41.82200
C  -15.16900 15.14800 42.16300
C  -14.29200 13.82000 42.08800
C  -12.84300 14.27300 42.07800
C  -15.81800 15.47500 43.57800
C  -14.66300 13.01300 40.83800
C  -15.15400 11.55800 41.10100
N  -10.05700 15.13900 41.86100
C  -10.44300 13.81800 42.11400
C  -9.26200 13.00000 42.22900
C  -8.21400 13.86400 41.97600
C  -8.73000 15.09500 41.70900
C  -9.19000 11.60800 42.77600
C  -6.76600 13.93200 41.85400
O  -5.88400 13.05800 41.86000
C  -6.44200 15.38900 41.59200
C  -5.67100 15.90300 42.69900
O  -6.00500 15.90400 43.88000
O  -4.40300 16.30300 42.33600
C  -3.61100 16.98900 43.32200
H  -10.17600 21.22400 40.80100
H  -15.47900 17.52700 41.57700
H  -12.17600 12.43600 42.46500
H  -6.20900 18.78200 41.54200
H  -7.90900 20.12800 39.65300
H  -6.40700 20.93600 41.73700
H  -8.06200 21.45500 42.39200
H  -7.30400 22.03300 40.90000
H  -6.70700 18.77700 38.60100
H  -6.73000 17.18500 39.34200
H  -4.59800 17.04100 39.45300
H  -4.27100 18.64800 39.97300
H  -12.40400 22.71600 39.58800
H  -11.93600 22.74700 41.23300
H  -13.64300 22.86000 40.85200
H  -17.48000 20.26200 40.92800
H  -16.69500 19.16000 42.04600
H  -16.57500 18.86600 40.29400
H  -15.98300 15.19300 41.43900
H  -14.40400 13.22700 42.99600
H  -15.17000 16.19600 44.07700
H  -15.74400 14.57000 44.18000
H  -16.85200 15.77100 43.40200
H  -13.92600 12.92300 40.04000
H  -15.50500 13.55600 40.40800
H  -16.18900 11.38000 40.81000
H  -15.12500 11.22700 42.13900
H  -14.52100 10.90600 40.49900
H  -9.62700 11.64000 43.77300
H  -8.18300 11.23100 42.95700
H  -9.78000 10.96000 42.12700
H  -5.82000 15.50900 40.70500
H  -2.98200 16.16800 43.66500
H  -4.20300 17.36500 44.15600
H  -3.01700 17.83900 42.98800

