158

Mg 29.38800 57.77700 40.68500
C  26.38100 56.14800 39.75300
C  31.01000 55.12000 39.28300
C  32.16700 59.59400 40.90600
C  27.46500 60.67300 41.10600
N  28.75400 55.78000 39.84500
C  27.52200 55.46000 39.38300
C  27.48700 54.41600 38.24600
C  28.87600 53.84400 38.65800
C  29.65400 54.97000 39.30000
C  28.82400 52.63200 39.66500
C  27.36200 55.00100 36.75700
C  26.04100 54.69900 36.00700
H  26.06900 54.40800 34.49900
N  31.34500 57.25300 40.38300
C  31.79200 56.15700 39.77500
C  33.27400 56.22800 39.78900
C  33.69100 57.47100 40.18200
C  32.38700 58.14000 40.51900
C  34.14500 55.11100 39.23100
C  35.08600 58.04800 40.22700
O  36.02200 57.34100 39.93000
C  35.44500 59.58000 40.50100
N  29.73300 59.83500 40.84700
C  30.97100 60.36900 41.05300
C  30.96200 61.91000 41.22100
C  29.46800 62.12900 41.44700
C  28.81600 60.79900 41.11700
C  32.06600 62.49500 42.23500
C  28.76500 63.24300 40.60500
C  28.54200 62.87300 39.12100
N  27.32200 58.26500 40.69400
C  26.69300 59.46500 40.87900
C  25.25300 59.18700 40.91300
C  25.10000 57.91800 40.43600
C  26.43500 57.41900 40.34100
C  24.23200 60.30200 41.15300
C  24.07800 57.00800 40.10100
O  22.82900 57.15800 40.13300
C  24.82800 55.77100 39.51100
C  24.40600 54.48800 40.19200
O  24.41000 54.23700 41.44800
O  23.69600 53.63400 39.34000
C  22.77000 52.85800 40.13400
H  31.52600 54.27800 38.81800
H  33.08700 60.15200 41.09000
H  26.80600 61.51500 41.32600
H  26.59700 53.84700 38.51300
H  29.44000 53.46300 37.80700
H  27.81200 52.40900 40.00300
H  29.21800 52.90300 40.64500
H  29.36900 51.73500 39.37000
H  28.15600 54.76400 36.04800
H  27.49700 56.06600 36.94900
H  25.37900 55.55300 36.14700
H  25.50900 53.93300 36.57000
H  33.65600 54.21400 39.61100
H  35.11900 54.96200 39.69800
H  34.01600 55.19300 38.15200
H  35.30400 59.87800 41.54000
H  35.05300 60.25000 39.73500
H  36.50700 59.69800 40.29000
H  31.27500 62.37600 40.28700
H  29.31300 62.39500 42.49200
H  32.85000 62.99000 41.66100
H  32.40500 61.65600 42.84300
H  31.43200 63.21300 42.75400
H  29.46600 64.07700 40.60600
H  27.78600 63.54300 40.97900
H  28.95900 61.92800 38.77400
H  28.99400 63.64700 38.50000
H  27.49700 62.98100 38.82800
H  24.28500 60.99000 40.30900
H  24.53900 60.81800 42.06200
H  23.21900 59.92200 41.28700
H  24.49600 55.77300 38.47300
H  22.14300 52.43600 39.34900
H  22.19900 53.46900 40.83300
H  23.27100 52.05100 40.66900
Mg -0.88200 34.91300 25.71600
C  -2.54500 33.02000 28.20800
C  0.30600 36.92400 28.17200
C  0.27800 36.87200 23.35400
C  -2.51600 32.98800 23.36100
N  -1.16800 34.96200 27.92900
C  -1.80400 34.12300 28.72700
C  -1.62400 34.39500 30.25400
C  -0.85500 35.75700 30.12900
C  -0.46100 35.89000 28.63300
C  -1.56000 37.01000 30.74200
C  -0.80400 33.27200 31.04200
C  -1.39800 32.75700 32.29200
H  -0.44500 32.38200 33.43400
N  0.15500 36.69400 25.77800
C  0.62100 37.33700 26.83900
C  1.45300 38.38000 26.42300
C  1.55700 38.32900 25.03400
C  0.67200 37.24900 24.61500
C  2.12400 39.23600 27.41900
C  2.26900 39.19300 24.07400
O  2.27200 39.06500 22.84900
C  3.09900 40.33000 24.67300
N  -1.32700 35.10800 23.67500
C  -0.59600 35.89500 22.94500
C  -0.84600 35.72700 21.41500
C  -1.49500 34.34400 21.41500
C  -1.82300 34.12500 22.94800
C  -1.69300 36.84400 20.74200
C  -0.53000 33.13200 20.89200
C  0.62600 32.51600 21.71800
N  -2.38800 33.33100 25.74600
C  -3.00100 32.70700 24.69400
C  -3.91900 31.66900 25.18100
C  -3.63900 31.69600 26.62000
C  -2.82900 32.77300 26.87400
C  -4.56900 30.60800 24.47000
C  -3.93000 31.05400 27.95300
O  -4.60500 30.11500 28.30000
C  -3.32500 31.94500 28.97400
C  -4.46300 32.48400 29.73800
O  -5.07300 33.50200 29.48700
O  -4.61900 31.67600 30.81500
C  -5.40900 32.07900 31.94100
H  0.81800 37.41800 29.00100
H  0.88100 37.31800 22.56000
H  -2.91300 32.31700 22.59600
H  -2.67000 34.47800 30.55000
H  0.05000 35.73000 30.73700
H  -1.08800 37.20100 31.70600
H  -2.58500 36.67700 30.90800
H  -1.63100 37.91000 30.13100
H  0.15600 33.63000 31.41400
H  -0.72700 32.45400 30.32600
H  -1.84900 31.80400 32.01500
H  -2.09800 33.54800 32.56200
H  1.84400 40.25500 27.15200
H  3.19100 39.02100 27.35100
H  1.88400 39.03400 28.46300
H  3.67900 40.84300 23.90600
H  3.84200 40.08000 25.43000
H  2.46800 41.10000 25.11800
H  0.10600 35.72600 20.88500
H  -2.45600 34.31600 20.90200
H  -2.52000 36.55700 20.09200
H  -1.06800 37.42900 20.06800
H  -2.05700 37.52800 21.50800
H  -0.11500 33.58000 19.98900
H  -1.30900 32.43500 20.58300
H  0.40000 32.61300 22.77900
H  1.60900 32.92000 21.47600
H  0.67800 31.43100 21.61700
H  -4.08400 29.66000 24.70600
H  -4.52400 30.76500 23.39300
H  -5.63200 30.53800 24.69800
H  -2.71900 31.35300 29.66000
H  -6.28200 32.55600 31.49700
H  -4.83400 32.79500 32.52900
H  -5.65200 31.18800 32.52000

