158

Mg 8.94600 2.85300 27.91100
C  10.17800 1.14300 30.71100
C  7.15400 4.78200 29.95800
C  7.82700 4.43600 25.16500
C  10.44200 0.48500 25.87300
N  8.64200 2.84700 30.14900
C  9.26800 2.14200 31.09000
C  8.95500 2.73000 32.49200
C  8.07000 3.89100 32.17600
C  7.83500 3.81700 30.67000
C  6.81400 4.03300 33.02300
C  10.31400 3.24100 33.11600
C  10.17500 4.05900 34.46100
H  10.96300 3.69300 35.68200
N  7.55100 4.33200 27.57900
C  6.93800 5.02700 28.56800
C  6.28200 6.21000 28.03500
C  6.58100 6.19600 26.65800
C  7.33800 4.93600 26.40100
C  5.45300 7.21700 28.86900
C  6.12700 7.26700 25.60000
O  6.35300 7.04200 24.40300
C  5.29800 8.39300 26.04500
N  9.15300 2.52500 25.82900
C  8.57100 3.28300 24.91900
C  8.75000 2.85400 23.44200
C  9.67800 1.64000 23.60700
C  9.79300 1.51900 25.19800
C  7.43100 2.74900 22.59700
C  11.06200 1.72700 22.80300
C  11.16100 0.69900 21.66700
N  10.07800 1.15600 28.24200
C  10.62500 0.33400 27.27000
C  11.34200 -0.71100 27.98400
C  11.23200 -0.35700 29.30100
C  10.46800 0.78500 29.39500
C  12.11500 -1.87400 27.43100
C  11.69400 -0.77200 30.57500
O  12.24600 -1.74000 30.97600
C  11.08000 0.30600 31.54000
C  10.49200 -0.34600 32.76400
O  9.38500 -0.89200 32.85700
O  11.44700 -0.28200 33.84500
C  11.08200 -0.82300 35.15700
H  6.63600 5.46400 30.63600
H  7.60100 4.93200 24.21900
H  10.86300 -0.27700 25.21300
H  8.52100 2.06000 33.23500
H  8.58500 4.80000 32.48900
H  6.87500 5.08000 33.31900
H  6.65200 3.28200 33.79600
H  5.91800 3.92100 32.41200
H  10.80700 3.86900 32.37400
H  10.89600 2.37100 33.42200
H  9.12200 3.87500 34.67500
H  10.36200 5.12200 34.30700
H  4.44400 7.45200 28.52900
H  5.98300 8.14700 29.07300
H  5.30400 6.86100 29.88800
H  5.75600 8.83500 26.93000
H  4.32200 7.93700 26.20900
H  5.18600 9.12600 25.24600
H  9.41300 3.60400 23.01100
H  9.10800 0.81300 23.18300
H  7.28600 3.69000 22.06500
H  6.54600 2.68600 23.23000
H  7.48500 1.82200 22.02600
H  11.86000 1.48700 23.50600
H  11.22400 2.75500 22.48000
H  11.69800 1.15000 20.83400
H  10.14900 0.40500 21.38600
H  11.74000 -0.17700 21.96000
H  12.13900 -2.48400 28.33500
H  13.09800 -1.61600 27.03700
H  11.52100 -2.44800 26.72000
H  11.92000 0.90100 31.89800
H  12.03100 -1.20800 35.53000
H  10.32100 -1.60200 35.20200
H  10.80500 -0.03000 35.85300
Mg 23.14600 -7.70500 45.87600
C  25.67200 -5.37200 44.74800
C  21.10100 -6.20500 43.54100
C  20.94900 -10.21500 46.41600
C  25.67000 -9.67000 47.35100
N  23.43900 -6.07200 44.25900
C  24.46900 -5.15900 44.07600
C  24.06900 -4.05400 43.05000
C  22.58100 -4.29300 42.84700
C  22.33900 -5.59700 43.55200
C  21.74900 -3.06600 43.31900
C  24.92300 -4.12400 41.66200
C  25.76000 -2.85400 41.31600
H  26.38000 -2.80300 39.94200
N  21.19800 -8.13400 45.15400
C  20.56200 -7.36000 44.24500
C  19.30000 -7.98800 44.00900
C  19.26300 -9.10700 44.82900
C  20.46300 -9.18500 45.60900
C  18.29100 -7.38800 43.04800
C  18.12700 -10.04100 44.90700
O  17.16200 -9.83500 44.13200
C  17.97000 -11.04600 46.04300
N  23.24200 -9.57500 47.05700
C  22.19400 -10.43700 47.01400
C  22.61300 -11.81000 47.59000
C  24.06800 -11.54200 48.09300
C  24.36900 -10.24300 47.43200
C  21.63700 -12.51000 48.54700
C  25.10000 -12.68800 47.87400
C  25.16600 -13.63900 48.98000
N  25.16800 -7.58800 46.12800
C  26.06900 -8.46200 46.70000
C  27.38200 -7.88900 46.65400
C  27.29300 -6.69800 45.93500
C  25.94400 -6.55500 45.56700
C  28.66500 -8.58200 47.14700
C  28.01400 -5.56500 45.57600
O  29.17400 -5.26500 45.81100
C  27.02100 -4.58900 44.74600
C  26.95300 -3.28200 45.42300
O  26.77000 -3.15700 46.58000
O  27.25300 -2.25300 44.52800
C  27.48000 -0.89300 45.10300
H  20.49300 -5.69100 42.79500
H  20.37400 -11.14200 46.46500
H  26.46100 -10.21600 47.87100
H  24.20800 -3.04700 43.44500
H  22.44000 -4.38500 41.77100
H  22.33800 -2.29400 43.81600
H  21.04600 -3.40500 44.08000
H  21.22200 -2.65600 42.45800
H  24.35600 -4.42400 40.78100
H  25.69300 -4.89200 41.74000
H  26.50300 -2.71200 42.10000
H  24.98800 -2.08700 41.38200
H  18.02200 -8.14500 42.31100
H  18.64100 -6.54200 42.45700
H  17.41100 -7.07000 43.60600
H  18.17000 -10.61700 47.02500
H  18.44500 -11.97000 45.71300
H  16.90600 -11.25300 46.15800
H  22.77100 -12.43000 46.70800
H  24.15400 -11.33600 49.16000
H  21.68700 -13.58400 48.36700
H  20.65400 -12.08000 48.35400
H  21.94700 -12.42700 49.58800
H  26.07300 -12.24200 47.67100
H  24.88000 -13.26900 46.97900
H  24.13900 -13.88200 49.25200
H  25.73500 -13.31500 49.85200
H  25.64300 -14.56800 48.66700
H  28.61900 -9.04700 48.13200
H  29.47400 -7.85300 47.11500
H  28.98900 -9.32100 46.41500
H  27.56100 -4.46200 43.80700
H  26.62000 -0.46600 45.62000
H  27.45900 -0.21400 44.25100
H  28.44700 -0.77200 45.59200

