158

Mg 25.85800 0.83600 29.15700
C  27.92500 0.01100 31.85900
C  23.36600 1.20600 31.46000
C  23.84600 1.67000 26.63900
C  28.41300 0.13700 26.91300
N  25.67500 0.63600 31.54800
C  26.69000 0.43300 32.39300
C  26.13300 0.53200 33.81200
C  24.63300 0.94000 33.69700
C  24.50900 0.85500 32.18900
C  23.67000 0.09200 34.47000
C  26.99800 1.49300 34.67600
C  26.41000 2.39000 35.80700
H  27.18600 2.41600 37.11300
N  23.86500 1.28800 29.04300
C  23.00300 1.38600 30.10100
C  21.71500 1.72100 29.54800
C  21.77900 1.96700 28.11800
C  23.20200 1.64500 27.87800
C  20.45600 1.73500 30.46200
C  20.66800 2.32300 27.06800
O  20.87300 2.21300 25.88300
C  19.27900 2.78400 27.45600
N  26.15000 1.08200 26.98200
C  25.10900 1.35800 26.20600
C  25.54000 1.31500 24.71500
C  27.00500 0.85900 24.85900
C  27.20900 0.65900 26.32500
C  24.63300 0.53800 23.76300
C  28.06700 1.80800 24.23300
C  28.14000 3.19200 24.86100
N  27.74400 0.19700 29.30500
C  28.61900 -0.10400 28.29300
C  29.85300 -0.43800 28.95200
C  29.67700 -0.44700 30.29700
C  28.30300 -0.02300 30.49700
C  31.15400 -0.85600 28.20900
C  30.27300 -0.62300 31.62500
O  31.40500 -0.72600 31.97300
C  29.13900 -0.38900 32.62600
C  28.92000 -1.63100 33.35000
O  28.45400 -2.62300 32.88700
O  29.14400 -1.36400 34.71900
C  28.55500 -2.37400 35.61500
H  22.51100 1.41400 32.10800
H  23.12400 1.94900 25.86900
H  29.23900 -0.05300 26.22500
H  26.21900 -0.45300 34.26900
H  24.42700 1.99200 33.89800
H  23.52800 -0.82300 33.89500
H  22.71800 0.53000 34.77000
H  24.13300 -0.21200 35.40900
H  27.31000 2.31400 34.03100
H  27.71800 0.94000 35.27900
H  25.38200 2.06300 35.96500
H  26.33300 3.42500 35.47200
H  20.60900 1.18600 31.39100
H  19.64000 1.22600 29.95000
H  20.17500 2.76800 30.67000
H  19.32900 3.24800 28.44100
H  18.64700 1.90000 27.54100
H  18.97800 3.50800 26.69900
H  25.65600 2.36900 24.46500
H  27.06000 -0.14300 24.43400
H  25.01700 -0.43400 23.45500
H  24.61800 1.16400 22.87100
H  23.68700 0.20000 24.18500
H  27.75000 1.86900 23.19200
H  28.99600 1.27500 24.03500
H  27.51700 3.76500 24.17500
H  29.16200 3.56900 24.89500
H  27.71600 3.28800 25.86100
H  31.42900 -0.12500 27.44900
H  30.93500 -1.78800 27.68700
H  31.89600 -1.15700 28.94900
H  29.40400 0.45500 33.26200
H  29.21000 -2.68200 36.43000
H  28.39800 -3.33600 35.12600
H  27.55000 -2.03900 35.86900
Mg 35.51300 48.90400 25.00500
C  35.73100 47.41100 28.31000
C  34.78100 51.82800 26.57000
C  35.64900 50.23600 22.09400
C  36.70500 45.81900 23.75600
N  35.24400 49.54000 27.21900
C  35.45200 48.78300 28.35600
C  35.37100 49.64700 29.59400
C  35.11100 51.05600 29.02500
C  34.95100 50.79700 27.52900
C  33.96600 51.85400 29.77800
C  36.70300 49.65900 30.51400
C  36.56600 49.13400 31.97900
H  35.18000 49.23500 32.64400
N  35.32800 50.83400 24.37600
C  34.91400 51.87300 25.14200
C  34.68400 52.99900 24.29000
C  34.96300 52.58900 22.98700
C  35.27200 51.18000 23.06300
C  34.33100 54.38500 24.84400
C  34.83400 53.40800 21.75700
O  35.20400 52.93600 20.62800
C  34.14200 54.72600 21.76100
N  36.25400 48.17500 23.24300
C  36.12100 48.90300 22.10800
C  36.66500 48.20500 20.84600
C  37.26000 46.94900 21.50700
C  36.64900 46.93500 22.91300
C  35.52000 47.81800 19.73600
C  38.78900 46.96300 21.59700
C  39.53400 45.60900 21.50400
N  35.83300 46.91500 25.78300
C  36.36900 45.79700 25.15200
C  36.59700 44.71600 26.09600
C  36.40800 45.32400 27.35000
C  35.94500 46.65400 27.10900
C  37.01600 43.27000 25.71000
C  36.44200 45.08900 28.76900
O  36.81200 44.16700 29.42300
C  35.90100 46.41700 29.46800
C  34.66000 46.12400 30.25700
O  33.50500 46.24500 29.88800
O  35.01500 45.58100 31.48700
C  33.91300 45.04000 32.33600
H  34.42400 52.69700 27.12600
H  35.67300 50.65200 21.08500
H  37.10400 44.96700 23.20100
H  34.48300 49.41600 30.18400
H  36.01200 51.66600 29.08200
H  34.48200 52.66100 30.29700
H  33.23100 51.35100 30.40700
H  33.37300 52.24700 28.95200
H  37.16400 50.64200 30.60200
H  37.37000 48.89200 30.11900
H  37.31800 49.64100 32.58300
H  36.85900 48.08700 32.05900
H  34.90300 55.15000 24.31900
H  34.68200 54.47600 25.87200
H  33.26700 54.60900 24.76900
H  33.12800 54.56700 22.12800
H  33.94200 55.06400 20.74400
H  34.69900 55.56800 22.17100
H  37.47700 48.70000 20.31300
H  36.97300 46.02100 21.01200
H  36.10500 47.59600 18.84400
H  34.91300 48.70700 19.56600
H  34.83100 47.04000 20.06400
H  39.08500 47.47000 22.51500
H  39.23900 47.55300 20.79900
H  40.24900 45.65400 22.32500
H  40.08100 45.47000 20.57100
H  38.95200 44.69800 21.64500
H  36.27600 42.76900 25.08700
H  37.07000 42.65700 26.61000
H  37.97800 43.37800 25.20900
H  36.66600 46.69500 30.19300
H  33.10800 44.65700 31.70900
H  33.51300 45.91800 32.84200
H  34.18500 44.30300 33.09100

