158

Mg 40.75600 8.91800 30.11000
C  42.70300 9.76000 32.87200
C  38.27500 7.77200 32.27700
C  39.42500 7.48500 27.55200
C  43.68800 9.69800 28.15500
N  40.57400 8.83000 32.41000
C  41.34600 9.43300 33.30700
C  40.76700 9.26200 34.69100
C  39.41900 8.43500 34.49800
C  39.35000 8.42000 32.99700
C  39.46300 7.03800 35.19600
C  40.69800 10.59400 35.44900
C  41.48200 10.84600 36.75400
H  40.91000 11.86900 37.74400
N  38.98200 8.07400 29.92400
C  38.04900 7.75900 30.93000
C  36.92800 7.22100 30.27500
C  37.21100 7.05500 28.89400
C  38.60400 7.51500 28.73100
C  35.77400 6.77200 31.04100
C  36.46200 6.39800 27.77600
O  36.87100 6.32200 26.59400
C  34.99400 6.02200 28.09800
N  41.40300 8.80200 28.03000
C  40.67500 8.03900 27.23200
C  41.32200 7.88800 25.85800
C  42.72000 8.65300 26.01400
C  42.60100 9.13300 27.50500
C  41.45000 6.41700 25.38800
C  43.00900 9.75600 24.95300
C  42.49600 11.24400 25.20500
N  42.75300 9.74400 30.39200
C  43.80700 9.95700 29.50700
C  44.87600 10.62200 30.30300
C  44.50900 10.54300 31.61100
C  43.25400 9.89300 31.62200
C  46.09300 11.21300 29.66900
C  44.85100 10.92500 32.93100
O  45.80800 11.60300 33.35300
C  43.64800 10.40100 33.81200
C  44.20900 9.47500 34.93400
O  44.27300 8.26100 34.85500
O  44.77300 10.28400 35.88800
C  45.74000 9.55200 36.73900
H  37.47800 7.34500 32.88900
H  39.01300 6.82200 26.78800
H  44.53900 9.93700 27.51400
H  41.42400 8.60800 35.26300
H  38.52100 8.96600 34.81400
H  39.53600 6.21300 34.48700
H  38.55700 6.99100 35.80000
H  40.26800 7.04300 35.93100
H  39.67000 10.92000 35.60800
H  40.96900 11.29700 34.66200
H  42.44000 11.22300 36.39500
H  41.66700 9.89000 37.24400
H  35.80100 7.41500 31.92100
H  35.89900 5.71800 31.29000
H  34.84000 6.91300 30.49800
H  35.02700 5.34100 28.94800
H  34.54100 5.49500 27.25800
H  34.47400 6.95900 28.29400
H  40.64200 8.47600 25.24200
H  43.52300 7.91900 25.94600
H  40.68300 5.81300 25.87300
H  42.47200 6.12000 25.62300
H  41.32300 6.46700 24.30700
H  42.66400 9.47200 23.95900
H  44.09400 9.85400 24.94200
H  41.82500 11.26000 26.06400
H  41.96500 11.59100 24.31800
H  43.25100 12.01300 25.37000
H  46.76700 11.67600 30.38900
H  45.85600 12.03300 28.99100
H  46.56400 10.39000 29.13100
H  43.19500 11.24600 34.32900
H  46.75000 9.54300 36.32900
H  45.33100 8.56100 36.93500
H  45.87900 10.15100 37.63900
Mg -5.81300 25.10500 25.31200
C  -4.14500 26.37900 28.24800
C  -7.61700 23.23100 27.16600
C  -6.77400 23.78700 22.48700
C  -3.29600 26.93400 23.52900
N  -5.79900 24.78100 27.49700
C  -5.19300 25.49100 28.51700
C  -5.71800 25.08500 29.86900
C  -6.72900 23.91100 29.55300
C  -6.74700 23.92700 28.00600
C  -6.37700 22.46400 30.10500
C  -6.52300 26.26600 30.45900
C  -7.14900 26.01700 31.86700
H  -6.60500 24.82100 32.67200
N  -7.07800 23.73600 24.87900
C  -7.86000 23.10500 25.82300
C  -8.79500 22.23600 25.13700
C  -8.61800 22.49200 23.79200
C  -7.41700 23.32600 23.67800
C  -9.77500 21.36000 25.80700
C  -9.36800 21.96500 22.63300
O  -9.08300 22.24700 21.46100
C  -10.43900 21.00700 22.83500
N  -4.86100 25.05400 23.30700
C  -5.58900 24.51000 22.33100
C  -4.88800 24.68800 20.93100
C  -3.91600 25.92900 21.24800
C  -4.00500 25.93800 22.77800
C  -4.18100 23.36800 20.45000
C  -4.31500 27.30800 20.53300
C  -3.12800 27.95600 19.77200
N  -4.15100 26.47400 25.77600
C  -3.28500 27.17600 24.89500
C  -2.44200 28.02200 25.62100
C  -2.68900 27.66400 26.95800
C  -3.67000 26.72700 26.98100
C  -1.63600 29.19700 25.15600
C  -2.33600 28.04300 28.34300
O  -1.50600 28.76100 28.90800
C  -3.27800 27.15700 29.23000
C  -2.64700 26.31700 30.27800
O  -1.91100 25.35600 30.17100
O  -3.06400 26.79600 31.50400
C  -2.69400 26.04400 32.73300
H  -8.28900 22.67100 27.81900
H  -7.03900 23.30900 21.54200
H  -2.68400 27.44700 22.78400
H  -4.95300 24.77700 30.58300
H  -7.72500 24.17800 29.90700
H  -7.29800 22.06000 30.52600
H  -5.60300 22.50200 30.87200
H  -6.14400 21.79000 29.28100
H  -7.43700 26.32800 29.86900
H  -5.90300 27.16000 30.39200
H  -8.23500 25.96600 31.78500
H  -6.85900 26.90400 32.42900
H  -10.76000 21.78700 25.62200
H  -9.52500 21.29200 26.86600
H  -9.72300 20.35200 25.39600
H  -10.74700 20.71900 21.83000
H  -11.32500 21.40300 23.33200
H  -10.19700 20.07500 23.34600
H  -5.69200 24.91400 20.23100
H  -2.94800 25.61500 20.85900
H  -4.23900 22.65500 21.27200
H  -3.15000 23.53900 20.13700
H  -4.82700 23.04200 19.63400
H  -4.80900 28.07600 21.12800
H  -5.18000 27.00900 19.94100
H  -2.91200 27.38400 18.87000
H  -2.27100 28.15900 20.41500
H  -3.52500 28.93100 19.49200
H  -2.22900 29.84200 24.50800
H  -0.89200 28.85200 24.43800
H  -1.24800 29.77000 25.99900
H  -3.82400 27.92900 29.77400
H  -2.80400 24.96200 32.66500
H  -3.29600 26.48400 33.52700
H  -1.62500 26.12600 32.92800

