158

Mg 49.89100 44.61400 41.46600
C  46.66700 45.09500 40.17200
C  49.92700 41.48200 40.01400
C  53.26000 44.40800 41.82100
C  50.06900 48.05500 42.14300
N  48.44800 43.42800 40.31600
C  47.20000 43.78900 39.96500
C  46.50000 42.72500 39.07000
C  47.49500 41.44200 39.35500
C  48.68600 42.13600 39.88700
C  46.91600 40.39000 40.32900
C  46.47200 43.14900 37.57000
C  45.16200 43.15500 36.69900
H  45.34000 42.55500 35.34600
N  51.38400 43.04500 41.17700
C  51.20000 41.87100 40.54000
C  52.42500 41.09800 40.66500
C  53.44400 42.00000 41.09100
C  52.67600 43.22600 41.39600
C  52.40600 39.66100 40.15700
C  54.87800 41.64100 41.28300
O  55.22400 40.49100 41.03400
C  55.93000 42.56400 41.77800
N  51.38000 46.08000 41.94900
C  52.65200 45.66100 42.08000
C  53.54400 46.83300 42.55000
C  52.60700 48.08500 42.40000
C  51.27800 47.38100 42.21700
C  54.30000 46.62400 43.87600
C  52.95400 49.05700 41.17400
C  53.17800 50.53600 41.53600
N  48.56900 46.20500 41.42800
C  48.77200 47.57000 41.74400
C  47.57300 48.35400 41.41100
C  46.77100 47.37100 40.73900
C  47.38200 46.16500 40.80600
C  47.39600 49.86200 41.50800
C  45.54800 47.24400 39.94700
O  44.79600 48.11100 39.51200
C  45.39300 45.75500 39.52700
C  44.19600 45.23700 40.08600
O  44.10500 44.59500 41.13200
O  43.18600 45.51800 39.19600
C  41.90800 45.00900 39.51300
H  49.93600 40.44000 39.69000
H  54.33800 44.48900 41.97900
H  50.15000 49.12800 42.32800
H  45.50200 42.61100 39.49500
H  47.68600 40.88300 38.43900
H  47.31300 39.40500 40.08100
H  45.84200 40.56800 40.28400
H  47.21400 40.54400 41.36600
H  47.29000 42.60700 37.09500
H  46.93700 44.13300 37.51800
H  44.84500 44.17400 36.47900
H  44.33500 42.67500 37.22300
H  53.30500 39.12800 40.46800
H  52.61000 39.63600 39.08600
H  51.45700 39.17000 40.37200
H  55.62700 43.13300 42.65700
H  56.00800 43.21600 40.90900
H  56.89400 42.08100 41.93900
H  54.36200 46.73800 41.83600
H  52.51800 48.61800 43.34600
H  55.34800 46.78400 43.62200
H  54.00300 45.65800 44.28300
H  53.86500 47.32800 44.58500
H  52.12100 48.93900 40.48000
H  53.86300 48.62400 40.75500
H  54.11200 50.93700 41.14100
H  53.12900 50.69500 42.61300
H  52.33100 51.11700 41.17000
H  47.03300 49.99800 42.52600
H  46.76900 50.32000 40.74200
H  48.35400 50.37300 41.40600
H  45.42400 45.65000 38.44300
H  41.83700 44.77600 40.57600
H  41.59600 44.04400 39.11600
H  41.22100 45.80500 39.22800
Mg -0.70100 44.04500 26.33400
C  1.74400 43.74800 28.77400
C  -3.17900 43.83300 28.77000
C  -3.02700 43.87900 23.88100
C  1.75200 44.23400 23.90400
N  -0.67300 43.95900 28.53600
C  0.48400 43.78700 29.35100
C  0.05200 43.64800 30.79900
C  -1.47700 43.56600 30.67900
C  -1.79900 43.84200 29.20900
C  -2.15300 42.35100 31.37100
C  0.49000 44.96900 31.45400
C  0.13400 45.18700 32.87700
H  -0.12000 44.04700 33.84300
N  -2.80800 43.83900 26.35100
C  -3.62900 43.80700 27.43600
C  -4.95900 43.72000 27.00700
C  -4.98500 43.73100 25.58600
C  -3.58800 43.72500 25.17500
C  -6.11000 43.67200 27.98800
C  -6.15000 43.67300 24.61100
O  -6.03800 43.75300 23.36100
C  -7.64200 43.59600 25.12700
N  -0.64400 43.91000 24.20600
C  -1.72300 43.90400 23.43300
C  -1.41900 44.08000 21.98200
C  0.10400 44.48100 21.98400
C  0.48100 44.19600 23.46100
C  -1.59900 42.83900 21.08700
C  0.24300 45.96600 21.63900
C  1.62500 46.35800 21.05400
N  1.34700 44.05600 26.26600
C  2.23200 44.10800 25.23800
C  3.62000 44.00200 25.72500
C  3.42300 43.76200 27.10100
C  2.05300 43.83300 27.38800
C  4.84900 44.33900 25.01500
C  4.20100 43.56800 28.30700
O  5.39300 43.39600 28.51400
C  3.16200 43.63000 29.45700
C  3.24500 42.41300 30.30700
O  2.79900 41.30500 29.93100
O  3.80500 42.71200 31.52800
C  4.20800 41.56600 32.39600
H  -3.91900 43.59300 29.53700
H  -3.74200 43.77500 23.06200
H  2.50300 44.28900 23.11300
H  0.59400 42.86900 31.33500
H  -1.84500 44.46300 31.17700
H  -2.85100 41.79400 30.74600
H  -2.72600 42.69300 32.23300
H  -1.46000 41.57400 31.69200
H  -0.07900 45.72900 30.91900
H  1.55700 45.18700 31.40400
H  -0.72600 45.85600 32.86900
H  1.02600 45.72400 33.19900
H  -6.78600 44.45700 27.65000
H  -5.87200 43.89500 29.02800
H  -6.48700 42.65100 27.92700
H  -8.36600 43.32000 24.36000
H  -7.73600 44.62300 25.48000
H  -7.78300 42.82600 25.88600
H  -2.06800 44.88900 21.64700
H  0.60100 43.81400 21.28000
H  -1.28000 41.87800 21.49000
H  -1.07400 43.02700 20.15000
H  -2.65600 42.71100 20.85300
H  0.22900 46.60300 22.52300
H  -0.56800 46.30900 20.99600
H  2.39400 46.33000 21.82600
H  1.54700 47.31600 20.53900
H  1.89500 45.74000 20.19800
H  4.89200 43.63900 24.18000
H  5.74600 44.19700 25.61800
H  4.69000 45.37300 24.70700
H  3.37400 44.54200 30.01400
H  5.23500 41.62900 32.75400
H  4.11200 40.59000 31.91900
H  3.58900 41.59000 33.29300

