158

Mg 16.59500 51.91900 26.23300
C  18.16200 50.23200 28.92300
C  14.21900 52.96900 28.20800
C  15.39900 53.34500 23.53200
C  19.16100 50.28300 24.21500
N  16.17600 51.44000 28.31600
C  16.92700 50.90200 29.26300
C  16.38700 51.18900 30.68100
C  14.95000 51.64900 30.35400
C  15.12300 52.14100 28.89000
C  13.91000 50.51300 30.50900
C  17.21600 52.32000 31.37300
C  17.62500 52.01500 32.81100
H  16.56900 52.43500 33.86800
N  14.94400 52.89100 25.96400
C  14.05100 53.30500 26.84800
C  13.17300 54.28100 26.33000
C  13.51300 54.44300 24.97100
C  14.64800 53.53300 24.76200
C  12.22300 55.02600 27.33300
C  13.05900 55.42700 23.91400
O  13.36600 55.50000 22.71700
C  11.99700 56.40700 24.37400
N  17.25000 51.89600 24.23200
C  16.47500 52.56300 23.28400
C  17.15300 52.50500 21.92900
C  18.42000 51.65000 22.14300
C  18.34500 51.29300 23.61400
C  16.20600 52.09900 20.77400
C  19.81400 52.20200 21.58400
C  20.69800 53.18300 22.54600
N  18.34100 50.50600 26.47300
C  19.17900 49.93400 25.60300
C  20.20100 49.17400 26.26500
C  19.82700 49.23100 27.61400
C  18.72700 50.03400 27.63100
C  21.14200 48.30500 25.60000
C  20.15600 48.75900 28.91200
O  21.01300 47.96900 29.26600
C  19.18700 49.54900 29.82700
C  18.52700 48.74600 30.80200
O  17.58500 48.06500 30.60400
O  19.15800 48.79000 31.97600
C  18.53800 48.06800 33.08700
H  13.38900 53.42600 28.75100
H  15.12400 53.91900 22.64500
H  19.83100 49.73800 23.54700
H  16.39700 50.29700 31.30600
H  14.64100 52.53200 30.91300
H  14.17900 49.84900 31.33000
H  13.78700 50.04100 29.53400
H  13.01000 51.06100 30.79000
H  16.60200 53.21900 31.41300
H  18.12900 52.65000 30.87700
H  18.58900 52.50200 32.96100
H  17.80800 50.94600 32.92400
H  11.58700 55.82000 26.94400
H  12.76100 55.38500 28.21000
H  11.63900 54.26200 27.84700
H  12.47700 57.05400 25.10800
H  11.07100 55.92500 24.68600
H  11.70700 56.99000 23.50000
H  17.57200 53.50900 21.86700
H  18.12200 50.68500 21.73400
H  16.82800 52.09900 19.87900
H  15.46000 52.87800 20.61400
H  15.70900 51.13100 20.83800
H  19.53500 52.68500 20.64800
H  20.49100 51.40600 21.27400
H  20.99200 54.13200 22.09700
H  21.58500 52.60000 22.79500
H  20.09600 53.33900 23.44100
H  20.60100 47.73500 24.84500
H  21.72300 47.79600 26.37000
H  21.94200 48.88900 25.14400
H  19.66000 50.32300 30.43200
H  17.48100 48.29400 33.23000
H  19.12700 48.32000 33.96900
H  18.62100 46.98300 33.02500
Mg -1.76800 34.45100 27.24100
C  -3.39600 32.42400 29.58400
C  -0.30000 36.21000 29.78800
C  -0.61600 36.60100 25.04700
C  -3.61700 32.76900 24.74300
N  -2.02600 34.46600 29.34800
C  -2.69100 33.55100 30.13500
C  -2.54600 33.84500 31.61100
C  -1.71400 35.16400 31.68800
C  -1.36600 35.34100 30.21900
C  -2.54400 36.34500 32.26600
C  -1.80200 32.58900 32.32200
C  -2.57500 31.99600 33.53300
H  -1.80400 31.81900 34.75300
N  -0.58500 36.20700 27.33000
C  -0.04900 36.76700 28.51300
C  0.89500 37.79400 28.14100
C  0.80100 37.95000 26.70400
C  -0.10900 36.89900 26.32200
C  1.86500 38.47700 29.04200
C  1.64400 38.74500 25.79700
O  1.61400 38.65800 24.54200
C  2.62100 39.68900 26.36900
N  -2.21300 34.73400 25.23300
C  -1.58400 35.68700 24.49600
C  -2.00100 35.73700 23.00400
C  -2.78200 34.34400 22.90900
C  -2.91200 33.90100 24.38100
C  -2.84500 37.04300 22.68900
C  -2.01200 33.26000 22.04800
C  -2.81200 32.40500 21.08400
N  -3.16700 32.86800 27.02300
C  -3.78000 32.25100 25.97100
C  -4.52500 31.11100 26.40100
C  -4.40500 31.15200 27.82600
C  -3.59300 32.24700 28.13100
C  -5.15100 30.00000 25.56300
C  -4.75500 30.50300 29.04200
O  -5.36500 29.43300 29.24200
C  -4.19600 31.38300 30.25500
C  -5.28300 31.90800 31.13800
O  -5.95200 32.89600 30.95400
O  -5.47100 31.06100 32.20800
C  -6.32400 31.55000 33.22800
H  0.31800 36.75300 30.50600
H  -0.09200 37.31500 24.40900
H  -4.18500 32.18000 24.01900
H  -3.55400 33.89900 32.02200
H  -0.78200 34.96300 32.21500
H  -2.09600 36.53500 33.24100
H  -3.57500 36.08700 32.51200
H  -2.44100 37.21800 31.62200
H  -0.83000 32.93000 32.67600
H  -1.73900 31.80800 31.56400
H  -2.81900 30.98500 33.20500
H  -3.49700 32.57100 33.62400
H  2.90900 38.41500 28.73300
H  1.65500 38.19200 30.07300
H  1.65600 39.54600 29.00600
H  2.72400 40.53100 25.68500
H  3.55900 39.21400 26.65800
H  2.26700 40.28400 27.21100
H  -1.18900 35.74300 22.27600
H  -3.76800 34.49500 22.46900
H  -2.30400 37.72500 22.03300
H  -3.05600 37.42600 23.68700
H  -3.81900 36.81700 22.25600
H  -1.43200 32.67400 22.76100
H  -1.28200 33.71900 21.38200
H  -2.31200 32.28500 20.12300
H  -3.78100 32.88800 20.95900
H  -2.93800 31.41400 21.52000
H  -6.02300 30.24900 24.95800
H  -5.47400 29.20100 26.23100
H  -4.32000 29.52200 25.04500
H  -3.59800 30.66100 30.81100
H  -6.30600 32.61000 33.48100
H  -6.13600 30.87000 34.05800
H  -7.33100 31.37500 32.85000

