158

Mg 41.35200 41.09600 27.23600
C  41.22300 43.72900 29.58900
C  41.98100 38.93300 29.83100
C  42.02800 38.61500 25.01500
C  40.75400 43.29000 24.70000
N  41.72200 41.33800 29.48700
C  41.48400 42.43300 30.20600
C  41.43700 42.08700 31.70200
C  41.82700 40.61500 31.70800
C  41.84400 40.24500 30.24300
C  43.15300 40.25000 32.52000
C  40.17600 42.57400 32.39600
C  39.63700 41.89300 33.63800
H  39.24100 42.75200 34.86900
N  41.81400 39.05500 27.41200
C  42.08800 38.38600 28.59300
C  42.49200 37.00700 28.18800
C  42.41700 36.82500 26.80100
C  42.01700 38.19600 26.34300
C  42.84000 36.01000 29.18000
C  42.53300 35.61800 25.94500
O  42.33500 35.72600 24.73500
C  42.68700 34.25600 26.56100
N  41.41400 40.97400 25.18600
C  41.67100 39.86200 24.47800
C  41.44700 40.13300 22.95400
C  40.72300 41.55500 22.90700
C  40.96500 41.97300 24.36400
C  42.73600 40.14400 22.02700
C  39.21400 41.57800 22.51300
C  38.22600 40.58800 23.13400
N  40.99100 43.02100 27.12800
C  40.82100 43.83900 25.98500
C  40.69600 45.23300 26.42100
C  40.82400 45.18400 27.84300
C  41.06000 43.83600 28.20500
C  40.51700 46.36200 25.43900
C  40.92100 45.98700 28.97400
O  40.85500 47.23800 29.06500
C  41.08000 45.04000 30.21600
C  42.24100 45.41200 31.03800
O  43.40000 45.14800 30.79100
O  41.83500 45.97800 32.23100
C  42.74900 45.96100 33.35500
H  42.14800 38.34500 30.73600
H  42.40900 37.99900 24.19800
H  40.46900 43.95200 23.87900
H  42.23500 42.69200 32.13000
H  40.96100 40.04500 32.04500
H  42.90800 39.43600 33.20100
H  43.63400 41.04000 33.09700
H  43.93600 39.82000 31.89500
H  39.49000 42.39200 31.56800
H  40.21500 43.63600 32.63800
H  40.46100 41.27100 33.98800
H  38.88700 41.26200 33.16100
H  42.19900 35.12900 29.19400
H  42.75500 36.45000 30.17400
H  43.83500 35.57900 29.06800
H  42.56300 33.46500 25.82200
H  41.91300 34.17600 27.32400
H  43.69400 34.41300 26.94800
H  40.66900 39.42900 22.65800
H  41.27000 42.22600 22.24400
H  42.34600 39.78800 21.07400
H  43.41000 39.45000 22.52900
H  43.15900 41.13500 21.85800
H  39.16200 41.50800 21.42700
H  38.85100 42.53400 22.89000
H  37.72400 40.20400 22.24500
H  37.62400 41.09900 23.88500
H  38.74200 39.73000 23.56500
H  40.16400 47.18400 26.06200
H  39.91000 46.12100 24.56600
H  41.51700 46.56300 25.05500
H  40.16500 45.05000 30.80900
H  42.50900 45.24400 34.13900
H  42.81200 46.99900 33.68200
H  43.74900 45.57000 33.16300
Mg 15.83500 52.56100 25.59000
C  18.05200 51.65400 28.19400
C  13.32600 53.07600 28.04200
C  13.84600 53.56200 23.16300
C  18.33700 51.62700 23.30700
N  15.72600 52.46700 27.81900
C  16.83200 52.24800 28.66600
C  16.46500 52.49200 30.17100
C  14.92300 52.53900 30.09000
C  14.61600 52.78500 28.57600
C  14.20900 51.26400 30.60300
C  17.10100 53.75300 30.84600
C  17.28500 53.66900 32.34800
H  16.54600 52.55400 33.11700
N  13.91000 53.20600 25.58400
C  13.04400 53.33600 26.63900
C  11.68300 53.67600 26.11000
C  11.79000 53.66400 24.72100
C  13.20400 53.48800 24.40500
C  10.50400 53.84900 26.97800
C  10.75300 53.84700 23.64600
O  11.07100 53.81400 22.48400
C  9.41200 54.00800 24.05400
N  16.14500 52.69300 23.56800
C  15.11300 53.21700 22.74200
C  15.60600 53.42900 21.30900
C  17.14500 52.93500 21.45100
C  17.24600 52.36600 22.84100
C  14.85600 52.63200 20.21200
C  18.16700 54.09800 21.27100
C  19.21000 53.76400 20.20300
N  17.75500 51.72700 25.72400
C  18.63700 51.30600 24.67100
C  19.88800 50.79600 25.23500
C  19.60100 50.84200 26.64000
C  18.34600 51.48600 26.85800
C  21.11100 50.22100 24.46200
C  20.20200 50.60000 27.99500
O  21.33000 50.20200 28.31800
C  19.16900 51.17300 29.03500
C  18.85900 50.19600 30.12700
O  18.17000 49.20700 29.97200
O  19.44200 50.52200 31.32300
C  19.37600 49.47000 32.31300
H  12.50600 53.10000 28.76200
H  13.30800 53.93000 22.28700
H  19.12400 51.31700 22.61600
H  16.88500 51.65900 30.73400
H  14.47100 53.42300 30.53900
H  14.85900 50.49300 31.01700
H  13.49400 50.80800 29.91800
H  13.58200 51.49600 31.46300
H  16.54300 54.66400 30.63000
H  18.02800 53.89900 30.29100
H  16.93100 54.62100 32.74500
H  18.33100 53.46000 32.57200
H  9.94300 52.91600 27.04100
H  9.99100 54.75200 26.64900
H  10.77800 54.14100 27.99200
H  9.49200 54.83400 24.76100
H  9.09200 53.19700 24.70700
H  8.83100 54.08700 23.13500
H  15.45900 54.45800 20.97900
H  17.38800 52.08700 20.81100
H  13.91600 52.30600 20.65600
H  15.41100 51.78200 19.81600
H  14.47200 53.15900 19.33800
H  18.68200 54.27300 22.21500
H  17.60900 55.02900 21.17000
H  18.86000 53.01000 19.49800
H  20.14400 53.46600 20.67800
H  19.50700 54.56500 19.52500
H  21.58000 49.51100 25.14300
H  21.79900 50.94800 24.02800
H  20.78300 49.62400 23.61100
H  19.72700 52.00300 29.46800
H  18.39100 49.57000 32.76900
H  20.14300 49.43500 33.08600
H  19.52800 48.51200 31.81500

