158

Mg 24.35100 -6.20100 45.42300
C  26.61600 -3.64200 44.31700
C  21.85700 -4.46500 43.85800
C  22.72500 -8.97900 45.69100
C  27.10600 -7.61500 47.01800
N  24.33200 -4.42000 43.99200
C  25.28300 -3.50100 43.80000
C  24.70200 -2.36800 42.88600
C  23.15000 -2.47500 43.02400
C  23.09400 -3.88700 43.72500
C  22.39700 -1.43800 43.87700
C  25.22400 -2.51200 41.40600
C  25.77100 -1.16100 40.73300
H  25.35100 -0.82100 39.27300
N  22.42800 -6.55500 45.05900
C  21.53800 -5.72700 44.44400
C  20.26700 -6.36700 44.41300
C  20.46200 -7.72500 44.79700
C  21.90800 -7.84700 45.28400
C  19.05700 -5.80600 43.79700
C  19.42900 -8.78000 44.72100
O  18.33600 -8.57100 44.24600
C  19.65300 -10.17900 45.25300
N  24.87300 -8.05400 46.21500
C  24.02500 -9.06000 46.20600
C  24.62500 -10.38200 46.78300
C  26.00400 -9.89700 47.36600
C  26.00400 -8.44600 46.86800
C  23.65100 -11.24100 47.63600
C  27.31800 -10.62500 46.80600
C  28.37600 -10.99300 47.83000
N  26.41900 -5.74300 45.67200
C  27.36600 -6.35600 46.40900
C  28.63500 -5.64700 46.28500
C  28.33900 -4.56800 45.48300
C  27.01900 -4.62300 45.11000
C  29.95500 -6.22800 46.79900
C  28.97700 -3.39000 44.91100
O  30.06300 -2.96900 45.05500
C  27.81600 -2.72900 44.08700
C  27.53400 -1.31100 44.45400
O  27.05300 -0.88300 45.45600
O  27.82900 -0.49600 43.42000
C  27.63400 0.94500 43.62900
H  20.93400 -3.95000 43.58200
H  22.16600 -9.90500 45.54100
H  27.96200 -8.13700 47.45000
H  24.97900 -1.34000 43.12400
H  22.67900 -2.58200 42.04700
H  23.09800 -0.67900 44.22400
H  22.01300 -1.91000 44.78100
H  21.55500 -0.92100 43.41600
H  24.38600 -2.76000 40.75300
H  25.94400 -3.32200 41.29000
H  26.82300 -1.43600 40.65300
H  25.59000 -0.34100 41.42900
H  18.17400 -6.37200 44.09300
H  19.25400 -5.84200 42.72600
H  18.92000 -4.76200 44.08000
H  18.76000 -10.77800 45.07700
H  19.92100 -10.12300 46.30800
H  20.42300 -10.63900 44.63400
H  24.76100 -11.02900 45.91700
H  25.93700 -9.96900 48.45100
H  24.12100 -11.57800 48.56000
H  23.22800 -12.08600 47.09300
H  22.83500 -10.56200 47.88200
H  27.67900 -10.22600 45.85800
H  26.84300 -11.56600 46.52900
H  28.54500 -12.06900 47.79800
H  28.10100 -10.69000 48.84000
H  29.33100 -10.57600 47.50900
H  30.71500 -5.45800 46.93100
H  30.23400 -7.10400 46.21400
H  29.83500 -6.51700 47.84300
H  28.03100 -2.69600 43.01900
H  27.78400 1.46600 42.68400
H  28.33200 1.42200 44.31700
H  26.68200 1.36200 43.95700
Mg -11.82500 37.74600 42.43100
C  -9.62500 35.29400 41.23600
C  -9.97600 40.08200 40.75500
C  -14.25100 40.04200 43.13000
C  -14.11500 35.20600 43.25500
N  -10.11100 37.66200 41.01600
C  -9.24500 36.57500 40.84100
C  -7.93900 37.02700 40.11000
C  -8.05500 38.56400 40.08400
C  -9.48000 38.79300 40.58800
C  -6.91500 39.38800 40.77800
C  -7.75800 36.37200 38.65700
C  -6.37400 35.92000 38.28300
H  -5.72100 36.42200 37.08400
N  -11.95600 39.75500 42.20700
C  -11.07200 40.57500 41.51100
C  -11.44100 41.90600 41.68400
C  -12.63200 41.92800 42.41900
C  -13.02900 40.52300 42.63000
C  -10.68300 43.08700 41.14800
C  -13.33500 43.16800 42.98500
O  -12.84300 44.26700 42.80100
C  -14.62200 43.11700 43.86200
N  -13.92600 37.61500 43.11500
C  -14.65000 38.75000 43.21400
C  -16.04900 38.39800 43.69600
C  -16.06300 36.85200 43.76700
C  -14.68300 36.48600 43.28000
C  -16.52400 39.01800 45.02700
C  -17.29100 36.20500 42.94500
C  -18.37700 35.65200 43.94800
N  -11.90400 35.71400 42.36100
C  -12.80200 34.77400 42.90600
C  -12.18300 33.47800 43.00400
C  -10.88500 33.71200 42.39200
C  -10.82600 35.01200 41.98000
C  -12.76100 32.13800 43.58600
C  -9.61600 33.04100 42.04200
O  -9.29700 31.85700 42.21400
C  -8.75500 34.06200 41.26500
C  -7.47800 34.18100 41.97700
O  -7.32700 34.30900 43.16800
O  -6.46300 33.78500 41.18300
C  -5.17000 33.44500 41.78100
H  -9.30600 40.84100 40.34500
H  -15.09200 40.70400 43.34500
H  -14.84200 34.45600 43.57300
H  -7.07300 36.80700 40.73500
H  -8.07600 38.89700 39.04600
H  -6.06300 38.71200 40.85200
H  -7.20100 39.73700 41.77000
H  -6.68200 40.23100 40.12700
H  -8.09000 37.01000 37.83700
H  -8.32400 35.44100 38.62800
H  -6.26700 34.83900 38.36500
H  -5.64500 36.34800 38.97100
H  -11.16100 43.52800 40.27300
H  -9.69700 42.72100 40.86000
H  -10.61200 43.78700 41.98000
H  -15.49000 42.96500 43.22100
H  -14.87300 44.07100 44.32500
H  -14.67400 42.34400 44.62800
H  -16.70000 38.82600 42.93400
H  -16.08600 36.51100 44.80200
H  -16.70700 38.24300 45.77100
H  -17.44300 39.54100 44.76400
H  -15.86700 39.79500 45.41700
H  -16.90300 35.37000 42.36100
H  -17.78200 36.89000 42.25500
H  -18.51800 34.59500 43.72600
H  -19.39800 36.01400 43.82600
H  -18.09600 35.80500 44.99000
H  -13.82000 32.20200 43.83800
H  -12.21800 31.81100 44.47200
H  -12.80400 31.46000 42.73400
H  -8.52200 33.84100 40.22300
H  -4.92000 34.10400 42.61200
H  -4.51700 33.55100 40.91500
H  -5.27700 32.46300 42.24200

