158

Mg 16.54500 -1.39500 27.97000
C  15.18200 0.91400 30.48300
C  18.51200 -2.65800 30.54900
C  18.18300 -2.98600 25.66800
C  15.02400 0.72400 25.66900
N  16.83300 -0.87200 30.29100
C  16.15900 0.07200 31.03600
C  16.44600 -0.18500 32.49900
C  17.60200 -1.19100 32.46000
C  17.67400 -1.68100 30.99800
C  18.96200 -0.64900 32.97100
C  15.19200 -0.79200 33.22000
C  15.03500 -0.36300 34.71100
H  16.15600 0.43000 35.54200
N  18.05700 -2.79800 28.09300
C  18.68400 -3.19900 29.17500
C  19.63000 -4.17500 28.80100
C  19.52700 -4.43900 27.42000
C  18.62500 -3.39000 26.96800
C  20.51100 -4.84900 29.83100
C  20.27100 -5.40400 26.50100
O  20.24100 -5.47600 25.24100
C  21.05400 -6.47500 27.08400
N  16.55400 -1.21500 25.89400
C  17.35600 -2.01000 25.19400
C  17.20800 -1.67200 23.64700
C  16.21700 -0.43700 23.74000
C  15.89600 -0.29100 25.21500
C  18.52900 -1.26500 22.97200
C  15.06100 -0.81200 22.84900
C  14.75200 -0.13900 21.53500
N  15.18700 0.26000 27.99200
C  14.67100 0.91300 26.99400
C  13.72500 1.94500 27.47600
C  13.92900 1.94800 28.84700
C  14.84000 0.95700 29.09100
C  12.75900 2.81800 26.66400
C  13.42200 2.54800 30.10100
O  12.50500 3.32200 30.26100
C  14.20700 1.79800 31.30300
C  14.93400 2.82700 32.07700
O  15.95500 3.45800 31.75600
O  14.34500 2.92200 33.25900
C  14.91000 3.82000 34.25300
H  19.17500 -3.16500 31.25300
H  18.71000 -3.57600 24.91600
H  14.58200 1.39600 24.93100
H  16.71300 0.72600 33.03500
H  17.31600 -1.95800 33.18000
H  19.33100 -1.41500 33.65400
H  18.87100 0.21800 33.62600
H  19.61600 -0.34700 32.15300
H  15.16300 -1.87300 33.08400
H  14.33100 -0.55100 32.59800
H  15.02700 -1.29600 35.27400
H  14.08500 0.14100 34.89000
H  21.39800 -5.30100 29.38600
H  20.05800 -5.64000 30.42900
H  20.92000 -3.98700 30.35800
H  20.58900 -6.78100 28.02100
H  22.04300 -6.01700 27.10000
H  20.98700 -7.40900 26.52600
H  16.74200 -2.49300 23.10300
H  16.70400 0.45000 23.33400
H  19.28900 -0.84000 23.62700
H  18.39200 -0.49700 22.21000
H  18.92500 -2.17400 22.51900
H  14.11200 -0.73800 23.37900
H  14.87700 -1.86900 22.65600
H  14.78700 -0.86300 20.72100
H  15.52600 0.59500 21.31100
H  13.79900 0.38800 21.48700
H  11.81000 2.28800 26.75100
H  13.06100 2.95200 25.62500
H  12.63500 3.83800 27.02700
H  13.52100 1.32100 32.00200
H  14.56600 4.84900 34.15200
H  15.99800 3.78100 34.31600
H  14.48100 3.47600 35.19400
Mg -6.21200 24.79000 25.53300
C  -4.96300 26.49300 28.28300
C  -8.25900 23.04900 27.43100
C  -7.30400 23.36400 22.75100
C  -3.92700 26.61100 23.58900
N  -6.45700 24.74400 27.67000
C  -5.91200 25.54200 28.65000
C  -6.29500 25.11000 30.05200
C  -7.12500 23.78600 29.73800
C  -7.36100 23.85900 28.18200
C  -6.39600 22.43700 30.18800
C  -7.00200 26.23500 30.81700
C  -6.43600 26.54400 32.21700
H  -5.86900 25.42200 33.08100
N  -7.65100 23.53900 25.15300
C  -8.48200 22.96400 26.10700
C  -9.58600 22.20200 25.39200
C  -9.15700 22.18900 24.05800
C  -7.94900 23.03500 23.94700
C  -10.68700 21.49500 26.09100
C  -9.93300 21.44900 22.88800
O  -9.60700 21.59100 21.69700
C  -10.97000 20.39600 23.19300
N  -5.74100 25.05100 23.44400
C  -6.28900 24.29800 22.42900
C  -5.69700 24.49300 21.09100
C  -4.69800 25.75700 21.37200
C  -4.72700 25.74800 22.88400
C  -4.98800 23.24700 20.51200
C  -5.17400 27.00600 20.60100
C  -4.39100 27.46300 19.38200
N  -4.79200 26.25200 25.82400
C  -3.96400 26.90900 24.93500
C  -3.13100 27.91400 25.65800
C  -3.52900 27.77200 26.96700
C  -4.54000 26.77600 26.99900
C  -2.30800 28.94000 25.00000
C  -3.28500 28.22200 28.28300
O  -2.55400 29.07700 28.73800
C  -4.06300 27.32000 29.16700
C  -3.18700 26.42500 29.90000
O  -2.77700 25.30800 29.58700
O  -2.92800 26.93300 31.15000
C  -1.82900 26.30300 31.99100
H  -9.03300 22.50600 27.97800
H  -7.58900 22.81600 21.85100
H  -3.10200 26.93900 22.95200
H  -5.39000 24.77000 30.55700
H  -8.04400 23.75200 30.32300
H  -5.34600 22.57300 30.44800
H  -6.40400 21.79100 29.30900
H  -6.95100 21.93200 30.97900
H  -8.06400 25.99300 30.87600
H  -6.98000 27.13000 30.19600
H  -7.33800 26.99300 32.63400
H  -5.71200 27.34900 32.33800
H  -11.59600 21.79400 25.57000
H  -10.68000 21.79300 27.14000
H  -10.57500 20.41500 25.99100
H  -10.71200 19.66600 23.96100
H  -11.00000 19.77700 22.29700
H  -11.99400 20.75900 23.28300
H  -6.55900 24.74900 20.47500
H  -3.69700 25.48400 21.03700
H  -4.81000 22.46400 21.24900
H  -4.02900 23.58200 20.11700
H  -5.63500 22.85700 19.72700
H  -5.22400 27.82400 21.32000
H  -6.18800 26.89900 20.21500
H  -4.93900 27.70700 18.47100
H  -3.77700 26.70300 18.90100
H  -3.65000 28.24100 19.56700
H  -1.64100 29.33700 25.76400
H  -2.93600 29.72800 24.58500
H  -1.66700 28.46600 24.25700
H  -4.65600 27.86100 29.90500
H  -0.85200 26.16300 31.52900
H  -2.26400 25.39200 32.40300
H  -1.55300 27.05000 32.73500

