158

Mg 26.47200 51.17500 26.88800
C  24.20100 52.22800 29.37700
C  28.55800 50.11400 29.45200
C  28.69400 49.91700 24.63400
C  24.35100 52.19700 24.42700
N  26.33400 51.19700 29.19100
C  25.26600 51.55800 29.96200
C  25.50100 51.32500 31.46700
C  26.99300 50.74900 31.43200
C  27.37400 50.77600 29.96500
C  27.90500 51.35800 32.49300
C  24.46400 50.43000 32.24300
C  23.94200 51.01900 33.62500
H  25.02000 51.55900 34.67200
N  28.39300 50.18100 27.01800
C  29.05100 49.89000 28.18500
C  30.34000 49.31700 27.86500
C  30.42900 49.21600 26.39100
C  29.07800 49.69100 25.92300
C  31.40600 49.04500 28.89500
C  31.56700 48.73900 25.43400
O  31.58400 48.83800 24.21500
C  32.82400 48.08300 26.12600
N  26.49500 50.99700 24.76900
C  27.57300 50.48000 24.11900
C  27.27300 50.49900 22.59300
C  25.79700 51.07600 22.57800
C  25.49500 51.48300 24.00200
C  28.27900 51.49600 21.79900
C  24.65000 50.07300 22.00200
C  24.11800 50.55700 20.67600
N  24.79000 52.15700 26.86500
C  24.01300 52.55300 25.80300
C  22.79400 53.29600 26.23100
C  22.88600 53.18000 27.64600
C  24.05800 52.43100 28.00000
C  21.74500 54.04600 25.46800
C  22.28700 53.59300 28.90800
O  21.34200 54.35100 29.14900
C  23.08400 52.97800 30.09800
C  23.49200 54.04800 31.09000
O  24.17600 55.03100 30.88600
O  22.86100 53.81900 32.30500
C  23.01000 54.77800 33.41600
H  29.23500 49.71700 30.21100
H  29.27500 49.37200 23.88700
H  23.62300 52.45300 23.65400
H  25.43300 52.30900 31.93100
H  26.97600 49.66100 31.50000
H  28.72800 51.80700 31.93800
H  28.31700 50.69500 33.25300
H  27.41600 52.18100 33.01400
H  24.89600 49.44300 32.40800
H  23.59900 50.30200 31.59200
H  23.26000 50.33800 34.13400
H  23.31900 51.81900 33.22600
H  31.04300 49.42600 29.85000
H  32.36000 49.45000 28.55800
H  31.49400 47.96400 29.00800
H  33.39900 47.52800 25.38300
H  32.57600 47.43500 26.96700
H  33.59600 48.78500 26.44200
H  27.32000 49.41900 22.45000
H  25.72700 52.03100 22.05700
H  28.58000 51.00600 20.87200
H  29.07500 51.87100 22.44200
H  27.79900 52.46000 21.63300
H  23.83700 49.93400 22.71500
H  25.13400 49.09900 21.92100
H  24.50000 51.51400 20.32100
H  23.05200 50.68900 20.86300
H  24.26300 49.84400 19.86500
H  22.13200 54.14500 24.45400
H  21.45600 54.97200 25.96500
H  20.95700 53.29400 25.42700
H  22.40300 52.32600 30.64400
H  21.94200 54.97600 33.51500
H  23.56400 55.70100 33.24800
H  23.31400 54.44600 34.40900
Mg -10.92900 16.44500 42.94100
C  -7.46500 17.40000 42.88400
C  -11.65000 19.90100 42.45100
C  -14.03500 15.64000 42.69000
C  -9.86700 13.16600 42.66700
N  -9.65600 18.48600 42.56700
C  -8.27600 18.56000 42.73800
C  -7.86300 20.01000 42.49300
C  -9.17200 20.80800 42.59000
C  -10.24500 19.73700 42.45100
C  -9.25000 21.53800 43.99100
C  -7.00200 20.18400 41.20200
C  -5.56700 20.68700 41.22400
H  -4.64400 20.06300 40.20100
N  -12.61500 17.54800 42.75200
C  -12.72900 18.96000 42.57600
C  -14.10300 19.32300 42.39400
C  -14.84400 18.13400 42.69100
C  -13.85400 17.03700 42.78200
C  -14.66900 20.72700 42.05400
C  -16.38900 18.03800 42.70500
O  -17.07600 18.97600 42.31100
C  -17.01400 16.80200 43.33700
N  -11.83200 14.65200 42.69600
C  -13.17200 14.55200 42.66000
C  -13.62500 13.09000 42.91600
C  -12.27600 12.32500 42.57100
C  -11.21300 13.40900 42.64100
C  -14.35500 12.92700 44.29500
C  -12.38300 11.58400 41.13400
C  -12.86700 10.11500 41.08300
N  -9.09800 15.49500 42.74400
C  -8.84400 14.16100 42.74700
C  -7.41400 13.89300 42.83300
C  -6.82600 15.15500 42.97500
C  -7.91200 16.09300 42.87300
C  -6.84000 12.51200 42.74900
C  -5.56600 15.79400 43.14300
O  -4.38000 15.40100 43.29500
C  -5.94300 17.30400 43.25100
C  -5.69200 17.64000 44.63500
O  -5.94400 16.96100 45.61000
O  -5.12600 18.85600 44.64100
C  -4.88500 19.48200 46.01100
H  -11.93000 20.92300 42.18700
H  -15.04400 15.22200 42.67800
H  -9.62800 12.10700 42.79000
H  -7.20900 20.14000 43.35500
H  -9.27900 21.60100 41.84900
H  -8.31200 21.74900 44.50600
H  -9.76500 20.92200 44.72800
H  -9.90400 22.40400 43.88800
H  -7.57100 20.87100 40.57600
H  -7.04400 19.21400 40.70600
H  -5.05400 20.45100 42.15700
H  -5.50500 21.77300 41.15800
H  -14.83200 20.84800 40.98300
H  -13.98000 21.54000 42.28100
H  -15.56900 21.09500 42.54600
H  -18.03600 17.00200 43.66000
H  -16.35400 16.38100 44.09500
H  -17.03600 16.10000 42.50300
H  -14.42300 12.99000 42.18000
H  -12.02700 11.59800 43.34300
H  -14.36200 13.91800 44.74900
H  -13.83700 12.25300 44.97700
H  -15.41200 12.67000 44.23400
H  -11.59100 11.88300 40.44800
H  -13.27800 12.00100 40.67300
H  -12.13900 9.36900 40.76500
H  -13.76100 10.14400 40.46000
H  -13.27200 9.93400 42.07800
H  -7.54000 11.77600 42.35400
H  -6.61200 12.05200 43.71000
H  -5.88900 12.44300 42.22100
H  -5.32600 17.90500 42.58400
H  -3.99600 20.04800 45.73400
H  -4.57000 18.71700 46.72000
H  -5.71500 20.10800 46.34100

