158

Mg 30.44600 56.97400 40.57500
C  27.75900 54.90900 39.76300
C  32.56600 54.31900 39.77800
C  33.11500 59.08200 40.63200
C  28.30000 59.67000 40.92700
N  30.13600 54.90400 39.73300
C  28.93700 54.24500 39.63200
C  29.09100 52.75900 39.48500
C  30.68800 52.58600 39.76100
C  31.20600 54.03200 39.72900
C  30.98600 51.98100 41.15300
C  28.70900 52.15600 38.10300
C  29.11700 52.76100 36.77800
H  28.10400 53.19300 35.70700
N  32.48500 56.70000 40.33000
C  33.16100 55.54000 40.03800
C  34.57800 55.81700 39.99700
C  34.75800 57.20500 40.25200
C  33.39300 57.73700 40.51300
C  35.70600 54.88300 39.49400
C  36.19300 57.90400 40.30200
O  37.23100 57.28300 40.08900
C  36.23600 59.44300 40.53500
N  30.67400 59.08200 40.68800
C  31.83900 59.71200 40.88100
C  31.71300 61.21200 41.29400
C  30.17700 61.26800 41.42500
C  29.65900 59.90800 40.96000
C  32.49300 61.71600 42.55400
C  29.53200 62.52600 40.70300
C  29.46200 63.66100 41.74400
N  28.42000 57.27900 40.35200
C  27.68900 58.44700 40.62700
C  26.27600 58.12200 40.44700
C  26.26400 56.77000 40.05800
C  27.64600 56.25400 40.04200
C  25.06800 59.12600 40.58500
C  25.41400 55.71200 39.65900
O  24.19300 55.68500 39.39500
C  26.29400 54.43600 39.46600
C  25.81200 53.38300 40.39900
O  26.28700 53.07200 41.49400
O  24.74800 52.75800 39.84100
C  23.95500 51.83900 40.69600
H  33.20600 53.43600 39.73000
H  33.94000 59.76600 40.84400
H  27.63300 60.49400 41.18700
H  28.49500 52.32400 40.28700
H  31.11300 51.97900 38.96100
H  30.03900 51.63900 41.57100
H  31.47800 52.63500 41.87300
H  31.64800 51.12400 41.03000
H  27.63200 52.01500 38.19100
H  29.22000 51.19400 38.15900
H  29.88600 52.11200 36.35700
H  29.65100 53.66900 37.06000
H  36.58400 54.76800 40.12900
H  36.00800 55.31200 38.53800
H  35.24000 53.90900 39.34200
H  35.98500 59.75200 41.55000
H  35.56200 59.93800 39.83600
H  37.18500 59.91200 40.27500
H  32.10900 61.89900 40.54700
H  30.01500 61.26100 42.50300
H  33.28200 61.03200 42.86700
H  31.88800 61.92800 43.43600
H  33.12600 62.57600 42.33200
H  28.50000 62.21600 40.53600
H  29.93000 62.85500 39.74300
H  30.30700 63.75500 42.42700
H  28.57300 63.65600 42.37500
H  29.42400 64.58800 41.17300
H  25.35800 60.07800 41.03100
H  24.10400 58.82300 40.99400
H  24.75800 59.33300 39.56100
H  26.14600 54.12700 38.43100
H  24.61800 50.99400 40.88000
H  23.22900 51.43900 39.98800
H  23.53700 52.28600 41.59700
Mg -6.03100 25.57800 24.59100
C  -4.31800 26.44800 27.41400
C  -7.74000 23.13900 26.59100
C  -7.23800 24.00900 21.73700
C  -4.01500 27.49900 22.60700
N  -6.14100 24.89700 26.72700
C  -5.27600 25.46700 27.68100
C  -5.71900 25.09300 29.06200
C  -6.61100 23.82500 28.87500
C  -6.88400 23.95400 27.33000
C  -5.91600 22.45800 29.27200
C  -6.53200 26.28000 29.73900
C  -6.27600 26.55600 31.25000
H  -5.66900 25.45700 32.14200
N  -7.41600 23.86400 24.22300
C  -8.03200 23.06100 25.21000
C  -8.82100 22.06400 24.53100
C  -8.71500 22.28100 23.10200
C  -7.71900 23.35600 22.94100
C  -9.75300 21.08900 25.22600
C  -9.46400 21.64600 21.93400
O  -9.19200 21.86800 20.74700
C  -10.61300 20.60900 22.16800
N  -5.73200 25.69600 22.46600
C  -6.34200 25.05000 21.51800
C  -6.08100 25.66500 20.10700
C  -5.16700 26.85600 20.42700
C  -4.95500 26.71800 21.93800
C  -5.47900 24.63300 19.06700
C  -5.73900 28.34100 20.08200
C  -6.36200 28.47400 18.64400
N  -4.44000 26.79500 24.88900
C  -3.74800 27.54400 24.03200
C  -2.77100 28.30500 24.80100
C  -3.01600 27.98600 26.09400
C  -3.94900 26.95800 26.11800
C  -1.85900 29.38800 24.29400
C  -2.65300 28.28500 27.50900
O  -1.92200 29.13200 28.01200
C  -3.60800 27.32800 28.35300
C  -2.67700 26.57600 29.28400
O  -2.15500 25.48100 29.06500
O  -2.48500 27.36300 30.39900
C  -1.63400 26.91400 31.49700
H  -8.29600 22.42700 27.20400
H  -7.61100 23.69600 20.76000
H  -3.48400 28.15300 21.91200
H  -4.85000 24.79000 29.64600
H  -7.56800 23.90200 29.39100
H  -5.74600 21.75600 28.45500
H  -6.48100 21.95700 30.05800
H  -4.94800 22.74200 29.68600
H  -7.61800 26.18400 29.72600
H  -6.41600 27.16000 29.10600
H  -7.20600 26.88500 31.71400
H  -5.57700 27.38900 31.31600
H  -9.45700 21.07900 26.27500
H  -9.67700 20.08000 24.81900
H  -10.78800 21.42900 25.20700
H  -11.30800 20.59400 21.32900
H  -11.17300 21.01000 23.01300
H  -10.15800 19.62300 22.25700
H  -7.03300 26.09000 19.78800
H  -4.32800 26.83800 19.73200
H  -4.98600 23.77800 19.53000
H  -4.74200 25.17400 18.47400
H  -6.31800 24.35900 18.42700
H  -4.96400 29.10100 20.17600
H  -6.48400 28.58400 20.83900
H  -6.06700 29.38700 18.12700
H  -7.44400 28.58000 18.71600
H  -6.04200 27.64600 18.01200
H  -2.39100 30.33700 24.35800
H  -1.52200 29.20700 23.27300
H  -0.99600 29.26900 24.94900
H  -4.30500 27.88000 28.98300
H  -1.16600 25.94200 31.34500
H  -2.36400 26.78800 32.29700
H  -0.88600 27.69500 31.63400

