158

Mg 44.66000 4.12200 49.31200
C  42.35200 6.53300 48.03200
C  42.17900 1.68000 48.94400
C  46.97800 1.77300 49.94300
C  47.14500 6.56500 49.18000
N  42.52100 4.06600 48.63000
C  41.88500 5.19000 48.07300
C  40.46800 4.84400 47.57100
C  40.38900 3.27200 47.87600
C  41.76300 2.97000 48.58800
C  39.21200 2.76300 48.67600
C  40.29800 5.16200 46.02300
C  39.05100 5.95900 45.62200
H  38.42300 5.67900 44.22600
N  44.63600 2.03600 49.33000
C  43.50700 1.30100 49.26100
C  43.96100 -0.07300 49.27500
C  45.32200 -0.17200 49.43600
C  45.72800 1.24900 49.65000
C  42.94900 -1.26200 49.11700
C  46.16400 -1.48000 49.37400
O  45.66500 -2.62400 49.25900
C  47.67000 -1.36800 49.44900
N  46.75300 4.14000 49.29800
C  47.41500 3.03300 49.81200
C  48.90600 3.40000 50.08400
C  48.97200 4.95800 49.85300
C  47.54900 5.26900 49.43200
C  49.56400 2.92500 51.42600
C  50.09100 5.39800 48.82600
C  51.34500 6.04400 49.46100
N  44.82800 6.17100 48.70100
C  45.90000 7.01400 48.74700
C  45.45200 8.34000 48.21500
C  44.07800 8.15700 47.96500
C  43.73600 6.80900 48.26900
C  46.25600 9.61800 48.12700
C  42.87100 8.87800 47.61800
O  42.74000 10.05300 47.29600
C  41.73100 7.81800 47.63200
C  40.58600 8.13600 48.50900
O  40.39600 7.55400 49.57000
O  39.76700 9.13300 48.07400
C  38.64500 9.48300 48.98900
H  41.31800 1.02600 48.78700
H  47.72500 1.08500 50.34400
H  47.98700 7.24800 49.05200
H  39.79500 5.40700 48.21800
H  40.27500 2.65500 46.98400
H  38.44000 3.52500 48.78600
H  39.45600 2.58800 49.72400
H  38.75500 1.84300 48.31100
H  40.27100 4.29400 45.36500
H  41.17100 5.71800 45.68100
H  39.37100 6.99700 45.53200
H  38.28400 5.96400 46.39700
H  41.92500 -0.90900 48.99700
H  42.98400 -1.69200 50.11800
H  43.35200 -1.90200 48.33300
H  48.04800 -0.59000 48.78600
H  48.06800 -2.31400 49.08300
H  47.86700 -1.16800 50.50200
H  49.52800 2.85100 49.37700
H  49.17300 5.45400 50.80300
H  50.02400 1.95600 51.22800
H  48.78300 2.64300 52.13100
H  50.17700 3.67100 51.93200
H  49.79100 6.06800 48.02000
H  50.50400 4.51600 48.33600
H  51.39200 7.04300 49.02800
H  52.16900 5.34400 49.32300
H  51.17600 6.23200 50.52100
H  46.42900 10.08300 49.09700
H  45.98000 10.38800 47.40600
H  47.18600 9.18500 47.75700
H  41.25200 7.74300 46.65600
H  38.93900 9.60600 50.03100
H  37.85300 8.73400 48.99600
H  38.19800 10.42500 48.67100
Mg 48.96900 13.94000 27.96500
C  47.21500 14.44400 30.94100
C  51.57300 15.66100 29.19300
C  50.64200 13.47000 25.00900
C  46.24500 12.03800 26.71200
N  49.33300 14.99900 29.82100
C  48.48500 15.07800 30.90300
C  49.17700 15.52000 32.17700
C  50.40500 16.27600 31.43400
C  50.45800 15.63500 30.03500
C  50.28800 17.82800 31.34000
C  49.56200 14.34400 33.11700
C  49.13600 14.60900 34.62100
H  49.10100 16.09200 35.19000
N  50.84200 14.47600 27.18500
C  51.79200 15.14100 27.86000
C  52.90900 15.42500 27.04500
C  52.74800 14.55000 25.94600
C  51.39600 14.08200 26.02300
C  54.06100 16.40000 27.35300
C  53.81100 14.09600 24.89900
O  53.51900 13.33800 23.95700
C  55.27300 14.44800 24.98500
N  48.52400 12.97800 26.03300
C  49.35600 12.93500 24.92100
C  48.77300 12.09200 23.78800
C  47.43100 11.59500 24.42400
C  47.38000 12.28700 25.83700
C  48.66400 12.63900 22.40600
C  47.32300 10.02300 24.52900
C  48.27400 9.32300 25.55400
N  47.07500 13.45500 28.63100
C  46.07900 12.69100 28.03800
C  44.95900 12.54800 28.95300
C  45.33000 13.24600 30.09000
C  46.68200 13.74800 29.82500
C  43.77900 11.68900 28.77400
C  44.82800 13.53000 31.43000
O  43.76700 13.31500 31.99000
C  46.06600 14.38300 31.99700
C  45.38500 15.62900 32.33000
O  44.44900 16.14700 31.70900
O  45.94800 16.19200 33.44200
C  45.60400 17.52900 33.75400
H  52.44200 16.22300 29.54000
H  51.22900 13.37200 24.09400
H  45.41100 11.51700 26.23800
H  48.43700 16.23100 32.54400
H  51.32800 15.97200 31.92700
H  51.20000 18.18700 31.81700
H  49.43900 18.13200 31.95100
H  50.22700 18.23800 30.33100
H  50.62600 14.13000 33.21500
H  49.05300 13.41500 32.86200
H  49.80300 13.97800 35.20900
H  48.12200 14.28300 34.85600
H  54.90100 15.94600 27.87900
H  53.68300 17.33900 27.75700
H  54.55900 16.79300 26.46600
H  55.32300 15.53700 24.97000
H  55.69100 13.89900 24.14100
H  55.45300 13.97700 25.95100
H  49.41000 11.20800 23.75100
H  46.49900 11.92200 23.96200
H  49.23500 11.94400 21.79000
H  49.12300 13.62400 22.48900
H  47.64300 12.63600 22.02500
H  47.71200 9.65800 23.57900
H  46.28400 9.76700 24.73800
H  47.65100 8.80500 26.28300
H  48.87200 10.06300 26.08700
H  48.88200 8.69400 24.90300
H  43.13100 11.72400 29.65000
H  44.21600 10.70900 28.58500
H  43.20700 12.04600 27.91800
H  46.47100 13.92300 32.89800
H  44.52600 17.68200 33.71100
H  46.01700 18.21500 33.01400
H  46.00600 17.70900 34.75100

