158

Mg 34.79800 3.25300 29.52500
C  32.55300 3.84300 32.15400
C  37.35500 3.53300 32.00300
C  37.13700 2.68600 27.20200
C  32.36300 3.80700 27.26100
N  34.96000 3.77900 31.81500
C  33.89400 3.89900 32.62900
C  34.33000 3.96900 34.07400
C  35.90700 4.27200 33.97500
C  36.14500 3.85000 32.48800
C  36.38700 5.78500 34.33000
C  33.87900 2.83100 34.93900
C  33.72200 3.12300 36.46300
H  34.47100 4.33100 37.06200
N  36.91800 2.88800 29.67100
C  37.81900 3.11800 30.75300
C  39.13100 2.74300 30.33500
C  39.01200 2.25100 28.97700
C  37.66200 2.63600 28.52500
C  40.26200 2.85100 31.18900
C  40.02400 1.49400 28.12200
O  39.81500 1.26300 26.92000
C  41.48100 0.96000 28.64400
N  34.88700 3.44700 27.53500
C  35.87600 3.02100 26.74300
C  35.50700 3.32700 25.24400
C  33.95700 3.52300 25.27400
C  33.69200 3.63500 26.76200
C  36.29300 4.60500 24.64700
C  33.17400 2.42300 24.57500
C  32.55800 1.26200 25.39300
N  32.78900 3.69300 29.58300
C  31.90200 3.75100 28.60700
C  30.53100 3.81600 29.07100
C  30.77200 3.89700 30.49900
C  32.16800 3.79200 30.75100
C  29.24600 3.92200 28.27300
C  30.11000 4.01100 31.81500
O  28.95000 4.04500 32.14800
C  31.27000 4.07700 32.91000
C  31.18700 5.39700 33.56300
O  31.23100 6.49200 32.99800
O  31.04000 5.20400 34.91000
C  31.14200 6.51500 35.65900
H  38.11800 3.57500 32.78300
H  37.89300 2.47900 26.44200
H  31.62100 3.80400 26.45900
H  33.95000 4.92900 34.42200
H  36.39400 3.52500 34.60100
H  35.64900 6.56200 34.52900
H  36.99400 6.04200 33.46100
H  37.02700 5.73500 35.21100
H  34.61700 2.03000 34.93100
H  32.99700 2.39200 34.47300
H  34.12200 2.19500 36.87300
H  32.66600 3.30100 36.66500
H  40.14300 3.72400 31.83100
H  41.13300 2.80200 30.53500
H  40.23100 1.96100 31.81700
H  41.92900 0.26200 27.93600
H  41.23300 0.49500 29.59800
H  42.02800 1.89000 28.79400
H  35.83200 2.50300 24.60700
H  33.63700 4.49300 24.89400
H  35.68000 5.50700 24.64700
H  36.66700 4.40400 23.64400
H  37.16300 4.72300 25.29300
H  33.82100 2.03900 23.78600
H  32.41500 2.98500 24.03100
H  31.51900 1.28600 25.72000
H  33.27800 1.09300 26.19400
H  32.72900 0.27200 24.97100
H  29.31200 3.96300 27.18600
H  28.69200 4.79400 28.62200
H  28.55400 3.11300 28.50600
H  31.29800 3.38000 33.74700
H  30.67300 7.33400 35.11400
H  32.20200 6.74300 35.77400
H  30.56100 6.32200 36.56000
Mg -11.51500 38.32000 42.05200
C  -9.25600 35.81600 41.43700
C  -9.52000 40.35200 39.91600
C  -14.07100 40.63800 41.77800
C  -13.82000 35.99800 43.13400
N  -9.61100 38.10600 40.76700
C  -8.95300 36.95400 40.65600
C  -7.72900 37.04500 39.78000
C  -7.76500 38.59800 39.38800
C  -8.99700 39.05800 40.01400
C  -6.51700 39.52800 39.83200
C  -7.77700 36.12500 38.58800
C  -6.50400 35.19300 38.34500
H  -5.45500 35.94200 37.56600
N  -11.74800 40.24900 41.13600
C  -10.77400 40.87200 40.41200
C  -11.23000 42.25000 40.22900
C  -12.54600 42.36500 40.65200
C  -12.82000 41.05400 41.24400
C  -10.38200 43.29000 39.65900
C  -13.39000 43.64900 40.55600
O  -12.92800 44.62800 40.09300
C  -14.78300 43.74300 40.93500
N  -13.69500 38.29900 42.30700
C  -14.49700 39.40000 42.22700
C  -15.94000 39.05100 42.57300
C  -15.86700 37.48400 42.82900
C  -14.40200 37.20600 42.77200
C  -16.71400 39.89600 43.67500
C  -16.74200 36.58600 41.85700
C  -17.52000 35.39900 42.41500
N  -11.51700 36.36700 42.39600
C  -12.47500 35.54300 42.96100
C  -11.94100 34.22000 43.25000
C  -10.68800 34.30400 42.66100
C  -10.48500 35.62200 42.10800
C  -12.58100 32.99100 43.69600
C  -9.48400 33.53200 42.35400
O  -9.20300 32.38400 42.55500
C  -8.51300 34.55200 41.59400
C  -7.22500 34.70900 42.34000
O  -6.30600 33.89700 42.22900
O  -7.09400 35.83300 43.14100
C  -5.80800 36.11800 43.72600
H  -8.89200 41.00400 39.30500
H  -14.80700 41.43100 41.92300
H  -14.59800 35.30800 43.46600
H  -6.79400 36.87100 40.31300
H  -7.91400 38.74400 38.31800
H  -6.75800 40.43200 40.39200
H  -5.89000 39.76000 38.97100
H  -5.84200 38.99200 40.49800
H  -7.84900 36.84000 37.76900
H  -8.68900 35.53600 38.49500
H  -6.83000 34.33200 37.76100
H  -5.99400 34.86200 39.25000
H  -10.12700 44.08900 40.35500
H  -11.00700 43.78000 38.91200
H  -9.50600 42.92400 39.12400
H  -14.79200 43.50500 41.99900
H  -15.29700 42.92200 40.43600
H  -15.19300 44.70000 40.61300
H  -16.51500 39.15700 41.65300
H  -16.24200 37.42700 43.85100
H  -16.03600 40.56800 44.20200
H  -17.31500 39.21900 44.28300
H  -17.44900 40.47400 43.11400
H  -16.04700 36.18200 41.12100
H  -17.41100 37.29200 41.36500
H  -17.54100 35.40300 43.50500
H  -17.26200 34.44400 41.95700
H  -18.60000 35.48000 42.29700
H  -11.83900 32.30700 44.10900
H  -13.05700 32.51600 42.83900
H  -13.28300 33.22400 44.49800
H  -8.25500 34.13600 40.62000
H  -5.22800 36.77400 43.07700
H  -5.30900 35.17100 43.93000
H  -5.97000 36.58500 44.69800

