158

Mg 16.89800 52.97800 26.85200
C  18.72000 51.21800 29.32700
C  14.65500 53.70400 29.26400
C  14.92700 54.20700 24.50500
C  18.99400 51.51000 24.35100
N  16.80400 52.66300 28.99900
C  17.67100 51.95500 29.81600
C  17.25500 51.92800 31.28100
C  15.75800 52.28600 31.09300
C  15.77700 52.98000 29.72300
C  14.95600 50.97700 31.30000
C  18.08900 53.01700 31.98800
C  18.47600 52.81400 33.43700
H  17.40700 52.08900 34.26700
N  15.08900 53.97700 26.87300
C  14.36200 54.25200 27.99200
C  13.22700 55.01800 27.63100
C  13.16900 54.99100 26.22900
C  14.45300 54.40100 25.77700
C  12.28700 55.55700 28.68500
C  11.98900 55.45700 25.28200
O  12.22500 55.53800 24.08900
C  10.60200 55.92200 25.81700
N  17.09700 53.02900 24.73400
C  16.05700 53.60800 24.01000
C  16.26100 53.34700 22.49600
C  17.62100 52.57500 22.49800
C  17.93700 52.44400 23.97000
C  15.11400 52.58500 21.90900
C  18.69700 53.14800 21.54800
C  19.71300 54.19700 22.04300
N  18.53300 51.59200 26.77500
C  19.30100 51.16000 25.73900
C  20.41700 50.43800 26.30800
C  20.26900 50.43900 27.69500
C  19.05500 51.05600 27.92400
C  21.56400 49.90900 25.49000
C  20.83700 50.13200 28.97000
O  21.95000 49.74100 29.26900
C  19.84500 50.61700 30.04700
C  19.46400 49.44900 30.95400
O  18.83400 48.49400 30.51400
O  19.78500 49.63200 32.29600
C  19.24200 48.68500 33.27700
H  13.97900 53.94600 30.08700
H  14.48200 54.75300 23.67100
H  19.50200 50.93500 23.57400
H  17.60900 51.06100 31.83900
H  15.38200 52.90800 31.90600
H  15.09700 50.27000 30.48200
H  13.87600 51.02700 31.43400
H  15.36600 50.50900 32.19500
H  17.55200 53.96500 32.00900
H  19.01800 53.19100 31.44600
H  18.71800 53.79300 33.85100
H  19.41300 52.25900 33.40000
H  11.96400 56.56000 28.40700
H  12.72600 55.48000 29.68000
H  11.35200 54.99800 28.70900
H  10.00100 55.16000 26.31300
H  9.92800 56.34200 25.07100
H  10.82200 56.80500 26.41700
H  16.37500 54.30000 21.98100
H  17.42800 51.55400 22.17000
H  14.57700 53.17400 21.16500
H  14.49500 52.11600 22.67400
H  15.57700 51.73400 21.41100
H  18.21100 53.88100 20.90300
H  19.17800 52.35800 20.97200
H  19.41500 54.50900 23.04400
H  19.67200 55.09000 21.42000
H  20.73300 53.81800 22.10000
H  21.97500 50.62900 24.78200
H  21.08400 49.17400 24.84200
H  22.36700 49.37700 25.99900
H  20.35200 51.28700 30.74200
H  19.61500 47.69100 33.03000
H  18.15800 48.58500 33.20900
H  19.63100 49.07400 34.21800
Mg 1.38600 43.12700 25.87400
C  2.92300 43.32900 29.06600
C  -1.41800 41.83400 27.59600
C  0.21100 42.48300 22.90800
C  4.54300 43.95500 24.52100
N  0.79100 42.84300 28.06200
C  1.54600 43.08300 29.18200
C  0.75800 42.78300 30.50700
C  -0.65600 42.28500 29.92900
C  -0.43200 42.35600 28.43200
C  -1.09900 40.88800 30.55100
C  0.71800 43.97600 31.45000
C  0.91300 43.72900 32.94100
H  0.69800 42.34400 33.53300
N  -0.41600 42.42200 25.33900
C  -1.45200 41.86800 26.16800
C  -2.46900 41.41800 25.25600
C  -2.05500 41.61300 23.87500
C  -0.67800 42.14100 24.00300
C  -3.79800 40.71600 25.67700
C  -2.70500 41.42200 22.55500
O  -2.28900 41.74100 21.46300
C  -4.01600 40.73600 22.61000
N  2.26300 43.23600 23.89600
C  1.49900 43.01100 22.84200
C  2.29500 43.35600 21.54800
C  3.47000 44.18900 22.11500
C  3.48800 43.77000 23.57500
C  2.75800 42.07900 20.67100
C  3.36400 45.70900 21.87300
C  4.17500 46.19200 20.64500
N  3.28200 43.49900 26.56400
C  4.48800 43.75000 25.86000
C  5.59200 43.89700 26.76800
C  5.07100 43.71600 28.02800
C  3.65200 43.54200 27.86100
C  6.94600 44.31000 26.43700
C  5.26700 43.60800 29.42600
O  6.32200 43.59700 30.11900
C  3.93400 43.50100 30.13900
C  4.04700 42.25100 31.04400
O  3.78400 41.02400 30.75000
O  4.38600 42.62400 32.36200
C  4.54400 41.58200 33.39100
H  -2.27400 41.46400 28.16400
H  -0.17500 42.26600 21.91000
H  5.53500 44.29400 24.21600
H  1.28300 41.93900 30.95400
H  -1.57100 42.86000 30.07200
H  -0.45500 40.46700 31.32400
H  -0.98800 40.28300 29.65200
H  -2.14800 40.88300 30.84800
H  -0.24400 44.44000 31.23600
H  1.44000 44.78600 31.34100
H  0.24900 44.42500 33.45500
H  1.88700 44.10200 33.25600
H  -3.74300 40.53800 26.75000
H  -3.93200 39.74700 25.19700
H  -4.64800 41.34100 25.40400
H  -4.84800 41.28400 23.05100
H  -3.95100 39.70700 22.96500
H  -4.33400 40.60900 21.57600
H  1.59700 43.91500 20.92500
H  4.39600 43.84000 21.65800
H  2.30100 41.20400 21.13500
H  3.82300 41.84500 20.68000
H  2.47300 42.19100 19.62600
H  3.57900 46.27000 22.78300
H  2.32700 45.93200 21.62200
H  4.84400 46.95900 21.03500
H  3.51600 46.63800 19.90000
H  4.70000 45.34200 20.20900
H  6.97800 45.32700 26.04600
H  7.49900 43.71800 25.70700
H  7.38800 44.51200 27.41200
H  3.79500 44.37600 30.77400
H  5.62900 41.58200 33.49700
H  4.10300 40.58600 33.34800
H  4.07400 41.94500 34.30500

