158

Mg 16.18500 -1.33300 28.51100
C  15.06700 0.64300 31.11000
C  18.32300 -3.00800 30.65800
C  17.55100 -2.94000 25.80600
C  14.36100 0.74800 26.39300
N  16.82700 -0.96300 30.65600
C  16.01900 -0.30400 31.55800
C  16.55500 -0.59000 32.95600
C  17.57700 -1.77600 32.71900
C  17.59100 -1.96800 31.25800
C  18.99000 -1.63500 33.40600
C  15.35600 -1.01500 33.93000
C  15.75500 -1.13900 35.39600
H  16.94800 -0.41800 35.95900
N  17.80200 -2.79900 28.21000
C  18.45300 -3.38300 29.29000
C  19.27700 -4.40600 28.75200
C  19.09300 -4.50600 27.33100
C  18.12900 -3.44000 27.00900
C  20.18400 -5.23400 29.70000
C  19.81700 -5.45300 26.35100
O  19.53500 -5.56300 25.09100
C  20.94200 -6.33300 26.83800
N  15.91000 -1.25200 26.38000
C  16.72800 -1.89100 25.50400
C  16.60300 -1.29600 24.08200
C  15.39200 -0.29600 24.30700
C  15.21100 -0.22300 25.79900
C  17.90800 -0.76500 23.44200
C  14.09200 -0.52400 23.53700
C  12.83700 -1.11600 24.23900
N  14.98800 0.33200 28.61000
C  14.14200 0.99900 27.73100
C  13.35100 2.02000 28.31900
C  13.66200 1.89900 29.68800
C  14.70700 0.92300 29.78100
C  12.47700 2.96200 27.65800
C  13.40900 2.49500 30.94900
O  12.63800 3.39400 31.29800
C  14.24300 1.67400 31.98100
C  15.16900 2.55600 32.74400
O  16.17200 3.08300 32.28100
O  14.68800 2.80200 33.99200
C  15.42700 3.80800 34.72000
H  18.79100 -3.61400 31.43600
H  18.02100 -3.54600 25.02800
H  13.75900 1.36700 25.72500
H  17.15300 0.20100 33.41000
H  17.30000 -2.77600 33.05100
H  19.73900 -1.74100 32.62100
H  19.15300 -2.37800 34.18700
H  19.02000 -0.71000 33.98200
H  15.11400 -2.06000 33.73900
H  14.56600 -0.27600 33.79400
H  15.95000 -2.19400 35.59000
H  14.84000 -0.84600 35.91100
H  21.26300 -5.22700 29.54600
H  19.81000 -6.22100 29.42800
H  19.97400 -5.20600 30.76900
H  21.29700 -7.02300 26.07200
H  20.48200 -7.01500 27.55300
H  21.77900 -5.77300 27.25400
H  16.26200 -2.17900 23.54100
H  15.71300 0.72700 24.11000
H  18.74200 -1.12900 24.04200
H  17.71800 0.30800 23.41100
H  17.90700 -1.10000 22.40500
H  14.39800 -1.29800 22.83300
H  13.69700 0.35100 23.02100
H  12.14900 -0.37500 24.64800
H  13.08000 -1.68100 25.13800
H  12.25800 -1.74000 23.55700
H  12.82500 3.16500 26.64500
H  12.55600 3.91500 28.18100
H  11.47100 2.55400 27.75900
H  13.59100 1.09800 32.63700
H  16.48700 3.55900 34.69000
H  14.92500 4.01800 35.66400
H  15.31100 4.72200 34.13700
Mg 6.03500 54.34400 41.23900
C  3.54700 51.80100 41.01500
C  8.15300 52.26000 39.79300
C  8.15000 56.87900 41.26700
C  3.54900 56.55500 42.40500
N  5.76300 52.37800 40.18500
C  4.70100 51.45700 40.36500
C  5.04600 50.12400 39.74700
C  6.64700 50.17700 39.83700
C  6.86100 51.70700 39.85700
C  7.37300 49.44200 40.98700
C  4.51900 49.84000 38.29700
C  3.89000 48.43700 38.10000
H  4.30300 47.76900 36.77900
N  7.92300 54.47100 40.65900
C  8.66000 53.54500 40.10500
C  10.04700 54.03100 39.84800
C  10.06600 55.46900 40.13200
C  8.71800 55.70300 40.71700
C  11.13700 53.19900 39.16600
C  11.28700 56.45100 40.07900
O  12.34700 56.06800 39.73400
C  11.07900 57.96200 40.36000
N  5.79000 56.52400 41.54800
C  6.81400 57.36100 41.54200
C  6.54200 58.67500 42.15100
C  5.09600 58.66200 42.41600
C  4.75000 57.16800 42.11500
C  7.35400 59.05600 43.39800
C  4.24400 59.77900 41.79000
C  3.69900 59.57800 40.37600
N  4.04200 54.23200 41.67300
C  3.16400 55.18900 42.15000
C  1.85900 54.61500 42.32300
C  2.01100 53.29700 41.96400
C  3.35000 53.08200 41.57200
C  0.63500 55.28900 42.79400
C  1.24200 52.04900 41.87600
O  0.03900 51.76900 42.03800
C  2.45400 51.02300 41.52300
C  1.85400 50.09100 40.60500
O  1.33500 50.30000 39.52400
O  1.87200 48.76600 41.22100
C  1.07400 47.73800 40.62000
H  8.93100 51.53500 39.54400
H  8.90900 57.65700 41.36700
H  2.81900 57.20900 42.88700
H  4.70000 49.32000 40.39700
H  7.09000 49.88500 38.88500
H  8.42500 49.20700 40.82700
H  6.81700 48.52900 41.20100
H  7.43500 50.08100 41.86800
H  5.25600 49.96900 37.50400
H  3.73500 50.55700 38.05400
H  2.80500 48.54200 38.10900
H  4.07900 47.78100 38.94900
H  11.10000 53.44300 38.10500
H  10.98100 52.12900 39.29700
H  12.01700 53.60500 39.66500
H  11.91300 58.49900 39.90900
H  11.00700 58.29600 41.39500
H  10.15700 58.19700 39.82700
H  6.81200 59.37500 41.36000
H  4.83900 58.88800 43.45100
H  7.89600 59.95500 43.10400
H  7.92000 58.33300 43.98600
H  6.71500 59.45100 44.18800
H  4.83900 60.68500 41.67300
H  3.38900 60.06600 42.40200
H  4.04900 60.41500 39.77200
H  2.61200 59.57100 40.29800
H  4.14200 58.66000 39.98900
H  0.81500 56.09600 43.50500
H  0.08000 54.51000 43.31800
H  0.06200 55.74500 41.98700
H  2.71200 50.43900 42.40600
H  0.05100 48.08300 40.46600
H  1.05600 46.96200 41.38500
H  1.52300 47.30000 39.72900

