158

Mg 26.39400 50.11900 26.71100
C  24.36500 51.38700 29.29100
C  28.58500 48.98700 29.13500
C  28.62900 49.22600 24.21900
C  24.38900 51.55100 24.39100
N  26.40800 50.26800 29.00200
C  25.34400 50.60600 29.81300
C  25.57100 50.06400 31.23200
C  27.04200 49.50800 31.17300
C  27.38300 49.58400 29.69300
C  28.06400 50.22800 32.02900
C  24.54800 49.09600 31.68000
C  24.02900 49.29500 33.10900
H  24.94500 49.01000 34.28000
N  28.33100 49.33800 26.68600
C  29.05000 48.91900 27.77600
C  30.35800 48.44700 27.35700
C  30.39000 48.42300 25.94900
C  29.06900 48.97400 25.57900
C  31.45500 48.19100 28.32000
C  31.50700 48.00300 25.00600
O  31.49100 48.18400 23.78900
C  32.68100 47.35900 25.54700
N  26.53200 50.35400 24.61800
C  27.48100 49.92400 23.80100
C  27.12700 50.17300 22.31500
C  25.72600 50.74500 22.41200
C  25.49200 50.86100 23.91000
C  28.19100 51.04900 21.61400
C  24.58500 49.97700 21.58600
C  23.94500 50.79500 20.48400
N  24.79500 51.22400 26.76500
C  24.11200 51.83000 25.75400
C  23.04700 52.64400 26.29100
C  23.09200 52.43300 27.66300
C  24.17100 51.60200 27.93000
C  22.17000 53.43100 25.36500
C  22.44200 52.75100 28.93100
O  21.41000 53.38700 29.17600
C  23.26800 52.06200 30.05300
C  23.57300 53.16800 31.03700
O  24.60200 53.79100 31.05200
O  22.56500 53.23500 31.92300
C  22.91800 54.13500 33.04000
H  29.24900 48.50300 29.85400
H  29.22200 48.97100 23.33900
H  23.65900 52.01100 23.72200
H  25.51200 50.97400 31.82900
H  26.99400 48.48800 31.55500
H  28.85600 50.75200 31.49300
H  28.61300 49.48200 32.60400
H  27.55800 50.85900 32.76000
H  25.01300 48.11000 31.69300
H  23.63100 49.17800 31.09700
H  23.18600 48.61900 33.25200
H  23.74800 50.34800 33.14000
H  31.62300 47.11800 28.41200
H  31.18600 48.40900 29.35400
H  32.27300 48.81800 27.96600
H  33.41900 48.13800 25.73800
H  33.02100 46.65600 24.78600
H  32.32800 46.70400 26.34400
H  27.00000 49.26400 21.72700
H  25.80200 51.80600 22.17400
H  28.97100 51.16400 22.36700
H  27.84600 52.02400 21.26900
H  28.55600 50.42500 20.79800
H  23.85700 49.71200 22.35200
H  24.98600 49.11300 21.05700
H  22.91900 50.82700 20.85100
H  24.11200 50.34100 19.50700
H  24.35300 51.80500 20.44500
H  21.51400 52.74900 24.82500
H  22.66900 54.09200 24.65600
H  21.58500 54.00800 26.08200
H  22.65100 51.34800 30.59800
H  22.86600 55.16400 32.68500
H  23.92800 54.00100 33.42800
H  22.25800 53.82000 33.84900
Mg -11.80700 16.27500 42.33500
C  -8.97700 14.32600 42.19900
C  -9.92800 18.93100 40.89700
C  -14.65100 17.71500 41.51300
C  -13.57700 13.46500 43.70400
N  -9.75700 16.46600 41.46300
C  -8.80800 15.54300 41.57400
C  -7.54100 16.06700 41.05000
C  -7.68800 17.63900 40.87700
C  -9.21300 17.75000 41.11400
C  -6.92600 18.43800 41.88500
C  -7.17000 15.42600 39.72200
C  -5.71600 15.73800 39.21800
H  -5.49800 16.54900 37.93600
N  -12.26600 18.12800 41.43500
C  -11.36200 19.12200 40.99500
C  -12.06300 20.29700 40.50500
C  -13.41100 19.99500 40.79100
C  -13.53800 18.58500 41.25200
C  -11.42300 21.55500 39.92800
C  -14.60700 20.92800 40.66200
O  -14.41700 22.03100 40.33600
C  -16.09100 20.65100 40.98100
N  -13.81800 15.61100 42.43500
C  -14.78700 16.47300 42.17400
C  -16.12600 15.83100 42.25400
C  -15.79300 14.48700 42.98100
C  -14.27900 14.49800 43.11000
C  -17.29400 16.57400 43.01500
C  -16.27200 13.12300 42.39300
C  -16.69600 12.04200 43.42000
N  -11.36400 14.34600 42.97200
C  -12.19300 13.32100 43.54100
C  -11.28500 12.17600 43.85900
C  -9.95600 12.61500 43.42700
C  -10.11600 13.87100 42.78000
C  -11.64200 10.78600 44.33100
C  -8.63300 12.13300 43.28600
O  -8.21000 11.08100 43.67000
C  -7.90800 13.23100 42.47500
C  -6.66800 13.75700 43.15600
O  -6.66200 14.22000 44.26200
O  -5.60900 13.76200 42.30700
C  -4.22700 14.02200 42.88600
H  -9.41700 19.82900 40.54100
H  -15.62800 18.08300 41.19400
H  -14.12200 12.62900 44.14800
H  -6.65800 15.97000 41.68100
H  -7.47200 17.88800 39.83800
H  -6.54600 19.26300 41.28400
H  -6.09100 17.90800 42.34400
H  -7.49600 18.77100 42.75200
H  -7.90100 15.72100 38.97000
H  -7.32200 14.35400 39.84300
H  -5.08900 14.84700 39.17500
H  -5.19800 16.33100 39.97100
H  -11.20200 22.21800 40.76400
H  -12.03300 21.93900 39.11000
H  -10.52600 21.23200 39.40000
H  -16.12600 20.12700 41.93600
H  -16.41300 20.03100 40.14400
H  -16.61600 21.60600 41.00100
H  -16.38900 15.66600 41.21000
H  -16.21400 14.53800 43.98500
H  -16.90800 17.29000 43.74000
H  -17.95800 15.80200 43.40400
H  -17.85900 17.09400 42.24100
H  -15.49600 12.69000 41.76200
H  -17.07000 13.40700 41.70800
H  -16.05600 11.16500 43.32800
H  -17.68100 11.60100 43.26900
H  -16.63000 12.46900 44.42100
H  -10.72600 10.48600 44.83900
H  -11.86000 10.19700 43.44000
H  -12.48400 10.69300 45.01800
H  -7.66600 12.62200 41.60400
H  -3.43400 13.99500 42.13900
H  -4.04800 13.26100 43.64600
H  -4.18600 14.98700 43.39000

