158

Mg 53.35900 24.45700 45.11000
C  50.52400 26.41700 44.17300
C  51.76700 21.72400 43.72100
C  56.24600 22.67400 45.43200
C  54.87300 27.31700 46.15800
N  51.48700 24.15600 43.98900
C  50.44100 25.04800 43.83200
C  49.20700 24.44100 43.16500
C  49.47000 22.94700 43.48700
C  51.00200 22.90000 43.78300
C  48.50400 22.29100 44.52300
C  49.18500 24.77400 41.69200
C  47.68000 24.88400 41.10900
H  46.98000 23.56400 40.70000
N  53.97600 22.48200 44.52400
C  53.09100 21.51400 44.08800
C  53.74200 20.23300 44.05000
C  55.07800 20.43500 44.50000
C  55.20900 21.89100 44.75900
C  53.08100 18.89500 43.85500
C  56.13500 19.33200 44.80800
O  55.99200 18.14600 44.48500
C  57.42600 19.62500 45.39000
N  55.30400 24.94700 45.70500
C  56.26900 24.03000 45.80200
C  57.62800 24.72800 46.17900
C  57.21800 26.23200 46.38900
C  55.68000 26.14700 46.07100
C  58.14500 24.12300 47.47900
C  57.98000 27.32200 45.57300
C  58.52700 28.48500 46.47100
N  52.78100 26.43500 45.32900
C  53.56300 27.47600 45.74600
C  52.76800 28.66300 45.85800
C  51.54300 28.32000 45.18100
C  51.65800 26.91900 44.88100
C  53.13500 29.95500 46.42500
C  50.20400 28.76800 44.81600
O  49.67200 29.88700 45.01900
C  49.51000 27.62200 44.06800
C  49.17500 28.08700 42.67800
O  49.95100 28.13200 41.71400
O  47.87900 28.38200 42.63000
C  47.24500 28.48300 41.35600
H  51.26800 20.76700 43.55400
H  57.05700 22.02700 45.77400
H  55.26800 28.25500 46.55500
H  48.25800 24.72800 43.61700
H  49.27800 22.34800 42.59700
H  48.55900 21.22500 44.74400
H  47.54200 22.71000 44.22900
H  48.78300 22.69900 45.49500
H  49.64200 23.91900 41.19400
H  49.73700 25.65700 41.37100
H  47.68500 25.55200 40.24700
H  46.98100 25.18100 41.89100
H  53.67700 18.40900 43.08400
H  52.05500 18.94500 43.48900
H  53.03100 18.20500 44.69800
H  58.10300 18.77400 45.46600
H  57.37700 19.99500 46.41400
H  57.90900 20.35000 44.73500
H  58.41600 24.62900 45.43300
H  57.28500 26.56300 47.42500
H  59.12200 23.70900 47.23100
H  57.42500 23.40100 47.86100
H  58.19300 24.87700 48.26500
H  57.32900 27.77700 44.82600
H  58.80900 26.87400 45.02400
H  58.54400 29.40400 45.88400
H  59.56000 28.24500 46.72200
H  57.96300 28.54700 47.40100
H  54.01300 29.95200 47.07200
H  52.27200 30.40500 46.91600
H  53.48500 30.44100 45.51400
H  48.57100 27.25400 44.48000
H  46.59200 27.62000 41.22900
H  47.98000 28.55100 40.55300
H  46.60500 29.36500 41.35300
Mg 40.79500 40.98900 26.69900
C  40.38500 43.38000 29.18100
C  41.58000 38.71900 29.09400
C  41.58000 38.78200 24.32800
C  40.28600 43.43100 24.32900
N  41.09700 41.13400 28.90200
C  40.58300 42.09100 29.74800
C  40.57400 41.70000 31.27600
C  41.06800 40.23700 31.10300
C  41.25100 40.01300 29.56500
C  42.34500 39.96200 31.94100
C  39.11500 41.89600 31.93300
C  39.00000 41.26200 33.31300
H  39.19100 42.22600 34.48900
N  41.59700 39.02000 26.73200
C  41.83100 38.24700 27.80100
C  42.26700 36.95800 27.40200
C  42.35900 36.90700 26.01100
C  41.87100 38.30400 25.62700
C  42.58900 35.89900 28.48500
C  42.86200 35.87400 25.05500
O  42.75900 35.92600 23.77200
C  43.46500 34.66700 25.71200
N  40.85200 41.08500 24.64100
C  41.23200 40.00500 23.82600
C  41.07400 40.34700 22.30100
C  40.47100 41.85100 22.36000
C  40.49500 42.14700 23.83800
C  42.29500 40.17400 21.37400
C  39.12300 42.06100 21.58000
C  39.26400 42.15400 20.04700
N  40.37600 42.98900 26.67600
C  40.19600 43.86700 25.64000
C  40.00400 45.17800 26.12500
C  40.08000 45.03500 27.46400
C  40.28500 43.67800 27.79600
C  40.04300 46.38000 25.29700
C  39.92300 45.76100 28.70900
O  39.65900 46.91200 29.01400
C  40.06100 44.68100 29.87700
C  41.15900 45.19400 30.80800
O  42.32200 45.34400 30.47400
O  40.76600 45.45400 32.10400
C  41.76200 45.98300 33.06400
H  41.55200 38.00900 29.92400
H  41.63300 37.98600 23.58300
H  40.06000 44.15800 23.54600
H  41.26300 42.35900 31.80400
H  40.33100 39.51800 31.46100
H  42.45900 40.64300 32.78400
H  43.24300 40.11800 31.34300
H  42.24700 38.96700 32.37500
H  38.29500 41.54000 31.30900
H  38.99300 42.97200 32.06100
H  39.65100 40.41100 33.51500
H  38.02000 40.80600 33.17700
H  42.05000 35.05700 28.05200
H  42.10900 36.01700 29.45600
H  43.65700 35.68100 28.48600
H  42.69900 34.04400 26.17300
H  44.29900 35.02400 26.31700
H  43.92000 34.03400 24.95100
H  40.25900 39.74700 21.89800
H  41.16700 42.57500 21.93600
H  41.99600 39.48100 20.58800
H  43.02900 39.53800 21.86900
H  42.74400 40.99200 20.81100
H  38.58200 42.95100 21.90400
H  38.57400 41.14200 21.78700
H  38.63000 42.97300 19.70800
H  38.93300 41.23200 19.56900
H  40.25800 42.24900 19.60900
H  40.58000 47.08500 25.93300
H  39.10200 46.84100 24.99800
H  40.68400 46.28900 24.42000
H  39.15600 44.40900 30.42000
H  41.46100 45.44900 33.96500
H  41.71000 47.03800 33.33500
H  42.79600 45.75900 32.80500

