158

Mg -2.70700 17.39600 25.61900
C  -2.55400 14.80900 28.14400
C  -2.76800 19.70400 27.94700
C  -2.83700 19.56300 23.13600
C  -2.85400 14.80700 23.21300
N  -2.87100 17.23200 27.85000
C  -2.63400 16.15500 28.67400
C  -2.68100 16.57700 30.17900
C  -2.81900 18.14300 30.04300
C  -2.74800 18.37300 28.49000
C  -4.09700 18.73700 30.58100
C  -1.37600 16.24400 31.01600
C  -1.18400 16.98600 32.35600
H  -0.78100 16.25500 33.63500
N  -2.69800 19.42300 25.56200
C  -2.79300 20.19200 26.64600
C  -2.70500 21.57900 26.26200
C  -2.88500 21.58000 24.90000
C  -2.81700 20.13200 24.44500
C  -2.62200 22.73700 27.26100
C  -3.09600 22.77000 23.99200
O  -3.12300 22.63400 22.79200
C  -3.33400 24.16100 24.51100
N  -2.91800 17.22600 23.44600
C  -2.86000 18.25200 22.62100
C  -2.73100 17.91100 21.11800
C  -3.07300 16.39900 21.15500
C  -2.94500 16.12400 22.74800
C  -3.68300 18.69200 20.25100
C  -2.09900 15.56800 20.14400
C  -2.84400 14.57800 19.20100
N  -2.54600 15.30700 25.62700
C  -2.64500 14.42400 24.56300
C  -2.48900 13.04200 25.05800
C  -2.41000 13.19800 26.47500
C  -2.51200 14.59100 26.75300
C  -2.36900 11.81700 24.21200
C  -2.32700 12.46100 27.69400
O  -2.03600 11.28100 27.91400
C  -2.54500 13.43700 28.83100
C  -1.41000 13.15600 29.73500
O  -0.27400 13.47400 29.54500
O  -1.88600 12.44600 30.83200
C  -0.90000 12.13900 31.84300
H  -2.73000 20.43100 28.76100
H  -2.87100 20.30800 22.33800
H  -2.89900 13.95500 22.53100
H  -3.53500 16.11600 30.67500
H  -2.00600 18.75400 30.43700
H  -4.86200 19.13600 29.91400
H  -3.86400 19.52600 31.29600
H  -4.57100 17.93000 31.14000
H  -0.58400 16.37500 30.27900
H  -1.20300 15.21600 31.33600
H  -2.13000 17.44000 32.64700
H  -0.54100 17.83600 32.12600
H  -3.56000 23.24800 27.47900
H  -1.83100 23.43700 26.99600
H  -2.29700 22.49600 28.27400
H  -3.96000 24.22500 25.40100
H  -3.74800 24.80200 23.73300
H  -2.40300 24.65700 24.79000
H  -1.69000 18.15300 20.90500
H  -4.12200 16.28100 20.88300
H  -4.52100 18.10200 19.88000
H  -3.14800 19.25500 19.48600
H  -4.24800 19.43900 20.80800
H  -1.33600 15.07300 20.74600
H  -1.64800 16.35300 19.53600
H  -2.40300 14.57200 18.20500
H  -3.88100 14.89200 19.08000
H  -2.80500 13.64900 19.77000
H  -3.34000 11.54200 23.80100
H  -1.85200 11.06200 24.80400
H  -1.82000 12.02800 23.29400
H  -3.52400 13.14100 29.20900
H  -0.56300 11.15300 31.52100
H  -1.45100 11.90300 32.75300
H  -0.02900 12.78900 31.93000
Mg 46.94500 25.25700 29.04800
C  47.79900 27.49700 31.74600
C  45.77400 23.04700 31.39400
C  46.96300 22.87300 26.73200
C  49.20300 27.13600 27.02600
N  46.72400 25.35200 31.25300
C  47.16700 26.27700 32.10500
C  46.77100 25.91900 33.57800
C  46.30600 24.42000 33.42400
C  46.16100 24.27100 31.93100
C  47.26000 23.35600 34.04600
C  45.60500 26.93500 34.15400
C  45.92300 27.48300 35.57700
H  46.27700 26.52900 36.74100
N  46.25600 23.35900 29.00500
C  45.79300 22.57400 30.05000
C  45.43900 21.29500 29.53700
C  45.58900 21.31200 28.11200
C  46.33500 22.50600 27.94200
C  44.93900 20.16500 30.40200
C  45.25500 20.28900 27.01300
O  45.40500 20.42500 25.76000
C  44.46700 19.07200 27.50700
N  47.92200 25.04100 27.15300
C  47.66200 24.05300 26.32200
C  48.40600 24.24400 24.97000
C  48.93900 25.68800 24.97200
C  48.65700 25.99700 26.44700
C  49.39000 23.14100 24.72100
C  48.46600 26.66900 23.90400
C  49.52600 27.49700 23.22400
N  48.17800 27.00800 29.19600
C  48.90200 27.64800 28.31100
C  49.38000 28.93900 28.89000
C  48.89600 28.89800 30.20100
C  48.21600 27.69000 30.39800
C  50.12100 29.95600 28.18100
C  49.00300 29.60400 31.48600
O  49.47400 30.68900 31.84600
C  48.28200 28.67200 32.54700
C  49.18500 28.41900 33.64800
O  49.95300 27.44800 33.64300
O  49.17700 29.35700 34.62900
C  50.14000 29.14200 35.73000
H  45.38000 22.27400 32.05800
H  46.99700 22.18600 25.88400
H  49.86900 27.75900 26.42400
H  47.64400 25.95500 34.22900
H  45.31200 24.31300 33.85700
H  47.47600 22.58700 33.30400
H  46.82400 22.88800 34.92800
H  48.22400 23.75600 34.36200
H  44.66200 26.38900 34.17200
H  45.47800 27.78000 33.47700
H  44.96900 27.93000 35.85500
H  46.67900 28.26000 35.46000
H  45.47300 19.22500 30.26600
H  43.92600 19.96900 30.05000
H  44.88700 20.36600 31.47200
H  43.45400 19.42800 27.69500
H  44.85000 18.66600 28.44300
H  44.49600 18.26500 26.77500
H  47.64100 24.15900 24.19800
H  50.02300 25.80400 24.97000
H  49.79000 22.66500 25.61700
H  50.24600 23.48700 24.14100
H  48.89500 22.36300 24.14000
H  47.72000 27.29100 24.39900
H  47.93100 26.13100 23.12200
H  49.24500 27.90800 22.25400
H  50.48200 26.99400 23.08000
H  49.69300 28.46100 23.70500
H  49.54600 30.10900 27.26800
H  51.10300 29.55000 27.93900
H  50.10100 30.88800 28.74700
H  47.39200 29.14700 32.96000
H  49.74000 28.39800 36.41900
H  50.36800 30.08200 36.23200
H  51.11800 28.72900 35.48400

