158

Mg 1.79200 -2.32100 44.50300
C  5.04400 -1.05200 44.27200
C  0.66400 0.22800 42.48200
C  -1.29400 -3.79500 44.71200
C  3.19100 -5.28900 45.85600
N  2.80800 -0.64500 43.44000
C  4.13400 -0.30300 43.50600
C  4.41600 0.83500 42.53500
C  3.00800 1.39200 42.12100
C  2.07500 0.24600 42.62500
C  2.60100 2.77100 42.65400
C  5.30200 0.49500 41.28000
C  6.45900 1.52500 40.99400
H  6.42900 2.08200 39.58200
N  -0.05500 -1.79200 43.83400
C  -0.31100 -0.65000 43.02500
C  -1.76300 -0.63500 42.76200
C  -2.36900 -1.78800 43.43400
C  -1.26600 -2.51400 44.04300
C  -2.40300 0.41000 41.92300
C  -3.79600 -2.06100 43.45700
O  -4.62400 -1.33600 42.95800
C  -4.39300 -3.26300 44.10200
N  1.17000 -4.27100 45.10000
C  -0.20700 -4.55400 45.17300
C  -0.49000 -5.87500 45.87700
C  0.88300 -6.48300 46.03500
C  1.82200 -5.31700 45.57200
C  -1.22300 -5.58700 47.20000
C  1.16700 -7.68800 45.12400
C  2.05900 -8.82200 45.59200
N  3.71200 -3.06500 45.10100
C  4.11700 -4.26600 45.62200
C  5.53100 -4.33300 45.90000
C  5.97900 -3.07100 45.39200
C  4.79500 -2.33400 44.92100
C  6.31000 -5.45500 46.49100
C  7.12300 -2.17800 45.17900
O  8.30400 -2.45600 45.29600
C  6.54200 -0.90600 44.38500
C  6.77300 0.35600 45.13700
O  6.28700 0.54500 46.26200
O  7.61500 1.22700 44.45900
C  8.09500 2.32900 45.30500
H  0.32200 1.08500 41.89700
H  -2.23400 -4.30200 44.94000
H  3.43900 -6.18700 46.42600
H  5.04400 1.47400 43.15400
H  2.91400 1.58100 41.05200
H  1.68200 2.68000 43.23200
H  2.22900 3.33800 41.80000
H  3.42100 3.31300 43.12700
H  4.64200 0.45600 40.41400
H  5.68300 -0.52300 41.35800
H  7.35300 0.91800 41.13500
H  6.41500 2.34400 41.71300
H  -3.22800 -0.13900 41.46900
H  -1.85700 0.50900 40.98500
H  -2.69900 1.35300 42.38300
H  -4.05800 -4.09600 43.48400
H  -5.45900 -3.26400 43.87400
H  -4.14100 -3.50400 45.13500
H  -1.20400 -6.43700 45.27300
H  1.11300 -6.59400 47.09500
H  -2.03200 -6.31700 47.22900
H  -1.70600 -4.61000 47.20600
H  -0.55200 -5.67400 48.05500
H  1.53900 -7.28200 44.18400
H  0.23500 -8.20000 44.88200
H  1.37400 -9.61600 45.89400
H  2.46200 -8.44900 46.53400
H  2.91000 -8.89800 44.91600
H  6.51200 -6.25000 45.77400
H  5.87100 -5.92400 47.37200
H  7.22500 -4.93700 46.77800
H  7.06400 -0.83200 43.43100
H  8.58700 2.93000 44.54000
H  8.81900 2.02000 46.05800
H  7.33800 3.02300 45.67100
Mg -4.52700 25.39000 25.81400
C  -3.17900 26.26300 28.86300
C  -6.68000 22.98200 27.53500
C  -5.26100 23.73400 22.91400
C  -2.52300 27.48600 24.21900
N  -4.75200 24.62100 27.96600
C  -4.03400 25.14100 29.05500
C  -4.46200 24.40000 30.30500
C  -5.44100 23.29700 29.78900
C  -5.67100 23.65600 28.33100
C  -4.83900 21.86900 29.98800
C  -5.02600 25.42800 31.43200
C  -5.91400 24.73900 32.53200
H  -5.46200 24.79800 33.95200
N  -5.77900 23.62200 25.33500
C  -6.69100 22.94100 26.12000
C  -7.48500 22.04300 25.39000
C  -7.06900 22.13500 24.04100
C  -5.99900 23.25200 24.06600
C  -8.51400 21.05200 26.03500
C  -7.46600 21.41500 22.78300
O  -6.89300 21.63400 21.71100
C  -8.52200 20.29300 22.73500
N  -3.70400 25.42500 23.88900
C  -4.26200 24.75100 22.90000
C  -3.71300 25.19200 21.51200
C  -3.00400 26.56600 21.87500
C  -3.06600 26.50900 23.42700
C  -2.75700 24.12800 20.93100
C  -3.67600 27.81000 21.23000
C  -2.78500 28.75000 20.33800
N  -3.17900 26.69200 26.34200
C  -2.50400 27.53200 25.58200
C  -1.76500 28.41700 26.47400
C  -1.91500 27.93400 27.76300
C  -2.82500 26.84000 27.62500
C  -0.74900 29.61900 26.04500
C  -1.50100 28.07600 29.14200
O  -0.55600 28.69700 29.62300
C  -2.47600 27.07800 29.95200
C  -1.57400 26.33800 30.84400
O  -0.81000 25.46300 30.51400
O  -1.85100 26.71700 32.10800
C  -0.99400 26.10100 33.11900
H  -7.32700 22.39500 28.19100
H  -5.52300 23.44500 21.89400
H  -1.93000 28.21300 23.66100
H  -3.60700 23.96700 30.82300
H  -6.39000 23.30800 30.32400
H  -3.81900 21.83200 30.37200
H  -4.82000 21.36600 29.02100
H  -5.48100 21.29900 30.65900
H  -5.56400 26.10200 30.76500
H  -4.19000 25.92200 31.92700
H  -5.98000 23.66600 32.35300
H  -6.87600 25.21500 32.34400
H  -9.47400 21.48300 26.32100
H  -8.07700 20.68100 26.96200
H  -8.63900 20.20400 25.36200
H  -8.16300 19.52700 23.42200
H  -8.69000 19.90800 21.72900
H  -9.52700 20.61600 23.01000
H  -4.48200 25.41500 20.77300
H  -1.97400 26.56200 21.51900
H  -1.91300 24.60000 20.42800
H  -3.38400 23.77400 20.11300
H  -2.45600 23.34500 21.62700
H  -4.14100 28.41100 22.01200
H  -4.52600 27.41200 20.67600
H  -1.71600 28.54400 20.40700
H  -2.83700 29.80700 20.59700
H  -3.14800 28.77800 19.31100
H  0.07100 29.25300 25.42700
H  -0.39100 29.97800 27.01000
H  -1.34200 30.38400 25.54300
H  -3.18500 27.77100 30.40500
H  -0.77500 25.04500 32.96600
H  -1.53200 26.02800 34.06500
H  -0.08900 26.65800 33.36400

