158

Mg 7.89700 52.03300 41.08700
C  7.45000 48.60700 40.70500
C  11.20400 51.57400 40.25500
C  8.20600 55.23800 41.40900
C  4.32300 52.31700 41.89400
N  9.20700 50.34300 40.55300
C  8.78400 49.05300 40.42700
C  9.90300 48.25700 39.97800
C  11.19200 49.01400 40.31400
C  10.53200 50.41300 40.42700
C  12.12200 48.62400 41.46900
C  9.83100 47.82800 38.46400
C  9.26800 48.87500 37.54900
H  8.68200 48.38400 36.24000
N  9.44000 53.23700 40.68500
C  10.72200 52.86200 40.32700
C  11.49200 54.06600 40.23100
C  10.65200 55.19200 40.50100
C  9.38000 54.62100 40.86400
C  12.93900 54.05500 39.78600
C  11.07600 56.62500 40.43800
O  12.21500 56.90400 40.27600
C  10.04700 57.82900 40.52600
N  6.46400 53.61600 41.53000
C  6.90400 54.83000 41.71300
C  5.76900 55.85900 42.13600
C  4.53100 54.87200 42.26800
C  5.13100 53.49800 41.92800
C  5.97800 56.83300 43.26900
C  3.25800 55.19500 41.37800
C  1.97800 55.60900 42.14600
N  6.22500 50.79800 41.17800
C  4.84000 50.98100 41.59800
C  4.12800 49.70500 41.62900
C  5.11700 48.77300 41.26200
C  6.31300 49.46900 41.01400
C  2.68400 49.36300 41.96200
C  5.35400 47.36100 41.14600
O  4.60000 46.41700 41.33200
C  6.90400 47.18300 40.79300
C  6.90000 46.45400 39.50700
O  6.53900 46.95600 38.46700
O  7.21500 45.16100 39.71300
C  6.71100 44.34600 38.66200
H  12.25100 51.39900 40.00000
H  8.28000 56.32400 41.50400
H  3.29100 52.45800 42.22000
H  9.88100 47.33500 40.55700
H  11.84700 49.20500 39.46400
H  11.70600 47.85500 42.11900
H  12.09000 49.53700 42.06400
H  13.17800 48.41800 41.29400
H  9.23000 46.92900 38.32800
H  10.84600 47.60600 38.13400
H  10.02900 49.64400 37.41700
H  8.37500 49.30100 38.00400
H  13.40500 53.08100 39.63200
H  13.61300 54.65100 40.40000
H  13.00800 54.44600 38.77100
H  9.89200 58.01100 41.59000
H  9.12800 57.66200 39.96500
H  10.49900 58.64600 39.96300
H  5.67500 56.50600 41.26400
H  4.11100 54.65800 43.25100
H  5.43300 56.57500 44.17700
H  5.73000 57.81600 42.86800
H  7.01500 56.79400 43.60200
H  2.99200 54.39900 40.68200
H  3.55500 55.99500 40.70000
H  1.96500 55.19000 43.15200
H  1.19100 55.15200 41.54600
H  1.96200 56.69500 42.05700
H  2.21600 50.31500 42.21300
H  2.68100 48.56500 42.70400
H  2.17600 48.98500 41.07500
H  7.24700 46.52400 41.59100
H  7.19100 44.61100 37.72000
H  5.62200 44.40600 38.65800
H  7.00900 43.31400 38.84700
Mg 1.53600 42.01600 26.28000
C  3.78700 41.98900 29.12600
C  -0.99600 41.35700 28.36300
C  -0.14800 41.40900 23.57000
C  4.56900 42.08400 24.36200
N  1.44600 41.85900 28.50500
C  2.41000 41.92700 29.43900
C  1.76800 41.80300 30.81900
C  0.32000 41.27100 30.51000
C  0.23200 41.56700 29.05400
C  0.06600 39.77600 30.87100
C  1.84900 43.08800 31.72700
C  2.21200 42.91600 33.19200
H  1.80600 41.62400 33.86600
N  -0.29900 41.52100 26.05100
C  -1.24700 41.36000 26.99100
C  -2.51900 41.05200 26.40600
C  -2.24800 40.91400 24.98100
C  -0.85000 41.29100 24.78800
C  -3.82800 40.98800 27.20800
C  -3.25800 40.55300 23.94600
O  -3.02700 40.59900 22.73600
C  -4.61400 40.22400 24.45100
N  2.12700 41.93200 24.23300
C  1.17900 41.81600 23.28800
C  1.85500 41.96400 21.90600
C  3.28700 42.47600 22.25200
C  3.39000 42.10300 23.72400
C  1.85700 40.59200 21.17500
C  3.57100 44.01000 22.00000
C  4.58500 44.39500 20.93100
N  3.75200 41.99200 26.64500
C  4.80800 42.08400 25.73400
C  6.13200 42.24800 26.39600
C  5.77500 42.20100 27.76600
C  4.33400 42.07200 27.81000
C  7.46900 42.33000 25.78600
C  6.28300 42.19600 29.06900
O  7.40200 42.28100 29.46300
C  4.95400 42.21600 30.02200
C  5.18100 41.21100 31.09400
O  4.94900 39.97600 30.97800
O  5.62000 41.81600 32.19200
C  6.11500 40.88700 33.21800
H  -1.80000 40.97300 28.99400
H  -0.74000 41.20900 22.67500
H  5.43900 42.29100 23.73600
H  2.36100 41.04800 31.33600
H  -0.46000 41.76800 31.08600
H  -0.20000 39.15600 30.01500
H  -0.79700 39.68200 31.53000
H  0.88900 39.32600 31.42700
H  1.03000 43.79600 31.59600
H  2.66600 43.71900 31.37500
H  1.53700 43.60000 33.70700
H  3.29200 43.03200 33.27700
H  -3.76900 41.30600 28.24900
H  -4.11900 39.93700 27.21100
H  -4.60200 41.64100 26.80400
H  -5.12800 41.14000 24.73900
H  -4.61400 39.48000 25.24800
H  -5.19500 39.74000 23.66600
H  1.49900 42.85100 21.38300
H  3.99000 41.91300 21.63800
H  1.16600 39.88000 21.62800
H  2.79900 40.09300 21.40200
H  1.63000 40.57300 20.10900
H  3.97400 44.35700 22.95200
H  2.60500 44.48700 21.83300
H  5.39400 44.86800 21.48800
H  4.13800 45.09300 20.22300
H  4.92700 43.52200 20.37500
H  7.76200 43.37300 25.66800
H  7.59500 41.82500 24.82800
H  8.17000 41.85600 26.47300
H  4.89600 43.21300 30.45900
H  6.67200 40.10900 32.69500
H  5.38800 40.30600 33.78400
H  6.73100 41.47300 33.90000

