158

Mg 17.39600 -1.13100 28.11300
C  16.20000 0.81100 30.80700
C  19.18000 -2.95200 30.38100
C  18.85900 -2.73900 25.57400
C  15.82800 1.06300 25.91300
N  17.61800 -0.98600 30.24700
C  17.02000 -0.25800 31.18400
C  17.52500 -0.50100 32.61600
C  18.60300 -1.54300 32.33700
C  18.44800 -1.85700 30.86300
C  20.10400 -1.31800 32.74000
C  16.43100 -0.98800 33.55500
C  16.72200 -0.52100 35.00600
H  18.09400 0.10400 35.39400
N  18.67500 -2.68600 28.00000
C  19.22500 -3.35000 29.01000
C  19.87700 -4.49100 28.53300
C  19.72100 -4.52100 27.09800
C  19.02100 -3.26600 26.83200
C  20.56400 -5.58500 29.51500
C  20.24100 -5.52500 26.08500
O  20.09500 -5.38200 24.88200
C  21.01300 -6.81600 26.61000
N  17.53100 -0.78300 26.02000
C  18.07600 -1.68100 25.17100
C  17.82800 -1.28100 23.71000
C  16.80300 -0.06400 23.82300
C  16.82300 0.18400 25.36400
C  19.10100 -1.03200 22.90700
C  15.43100 -0.24400 23.11300
C  14.13700 -0.79700 23.80400
N  16.18300 0.58700 28.27800
C  15.58200 1.31800 27.26700
C  14.83200 2.36500 27.89200
C  14.97100 2.22800 29.23600
C  15.86700 1.15200 29.45200
C  14.14800 3.49800 27.23400
C  14.58900 2.78200 30.54800
O  13.84900 3.73900 30.87000
C  15.55200 1.95600 31.62200
C  16.54900 2.80400 32.30500
O  17.73500 2.60100 32.15100
O  15.99600 3.71400 33.23800
C  16.97400 4.45600 34.06100
H  19.69800 -3.60200 31.08900
H  19.27000 -3.27900 24.71800
H  15.22300 1.58800 25.17100
H  17.99400 0.42100 32.95700
H  18.36800 -2.48400 32.83500
H  20.44600 -2.23200 33.22700
H  20.14400 -0.39500 33.31700
H  20.66400 -1.23700 31.80800
H  16.43700 -2.07700 33.49800
H  15.50000 -0.56000 33.18300
H  16.39900 -1.30100 35.69500
H  15.94300 0.23400 35.11700
H  20.02800 -5.68900 30.45800
H  21.63100 -5.38600 29.61800
H  20.40100 -6.55500 29.04600
H  21.39100 -7.26400 25.69100
H  20.22100 -7.44300 27.01900
H  21.86700 -6.61300 27.25700
H  17.31000 -2.06300 23.15500
H  17.29000 0.80600 23.38200
H  19.36800 0.02400 22.94100
H  18.92500 -1.44100 21.91200
H  19.97400 -1.52100 23.34100
H  15.46400 -0.85000 22.20800
H  15.22600 0.77400 22.78000
H  13.69300 -1.50000 23.10000
H  13.30400 -0.12200 24.00200
H  14.37300 -1.37300 24.69900
H  13.08400 3.27900 27.13500
H  14.60800 3.81600 26.29900
H  14.35400 4.27900 27.96600
H  14.85500 1.63800 32.39700
H  17.78100 4.95700 33.52600
H  17.48400 3.90800 34.85300
H  16.40500 5.21400 34.59900
Mg 50.73400 45.12700 42.62700
C  47.61800 46.28000 41.34800
C  50.10200 42.15200 40.90100
C  53.94000 44.33000 43.18500
C  51.41400 48.51600 43.52900
N  49.12400 44.38500 41.10400
C  47.92100 44.95600 40.96800
C  46.98600 44.05200 40.11300
C  47.73200 42.66500 40.14500
C  49.03600 43.10000 40.73300
C  46.91600 41.53500 40.85300
C  46.71700 44.66200 38.73300
C  45.21400 44.93900 38.46600
H  44.65300 43.89500 37.40400
N  51.88300 43.47700 42.18700
C  51.45400 42.33100 41.42200
C  52.58100 41.42900 41.31300
C  53.63900 41.99100 42.04400
C  53.20000 43.28400 42.56500
C  52.55700 40.13000 40.58200
C  54.96500 41.25600 42.29700
O  55.20200 40.27000 41.60400
C  55.95300 41.65100 43.36700
N  52.38700 46.25500 43.38300
C  53.59100 45.68600 43.42700
C  54.62400 46.71800 43.92000
C  53.77200 48.00300 44.24300
C  52.44600 47.56700 43.63000
C  55.61700 46.33900 45.01100
C  54.41300 49.38400 43.76500
C  55.38600 50.09500 44.71300
N  49.69500 46.94900 42.63900
C  50.11400 48.18700 43.11100
C  49.00200 49.16000 42.91600
C  48.04400 48.42100 42.23600
C  48.44800 47.09500 42.16800
C  48.97500 50.66400 43.27700
C  46.69400 48.54500 41.61300
O  45.89600 49.54200 41.34000
C  46.31300 47.12100 41.02200
C  45.09400 46.59200 41.72100
O  45.01200 45.90000 42.72700
O  44.00200 46.82600 40.94400
C  42.67500 46.38600 41.33600
H  50.03300 41.14600 40.48000
H  54.98700 44.02500 43.24200
H  51.55100 49.53400 43.90000
H  46.09800 43.87700 40.72200
H  47.86400 42.33100 39.11600
H  46.55600 40.85600 40.08000
H  46.09700 41.93400 41.45200
H  47.52700 40.92900 41.52200
H  47.07900 44.08000 37.88500
H  47.29600 45.57600 38.60800
H  45.14500 45.94600 38.05400
H  44.52500 44.82000 39.30200
H  53.27100 39.94500 39.77900
H  51.56300 39.98900 40.15900
H  52.65900 39.30200 41.28300
H  55.39600 42.02900 44.22400
H  56.60900 42.42400 42.96700
H  56.54100 40.74900 43.53900
H  55.30100 46.95300 43.09800
H  53.61400 48.06300 45.32000
H  55.55000 46.72800 46.02700
H  56.60300 46.45400 44.56000
H  55.49700 45.27400 45.20600
H  53.65900 50.08000 43.39900
H  54.90200 49.37000 42.79100
H  55.86600 49.45300 45.45100
H  54.92700 50.84700 45.35500
H  56.00900 50.66900 44.02800
H  48.13300 50.99400 43.88500
H  48.83900 51.13200 42.30200
H  49.90600 51.09000 43.65400
H  46.22900 47.12300 39.93500
H  42.30700 47.02200 42.14100
H  42.72500 45.38800 41.77100
H  41.97800 46.32100 40.50000

