158

Mg 48.25900 34.16800 26.13900
C  46.75800 32.94500 29.02900
C  48.90300 37.18400 27.89900
C  49.89100 35.31800 23.43400
C  47.37100 31.25500 24.43600
N  47.93500 34.90400 28.27900
C  47.34600 34.20700 29.27400
C  47.57200 34.97500 30.63300
C  47.98700 36.43800 30.12700
C  48.28400 36.17500 28.70900
C  46.86200 37.48800 30.30300
C  48.70600 34.48300 31.56000
C  48.68200 34.78200 33.03800
H  47.37200 35.32800 33.62000
N  49.13800 36.03900 25.69500
C  49.32100 37.14200 26.51200
C  49.98800 38.25500 25.84500
C  50.23700 37.75100 24.53700
C  49.74700 36.29200 24.45100
C  50.32400 39.53800 26.52000
C  50.76500 38.51200 23.36900
O  50.78500 38.06600 22.25700
C  51.31100 39.87200 23.51700
N  48.39200 33.43700 24.06100
C  49.33400 34.02600 23.22000
C  49.48900 33.21100 21.98700
C  48.59400 31.89800 22.26600
C  48.03200 32.22700 23.66700
C  49.20100 33.94100 20.63100
C  49.23100 30.49800 22.04100
C  48.91100 29.72000 20.75100
N  47.25000 32.44300 26.61700
C  46.95200 31.39300 25.81000
C  46.11900 30.42300 26.55200
C  46.00400 31.00700 27.79300
C  46.68900 32.22800 27.82900
C  45.62400 29.11400 26.00500
C  45.44000 30.83300 29.02900
O  44.67700 29.97300 29.49000
C  45.98800 31.97900 29.98000
C  46.83500 31.33700 30.99000
O  47.93800 30.91700 30.70400
O  46.23000 31.35200 32.25100
C  47.00200 30.63500 33.24100
H  49.09900 38.09800 28.46300
H  50.54700 35.60200 22.60800
H  46.96800 30.35200 23.97400
H  46.61300 34.97500 31.15100
H  48.87400 36.78700 30.65500
H  46.57500 37.99400 29.38100
H  47.19000 38.32400 30.92100
H  45.95100 37.06400 30.72600
H  49.65500 34.88800 31.21000
H  48.92100 33.42800 31.39500
H  49.51600 35.45700 33.23100
H  48.88300 33.78900 33.43900
H  50.46800 39.53800 27.60000
H  49.71100 40.37300 26.18000
H  51.33900 39.86300 26.28900
H  50.56700 40.60200 23.83600
H  51.91200 40.12500 22.64300
H  52.09900 39.86900 24.27100
H  50.55300 32.99900 21.88400
H  47.72400 31.95100 21.61100
H  48.61400 33.22400 20.05500
H  50.11500 34.11500 20.06200
H  48.70600 34.89100 20.83200
H  49.03100 29.77100 22.82800
H  50.32100 30.50900 22.04900
H  48.38300 30.49900 20.20200
H  48.30900 28.85400 21.02700
H  49.86100 29.44100 20.29300
H  46.35900 28.33600 26.21000
H  45.39900 29.10600 24.93800
H  44.64500 28.96600 26.45900
H  45.18200 32.48100 30.51500
H  46.68000 30.91700 34.24400
H  48.02800 30.95700 33.06700
H  46.83200 29.57900 33.03000
Mg 9.38300 48.63000 25.60000
C  7.24500 48.67000 28.45500
C  11.95000 49.51500 27.70000
C  11.24000 48.18200 23.01200
C  6.44000 48.04900 23.64700
N  9.57100 49.01700 27.81100
C  8.54800 48.97600 28.73600
C  9.07000 49.48400 30.15200
C  10.52500 50.09400 29.71800
C  10.71100 49.51300 28.34000
C  10.64400 51.66200 29.71900
C  9.12900 48.35200 31.20000
C  8.93800 48.61900 32.71000
H  8.69800 47.46600 33.75200
N  11.32500 48.79400 25.47500
C  12.28600 49.14400 26.38000
C  13.56400 49.13700 25.68300
C  13.38500 48.53000 24.40100
C  11.94500 48.48100 24.21800
C  14.85400 49.41300 26.38300
C  14.37300 48.18700 23.35700
O  13.93000 47.62700 22.34300
C  15.78100 48.46300 23.50300
N  8.86800 48.24400 23.54700
C  9.88000 48.06100 22.68000
C  9.41000 47.61700 21.29300
C  7.84400 47.68300 21.44000
C  7.69500 47.98300 22.95900
C  9.93500 48.48700 20.17800
C  6.97900 46.50000 20.94000
C  6.45100 46.58200 19.51700
N  7.26300 48.46200 25.90900
C  6.18000 48.35100 25.01200
C  4.97400 48.31400 25.74700
C  5.31900 48.50100 27.04500
C  6.73900 48.57300 27.13800
C  3.61100 48.20200 25.25600
C  4.76200 48.64100 28.39700
O  3.63700 48.74100 28.82500
C  6.01200 48.70700 29.32900
C  5.93700 47.59100 30.29600
O  6.37500 46.45000 30.15200
O  5.37100 48.05500 31.42700
C  5.15600 47.08200 32.48200
H  12.74900 50.03200 28.23500
H  11.82900 48.05900 22.10100
H  5.55600 47.91400 23.02100
H  8.47300 50.31900 30.52000
H  11.30700 49.62700 30.31800
H  11.50500 52.09900 30.22500
H  9.76800 52.18200 30.10600
H  10.68100 52.13000 28.73500
H  10.17500 48.06100 31.29600
H  8.60700 47.43300 30.93300
H  8.07900 49.24100 32.96000
H  9.80900 49.15600 33.08700
H  15.34800 50.21100 25.82800
H  15.49300 48.53000 26.36200
H  14.70400 49.72700 27.41500
H  16.30000 48.31200 22.55700
H  16.21700 47.87000 24.30700
H  15.97200 49.47700 23.85400
H  9.85900 46.62400 21.30900
H  7.33500 48.43600 20.83800
H  10.39400 49.34900 20.66300
H  9.13400 48.78100 19.50100
H  10.66500 47.99200 19.53700
H  6.12900 46.32900 21.60000
H  7.46200 45.52500 20.99500
H  7.10900 47.29100 19.01400
H  5.42300 46.94300 19.51700
H  6.51200 45.59300 19.06400
H  3.29700 49.21400 25.00200
H  2.98200 47.75000 26.02300
H  3.60300 47.49400 24.42800
H  5.98600 49.64100 29.89000
H  4.33400 46.42000 32.20900
H  4.95800 47.50500 33.46700
H  6.12300 46.61200 32.66100

