158

Mg 41.97700 41.07700 27.13600
C  41.19800 43.54200 29.51400
C  42.64500 38.88200 29.61200
C  42.93300 38.89600 24.74000
C  41.09300 43.37700 24.58200
N  42.15900 41.32500 29.30700
C  41.70300 42.36000 30.10700
C  41.50800 41.84700 31.56200
C  42.35800 40.51400 31.53700
C  42.35100 40.19300 30.03100
C  43.73000 40.79500 32.14700
C  40.03500 41.72600 32.00500
C  39.52500 42.80700 32.96200
H  39.38000 42.51300 34.44400
N  42.72400 39.11900 27.22800
C  42.88900 38.35500 28.32900
C  43.32100 37.08100 27.92300
C  43.47900 37.07800 26.51100
C  43.08000 38.36600 26.09000
C  43.78300 36.02300 28.87100
C  44.07900 36.04500 25.58800
O  44.50500 36.24500 24.44700
C  44.25100 34.68300 26.04800
N  41.97200 41.11600 24.96400
C  42.43600 40.08000 24.23400
C  42.29000 40.40100 22.72900
C  41.68500 41.79700 22.69900
C  41.58100 42.13700 24.17800
C  43.67600 40.17100 21.97800
C  40.36600 41.90900 21.89100
C  39.10700 41.34000 22.54900
N  41.33800 43.04200 27.02700
C  41.01600 43.81700 25.91500
C  40.70900 45.15500 26.35300
C  40.68700 45.06900 27.79200
C  41.18300 43.81600 28.17400
C  40.41800 46.47300 25.49100
C  40.55600 45.83300 29.05100
O  40.37400 46.99400 29.19900
C  40.71800 44.79600 30.19500
C  41.73600 45.37500 31.11200
O  42.96900 45.28900 30.90700
O  41.10900 46.03600 32.13300
C  42.02300 46.80500 32.96500
H  42.75600 38.21400 30.46900
H  43.17900 38.15700 23.97400
H  40.93800 44.08800 23.76800
H  41.94300 42.50800 32.31100
H  41.92300 39.64800 32.03600
H  44.54400 40.47700 31.49500
H  43.83000 40.12700 33.00200
H  43.90500 41.80800 32.50800
H  39.82600 40.74200 32.42400
H  39.45200 41.97700 31.11900
H  38.55800 43.11500 32.56300
H  40.09500 43.72800 32.84600
H  43.20200 35.12000 28.68600
H  43.65700 36.39900 29.88700
H  44.83000 35.72200 28.86000
H  44.43800 33.94900 25.26400
H  43.29600 34.37800 26.47600
H  45.00300 34.71000 26.83700
H  41.61200 39.64500 22.33400
H  42.34900 42.50100 22.19900
H  44.15700 39.25200 22.31400
H  44.35300 40.97700 22.25900
H  43.46300 39.89700 20.94400
H  40.48900 41.39900 20.93600
H  40.26200 42.98900 21.78600
H  39.33500 40.88300 23.51100
H  38.55700 40.68900 21.87000
H  38.43500 42.18000 22.72400
H  39.72700 47.07000 26.08600
H  39.88700 46.27200 24.56100
H  41.34600 46.96400 25.20000
H  39.75300 44.57100 30.65000
H  43.07300 46.51500 32.99900
H  41.60000 46.62500 33.95300
H  41.81400 47.85900 32.78200
Mg -11.03200 16.90200 43.29300
C  -7.49500 17.19500 43.40000
C  -11.14100 20.06600 42.22900
C  -14.25700 16.33000 42.48800
C  -10.67400 13.39300 43.72600
N  -9.38900 18.37700 42.77600
C  -8.03700 18.34800 42.98100
C  -7.36800 19.63000 42.54100
C  -8.53400 20.60700 42.29900
C  -9.80000 19.65100 42.37500
C  -8.69200 21.72100 43.34000
C  -6.51700 19.40900 41.24700
C  -4.96000 19.66700 41.42100
H  -4.35400 20.42400 40.22500
N  -12.54600 18.09600 42.63300
C  -12.37500 19.40400 42.28100
C  -13.66200 19.93800 41.94000
C  -14.57600 18.79000 42.05700
C  -13.78800 17.66000 42.41300
C  -13.91600 21.40400 41.64300
C  -16.06800 18.87500 41.71400
O  -16.55400 19.94000 41.33500
C  -17.14000 17.77500 41.84000
N  -12.30500 15.14400 43.19100
C  -13.58300 15.21000 42.96900
C  -14.28900 13.84000 43.14300
C  -13.05200 12.86600 43.04900
C  -11.92500 13.87700 43.40700
C  -15.02000 13.70400 44.54400
C  -12.71600 12.17900 41.71600
C  -13.01400 10.72400 41.56600
N  -9.48300 15.51100 43.46800
C  -9.45500 14.19400 43.77100
C  -8.06200 13.68300 43.83300
C  -7.26100 14.84900 43.78100
C  -8.17800 15.93100 43.56700
C  -7.60700 12.21600 43.96600
C  -5.90900 15.27900 43.87500
O  -4.83900 14.74600 44.22800
C  -6.01800 16.84200 43.63900
C  -5.45300 17.58600 44.82200
O  -5.99800 17.64100 45.90200
O  -4.22400 18.10200 44.47500
C  -3.62400 18.78400 45.62500
H  -11.24700 21.14900 42.13800
H  -15.29900 16.05700 42.31000
H  -10.57300 12.32000 43.90200
H  -6.74000 20.01000 43.34700
H  -8.55000 21.15200 41.35500
H  -7.94700 21.55900 44.12000
H  -9.68800 21.72000 43.78200
H  -8.56700 22.69300 42.86400
H  -6.84800 20.13700 40.50600
H  -6.68700 18.40200 40.86700
H  -4.44900 18.71000 41.31800
H  -4.76800 20.23800 42.32900
H  -14.45900 21.93900 42.42300
H  -14.42800 21.41800 40.68100
H  -12.93700 21.82700 41.41700
H  -18.12800 18.23200 41.89300
H  -16.98800 17.25500 42.78600
H  -17.04000 17.25300 40.88800
H  -14.82600 13.66400 42.21100
H  -13.08500 12.07100 43.79500
H  -16.05400 13.55100 44.23300
H  -14.87500 14.57700 45.17900
H  -14.78400 12.73100 44.97400
H  -11.74400 12.42100 41.28600
H  -13.39200 12.56300 40.95200
H  -12.77300 10.11000 42.43400
H  -12.23000 10.26100 40.96600
H  -13.97800 10.36300 41.20700
H  -6.85000 12.20400 44.75000
H  -7.18700 11.84500 43.03100
H  -8.41800 11.52500 44.19700
H  -5.48100 17.12300 42.73400
H  -4.20700 19.70300 45.70300
H  -2.58400 18.92500 45.33100
H  -3.56000 18.15400 46.51200

