158

Mg -1.26300 18.34500 27.27500
C  -1.58700 16.37000 30.29700
C  -1.52900 21.00300 29.28100
C  -1.56700 20.09600 24.45800
C  -1.43800 15.44400 25.36700
N  -1.64500 18.59000 29.59900
C  -1.45900 17.75000 30.63100
C  -1.66500 18.36000 31.97900
C  -1.89000 19.83800 31.57700
C  -1.70400 19.83600 30.01200
C  -3.27000 20.51700 31.99900
C  -0.62400 17.93300 33.07400
C  -1.09100 17.22800 34.36200
H  -0.09900 17.33600 35.58400
N  -1.46500 20.26800 26.93600
C  -1.58500 21.28500 27.88400
C  -1.64000 22.62200 27.22700
C  -1.40200 22.28400 25.82800
C  -1.50100 20.79900 25.65800
C  -1.63900 23.93500 27.94800
C  -1.15900 23.25400 24.70300
O  -1.03800 22.87400 23.53300
C  -0.96300 24.76200 24.89600
N  -1.64500 17.74800 25.15800
C  -1.55800 18.71500 24.21000
C  -1.47600 18.00400 22.77200
C  -1.20100 16.56500 23.13100
C  -1.41700 16.56300 24.63900
C  -2.74500 18.15000 21.97300
C  0.17900 15.99600 22.82800
C  1.38000 16.72500 23.57600
N  -1.51800 16.33000 27.69200
C  -1.47300 15.28100 26.79200
C  -1.53700 14.04800 27.61700
C  -1.60900 14.46300 28.97200
C  -1.62700 15.83800 28.96700
C  -1.50900 12.66900 27.02300
C  -1.80000 13.97200 30.32600
O  -2.03100 12.77600 30.67900
C  -1.64300 15.12600 31.30300
C  -0.36200 14.70700 31.98300
O  0.76300 15.07700 31.68000
O  -0.74600 13.83800 32.92600
C  0.32500 13.60500 33.84900
H  -1.50700 21.88000 29.93200
H  -1.73100 20.67100 23.54500
H  -1.17600 14.52700 24.83400
H  -2.58200 17.94600 32.39800
H  -1.13100 20.52800 31.94700
H  -3.39400 20.21900 33.04100
H  -4.00500 20.02000 31.36600
H  -3.25600 21.60400 31.93000
H  -0.05900 18.83000 33.32800
H  -0.01700 17.16200 32.59900
H  -1.27000 16.17400 34.14700
H  -2.06400 17.63800 34.63300
H  -0.59600 24.20600 27.78500
H  -1.92500 23.64100 28.95700
H  -2.26400 24.75400 27.59000
H  0.03000 24.90000 25.32300
H  -1.74900 25.28600 25.44100
H  -0.92400 25.17800 23.88900
H  -0.61300 18.47400 22.30100
H  -1.95500 15.91000 22.69400
H  -2.52400 18.61700 21.01300
H  -3.42300 18.84500 22.47000
H  -3.29000 17.24800 21.69700
H  0.34900 16.06400 21.75300
H  0.25900 14.94800 23.11700
H  1.07900 17.00100 24.58700
H  1.76200 17.60300 23.05500
H  2.21900 16.03500 23.66700
H  -0.76700 12.04100 27.51600
H  -1.15300 12.82000 26.00400
H  -2.47900 12.17300 27.03400
H  -2.46500 15.14200 32.01900
H  1.10000 13.10600 33.26700
H  -0.01700 13.02300 34.70500
H  0.63400 14.49100 34.40200
Mg 35.24900 48.90300 26.40000
C  35.57000 46.69900 29.05700
C  34.25900 51.31200 28.88900
C  34.37200 51.00500 24.05300
C  35.89000 46.37000 24.14500
N  34.89200 48.90600 28.67700
C  35.23700 47.94500 29.55400
C  35.03600 48.32500 30.99600
C  34.36600 49.76900 30.86500
C  34.59700 50.06500 29.37100
C  32.87900 49.89900 31.19500
C  36.43100 48.29800 31.74600
C  36.49500 47.96100 33.22700
H  35.22100 48.08200 34.07000
N  34.52600 50.90700 26.42200
C  34.18400 51.69600 27.47100
C  33.66000 52.98800 27.05900
C  33.86000 52.99800 25.66300
C  34.30500 51.64400 25.27800
C  33.04500 54.10300 27.91600
C  33.69300 54.10300 24.52700
O  33.81100 53.97100 23.31300
C  33.44700 55.48300 25.04100
N  35.08700 48.73900 24.39000
C  34.73300 49.73000 23.53700
C  34.57600 49.23300 22.14200
C  35.38000 47.85400 22.16800
C  35.59200 47.63200 23.65500
C  33.11900 49.16800 21.56900
C  36.65100 47.73200 21.35100
C  37.89200 48.46800 21.84600
N  35.72800 46.90100 26.47000
C  35.98500 45.97000 25.50400
C  36.15800 44.63900 26.13300
C  36.04000 44.88200 27.50800
C  35.67700 46.25700 27.65500
C  36.54400 43.41100 25.35400
C  36.14900 44.27500 28.77900
O  36.43200 43.10400 29.09900
C  35.83800 45.41900 29.83500
C  34.67100 44.87500 30.58500
O  33.55400 44.65300 30.06600
O  35.04900 44.51500 31.84600
C  33.95500 44.00600 32.64100
H  33.81900 52.02300 29.59100
H  33.90800 51.59400 23.26000
H  35.83800 45.58300 23.39000
H  34.41800 47.57200 31.48400
H  34.98600 50.47800 31.41400
H  32.38300 48.95500 31.42200
H  32.33300 50.36300 30.37400
H  32.78400 50.58900 32.03400
H  36.95600 49.25400 31.74100
H  37.09900 47.62900 31.20300
H  37.33500 48.42500 33.74500
H  36.76000 46.90400 33.18100
H  32.35000 54.76600 27.40100
H  33.84600 54.55000 28.50500
H  32.58500 53.63300 28.78500
H  33.49700 56.22800 24.24700
H  34.22600 55.74900 25.75500
H  32.44900 55.56600 25.47200
H  35.10200 49.93200 21.49100
H  34.66600 47.11300 21.80800
H  32.38500 49.39600 22.34200
H  32.91300 48.16700 21.19000
H  32.86300 49.79800 20.71700
H  36.30200 47.91400 20.33400
H  36.83000 46.65700 21.34500
H  38.81000 47.90500 22.01400
H  37.69300 49.11900 22.69800
H  38.20800 49.13400 21.04200
H  36.33000 42.49400 25.90400
H  37.60800 43.51200 25.13600
H  36.05100 43.25700 24.39500
H  36.71500 45.33000 30.47600
H  33.53800 43.17900 32.06600
H  33.22300 44.77100 32.89900
H  34.36700 43.55700 33.54600

