158

Mg 3.02200 -1.15400 43.58200
C  6.43500 -0.43500 43.30000
C  2.34900 1.83400 42.06800
C  -0.04600 -2.30300 43.09900
C  3.98100 -4.32000 44.93900
N  4.29800 0.45600 42.67200
C  5.65200 0.58200 42.72300
C  6.16400 1.85500 42.14900
C  4.79000 2.61000 41.89300
C  3.71600 1.57600 42.22600
C  4.59300 4.01900 42.60100
C  7.06300 1.71600 40.84800
C  6.56700 0.93000 39.69400
H  6.33700 1.67900 38.41500
N  1.35400 -0.33200 42.81600
C  1.33000 0.91500 42.26000
C  -0.12300 1.17800 41.91200
C  -0.81800 -0.02900 42.12600
C  0.15900 -0.94400 42.70900
C  -0.51400 2.59700 41.45200
C  -2.35200 -0.20200 41.93500
O  -2.95500 0.83200 41.63900
C  -3.12900 -1.47400 42.28600
N  2.15000 -3.04300 43.94500
C  0.81600 -3.26800 43.75100
C  0.37000 -4.63000 44.31200
C  1.68700 -5.16300 44.97700
C  2.67000 -4.13800 44.52600
C  -0.94400 -4.56700 45.16700
C  2.17100 -6.61700 44.59100
C  2.58000 -7.54900 45.71600
N  4.80500 -2.22700 44.11600
C  5.04500 -3.44900 44.66000
C  6.42600 -3.62500 44.90400
C  7.02100 -2.41800 44.41100
C  5.98600 -1.60800 43.94600
C  7.02800 -4.75800 45.63400
C  8.30500 -1.75300 44.30500
O  9.40000 -2.20200 44.64500
C  7.94600 -0.33400 43.63700
C  8.26700 0.69600 44.58800
O  7.96500 0.78800 45.73700
O  9.14000 1.64200 43.98100
C  9.62400 2.76600 44.75800
H  2.09200 2.76900 41.56500
H  -1.03700 -2.70900 42.88400
H  4.28900 -5.23100 45.45600
H  6.70200 2.35500 42.95500
H  4.73300 2.91500 40.84900
H  3.67500 4.07100 43.18600
H  4.55700 4.87400 41.92600
H  5.40900 4.23800 43.28900
H  8.06900 1.38200 41.10200
H  7.15400 2.76200 40.55800
H  5.62600 0.43200 39.92500
H  7.30300 0.12700 39.68200
H  0.13500 2.96400 40.65600
H  -0.42500 3.28500 42.29200
H  -1.53200 2.55900 41.06300
H  -2.83400 -2.26000 41.59200
H  -4.18400 -1.20500 42.33900
H  -2.76500 -1.70900 43.28600
H  0.09100 -5.20400 43.42900
H  1.69700 -4.89800 46.03400
H  -0.93300 -5.21300 46.04500
H  -1.81100 -4.79700 44.54800
H  -1.07700 -3.52900 45.47400
H  3.03800 -6.51500 43.93800
H  1.41300 -7.10900 43.98200
H  3.54700 -7.97400 45.45000
H  1.87700 -8.38200 45.72900
H  2.55300 -6.99300 46.65300
H  7.39500 -5.52800 44.95500
H  6.33500 -5.18100 46.36200
H  7.92500 -4.44800 46.17000
H  8.44800 -0.20600 42.67800
H  10.54000 2.47600 45.27200
H  8.93100 3.05000 45.55000
H  9.69000 3.67400 44.15800
Mg -0.25000 43.36200 25.98200
C  2.01800 42.67700 28.73200
C  -2.73100 41.88600 27.90200
C  -2.18700 43.11300 23.30800
C  2.55800 43.81100 23.92400
N  -0.32100 42.28900 28.06100
C  0.64300 42.46000 29.06600
C  0.03900 42.08100 30.39400
C  -1.44800 41.67200 30.04200
C  -1.54900 41.98100 28.59200
C  -1.90500 40.19700 30.46200
C  0.20400 43.22900 31.42500
C  0.44200 43.03400 32.93600
H  0.40800 41.54800 33.45000
N  -2.35300 42.86600 25.70100
C  -3.13500 42.24900 26.59000
C  -4.51100 42.11900 26.05200
C  -4.33200 42.35500 24.63700
C  -2.95900 42.79100 24.49100
C  -5.56600 41.55000 26.86400
C  -5.28900 42.24500 23.41500
O  -4.92400 42.58300 22.32100
C  -6.64400 41.67500 23.65300
N  0.15800 43.46500 23.90500
C  -0.85100 43.41100 23.00300
C  -0.36300 43.89200 21.61000
C  1.14000 43.93800 21.76800
C  1.32900 43.80600 23.29400
C  -0.90500 43.00200 20.46900
C  1.75500 45.16300 21.03200
C  2.10900 46.43200 21.91900
N  1.85000 43.25300 26.21700
C  2.83400 43.51700 25.24400
C  4.16300 43.47400 25.90600
C  3.84800 43.06700 27.21200
C  2.46500 42.92800 27.36900
C  5.50500 43.76500 25.33200
C  4.49900 42.72600 28.52300
O  5.66300 42.53900 28.85900
C  3.29100 42.60400 29.58300
C  3.55600 41.42500 30.33900
O  3.38800 40.23900 30.04000
O  4.10600 41.87300 31.48700
C  4.60600 40.78400 32.30600
H  -3.49200 41.46800 28.56400
H  -2.85400 43.28900 22.46200
H  3.41500 44.05800 23.29400
H  0.55600 41.19100 30.75200
H  -2.27200 42.26100 30.44500
H  -2.34100 40.28700 31.45700
H  -1.03500 39.54000 30.46800
H  -2.58900 39.88600 29.67300
H  -0.71100 43.82200 31.41100
H  0.98400 43.91600 31.09600
H  -0.35300 43.52100 33.50200
H  1.42800 43.35100 33.27600
H  -6.39900 42.24500 26.75500
H  -5.30500 41.67900 27.91500
H  -5.92700 40.56100 26.58400
H  -6.54000 40.77900 24.26500
H  -7.00900 41.49400 22.64200
H  -7.33200 42.43400 24.02500
H  -0.79200 44.88800 21.49500
H  1.47500 42.99100 21.34500
H  -1.48300 42.24000 20.99100
H  -0.08500 42.53100 19.92700
H  -1.50400 43.39000 19.64500
H  1.10600 45.50300 20.22500
H  2.68700 44.75200 20.64600
H  1.84100 46.34000 22.97100
H  1.93300 47.42200 21.49700
H  3.19900 46.40900 21.94100
H  5.58200 44.83900 25.16300
H  5.53000 43.26100 24.36600
H  6.26500 43.50400 26.06900
H  3.14800 43.50800 30.17600
H  4.21200 40.99600 33.29900
H  5.68900 40.81700 32.42300
H  4.31200 39.77100 32.02900

