158

Mg 1.23400 7.62600 25.40600
C  1.73000 9.50300 28.29400
C  1.78500 4.78300 27.40900
C  0.89300 5.88400 22.60000
C  1.50700 10.61500 23.60600
N  1.82300 7.21900 27.56700
C  1.74300 8.15700 28.53400
C  1.76000 7.47100 29.92100
C  2.14800 5.94300 29.63300
C  1.94200 5.96900 28.11200
C  3.53300 5.54400 30.04300
C  0.33700 7.66800 30.62900
C  0.38900 7.87500 32.21500
H  1.67700 7.58400 32.96200
N  1.31400 5.61100 25.03700
C  1.42700 4.56200 26.07200
C  1.25900 3.29100 25.35800
C  1.01700 3.60900 23.96800
C  0.98800 5.08800 23.79600
C  1.29300 1.92300 26.03600
C  0.77300 2.58400 22.83700
O  0.33800 2.96300 21.74600
C  1.17600 1.13100 23.01000
N  1.15700 8.20600 23.39800
C  0.95400 7.25400 22.43200
C  1.01400 7.90800 21.02400
C  0.81900 9.46900 21.30000
C  1.26800 9.45700 22.82700
C  2.32000 7.71400 20.15700
C  -0.65900 9.96000 21.02800
C  -0.77800 11.14300 20.02800
N  1.53100 9.66500 25.82200
C  1.59800 10.74100 24.96400
C  1.79800 11.96600 25.75500
C  1.81700 11.47700 27.08000
C  1.57900 10.10700 27.05300
C  2.09300 13.35600 25.22200
C  2.11900 11.94300 28.41500
O  2.51700 13.05600 28.75300
C  1.91900 10.68800 29.27600
C  3.07900 10.56900 30.14600
O  4.13200 9.97300 29.98600
O  2.76200 11.22500 31.34000
C  3.69300 11.16500 32.45300
H  1.97100 3.89100 28.01000
H  0.72200 5.27100 21.71300
H  1.39400 11.59000 23.12700
H  2.51900 7.88400 30.58500
H  1.43800 5.24000 30.06800
H  4.10600 6.17800 30.71900
H  4.12100 5.28600 29.16200
H  3.32800 4.57700 30.50200
H  -0.24500 6.75500 30.50400
H  -0.23600 8.51700 30.25600
H  -0.45700 7.35400 32.66500
H  0.29200 8.94700 32.38300
H  1.99700 1.17400 25.67300
H  0.32600 1.44600 25.87500
H  1.39700 2.05900 27.11300
H  1.10800 0.48000 22.13800
H  0.45000 0.70100 23.70100
H  2.16400 0.99400 23.44900
H  0.20500 7.56300 20.38000
H  1.50300 10.11100 20.74400
H  2.77000 8.64200 19.80300
H  2.27100 6.90900 19.42300
H  3.01700 7.22400 20.83700
H  -1.18400 10.30000 21.92000
H  -1.29400 9.19600 20.58000
H  -1.61000 11.00200 19.33800
H  0.07900 11.27900 19.36800
H  -0.93500 12.05300 20.60800
H  1.73400 13.46900 24.19900
H  3.16100 13.57200 25.26900
H  1.61800 14.05600 25.90900
H  1.04100 10.89800 29.88700
H  3.25300 11.37300 33.42800
H  4.52700 11.84400 32.27400
H  4.06800 10.14200 32.41600
Mg -9.03500 41.15900 42.46100
C  -8.39400 37.84600 41.59800
C  -6.34400 42.22800 40.83900
C  -10.47800 44.26900 42.47600
C  -12.19400 39.91900 43.84800
N  -7.63300 40.18300 41.20200
C  -7.49100 38.76100 41.09600
C  -6.21600 38.53800 40.29100
C  -5.41600 39.85600 40.56100
C  -6.53700 40.82100 40.85800
C  -4.34500 39.88900 41.69200
C  -6.60900 38.23700 38.76400
C  -6.04400 36.89800 38.20400
H  -5.07300 37.08700 37.05900
N  -8.39600 42.97800 41.86500
C  -7.24100 43.22900 41.14100
C  -7.20700 44.64200 40.75800
C  -8.31200 45.27700 41.38700
C  -9.15400 44.19000 41.91200
C  -6.13300 45.34500 39.85000
C  -8.61100 46.79500 41.31200
O  -7.90900 47.55600 40.57800
C  -9.69700 47.38300 42.00700
N  -11.10500 41.94100 42.95100
C  -11.28300 43.29600 42.96000
C  -12.59100 43.65000 43.69000
C  -13.17800 42.29400 44.17900
C  -12.09200 41.28100 43.62000
C  -12.35500 44.78600 44.72600
C  -14.63100 42.11200 43.53300
C  -15.60700 42.76100 44.44100
N  -10.01400 39.35000 42.87700
C  -11.25600 38.99700 43.45100
C  -11.30400 37.52400 43.62800
C  -10.25200 37.11900 42.87500
C  -9.56300 38.20300 42.34900
C  -12.46400 36.68500 44.24900
C  -9.69700 35.87700 42.28700
O  -9.98200 34.71000 42.35200
C  -8.49200 36.36500 41.39900
C  -7.26300 35.66500 41.88300
O  -6.66500 35.91700 42.86800
O  -6.99400 34.62200 41.07200
C  -6.05900 33.52100 41.52100
H  -5.31500 42.53400 40.63900
H  -11.04300 45.19400 42.34200
H  -13.05900 39.48700 44.35500
H  -5.63800 37.75800 40.78700
H  -4.90000 40.08200 39.62800
H  -4.56700 40.79300 42.26000
H  -3.33300 39.94600 41.29000
H  -4.56100 38.98300 42.25700
H  -6.27500 39.11100 38.20400
H  -7.68000 38.34700 38.59600
H  -6.97800 36.42800 37.89500
H  -5.60400 36.31400 39.01200
H  -6.52900 45.84700 38.96700
H  -5.38600 44.58800 39.61500
H  -5.59400 46.02000 40.51600
H  -9.61000 48.46400 42.11700
H  -9.60800 46.99200 43.02100
H  -10.63300 47.07400 41.54200
H  -13.24800 44.14700 42.97600
H  -13.30300 42.19100 45.25700
H  -11.38300 45.27300 44.65200
H  -12.38900 44.27900 45.69000
H  -13.19100 45.48400 44.67000
H  -14.63100 41.02200 43.54300
H  -14.69000 42.49000 42.51300
H  -16.46800 43.07400 43.85000
H  -15.15700 43.53300 45.06500
H  -15.88300 41.96900 45.13600
H  -12.06400 35.73500 44.60200
H  -13.18100 36.29000 43.52900
H  -12.98600 37.30000 44.98200
H  -8.72000 36.00200 40.39600
H  -6.70700 32.80300 42.02300
H  -5.33700 33.90800 42.24000
H  -5.43300 33.04700 40.76500

