158

Mg 44.60200 3.82900 47.35500
C  43.49000 7.00000 46.33100
C  41.75200 2.32800 46.16300
C  46.07800 0.63900 47.51400
C  47.91300 5.27700 48.04100
N  42.90300 4.52600 46.35700
C  42.61300 5.87500 46.11000
C  41.21500 6.02900 45.47300
C  40.55900 4.65500 45.89500
C  41.80700 3.76600 46.13300
C  39.56600 4.62700 47.16600
C  41.36900 6.24200 43.95200
C  40.76000 7.58900 43.34200
H  40.13100 7.52400 41.88900
N  43.94500 1.80100 47.07500
C  42.70000 1.44800 46.63400
C  42.56600 0.02000 46.69000
C  43.79100 -0.48600 47.10200
C  44.66900 0.64400 47.23100
C  41.24900 -0.66300 46.32900
C  44.08300 -1.99000 47.44800
O  43.26200 -2.82700 47.19100
C  45.29900 -2.38400 48.20800
N  46.74500 3.10100 47.52700
C  46.97400 1.72800 47.64800
C  48.53200 1.54900 47.97900
C  49.07400 2.98700 48.22600
C  47.81800 3.85900 47.94900
C  48.95800 0.65700 49.18800
C  50.27900 3.47700 47.43200
C  51.24700 4.46900 48.16700
N  45.54700 5.74700 47.35200
C  46.85500 6.19300 47.73600
C  46.88400 7.60800 47.55700
C  45.63500 8.00900 46.91400
C  44.82400 6.80200 46.88900
C  48.10400 8.41200 47.93900
C  44.82300 9.07000 46.46900
O  44.97300 10.27200 46.58800
C  43.39600 8.46300 46.01600
C  42.41400 9.10400 46.94400
O  42.20200 8.78200 48.08600
O  41.75400 10.25000 46.44500
C  40.69300 10.85500 47.32700
H  40.85800 1.89800 45.70500
H  46.50400 -0.35900 47.63200
H  48.87700 5.71800 48.30500
H  40.59200 6.76000 45.98900
H  40.06000 4.20100 45.03900
H  40.04900 4.13700 48.01100
H  38.67800 4.03600 46.94000
H  39.21200 5.61700 47.45300
H  40.85800 5.41600 43.45800
H  42.37300 6.07300 43.56400
H  41.49100 8.39700 43.37200
H  40.02800 7.87200 44.09900
H  41.29200 -1.24600 45.40900
H  40.46600 0.09300 46.25600
H  40.91300 -1.33600 47.11700
H  45.47900 -1.77900 49.09700
H  46.19700 -2.21900 47.61200
H  45.26500 -3.43000 48.51100
H  48.87800 0.97000 47.12300
H  49.26200 3.00200 49.29900
H  48.08300 0.24500 49.68900
H  49.71700 1.11500 49.82200
H  49.38100 -0.25000 48.75600
H  49.94600 3.82900 46.45600
H  50.94600 2.66200 47.14900
H  52.11800 3.88600 48.46500
H  50.73700 4.71100 49.09900
H  51.34900 5.43700 47.67700
H  48.58100 7.91700 48.78500
H  47.74000 9.39800 48.22800
H  48.86200 8.40300 47.15600
H  43.12600 8.69200 44.98500
H  39.96000 11.42500 46.75500
H  41.18800 11.41900 48.11700
H  40.13200 10.03200 47.77000
Mg 46.97000 45.67900 44.13800
C  43.71700 45.21000 43.26200
C  47.49100 42.25200 42.86500
C  50.39300 46.09600 43.68700
C  46.48700 49.05300 44.31000
N  45.74800 43.94400 43.08700
C  44.42000 43.99500 43.12500
C  43.87800 42.70000 42.46600
C  44.95800 41.68300 42.67500
C  46.13800 42.71300 42.91800
C  44.72500 40.62400 43.82600
C  43.49000 42.97600 40.94000
C  42.08800 42.37700 40.53000
H  41.91200 41.70000 39.19900
N  48.78500 44.31600 43.66000
C  48.70300 42.97200 43.14100
C  50.03300 42.41400 42.99000
C  50.90500 43.55000 43.33900
C  50.05200 44.73100 43.47400
C  50.31400 41.08300 42.46100
C  52.42400 43.41500 43.37700
O  52.94900 42.43200 42.95800
C  53.29700 44.50700 43.91900
N  48.21700 47.32200 44.17400
C  49.55800 47.23800 43.94200
C  50.17800 48.65700 44.20300
C  48.92200 49.65500 44.03500
C  47.80500 48.64000 44.18800
C  50.92500 48.91600 45.52400
C  48.68100 50.38000 42.67000
C  48.56700 51.89800 42.82000
N  45.36400 46.85400 44.07400
C  45.33200 48.21300 44.21800
C  43.91200 48.69900 43.99600
C  43.30200 47.59100 43.66200
C  44.16700 46.48200 43.72700
C  43.36800 50.08400 44.12400
C  41.98900 47.00800 43.27100
O  40.90600 47.65600 43.15600
C  42.22300 45.47300 43.02500
C  41.24100 44.73300 43.88700
O  40.29600 44.05800 43.43800
O  41.50700 45.04100 45.19400
C  40.54000 44.32900 46.08200
H  47.59700 41.21400 42.54300
H  51.45900 46.21900 43.48400
H  46.34700 50.11500 44.52500
H  42.97900 42.44900 43.03100
H  45.12400 41.17600 41.72500
H  43.65200 40.65400 44.01500
H  45.22500 40.99100 44.72200
H  45.08600 39.63200 43.55700
H  44.24000 42.52500 40.29000
H  43.54000 44.04800 40.75300
H  41.41000 43.23000 40.50500
H  41.73700 41.63900 41.25100
H  50.94600 41.22000 41.58300
H  49.46400 40.47300 42.15700
H  50.96700 40.57500 43.17000
H  53.44800 45.07600 43.00200
H  54.24400 44.12500 44.29900
H  52.92900 45.20500 44.67100
H  50.87300 48.81800 43.37900
H  48.77800 50.22600 44.95200
H  50.90600 48.04700 46.18200
H  50.47800 49.77500 46.02400
H  51.97500 49.16100 45.36400
H  47.86600 49.97100 42.07300
H  49.44400 50.16800 41.92100
H  48.57800 52.28300 43.83900
H  47.74300 52.26000 42.20500
H  49.49800 52.34800 42.47500
H  42.96100 50.44400 45.06900
H  42.61400 50.17500 43.34200
H  44.10200 50.84200 43.85100
H  42.04900 45.33100 41.95800
H  39.55800 44.67700 45.76200
H  40.79400 44.68100 47.08200
H  40.63500 43.25200 46.22000

