158

Mg 35.09000 1.66600 29.51900
C  32.98300 2.58800 32.14000
C  37.59800 1.54700 31.52300
C  37.00900 1.53400 26.74800
C  32.32800 2.15500 27.31300
N  35.24700 2.13000 31.55200
C  34.34400 2.40400 32.48300
C  34.88900 2.50800 33.91400
C  36.35800 2.22500 33.71100
C  36.45300 1.97200 32.17900
C  37.31100 3.30600 34.37600
C  34.20300 1.59300 34.92600
C  33.57600 2.31500 36.16000
H  34.39800 3.43200 36.86600
N  36.96300 1.30500 29.20500
C  37.91500 1.25400 30.17400
C  39.14000 0.74400 29.62500
C  38.94000 0.81400 28.22200
C  37.59100 1.23700 27.99800
C  40.26600 0.35500 30.49100
C  39.94500 0.55900 27.12400
O  39.68400 0.75600 25.95400
C  41.37400 0.11000 27.53100
N  34.70200 1.91300 27.33000
C  35.70700 1.83100 26.41400
C  35.19000 1.95900 24.93200
C  33.63300 1.67200 25.19300
C  33.53900 1.91900 26.71700
C  35.50700 3.36300 24.27800
C  33.25800 0.18500 24.86300
C  31.94200 -0.00400 24.05300
N  33.06200 2.28200 29.63400
C  32.13000 2.43500 28.70400
C  30.84600 2.85000 29.28600
C  31.20400 2.98700 30.63100
C  32.51400 2.59900 30.77800
C  29.53500 3.05900 28.60700
C  30.70000 3.23900 31.94900
O  29.61100 3.62800 32.31700
C  31.82900 3.11000 32.96000
C  31.99900 4.42100 33.64500
O  32.56500 5.38800 33.15900
O  31.22900 4.46600 34.77500
C  31.16900 5.75300 35.41300
H  38.47500 1.50300 32.17200
H  37.71200 1.56200 25.91300
H  31.42200 2.19600 26.70600
H  34.77100 3.56700 34.14300
H  36.58300 1.32700 34.28600
H  37.96400 2.94400 35.17000
H  36.86500 4.27200 34.61500
H  37.97700 3.68100 33.59800
H  34.96200 0.92100 35.32800
H  33.44400 0.97400 34.44800
H  33.49100 1.57000 36.95100
H  32.60900 2.70300 35.84100
H  40.55600 -0.69200 30.40400
H  40.13900 0.66000 31.53000
H  41.06000 0.98400 30.08900
H  41.04300 -0.86800 27.87800
H  41.90900 0.83400 28.14600
H  41.98500 -0.11100 26.65500
H  35.62100 1.29800 24.18000
H  33.00700 2.43700 24.73400
H  35.80400 3.99700 25.11300
H  34.61600 3.83200 23.86200
H  36.34200 3.35300 23.57700
H  33.15300 -0.43000 25.75700
H  34.07500 -0.25200 24.28900
H  31.21400 -0.54400 24.65900
H  32.07300 -0.47600 23.07900
H  31.58700 1.02300 23.97300
H  29.45800 2.82600 27.54500
H  29.12100 4.06200 28.70900
H  28.83700 2.33500 29.02800
H  31.55900 2.39200 33.73400
H  32.16800 6.14700 35.60100
H  30.57500 5.63300 36.31900
H  30.65700 6.49300 34.79800
Mg 4.03900 53.96300 41.45200
C  4.37600 50.66800 40.57500
C  7.18900 54.63600 40.11100
C  3.47800 57.27700 42.02700
C  0.70200 53.23400 42.65800
N  5.50500 52.78100 40.40900
C  5.51900 51.41600 40.23600
C  6.88900 50.88500 39.75100
C  7.70900 52.18400 39.75800
C  6.74200 53.27700 40.16300
C  9.12000 52.13500 40.38400
C  6.87300 50.21900 38.45900
C  5.89200 50.62000 37.31400
H  6.44500 51.32000 36.05000
N  5.13300 55.75500 40.94900
C  6.44300 55.79900 40.51900
C  6.84700 57.16800 40.43200
C  5.79000 57.97600 40.95200
C  4.75500 57.01700 41.35500
C  8.11400 57.63800 39.81800
C  5.81800 59.46800 41.05800
O  6.82900 60.13100 40.71800
C  4.56800 60.18600 41.34300
N  2.33900 55.07800 42.17600
C  2.42000 56.40400 42.41600
C  1.04800 56.91700 42.98800
C  0.10500 55.67500 42.94200
C  1.09100 54.59000 42.59000
C  1.25800 57.45300 44.49900
C  -1.10700 55.71700 41.99800
C  -2.33500 54.98400 42.61800
N  2.83200 52.30100 41.77700
C  1.51000 52.11400 42.27800
C  1.27600 50.68900 42.40800
C  2.39500 50.05500 41.72500
C  3.24500 51.10400 41.29900
C  -0.02000 50.06100 42.97100
C  2.95800 48.81400 41.46100
O  2.47100 47.74600 41.64100
C  4.24100 49.12600 40.62400
C  3.97800 48.50700 39.30200
O  3.06900 48.84100 38.50100
O  4.90300 47.53400 39.11400
C  4.75700 46.52800 38.05600
H  8.27800 54.71500 40.08500
H  3.25100 58.30900 42.30300
H  -0.29600 53.02400 43.05000
H  7.30900 50.14300 40.43000
H  7.85400 52.41600 38.70300
H  9.76700 51.43900 39.85100
H  9.01700 51.86600 41.43500
H  9.64300 53.08200 40.24800
H  6.78200 49.14300 38.60900
H  7.92700 50.29000 38.19000
H  5.05100 51.17900 37.72500
H  5.44600 49.66800 37.02500
H  8.48900 56.78300 39.25400
H  8.81800 57.83600 40.62500
H  8.00200 58.59700 39.31300
H  4.27700 60.12100 42.39200
H  3.78900 59.72100 40.73900
H  4.61700 61.26300 41.18800
H  0.57400 57.64300 42.32700
H  -0.18800 55.41500 43.95900
H  2.24700 57.89200 44.63000
H  1.03100 56.66800 45.22100
H  0.46000 58.16200 44.71500
H  -0.85500 55.45800 40.97000
H  -1.43400 56.75500 41.93600
H  -3.18900 55.65800 42.68300
H  -2.18300 54.60400 43.62800
H  -2.55500 54.12200 41.98700
H  0.11500 48.98100 43.04400
H  -0.85700 50.16600 42.28000
H  -0.14700 50.57200 43.92500
H  5.19000 48.72800 40.98300
H  5.03800 46.85800 37.05600
H  3.79200 46.03700 38.18200
H  5.46200 45.73700 38.31400

