158

Mg 34.05400 2.93400 29.45200
C  31.96100 3.78000 32.16600
C  36.79900 2.89100 31.54300
C  36.06000 2.19500 26.83000
C  31.26400 3.32200 27.35500
N  34.28600 3.18500 31.55300
C  33.33200 3.59000 32.50600
C  33.94100 3.62200 33.92000
C  35.50000 3.54200 33.62300
C  35.51800 3.15100 32.13400
C  36.18700 4.97300 33.94700
C  33.42200 2.37000 34.72500
C  32.95400 2.65400 36.22900
H  33.68100 3.70300 37.06900
N  36.20900 2.58500 29.18200
C  37.16600 2.62200 30.16800
C  38.36100 2.10500 29.62500
C  38.16700 1.75000 28.25500
C  36.80700 2.18300 28.02900
C  39.58600 1.81500 30.50300
C  39.07600 1.22300 27.25600
O  38.75700 1.02600 26.06900
C  40.53300 0.89600 27.61200
N  33.72600 2.96400 27.43900
C  34.68700 2.51300 26.58200
C  34.14900 2.46900 25.18700
C  32.59500 2.55700 25.37400
C  32.50000 3.05600 26.79400
C  34.74300 3.42600 24.16700
C  31.81800 1.29100 25.13300
C  31.61200 0.64800 23.71800
N  32.04200 3.49500 29.67500
C  31.02700 3.49500 28.74600
C  29.79500 3.79100 29.44700
C  30.13600 3.88300 30.82100
C  31.48400 3.63500 30.85100
C  28.47900 3.98200 28.89300
C  29.59100 4.22800 32.09600
O  28.41900 4.42300 32.47400
C  30.78600 4.10000 33.04800
C  30.99300 5.36600 33.74300
O  31.11300 6.39800 33.10300
O  30.95600 5.28700 35.13700
C  30.83400 6.53700 35.77000
H  37.55400 2.82900 32.33000
H  36.58100 1.84900 25.93500
H  30.36700 3.40600 26.73800
H  33.71100 4.54500 34.45200
H  35.99700 2.77700 34.21900
H  37.08700 5.18800 33.37100
H  36.62700 4.88100 34.94000
H  35.59400 5.88600 33.88600
H  34.19300 1.59900 34.74500
H  32.53900 1.89100 34.30300
H  33.08600 1.64400 36.61800
H  31.92800 3.02100 36.21400
H  40.51800 2.14800 30.04600
H  39.62300 0.76100 30.77800
H  39.49500 2.23900 31.50400
H  40.45700 0.15300 28.40600
H  41.05900 1.78200 27.96600
H  41.00900 0.42200 26.75400
H  34.29100 1.45000 24.82600
H  32.13800 3.28700 24.70600
H  35.33100 4.24500 24.58000
H  33.93900 3.82100 23.54700
H  35.46400 2.79500 23.64600
H  30.84000 1.46100 25.58300
H  32.41700 0.52900 25.63200
H  32.55600 0.85100 23.21300
H  30.84700 1.10100 23.08700
H  31.46700 -0.42500 23.84000
H  27.90500 3.05600 28.84900
H  28.55500 4.35000 27.87000
H  27.89800 4.66600 29.51100
H  30.60400 3.44500 33.90000
H  30.84900 6.31500 36.83700
H  29.84000 6.90700 35.52000
H  31.54900 7.32000 35.51600
Mg 26.93600 51.32300 26.51900
C  24.68300 51.91100 29.20300
C  29.07600 50.02500 28.81000
C  29.05700 50.69600 23.97100
C  24.81100 52.93300 24.41200
N  26.82600 50.99900 28.76200
C  25.87600 51.32800 29.62000
C  26.26600 50.91300 31.06100
C  27.74400 50.57300 30.93400
C  27.91800 50.46900 29.43000
C  28.73300 51.54600 31.55600
C  25.43700 49.79100 31.62800
C  25.05100 49.97100 33.13700
H  26.05500 50.40000 34.21100
N  28.72600 50.43100 26.38700
C  29.50200 49.99500 27.46600
C  30.72700 49.37400 26.96000
C  30.81100 49.62000 25.56000
C  29.45500 50.24400 25.25800
C  31.63800 48.77900 27.93200
C  31.96700 49.43900 24.60500
O  32.05600 49.82700 23.41900
C  33.06500 48.59200 25.07200
N  27.08500 52.03300 24.50200
C  28.02300 51.58200 23.62600
C  27.67600 52.05500 22.19500
C  26.17100 52.54000 22.27700
C  25.98800 52.51300 23.84100
C  28.64000 53.12500 21.57900
C  25.08600 51.57300 21.58400
C  24.19700 52.32200 20.58500
N  25.08600 52.19100 26.67900
C  24.36200 52.82700 25.75600
C  23.17800 53.37600 26.28100
C  23.28700 53.05600 27.60700
C  24.44200 52.28800 27.83400
C  22.07000 54.16200 25.59000
C  22.60400 53.18300 28.89700
O  21.54500 53.72900 29.23700
C  23.53800 52.48200 29.93600
C  23.88100 53.54400 30.92900
O  24.93100 54.13500 30.87500
O  22.95300 53.50100 31.99600
C  23.37300 54.11000 33.24300
H  29.68000 49.65700 29.64300
H  29.80000 50.50400 23.19400
H  24.09100 53.51800 23.83600
H  26.14100 51.80900 31.67000
H  27.89200 49.61800 31.43900
H  29.37200 50.96900 32.22400
H  28.16400 52.34400 32.03300
H  29.51600 51.87800 30.87500
H  25.89000 48.80900 31.49300
H  24.51200 49.62400 31.07600
H  24.74800 48.98700 33.49500
H  24.22200 50.67800 33.14600
H  31.76300 47.73200 27.65700
H  31.28100 48.70300 28.95900
H  32.61300 49.26400 27.98100
H  32.67500 47.67900 25.52200
H  33.66600 49.15200 25.78800
H  33.66200 48.24900 24.22700
H  27.71200 51.15700 21.57700
H  26.00900 53.60600 22.11900
H  29.43100 53.25000 22.31800
H  28.29600 54.14500 21.41100
H  29.07300 52.71800 20.66500
H  24.44000 51.21000 22.38300
H  25.58300 50.71000 21.14200
H  23.34900 52.68800 21.16500
H  23.85300 51.67000 19.78200
H  24.72400 53.11900 20.06100
H  21.54800 54.71300 26.37100
H  21.44900 53.48600 25.00200
H  22.60700 54.92300 25.02400
H  22.95200 51.69800 30.41500
H  24.07500 53.51100 33.82300
H  22.52900 54.03400 33.92800
H  23.58400 55.17700 33.18300

