158

Mg 41.02600 9.50900 29.33900
C  43.00500 10.72900 32.09900
C  39.07900 7.94700 31.54300
C  39.57100 7.97600 26.80200
C  43.70300 10.45800 27.20300
N  41.11500 9.24400 31.57900
C  41.87700 9.94500 32.50100
C  41.38900 9.63800 33.96000
C  40.29000 8.60700 33.74500
C  40.12100 8.58700 32.18200
C  40.33400 7.26600 34.55300
C  40.89600 10.93600 34.70800
C  40.09100 10.79200 35.99800
H  40.47700 11.69300 37.22700
N  39.33600 8.28600 29.15700
C  38.66600 7.75500 30.22400
C  37.49200 7.04700 29.79600
C  37.53400 7.12500 28.36400
C  38.81200 7.82500 28.01200
C  36.55900 6.17200 30.63000
C  36.49900 6.75800 27.22200
O  36.81700 6.91700 26.04300
C  35.11700 6.29600 27.68500
N  41.59200 9.16700 27.32900
C  40.74600 8.58400 26.41900
C  41.22900 8.64100 24.93200
C  42.54200 9.50300 25.12200
C  42.62900 9.73700 26.67900
C  41.53200 7.20500 24.27900
C  42.49400 10.84300 24.31300
C  43.59700 11.05400 23.23900
N  42.93400 10.52500 29.53000
C  43.88700 10.76200 28.56500
C  44.87900 11.48000 29.18500
C  44.58700 11.54800 30.54500
C  43.44500 10.87300 30.71300
C  46.17400 11.98200 28.52900
C  45.07000 11.99200 31.85500
O  46.04300 12.67600 32.13800
C  44.04200 11.38700 32.96900
C  44.70000 10.32600 33.78700
O  44.92600 9.20600 33.37000
O  44.89700 10.72800 35.10100
C  45.49600 9.75200 35.96000
H  38.38000 7.43700 32.20900
H  39.17700 7.40200 25.96100
H  44.47400 10.76600 26.49500
H  42.19600 9.26500 34.59000
H  39.35500 9.08600 34.03600
H  41.36700 7.04300 34.81800
H  39.92800 6.46800 33.93200
H  39.74100 7.30500 35.46700
H  40.29000 11.39500 33.92700
H  41.75400 11.54400 34.99400
H  40.15600 9.74800 36.30500
H  39.06600 11.08800 35.77800
H  36.81600 6.36400 31.67200
H  36.65400 5.14300 30.28300
H  35.51800 6.46500 30.49500
H  34.62400 7.08600 28.25100
H  35.16600 5.44700 28.36600
H  34.46700 6.03300 26.85000
H  40.48200 9.08400 24.27400
H  43.43400 9.01900 24.72400
H  41.26800 7.37800 23.23600
H  40.96200 6.42900 24.79000
H  42.61400 7.08300 24.33100
H  42.77400 11.61300 25.03100
H  41.59200 11.05200 23.73800
H  44.31300 11.76800 23.64800
H  43.03300 11.44800 22.39300
H  43.99900 10.07700 22.97100
H  46.16200 12.81200 27.82300
H  46.40700 11.05900 27.99700
H  46.90800 12.15200 29.31700
H  43.69900 12.17600 33.63800
H  44.61500 9.37600 36.47900
H  46.20200 10.14500 36.69100
H  46.01500 8.94700 35.43900
Mg -5.26200 25.92300 26.36800
C  -3.87900 27.45500 29.23700
C  -7.22300 24.02500 28.37100
C  -5.95000 24.00000 23.72500
C  -2.89000 27.64200 24.41200
N  -5.42900 25.65000 28.58700
C  -4.78800 26.43100 29.51700
C  -5.30100 26.04900 30.93600
C  -6.30300 24.89700 30.69200
C  -6.36200 24.83500 29.13600
C  -5.95000 23.53700 31.29500
C  -5.98900 27.29200 31.60500
C  -6.26500 27.31000 33.14500
H  -5.87900 26.04800 33.98700
N  -6.71400 24.56500 25.96900
C  -7.48600 23.90000 26.95700
C  -8.36100 22.96200 26.33900
C  -8.01200 22.91100 24.96000
C  -6.83100 23.82700 24.78100
C  -9.42800 22.10100 27.04400
C  -8.58500 22.04900 23.86000
O  -8.11500 22.01900 22.69600
C  -9.68700 21.09400 24.26800
N  -4.30900 25.67500 24.33200
C  -4.88600 24.83300 23.48400
C  -4.22200 25.03400 22.06100
C  -3.30300 26.27400 22.26100
C  -3.49300 26.57300 23.74800
C  -3.52200 23.78700 21.58200
C  -3.69400 27.49000 21.42500
C  -2.51100 28.22500 20.68100
N  -3.72200 27.30800 26.69300
C  -2.89000 27.89500 25.79200
C  -1.98900 28.78600 26.54900
C  -2.38400 28.64700 27.84600
C  -3.48900 27.81500 27.93100
C  -0.81100 29.52100 26.03200
C  -2.00800 29.11100 29.14500
O  -1.13800 29.89300 29.44300
C  -2.97200 28.33800 30.11800
C  -2.15400 27.53500 31.06900
O  -1.40400 26.64800 30.75700
O  -2.27400 27.98700 32.33300
C  -1.72500 27.21400 33.47300
H  -7.88700 23.38500 28.95600
H  -6.20700 23.36900 22.87100
H  -2.20000 28.34000 23.93300
H  -4.45600 25.75600 31.56000
H  -7.29900 25.04200 31.11000
H  -5.35000 23.72800 32.18600
H  -5.39900 22.97000 30.54500
H  -6.86200 23.03000 31.60800
H  -6.98100 27.41900 31.17200
H  -5.49400 28.25000 31.44100
H  -7.30100 27.53700 33.39700
H  -5.70400 28.17100 33.50900
H  -9.12300 21.05500 27.07500
H  -10.41900 22.32600 26.65000
H  -9.50500 22.29400 28.11500
H  -10.62600 21.58700 24.52100
H  -9.26200 20.38700 24.98000
H  -9.87900 20.46600 23.39800
H  -5.01800 25.23100 21.34300
H  -2.26300 26.04700 22.02300
H  -2.43900 23.78600 21.70400
H  -3.61100 23.65700 20.50400
H  -3.97700 22.92300 22.06800
H  -4.38900 28.23000 21.82100
H  -4.29800 27.04800 20.63300
H  -2.36700 28.06500 19.61200
H  -1.59100 27.88500 21.15800
H  -2.66700 29.27700 20.91900
H  -0.41300 29.15700 25.08400
H  -0.03600 29.57900 26.79600
H  -1.02800 30.55800 25.77600
H  -3.52500 29.03400 30.74900
H  -1.27100 26.24900 33.24700
H  -2.47500 27.14400 34.26100
H  -0.92200 27.84100 33.86000

