158

Mg 23.80000 -6.15900 46.92400
C  25.95400 -3.61600 45.84700
C  21.38500 -4.78700 44.86400
C  21.92000 -8.76100 47.69800
C  26.49400 -7.68800 48.54500
N  23.77100 -4.52500 45.38900
C  24.70300 -3.57400 45.31700
C  24.27500 -2.38700 44.40600
C  22.72000 -2.65300 44.37600
C  22.59800 -4.07600 44.91000
C  21.83400 -1.70500 45.18900
C  24.97500 -2.55300 43.03600
C  25.74000 -1.23200 42.50200
H  25.01400 -0.59700 41.16500
N  21.90800 -6.73800 46.28200
C  21.09600 -6.05400 45.43200
C  19.84300 -6.76600 45.29800
C  19.98700 -7.88700 46.15800
C  21.34200 -7.83400 46.76200
C  18.82600 -6.37600 44.31600
C  18.94300 -8.91600 46.38000
O  17.80700 -8.79500 45.90600
C  19.14900 -10.14700 47.22100
N  24.19700 -7.97800 47.93100
C  23.20400 -8.86300 48.12000
C  23.67400 -10.10800 48.93900
C  25.19100 -9.78200 49.19000
C  25.32200 -8.40900 48.53300
C  22.86400 -10.48400 50.20700
C  26.16000 -10.83800 48.46900
C  26.92300 -11.84200 49.49000
N  25.75300 -5.72300 47.27400
C  26.72400 -6.42700 47.95900
C  27.98400 -5.67800 47.94900
C  27.66300 -4.53000 47.13600
C  26.35200 -4.67800 46.72700
C  29.14500 -6.02900 48.74000
C  28.19600 -3.31400 46.58800
O  29.29100 -2.74600 46.76600
C  27.12900 -2.68900 45.73700
C  26.87400 -1.35700 46.13600
O  26.11500 -1.03900 47.06200
O  27.75400 -0.46100 45.52800
C  27.42300 0.96000 45.86400
H  20.53000 -4.22600 44.48000
H  21.22600 -9.47200 48.15100
H  27.34100 -8.13000 49.07400
H  24.41500 -1.42800 44.90600
H  22.40900 -2.59800 43.33300
H  21.37900 -2.28300 45.99500
H  21.00700 -1.33600 44.58200
H  22.38000 -0.93200 45.72900
H  24.25900 -2.80400 42.25300
H  25.71800 -3.35000 43.01300
H  26.75500 -1.52900 42.23800
H  25.73100 -0.53400 43.33900
H  18.50800 -7.13600 43.60200
H  19.29300 -5.58700 43.72600
H  17.96700 -5.88900 44.77800
H  18.34800 -10.87000 47.06500
H  19.22100 -9.91400 48.28400
H  20.06800 -10.58400 46.82900
H  23.52900 -10.97200 48.29000
H  25.46700 -9.57100 50.22300
H  21.95800 -9.87700 50.23800
H  23.37000 -10.23100 51.13900
H  22.70900 -11.56100 50.25800
H  26.97000 -10.36600 47.91500
H  25.56300 -11.32700 47.69900
H  26.34600 -11.76500 50.41100
H  27.98400 -11.61200 49.57900
H  26.84300 -12.89000 49.20000
H  28.75300 -6.53800 49.62100
H  29.75200 -5.15600 48.97700
H  29.81200 -6.62000 48.11300
H  27.42100 -2.61700 44.68900
H  28.22000 1.30800 46.52200
H  26.43500 1.15900 46.27700
H  27.53500 1.45200 44.89700
Mg 17.36800 -1.84600 28.39300
C  16.33700 0.21900 30.92200
C  19.62600 -3.35300 30.66400
C  18.94000 -3.49800 25.81700
C  15.48400 -0.08100 26.05400
N  17.83400 -1.71700 30.59400
C  17.14600 -0.89000 31.39100
C  17.63000 -0.97100 32.85000
C  18.78000 -1.99700 32.76300
C  18.77900 -2.40900 31.30900
C  20.11000 -1.59000 33.47400
C  16.46700 -1.39400 33.86700
C  16.14600 -0.40900 34.99700
H  17.36000 0.09500 35.90000
N  19.06100 -3.29600 28.29300
C  19.69200 -3.86200 29.31300
C  20.53400 -4.89800 28.84700
C  20.46100 -4.89000 27.48800
C  19.39500 -3.92100 27.15000
C  21.46700 -5.68300 29.91400
C  21.32500 -5.62200 26.41500
O  21.16000 -5.66600 25.23400
C  22.40800 -6.47700 26.88100
N  17.32200 -1.64300 26.21900
C  17.98500 -2.52800 25.39800
C  17.65700 -2.34200 23.93600
C  16.43900 -1.30000 24.10000
C  16.31400 -1.05800 25.59600
C  18.84500 -1.87200 23.04700
C  15.13300 -1.76000 23.41100
C  13.93200 -2.35700 24.23200
N  16.07900 -0.32900 28.49000
C  15.38500 0.34000 27.45600
C  14.61300 1.43900 28.07600
C  14.94700 1.34200 29.46500
C  15.89100 0.32900 29.64600
C  13.66300 2.49100 27.56400
C  14.63800 1.79300 30.68900
O  13.74900 2.66100 30.92900
C  15.62100 1.20900 31.68300
C  16.52000 2.32400 32.30800
O  17.62600 2.60800 31.89500
O  15.81900 2.85900 33.33900
C  16.56200 3.91100 34.05000
H  20.36900 -3.67100 31.39800
H  19.37600 -4.15400 25.06000
H  14.97500 0.45000 25.24700
H  17.90800 0.03100 33.17500
H  18.44500 -2.90300 33.26700
H  20.14100 -2.31100 34.29000
H  19.96200 -0.60600 33.91800
H  21.06200 -1.57300 32.94300
H  16.69300 -2.30500 34.42100
H  15.65100 -1.54700 33.16000
H  15.35800 -0.68700 35.69800
H  15.80000 0.49100 34.48900
H  21.25400 -5.34800 30.92900
H  22.53800 -5.70400 29.71200
H  21.05000 -6.69000 29.94200
H  22.94400 -6.84100 26.00400
H  22.00000 -7.24800 27.53300
H  23.12500 -5.93500 27.49800
H  17.28100 -3.31800 23.63000
H  16.67700 -0.27700 23.80700
H  18.43800 -1.10000 22.39400
H  19.32900 -2.66500 22.47600
H  19.60200 -1.37900 23.65700
H  15.32600 -2.55100 22.68700
H  14.75700 -0.87800 22.89300
H  14.01900 -2.40700 25.31800
H  13.54700 -3.30900 23.86700
H  13.13200 -1.63900 24.04900
H  12.60300 2.23400 27.56700
H  14.01100 2.74600 26.56300
H  13.77700 3.44900 28.07000
H  14.92700 0.76900 32.39900
H  16.30900 4.02300 35.10500
H  16.62700 4.84200 33.48700
H  17.58200 3.54900 34.17900

