158

Mg 24.25700 -4.83000 44.96300
C  26.44500 -2.49100 43.55400
C  21.75600 -3.63900 43.05400
C  22.50000 -7.79700 45.59100
C  26.86700 -6.04000 46.79700
N  24.16200 -3.33100 43.36700
C  25.09000 -2.35400 43.06400
C  24.55400 -1.40800 42.00800
C  22.99900 -1.53800 42.37300
C  22.95000 -2.89200 43.05300
C  22.35700 -0.45300 43.21400
C  24.81600 -1.81100 40.55700
C  25.16700 -0.60000 39.59800
H  24.85600 -0.78500 38.11700
N  22.30900 -5.64700 44.36700
C  21.40800 -4.93800 43.63900
C  20.12100 -5.66000 43.68000
C  20.29500 -6.74800 44.51100
C  21.77600 -6.80800 44.79400
C  18.94500 -5.08000 42.84800
C  19.20600 -7.78000 44.86000
O  18.05900 -7.66000 44.41400
C  19.43500 -9.04200 45.65200
N  24.66500 -6.72200 45.95200
C  23.78600 -7.68700 46.16400
C  24.43800 -8.83400 47.02700
C  25.67900 -8.12700 47.57900
C  25.72200 -6.84900 46.79100
C  23.46800 -9.37600 48.15500
C  26.92000 -9.08600 47.62700
C  27.82600 -9.05700 48.93800
N  26.30600 -4.46300 45.17900
C  27.23800 -5.03800 45.93100
C  28.48800 -4.34000 45.78400
C  28.24700 -3.35900 44.86300
C  26.87100 -3.45400 44.53000
C  29.77300 -4.59000 46.55700
C  28.88100 -2.22200 44.16600
O  30.01700 -1.77300 44.17700
C  27.69800 -1.67500 43.30000
C  27.52200 -0.24100 43.68900
O  27.59300 0.22700 44.76700
O  27.28700 0.51400 42.56900
C  27.42100 1.96900 42.91600
H  21.01800 -3.16700 42.40100
H  21.95000 -8.71400 45.81400
H  27.64600 -6.29900 47.51800
H  24.74500 -0.34500 42.15400
H  22.47200 -1.46400 41.42100
H  21.78700 0.22700 42.58000
H  23.18400 0.06200 43.70500
H  21.74300 -0.91100 43.98900
H  24.01000 -2.37900 40.09300
H  25.69900 -2.45000 40.53000
H  26.24800 -0.48100 39.66600
H  24.67700 0.28500 40.00400
H  17.96200 -5.17700 43.30900
H  18.71300 -5.65600 41.95300
H  19.01700 -3.99900 42.72300
H  18.61000 -9.75200 45.60500
H  19.59900 -8.63400 46.64900
H  20.21700 -9.67300 45.23000
H  24.73500 -9.64100 46.35600
H  25.52700 -7.72800 48.58200
H  23.16500 -10.42300 48.13800
H  22.60000 -8.75500 48.37600
H  24.09100 -9.47000 49.04500
H  27.59400 -8.79500 46.82200
H  26.61200 -10.12600 47.51300
H  28.80700 -8.63000 48.73000
H  28.08600 -10.05900 49.28200
H  27.18700 -8.56600 49.67200
H  30.57200 -3.94600 46.19000
H  30.04300 -5.64000 46.43800
H  29.46100 -4.41600 47.58700
H  27.97900 -1.73000 42.24800
H  28.18100 2.20600 43.66100
H  26.50300 2.45900 43.24000
H  27.79000 2.43700 42.00300
Mg 5.89900 55.27100 39.96200
C  4.83300 52.02700 39.98000
C  9.19100 54.20300 39.15300
C  6.97000 58.54900 39.35500
C  2.75500 56.38100 40.17900
N  6.88900 53.39000 39.60300
C  6.23200 52.13700 39.71600
C  7.20600 51.07300 39.03700
C  8.61200 51.70900 39.36100
C  8.19300 53.19600 39.37200
C  9.31900 51.13400 40.62300
C  6.95400 50.90500 37.51400
C  7.04500 49.41100 37.05700
H  6.70200 49.00300 35.63600
N  7.89200 56.26900 39.56100
C  9.03100 55.63300 39.22900
C  10.07300 56.68400 39.04000
C  9.45200 57.94900 39.21800
C  8.03600 57.59200 39.44100
C  11.50700 56.41100 38.70900
C  10.10300 59.34300 39.20900
O  11.32300 59.40500 39.25800
C  9.28900 60.72000 39.28500
N  4.92900 57.19000 39.71100
C  5.56900 58.44000 39.53300
C  4.67400 59.63400 39.78900
C  3.33600 58.90600 39.98900
C  3.64000 57.40200 39.89800
C  5.02400 60.45200 41.07200
C  2.13500 59.31000 39.06800
C  0.79600 59.79100 39.65900
N  4.04700 54.43700 40.17800
C  2.84300 55.04500 40.33500
C  1.83400 54.04300 40.50600
C  2.57600 52.78900 40.46400
C  3.90400 53.12200 40.17900
C  0.35000 54.20000 40.67400
C  2.46500 51.39000 40.54200
O  1.47800 50.75400 40.93200
C  3.86800 50.82500 40.11200
C  3.61300 50.07800 38.86000
O  3.57100 50.57200 37.75800
O  3.33800 48.75800 39.25200
C  3.22000 47.98300 38.05000
H  10.16000 53.82500 38.82100
H  7.17400 59.60500 39.16600
H  1.71000 56.67500 40.30000
H  7.14600 50.09200 39.50900
H  9.30500 51.39700 38.58000
H  8.80900 50.29900 41.10300
H  9.09900 51.99800 41.25000
H  10.39900 51.01300 40.54500
H  7.65600 51.39900 36.84200
H  5.98700 51.29800 37.19800
H  6.39500 48.75700 37.63900
H  8.03400 49.06300 37.35400
H  11.61700 55.41700 38.27500
H  12.22300 56.36700 39.53000
H  11.93700 57.21400 38.11100
H  8.76100 60.86100 38.34200
H  10.12600 61.36600 39.54900
H  8.58800 60.84300 40.11000
H  4.68200 60.34700 38.96400
H  2.96700 59.01700 41.00800
H  4.33500 60.23000 41.88600
H  4.91100 61.51900 40.87900
H  5.99200 60.21400 41.51300
H  1.91300 58.44700 38.44000
H  2.46500 60.12200 38.42100
H  0.75000 59.54400 40.72000
H  0.07000 59.15500 39.15200
H  0.53600 60.83800 39.50500
H  -0.13400 54.76800 39.87900
H  0.16100 54.70300 41.62200
H  -0.02100 53.17600 40.62500
H  4.18000 50.19900 40.94900
H  2.28700 48.25400 37.55500
H  3.18000 46.90200 38.17600
H  4.06100 48.18400 37.38600

