158

Mg 39.84600 9.27000 29.09400
C  41.96700 10.36200 31.70600
C  37.62800 8.18700 31.43100
C  38.03700 7.90600 26.58500
C  42.26000 10.14000 26.82400
N  39.78800 9.33600 31.23400
C  40.74400 9.81300 32.13300
C  40.30200 9.76600 33.57200
C  39.04100 8.93100 33.50300
C  38.72000 8.88500 31.94800
C  39.13500 7.63700 34.31500
C  39.97300 11.21300 34.15000
C  39.07400 11.31200 35.45600
H  39.41100 12.40300 36.47900
N  37.94900 8.41000 28.96700
C  37.23900 7.95200 30.05100
C  36.03100 7.24700 29.62400
C  36.19400 7.12700 28.19000
C  37.39400 7.86800 27.84300
C  34.98900 6.65200 30.56700
C  35.30300 6.30600 27.21700
O  35.61300 6.06000 26.05500
C  34.07200 5.65000 27.71000
N  40.10900 9.03800 26.99900
C  39.25200 8.40500 26.19000
C  39.55200 8.70900 24.72100
C  40.82500 9.55000 24.81800
C  41.11100 9.54000 26.26600
C  39.53000 7.44700 23.84400
C  40.67300 11.04500 24.31500
C  40.02200 12.23600 25.17500
N  41.75900 9.99600 29.21100
C  42.66300 10.38100 28.20400
C  43.81700 10.96800 28.75400
C  43.62700 10.87300 30.11700
C  42.37300 10.33300 30.38200
C  44.94300 11.53200 28.00900
C  44.20900 11.23000 31.31200
O  45.36200 11.55400 31.54400
C  43.20300 10.80100 32.46300
C  43.91100 9.84600 33.29000
O  44.43000 8.79500 32.90100
O  43.87500 10.18200 34.63800
C  44.30100 9.27400 35.67600
H  37.00300 7.82100 32.24800
H  37.43300 7.66700 25.70700
H  42.92100 10.60100 26.08700
H  41.12600 9.32100 34.13000
H  38.25100 9.51500 33.97600
H  38.31300 7.70000 35.02800
H  40.00600 7.64200 34.97000
H  39.08300 6.72100 33.72700
H  39.51300 11.83700 33.38400
H  40.93600 11.70700 34.27900
H  39.14900 10.35700 35.97600
H  38.03600 11.38500 35.13300
H  34.00700 7.05000 30.31100
H  35.07300 6.93100 31.61800
H  34.78500 5.59400 30.40500
H  34.42500 4.89800 28.41500
H  33.50800 5.09800 26.95900
H  33.34300 6.30500 28.18800
H  38.75600 9.40200 24.44900
H  41.68400 9.11700 24.30500
H  40.43800 7.10900 23.34500
H  38.82700 7.60500 23.02600
H  39.18400 6.54100 24.34000
H  40.20500 11.10500 23.33200
H  41.68200 11.36300 24.05300
H  39.73200 12.05600 26.21000
H  39.12200 12.56200 24.65200
H  40.67400 13.10400 25.26600
H  44.69700 11.87800 27.00600
H  45.70900 10.75700 28.01900
H  45.27700 12.42900 28.53100
H  43.09600 11.67100 33.11100
H  43.79100 8.34000 35.44100
H  43.89800 9.56800 36.64600
H  45.36300 9.05200 35.77300
Mg 7.31800 54.50200 41.99600
C  6.90100 51.01200 41.47600
C  10.54100 54.15400 40.78200
C  7.50700 57.69100 42.22600
C  3.82700 54.60500 42.98800
N  8.49400 52.81700 40.95800
C  8.13600 51.50500 41.01700
C  9.28300 50.61500 40.46800
C  10.53600 51.58700 40.54700
C  9.85600 52.96400 40.76700
C  11.50000 51.26000 41.71200
C  9.02500 50.11700 38.96400
C  8.32900 51.08600 38.02500
H  7.33100 50.49000 37.01700
N  8.85100 55.77200 41.61500
C  10.05900 55.47600 41.11200
C  10.83000 56.75100 41.06900
C  9.96600 57.75700 41.49000
C  8.70000 57.11800 41.78200
C  12.23300 56.85200 40.55000
C  10.34600 59.23900 41.75700
O  11.43400 59.72000 41.41700
C  9.46000 60.18900 42.48600
N  5.81600 55.90300 42.44700
C  6.20500 57.20600 42.44200
C  4.97300 58.12100 42.69400
C  3.81600 57.16200 43.15500
C  4.44700 55.82200 42.81900
C  5.25400 59.28900 43.67100
C  2.45200 57.29300 42.35700
C  1.20500 57.05000 43.18600
N  5.64000 53.14800 42.12600
C  4.38100 53.26000 42.72000
C  3.74900 51.94900 42.78400
C  4.74700 51.02600 42.40200
C  5.84200 51.83500 41.94100
C  2.35900 51.61100 43.26800
C  5.12700 49.59900 42.22300
O  4.51800 48.59000 42.40100
C  6.46400 49.57500 41.52700
C  6.00000 49.02100 40.17800
O  5.26200 49.56000 39.35700
O  6.54200 47.78700 40.00200
C  6.02200 46.97500 38.91100
H  11.62900 54.12600 40.68700
H  7.55900 58.77400 42.35100
H  2.82800 54.40900 43.38300
H  9.45600 49.73300 41.08500
H  11.05500 51.65800 39.59100
H  11.19100 50.50700 42.43600
H  11.67900 52.14900 42.31800
H  12.49900 50.91100 41.45200
H  8.58300 49.12400 39.04500
H  10.02100 49.93900 38.55900
H  9.08100 51.51500 37.36300
H  7.64300 51.70700 38.60000
H  12.53900 57.87900 40.34800
H  12.26400 56.40300 39.55700
H  12.76800 56.36300 41.36400
H  8.68700 60.66600 41.88300
H  10.08200 60.97400 42.91700
H  8.94800 59.73900 43.33500
H  4.77000 58.68200 41.78200
H  3.71400 57.24900 44.23700
H  4.55100 59.17500 44.49600
H  4.99400 60.19800 43.12800
H  6.30700 59.24800 43.94800
H  2.51800 56.67900 41.45900
H  2.31700 58.35900 42.17100
H  0.35500 57.52000 42.69100
H  1.26100 57.47900 44.18600
H  0.99600 55.98000 43.17100
H  2.48100 50.58700 43.62000
H  1.70800 51.56700 42.39500
H  1.89800 52.20900 44.05400
H  7.19900 48.88800 41.94600
H  6.62500 46.07600 38.78800
H  6.03000 47.48200 37.94700
H  4.98700 46.65500 39.03000

