158

Mg 0.68000 7.43600 26.84500
C  0.84400 9.75600 29.33300
C  0.57500 4.95800 29.22600
C  -0.12800 5.20600 24.39400
C  1.03200 9.83600 24.45200
N  0.73100 7.36200 29.01700
C  0.72800 8.46900 29.83500
C  0.57900 8.05600 31.30400
C  0.80600 6.44500 31.31100
C  0.74900 6.24800 29.73800
C  2.11900 5.96400 31.92600
C  -0.83400 8.39200 31.83900
C  -0.96700 8.48200 33.37500
H  0.29300 7.99500 34.22700
N  0.27300 5.36800 26.82300
C  0.37300 4.49200 27.92200
C  0.04500 3.17700 27.50300
C  -0.32500 3.24400 26.07900
C  -0.12600 4.64700 25.70500
C  0.06900 1.99100 28.46700
C  -0.89500 2.18300 25.11800
O  -1.20700 2.40300 23.97500
C  -1.07200 0.80500 25.59500
N  0.34600 7.62400 24.64900
C  0.02500 6.54600 23.92500
C  0.16000 6.88200 22.46100
C  0.64300 8.40000 22.40400
C  0.73500 8.64200 23.89800
C  0.91800 5.90900 21.57400
C  -0.34200 9.31500 21.64300
C  -1.56500 10.05000 22.30600
N  1.09900 9.31700 26.85500
C  1.17800 10.22100 25.81200
C  1.32700 11.50000 26.30100
C  1.29200 11.42200 27.70200
C  1.09900 10.08600 27.97600
C  1.41300 12.86600 25.48400
C  1.41700 12.12500 28.92700
O  1.59100 13.31400 29.14700
C  1.12900 11.11600 30.07700
C  2.31000 10.98500 30.91400
O  3.28900 10.27100 30.57100
O  2.12500 11.61900 32.16600
C  3.35600 11.54300 33.03000
H  0.53800 4.08300 29.87700
H  -0.45600 4.65200 23.51200
H  1.24900 10.62900 23.73300
H  1.44100 8.45900 31.83600
H  -0.03300 5.99400 31.84200
H  2.34700 6.34700 32.92100
H  2.90500 6.22200 31.21600
H  2.06100 4.87500 31.94800
H  -1.44800 7.59300 31.42300
H  -1.14000 9.31500 31.34600
H  -1.80600 7.86100 33.68700
H  -1.21000 9.50500 33.66500
H  -0.65100 2.16700 29.26600
H  1.05500 1.95400 28.92900
H  -0.16100 1.13100 27.83700
H  -1.78500 0.87600 26.41700
H  -0.09400 0.38100 25.82100
H  -1.40200 0.05600 24.87600
H  -0.83000 6.79000 22.01500
H  1.68100 8.47700 22.08200
H  1.71300 5.39700 22.11700
H  1.37200 6.24100 20.64100
H  0.22900 5.10800 21.30500
H  -0.71300 8.79300 20.76100
H  0.25900 10.09300 21.17200
H  -1.64600 9.57900 23.28500
H  -2.46200 9.84200 21.72400
H  -1.48600 11.13400 22.38500
H  1.20400 13.70600 26.14600
H  0.75400 12.73300 24.62500
H  2.41900 13.02400 25.09400
H  0.22400 11.50500 30.54300
H  3.87700 12.47500 32.81000
H  4.03800 10.74000 32.75200
H  3.27200 11.49100 34.11600
Mg 48.22500 24.92000 28.60300
C  49.10900 27.21900 31.23300
C  47.19000 22.80400 31.05700
C  47.87200 22.72800 26.18400
C  49.59800 27.21700 26.36100
N  48.18300 25.10100 30.82400
C  48.47900 26.10300 31.67100
C  48.15300 25.71300 33.10700
C  47.65400 24.21400 33.03600
C  47.71400 24.02000 31.55500
C  48.40600 23.15500 33.88900
C  47.08400 26.67500 33.73000
C  47.30300 27.05700 35.22200
H  46.12900 26.98400 36.15000
N  47.67500 23.04400 28.58700
C  47.15400 22.39400 29.69200
C  46.62000 21.15400 29.25100
C  46.87700 21.01600 27.84900
C  47.50100 22.28400 27.45400
C  45.95700 20.17900 30.18000
C  46.44700 19.97700 26.79600
O  46.65100 20.03000 25.60600
C  45.63600 18.77100 27.37900
N  48.78500 24.96800 26.60400
C  48.35800 23.96100 25.79000
C  48.53500 24.26300 24.26300
C  48.95200 25.79500 24.32700
C  49.18900 25.99400 25.84100
C  49.58800 23.24500 23.62600
C  47.84300 26.76600 23.68000
C  46.49300 26.97300 24.42000
N  49.14400 26.88800 28.70700
C  49.70600 27.63500 27.70200
C  50.29900 28.83300 28.27900
C  50.05800 28.72300 29.63000
C  49.39500 27.51100 29.86600
C  50.94500 30.01600 27.54600
C  50.19700 29.41100 30.82300
O  50.77600 30.44500 31.05200
C  49.57900 28.49500 31.98200
C  50.73900 28.26300 32.97400
O  51.71000 27.54100 32.74600
O  50.65800 29.11900 34.01200
C  51.60100 28.95500 35.16200
H  46.66000 22.22900 31.82000
H  47.61400 22.11300 25.31900
H  49.93600 27.99000 25.66700
H  49.11600 25.80800 33.60700
H  46.59200 24.09500 33.25000
H  49.01800 23.66100 34.63500
H  49.03400 22.62900 33.17000
H  47.61600 22.51900 34.28900
H  46.12400 26.16300 33.65600
H  46.95000 27.61500 33.19500
H  47.58000 28.11000 35.16200
H  48.13900 26.48700 35.62700
H  45.01800 20.18900 29.62600
H  45.85400 20.54000 31.20400
H  46.60700 19.30500 30.22700
H  46.10100 18.29400 28.24200
H  45.57000 17.99600 26.61500
H  44.65600 19.18400 27.61900
H  47.59600 24.05300 23.75000
H  49.94800 25.91100 23.90000
H  49.23600 22.81300 22.69000
H  49.83100 22.46600 24.34900
H  50.47200 23.83500 23.38500
H  47.69900 26.35800 22.68000
H  48.31100 27.74500 23.58500
H  46.02300 27.93700 24.22500
H  46.75900 26.95100 25.47700
H  45.80600 26.17600 24.13800
H  51.12300 30.85600 28.21700
H  50.28700 30.28600 26.72000
H  51.87000 29.76100 27.03000
H  48.75500 28.98700 32.50000
H  52.40500 28.23800 34.99700
H  50.92300 28.65200 35.96000
H  51.89000 29.93100 35.55300

