158

Mg 47.39700 25.27800 28.66400
C  48.67800 27.41600 31.12100
C  46.70300 23.00800 30.99200
C  47.04000 23.00400 26.18800
C  48.84400 27.44900 26.21300
N  47.62700 25.24100 30.74400
C  47.97300 26.30600 31.56200
C  47.58000 26.05800 33.00400
C  47.10600 24.59900 33.04900
C  47.11100 24.24000 31.54400
C  47.93600 23.61800 33.86100
C  46.42600 27.04900 33.41300
C  46.76300 27.93100 34.67800
H  45.77900 27.82100 35.90900
N  46.84700 23.29800 28.61100
C  46.61300 22.54200 29.66900
C  46.21800 21.16400 29.24800
C  46.20400 21.16700 27.85100
C  46.74700 22.53300 27.50100
C  45.93900 20.03300 30.27800
C  45.86300 20.09400 26.89400
O  46.04500 20.22300 25.69100
C  45.30700 18.76000 27.24000
N  47.82800 25.30300 26.51500
C  47.38800 24.28000 25.66500
C  47.69200 24.58000 24.18200
C  48.29300 25.98000 24.28400
C  48.22300 26.30900 25.75800
C  48.70700 23.56900 23.64400
C  47.54700 27.08200 23.49400
C  48.38600 28.19100 22.78800
N  48.47800 27.09000 28.63400
C  48.94400 27.82500 27.55700
C  49.64200 28.96000 28.09600
C  49.46900 28.92900 29.50800
C  48.83100 27.67700 29.76400
C  50.52700 29.90600 27.31900
C  49.82100 29.58500 30.75800
O  50.47200 30.57800 30.98400
C  49.19400 28.69000 31.88300
C  50.20800 28.28900 32.99400
O  50.73000 27.15900 33.05800
O  50.45700 29.29500 33.78900
C  51.41800 28.89400 34.90400
H  46.47300 22.23300 31.72700
H  46.89400 22.43400 25.26800
H  49.32700 28.07800 25.46300
H  48.40000 26.25200 33.69500
H  46.06600 24.42800 33.32800
H  48.93900 23.52800 33.44400
H  47.52400 22.61200 33.94100
H  47.96100 24.10100 34.83800
H  45.53200 26.44700 33.57700
H  46.24500 27.75400 32.60200
H  46.77700 28.88500 34.15200
H  47.73900 27.65100 35.07500
H  45.68500 19.04000 29.90700
H  45.09600 20.43100 30.84300
H  46.74900 19.95100 31.00300
H  46.07000 18.23700 27.81600
H  45.11500 18.19600 26.32700
H  44.42800 18.90600 27.86800
H  46.82600 24.63500 23.52200
H  49.36300 26.02000 24.08000
H  49.37700 23.90700 22.85400
H  48.11200 22.74400 23.25300
H  49.36300 23.33300 24.48200
H  46.96000 27.65500 24.21100
H  46.90700 26.59000 22.76200
H  48.35000 28.11600 21.70100
H  49.45400 28.03300 22.94100
H  48.22900 29.23800 23.04900
H  50.18400 30.23700 26.33900
H  51.46800 29.41200 27.07500
H  50.67100 30.75100 27.99200
H  48.33000 29.19000 32.32000
H  50.94100 28.06700 35.43100
H  51.54900 29.76600 35.54500
H  52.38400 28.53000 34.55400
Mg -11.70100 37.53900 42.44300
C  -9.33500 34.99000 41.66300
C  -9.56400 39.77100 40.85500
C  -14.05800 39.89700 42.43900
C  -13.74500 35.08300 43.66000
N  -9.69300 37.37700 41.35200
C  -8.97700 36.20600 41.06300
C  -7.73900 36.57200 40.24800
C  -7.71800 38.13100 40.18500
C  -9.14100 38.43400 40.81000
C  -6.39800 38.76000 40.85600
C  -7.86300 35.84600 38.89000
C  -6.67100 34.95600 38.39100
H  -5.66700 35.38700 37.26400
N  -11.71100 39.60900 41.92800
C  -10.72700 40.34200 41.36400
C  -11.12600 41.73000 41.32900
C  -12.49200 41.83600 41.70300
C  -12.79900 40.45500 42.03500
C  -10.29500 42.86000 40.84500
C  -13.35500 43.04400 41.87300
O  -12.79300 44.12300 41.67000
C  -14.78200 43.04200 42.34300
N  -13.67800 37.42800 42.83200
C  -14.47900 38.60500 42.78700
C  -15.88900 38.21200 43.25900
C  -15.79700 36.67700 43.67900
C  -14.35200 36.36700 43.36500
C  -16.44000 39.22600 44.28600
C  -16.89700 35.78700 42.94000
C  -18.04300 35.41800 43.82800
N  -11.62900 35.49900 42.65700
C  -12.49500 34.64200 43.27200
C  -11.91100 33.34200 43.46000
C  -10.70600 33.40300 42.80900
C  -10.56300 34.76600 42.33000
C  -12.53800 32.19500 44.15000
C  -9.50300 32.70700 42.46600
O  -9.06700 31.60400 42.72000
C  -8.55500 33.66700 41.65100
C  -7.24600 33.76900 42.26600
O  -6.23400 33.15600 41.96300
O  -7.11500 34.84700 43.14800
C  -5.77700 35.03100 43.75900
H  -8.89300 40.40400 40.27000
H  -14.84200 40.64500 42.57500
H  -14.37100 34.40000 44.23700
H  -6.84300 36.15300 40.70700
H  -7.68400 38.51800 39.16700
H  -5.84500 39.40000 40.16900
H  -5.72500 37.98400 41.21900
H  -6.79500 39.41600 41.63100
H  -7.95600 36.58700 38.09600
H  -8.81400 35.31600 38.96000
H  -7.18200 34.06500 38.02800
H  -6.16400 34.46500 39.22200
H  -9.52100 42.41000 40.22400
H  -9.83600 43.38200 41.68400
H  -10.84600 43.52900 40.18400
H  -15.34700 42.30100 41.77600
H  -14.97900 44.10600 42.21300
H  -14.67700 42.91300 43.42100
H  -16.50600 38.36900 42.37500
H  -15.88400 36.68000 44.76500
H  -16.51800 38.72600 45.25200
H  -17.41400 39.58600 43.95500
H  -15.89800 40.16600 44.38500
H  -16.32100 34.96500 42.51500
H  -17.36100 36.40400 42.17100
H  -19.01600 35.70400 43.42900
H  -18.09200 35.80500 44.84600
H  -18.02500 34.34600 44.02900
H  -13.44000 32.45700 44.70300
H  -11.76900 31.89300 44.86200
H  -12.71300 31.52100 43.31100
H  -8.42400 33.25200 40.65200
H  -5.04200 35.05500 42.95400
H  -5.45800 34.30500 44.50700
H  -5.84100 36.01600 44.22200

