158

Mg 30.39400 59.15800 40.57600
C  27.46100 57.57700 39.61700
C  32.10900 56.38300 39.51700
C  33.35300 60.92400 40.47800
C  28.58900 62.07500 41.06000
N  29.82000 57.23600 39.63200
C  28.57400 56.79200 39.32100
C  28.66200 55.43900 38.57200
C  30.05500 54.91700 38.89800
C  30.73500 56.23500 39.45500
C  29.95900 53.79700 39.95100
C  28.45100 55.69300 37.04900
C  27.40100 54.81700 36.39100
H  26.91100 55.16100 34.99700
N  32.43700 58.71200 40.14800
C  32.88300 57.47500 39.80100
C  34.33300 57.49400 39.54800
C  34.70600 58.84000 39.79200
C  33.46300 59.56000 40.11000
C  35.13500 56.28000 39.14600
C  36.12200 59.33800 39.66000
O  37.02600 58.53100 39.49700
C  36.46500 60.82300 39.86700
N  30.85400 61.17000 40.79000
C  32.12600 61.61000 40.72400
C  32.18800 63.09300 41.06700
C  30.71300 63.55100 41.63500
C  29.98700 62.24500 41.13000
C  33.36000 63.68200 41.97300
C  30.34300 64.98600 41.12500
C  29.98600 66.04800 42.25900
N  28.46200 59.70800 40.51100
C  27.80100 60.93900 40.72300
C  26.35800 60.86100 40.56400
C  26.16700 59.53800 40.07800
C  27.49900 58.91300 40.05300
C  25.34800 62.03300 40.60700
C  25.20500 58.49900 39.65200
O  24.00400 58.52400 39.43100
C  26.00900 57.19100 39.29000
C  25.46400 56.13300 40.15600
O  25.77100 55.82400 41.32500
O  24.47500 55.44400 39.49600
C  23.49900 54.57700 40.24900
H  32.50700 55.41800 39.19700
H  34.15400 61.65300 40.34100
H  27.98700 62.95000 41.31400
H  27.85000 54.80300 38.92400
H  30.48400 54.65400 37.93200
H  30.39300 54.12600 40.89600
H  30.45000 52.89100 39.59800
H  28.91800 53.59300 40.20000
H  29.42000 55.70800 36.55100
H  28.17800 56.73300 36.86600
H  26.53000 54.61800 37.01600
H  27.77000 53.79300 36.34700
H  34.59500 55.38700 39.45800
H  36.01900 56.22500 39.78100
H  35.26000 56.40100 38.07000
H  35.82700 61.46400 39.25900
H  37.49200 60.87500 39.50500
H  36.49200 61.18200 40.89600
H  32.43900 63.59400 40.13300
H  30.76800 63.51800 42.72400
H  32.86600 64.21400 42.78700
H  33.94500 64.40000 41.39900
H  34.10200 62.93500 42.25200
H  29.51000 64.90300 40.42600
H  31.21100 65.39700 40.61000
H  28.92800 66.30000 42.19100
H  30.58300 66.95600 42.16900
H  30.23100 65.67000 43.25100
H  24.31200 61.70200 40.68700
H  25.48300 62.71600 39.76900
H  25.57900 62.56900 41.52800
H  25.97000 56.86700 38.25000
H  22.56900 55.03400 40.58600
H  23.92700 54.13700 41.14900
H  23.27300 53.68200 39.66900
Mg 26.06300 51.29500 26.28300
C  24.12800 52.17200 29.15400
C  28.77300 50.68600 28.43400
C  28.08300 51.29200 23.59000
C  23.33000 52.24000 24.24500
N  26.32700 51.42300 28.49400
C  25.38800 51.70200 29.46600
C  25.93000 51.38200 30.94100
C  27.49500 51.03600 30.60700
C  27.54700 51.03300 29.05600
C  28.62900 51.90000 31.28600
C  25.24200 50.27300 31.65500
C  24.57300 50.58400 33.00500
H  25.32500 51.32100 34.16200
N  28.09100 50.89000 25.99500
C  29.04700 50.59100 27.02900
C  30.37100 50.45400 26.39700
C  30.11900 50.64400 25.01100
C  28.70100 50.92500 24.78200
C  31.59200 50.17400 27.27000
C  31.10900 50.58800 23.80700
O  30.75900 50.67000 22.62200
C  32.54400 50.29800 24.15400
N  25.77100 51.89400 24.18800
C  26.76100 51.64800 23.29600
C  26.28100 52.13500 21.92100
C  24.74700 52.27800 22.01500
C  24.58300 52.18600 23.61100
C  26.91600 53.63200 21.68300
C  23.91500 51.30600 21.14700
C  23.89200 49.94500 21.76200
N  24.09000 51.97700 26.62300
C  23.08900 52.23900 25.68000
C  21.93300 52.66400 26.41100
C  22.27200 52.66100 27.77300
C  23.59300 52.27900 27.82400
C  20.55700 52.96100 25.88500
C  21.79000 52.93600 29.18000
O  20.68600 53.30500 29.60900
C  22.93900 52.51800 30.12600
C  23.24500 53.57000 31.03500
O  23.95300 54.48800 30.71500
O  22.55100 53.37400 32.21000
C  22.63400 54.42600 33.20100
H  29.51100 50.34000 29.16100
H  28.64300 51.24000 22.65300
H  22.41300 52.38500 23.67000
H  25.75700 52.24100 31.58800
H  27.60800 50.00200 30.93100
H  29.26100 51.26000 31.90100
H  28.19500 52.65500 31.94200
H  29.12500 52.55800 30.57200
H  25.90000 49.43000 31.87000
H  24.41400 49.86900 31.07200
H  24.33500 49.57600 33.34600
H  23.65800 51.15700 32.85100
H  31.27400 50.04300 28.30400
H  32.24700 51.04400 27.31100
H  32.11200 49.27400 26.94400
H  32.73600 49.30800 24.56800
H  32.82500 51.08100 24.85900
H  33.10000 50.34400 23.21800
H  26.57500 51.61100 21.01200
H  24.43600 53.29500 21.77600
H  27.87900 53.48000 21.19500
H  26.98200 54.22600 22.59400
H  26.26900 54.15800 20.98100
H  24.35200 51.29300 20.14800
H  22.90200 51.69300 21.03500
H  24.28700 49.27700 20.99600
H  22.86200 49.71900 22.03800
H  24.48700 49.78400 22.66100
H  20.42300 52.39800 24.96100
H  20.68200 54.01800 25.65000
H  19.70300 52.73700 26.52400
H  22.61000 51.60300 30.61900
H  22.26600 54.11800 34.18000
H  21.94300 55.15700 32.78200
H  23.61800 54.89400 33.19600

