158

Mg -1.77900 17.55400 27.07200
C  -2.34200 15.24100 29.83200
C  -2.63000 20.04100 29.35800
C  -1.76800 19.65400 24.56000
C  -1.62700 14.76700 25.03800
N  -2.33100 17.70400 29.35500
C  -2.36200 16.62200 30.27600
C  -2.62700 17.12500 31.71000
C  -3.02700 18.56400 31.49300
C  -2.66700 18.83100 30.04000
C  -4.62600 18.70000 31.67600
C  -1.42800 16.77300 32.67900
C  -0.99700 17.70700 33.90400
H  -0.87000 16.91800 35.23200
N  -1.96000 19.54400 27.03600
C  -2.32600 20.35800 28.03300
C  -2.48200 21.69100 27.45300
C  -2.09300 21.63300 26.14700
C  -1.94400 20.22500 25.82800
C  -2.92400 23.00700 28.22400
C  -1.89200 22.70700 25.09900
O  -1.40900 22.57400 23.97500
C  -2.00700 24.16900 25.53400
N  -1.55400 17.23800 25.09300
C  -1.59700 18.27100 24.22300
C  -1.41200 17.79100 22.78900
C  -1.17800 16.26100 22.96800
C  -1.49800 16.03200 24.44200
C  -2.66700 18.10900 21.88200
C  0.30800 15.78900 22.70300
C  1.35200 16.58600 23.48500
N  -1.87700 15.46500 27.33700
C  -1.78000 14.41900 26.39700
C  -2.05300 13.16400 27.03200
C  -2.20600 13.48300 28.39800
C  -2.16400 14.85600 28.49700
C  -2.05800 11.91100 26.22900
C  -2.47500 12.76200 29.70700
O  -2.69600 11.63100 30.07400
C  -2.60500 13.98500 30.72700
C  -1.47400 13.66200 31.68500
O  -0.20600 13.85200 31.53800
O  -2.03000 13.09100 32.77500
C  -1.17100 12.62200 33.78500
H  -2.80900 20.88500 30.02700
H  -1.88800 20.40000 23.77100
H  -1.63200 13.95500 24.30800
H  -3.43500 16.49000 32.07200
H  -2.54500 19.31300 32.12200
H  -5.04300 17.70600 31.84200
H  -4.99600 18.88300 30.66700
H  -4.91000 19.41900 32.44400
H  -0.56800 16.76500 32.00800
H  -1.54500 15.79800 33.15100
H  -1.56100 18.61200 34.12900
H  0.08100 17.84600 33.81600
H  -2.12700 23.74400 28.31800
H  -3.22400 22.66600 29.21500
H  -3.81200 23.40500 27.73200
H  -2.99200 24.39500 25.94200
H  -1.95600 24.73300 24.60300
H  -1.13900 24.31600 26.17600
H  -0.60400 18.31900 22.28200
H  -1.96300 15.63600 22.54200
H  -2.32100 18.43200 20.90000
H  -3.29000 18.95500 22.17200
H  -3.36200 17.27300 21.79800
H  0.50800 15.87200 21.63400
H  0.50600 14.72500 22.83200
H  0.83700 17.32100 24.10300
H  2.01300 16.93000 22.69000
H  1.89200 15.83900 24.06700
H  -1.38300 12.09500 25.39300
H  -3.06700 11.70200 25.87200
H  -1.83200 11.11500 26.93900
H  -3.54900 14.09500 31.26100
H  -1.74800 11.90300 34.36700
H  -0.97900 13.53200 34.35300
H  -0.20300 12.30500 33.39500
Mg 47.56200 25.18600 28.37700
C  48.49700 27.53000 30.79200
C  46.68800 23.05500 31.01200
C  46.96400 22.86600 26.16300
C  48.68800 27.26400 25.87300
N  47.56500 25.36300 30.57700
C  47.96300 26.38900 31.34000
C  47.67400 26.22200 32.83500
C  47.10300 24.72800 32.85600
C  47.10800 24.36600 31.35200
C  47.87700 23.78000 33.70800
C  46.78500 27.29400 33.45900
C  46.02000 26.83200 34.68200
H  45.88100 27.80500 35.88000
N  46.88600 23.29700 28.53800
C  46.55700 22.61900 29.64800
C  45.98300 21.32600 29.29100
C  46.15900 21.16200 27.88100
C  46.66800 22.48100 27.47400
C  45.38100 20.35400 30.33300
C  45.85800 19.91800 27.06600
O  46.14700 19.84400 25.86100
C  45.30200 18.70900 27.62800
N  47.76900 25.12100 26.25700
C  47.38400 24.04900 25.56900
C  47.80900 24.24300 24.07500
C  48.02100 25.80200 23.93200
C  48.10500 26.13400 25.44800
C  49.07900 23.36200 23.87000
C  46.97400 26.54800 23.07800
C  47.10300 26.63400 21.51200
N  48.36500 27.04300 28.33900
C  48.84700 27.70600 27.23100
C  49.48300 28.84100 27.73600
C  49.39400 28.86500 29.13000
C  48.65600 27.74600 29.40800
C  50.21800 29.83800 26.87600
C  49.67100 29.56800 30.35900
O  50.23400 30.67500 30.53700
C  49.09800 28.68100 31.51600
C  50.35300 28.21200 32.23300
O  51.12100 27.34400 31.86600
O  50.49700 28.86600 33.41100
C  51.58800 28.50800 34.30400
H  46.35700 22.54000 31.91600
H  46.88600 22.07400 25.41500
H  48.90800 27.96500 25.06600
H  48.68100 26.33900 33.23500
H  46.05300 24.70100 33.14700
H  48.25800 22.94100 33.12500
H  47.25500 23.40400 34.52000
H  48.70900 24.27600 34.20700
H  46.04600 27.64900 32.74100
H  47.39000 28.15300 33.74900
H  46.45500 25.93600 35.12400
H  44.97100 26.67900 34.43000
H  45.91300 19.40300 30.31600
H  44.32300 20.22400 30.10500
H  45.44300 20.77900 31.33500
H  45.75000 18.26000 28.51400
H  45.35300 17.95500 26.84200
H  44.29200 19.09800 27.75400
H  47.05400 23.91300 23.36200
H  48.99900 26.09200 23.54900
H  49.99400 23.94000 23.74000
H  48.82400 22.76300 22.99600
H  49.37400 22.69400 24.67900
H  47.02200 27.55100 23.50100
H  46.00400 26.19100 23.42500
H  47.79500 25.89800 21.10300
H  47.41200 27.66800 21.35800
H  46.17000 26.29000 21.06500
H  49.60400 30.73600 26.80400
H  50.45700 29.53800 25.85600
H  51.17400 30.05600 27.35200
H  48.28300 29.17500 32.04500
H  51.24200 27.60700 34.81000
H  51.64100 29.32400 35.02500
H  52.56300 28.32200 33.85300

