158

Mg 17.25100 -1.83200 27.15100
C  16.29100 0.43900 29.64500
C  19.19600 -3.40500 29.43700
C  18.79000 -3.40800 24.55400
C  15.74600 0.34400 24.80700
N  17.56100 -1.59000 29.33900
C  17.08700 -0.55800 30.08500
C  17.52800 -0.76400 31.58900
C  18.56400 -1.91900 31.45800
C  18.51100 -2.32800 29.98600
C  20.07100 -1.36500 31.79200
C  16.38800 -1.14100 32.63200
C  16.50200 -0.58400 34.06800
H  17.96800 -0.32400 34.61300
N  18.75100 -3.36500 27.00800
C  19.36000 -3.89200 28.09000
C  20.06500 -4.97600 27.64500
C  19.88900 -5.09100 26.24100
C  19.06600 -3.91000 25.81600
C  20.88400 -5.91900 28.58500
C  20.38500 -6.17900 25.29600
O  20.07200 -6.25700 24.12000
C  21.29000 -7.23100 25.72700
N  17.28200 -1.49400 25.04000
C  18.01300 -2.28400 24.15400
C  17.80500 -1.88200 22.70300
C  16.71600 -0.71900 22.73300
C  16.67800 -0.54400 24.30400
C  19.11900 -1.38300 22.03300
C  15.39500 -1.02300 22.14700
C  15.28500 -0.56600 20.64900
N  16.09700 -0.17500 27.18600
C  15.49000 0.59400 26.14900
C  14.78600 1.70100 26.75600
C  15.11200 1.75000 28.14400
C  15.92600 0.62900 28.30300
C  14.00400 2.73800 25.95600
C  15.06100 2.39100 29.38100
O  14.31600 3.31300 29.63900
C  15.69600 1.56300 30.46500
C  16.53700 2.42500 31.39800
O  17.39500 3.26400 31.02100
O  16.11200 2.26500 32.70800
C  16.51500 3.19800 33.65400
H  19.69900 -3.88200 30.28100
H  19.26000 -3.97100 23.74400
H  15.16700 1.03100 24.18600
H  17.96700 0.17300 31.93400
H  18.25200 -2.70400 32.14700
H  20.38000 -1.93300 32.66900
H  20.02400 -0.33000 32.13200
H  20.77400 -1.52000 30.97400
H  16.19700 -2.20700 32.75500
H  15.42200 -0.81300 32.25000
H  15.93000 -1.15700 34.79800
H  15.91300 0.32800 33.96300
H  21.89500 -6.21700 28.30700
H  20.37500 -6.87600 28.70100
H  21.03200 -5.41400 29.54000
H  22.32100 -6.88800 25.81300
H  21.49900 -7.90400 24.89500
H  20.91600 -7.75800 26.60500
H  17.44900 -2.74500 22.14100
H  17.19800 0.20900 22.42500
H  18.81000 -0.52900 21.43100
H  19.60000 -2.06500 21.33100
H  19.70400 -0.95800 22.84800
H  14.54400 -0.84400 22.80400
H  15.36200 -2.09800 21.97100
H  14.78100 -1.29200 20.01000
H  16.29100 -0.24500 20.37700
H  14.68200 0.34100 20.60900
H  14.76700 2.92900 25.20100
H  13.68500 3.56200 26.59600
H  13.18300 2.14200 25.55700
H  14.94800 1.13300 31.13300
H  16.99700 2.70200 34.49700
H  15.65100 3.79700 33.93900
H  17.24000 3.94300 33.32600
Mg 40.15300 9.32800 30.22500
C  41.72500 10.60600 33.06800
C  37.70900 8.01400 32.21600
C  38.58200 8.12600 27.48600
C  42.99300 10.10300 28.37600
N  39.79300 9.30300 32.36400
C  40.47700 9.97100 33.38300
C  39.81000 9.97300 34.74600
C  38.56600 8.98800 34.46800
C  38.67400 8.79100 32.93800
C  38.48200 7.68500 35.25800
C  39.43200 11.38600 35.26700
C  38.53800 11.37100 36.55600
H  39.17700 12.23600 37.66500
N  38.32000 8.29200 29.90100
C  37.47700 7.80300 30.86200
C  36.44200 7.02900 30.27000
C  36.65200 7.17100 28.85300
C  37.88500 7.97000 28.66600
C  35.44900 6.21700 31.07500
C  35.84800 6.54900 27.73500
O  36.02600 6.84000 26.52800
C  34.75700 5.62100 28.00600
N  40.70400 9.28300 28.16900
C  39.87200 8.63100 27.25800
C  40.58900 8.44700 25.98000
C  41.88100 9.29600 26.14300
C  41.85500 9.63900 27.62600
C  40.91700 6.95500 25.56600
C  41.99400 10.46900 25.17100
C  41.80000 11.86400 25.70600
N  41.92800 10.28300 30.56300
C  43.04500 10.46000 29.70300
C  44.00900 11.17400 30.39600
C  43.53800 11.25400 31.68100
C  42.24000 10.65600 31.78800
C  45.36000 11.64800 29.82500
C  43.85100 11.79300 32.92200
O  44.70500 12.62900 33.20300
C  42.76500 11.24300 33.91800
C  43.45800 10.36300 34.86200
O  43.55400 9.16500 34.76000
O  43.84500 11.15700 35.90700
C  44.43400 10.37900 36.97200
H  36.87300 7.67800 32.83300
H  38.18100 7.59600 26.61900
H  43.92500 10.32900 27.85200
H  40.47300 9.58400 35.51800
H  37.58900 9.42500 34.67600
H  38.60000 6.78300 34.65800
H  37.54500 7.58200 35.80500
H  39.33800 7.68600 35.93400
H  38.88900 11.91900 34.48600
H  40.37100 11.91900 35.42100
H  38.45800 10.33200 36.87500
H  37.54700 11.78500 36.36800
H  36.16500 5.92100 31.84200
H  35.03700 5.31900 30.61300
H  34.58500 6.82500 31.33900
H  34.07900 6.12700 28.69200
H  35.16400 4.64600 28.27200
H  34.26400 5.50500 27.04000
H  39.95300 8.91500 25.22900
H  42.74500 8.63200 26.16700
H  40.26200 6.29800 26.13800
H  41.93900 6.63100 25.76600
H  40.64600 6.83700 24.51700
H  41.23900 10.34000 24.39600
H  42.99000 10.42400 24.72900
H  41.38400 12.49200 24.91800
H  42.72100 12.34100 26.04000
H  41.09200 11.93900 26.53100
H  45.25400 12.23000 28.91000
H  46.12300 10.89800 29.61300
H  45.68200 12.29100 30.64400
H  42.30600 12.02700 34.51900
H  45.01800 9.52500 36.62900
H  43.59000 10.09800 37.60300
H  45.14500 11.07300 37.42300

