158

Mg 25.85900 1.43500 29.89500
C  27.73300 1.24100 33.01400
C  23.08200 1.99000 31.83400
C  24.11600 1.39100 27.06200
C  28.69400 0.37200 28.21600
N  25.52000 1.30300 32.10500
C  26.40700 1.43400 33.24500
C  25.64300 1.54400 34.60100
C  24.21200 1.73900 34.10700
C  24.22500 1.62100 32.57200
C  23.16800 0.83700 34.80600
C  26.24000 2.66600 35.51900
C  26.40600 2.15800 36.99000
H  26.15800 3.13700 38.08800
N  23.89000 1.74800 29.46000
C  22.90200 1.91400 30.44200
C  21.60700 1.96100 29.70200
C  21.84300 1.61000 28.31100
C  23.30600 1.56700 28.25200
C  20.26100 2.08800 30.45900
C  20.89900 1.24300 27.22000
O  21.36800 0.78700 26.17600
C  19.45600 1.32100 27.44000
N  26.29400 0.81100 27.96100
C  25.43800 1.15100 26.92800
C  26.07000 0.99500 25.58400
C  27.53800 0.54900 25.96000
C  27.54900 0.49800 27.46700
C  25.42100 -0.05500 24.57300
C  28.67300 1.41800 25.24200
C  29.30300 2.62800 25.97800
N  27.86800 0.98600 30.42700
C  28.82900 0.47900 29.60600
C  30.04900 0.41100 30.40100
C  29.67600 0.68800 31.74400
C  28.35300 1.00900 31.71900
C  31.40600 0.16900 29.86200
C  30.23300 0.81800 33.09500
O  31.38800 0.85700 33.55100
C  28.95300 1.13300 34.01600
C  28.80400 0.01300 34.88200
O  28.23400 -1.04400 34.58900
O  29.32300 0.31400 36.11700
C  29.20400 -0.73700 37.15200
H  22.15900 2.23900 32.36200
H  23.52600 1.57100 26.16100
H  29.65000 0.04600 27.80000
H  25.75000 0.58200 35.10300
H  24.02200 2.80300 34.24700
H  22.37600 1.36100 35.34100
H  23.65000 0.02900 35.35800
H  22.64800 0.33100 33.99400
H  25.55800 3.51600 35.52500
H  27.09400 3.17100 35.06700
H  27.40700 1.74800 37.12300
H  25.65900 1.37100 37.09400
H  19.74700 3.02500 30.24500
H  20.38500 2.01700 31.54000
H  19.75500 1.16600 30.17400
H  19.22800 0.31600 27.79500
H  19.02400 1.52100 26.45900
H  19.12500 2.18500 28.01600
H  25.99700 1.93300 25.03300
H  27.65400 -0.45000 25.54200
H  24.48700 -0.39700 25.01700
H  25.98200 -0.98300 24.45900
H  25.34300 0.54100 23.66300
H  28.31300 1.82700 24.29800
H  29.43800 0.65400 25.10100
H  28.71000 2.77100 26.88200
H  29.17900 3.59900 25.50000
H  30.33600 2.39700 26.23600
H  31.48200 0.79900 28.97600
H  31.52200 -0.85500 29.50500
H  32.09400 0.37600 30.68200
H  29.18100 2.01900 34.60900
H  28.30600 -0.63700 37.76200
H  30.13700 -0.82700 37.70900
H  29.04500 -1.69700 36.66100
Mg 41.94100 41.39900 26.03900
C  41.39200 43.78600 28.50500
C  43.18200 39.34100 28.60200
C  42.54600 39.01300 23.78400
C  40.78200 43.59500 23.68300
N  42.30300 41.62300 28.36400
C  41.85000 42.64100 29.12500
C  41.71400 42.21800 30.59300
C  42.54300 40.83300 30.62200
C  42.68900 40.51900 29.12100
C  43.90600 40.80200 31.41400
C  40.27400 42.07100 31.20200
C  39.89500 42.83900 32.49500
H  39.46000 42.00000 33.66600
N  42.79100 39.50600 26.18000
C  43.19100 38.82700 27.25000
C  43.69500 37.53700 26.92400
C  43.49800 37.34700 25.51500
C  42.93300 38.65500 25.09300
C  44.14000 36.51700 27.82700
C  43.65500 36.06800 24.65100
O  43.51600 36.06400 23.41600
C  44.17900 34.75400 25.25400
N  41.80700 41.31800 23.99200
C  41.96200 40.20100 23.29300
C  41.47900 40.35800 21.78200
C  41.07700 41.88800 21.84100
C  41.20800 42.29700 23.25400
C  42.46400 40.04000 20.66100
C  39.76800 42.23300 21.12800
C  39.88300 42.77500 19.71700
N  41.14400 43.32500 26.01300
C  40.67700 44.03500 24.98900
C  40.26700 45.31400 25.49300
C  40.47000 45.26500 26.85600
C  41.12500 44.02400 27.12000
C  39.54700 46.32800 24.72800
C  40.36800 46.02300 28.11600
O  39.90900 47.13300 28.29800
C  41.03700 45.08700 29.19700
C  42.13600 45.82900 29.85800
O  43.30700 45.77300 29.44600
O  41.62100 46.54200 30.94600
C  42.55000 47.43100 31.64500
H  43.51800 38.70600 29.42400
H  42.65400 38.26400 22.99700
H  40.44100 44.26800 22.89300
H  42.37900 42.85500 31.17700
H  41.92000 39.98700 30.91200
H  44.75600 40.68300 30.74200
H  43.95900 39.86900 31.97500
H  44.06700 41.63900 32.09300
H  40.10600 41.01900 31.43000
H  39.53000 42.45600 30.50500
H  39.17800 43.63000 32.27500
H  40.73000 43.44800 32.84100
H  45.12800 36.12600 27.58400
H  43.45900 35.67700 27.95900
H  44.44000 36.94600 28.78400
H  44.19400 34.06700 24.40800
H  43.55800 34.38500 26.06900
H  45.22700 34.86700 25.53100
H  40.56400 39.76600 21.80800
H  41.87100 42.46100 21.36300
H  42.68200 40.88900 20.01300
H  41.91500 39.34800 20.02300
H  43.45500 39.65000 20.89400
H  39.11100 42.83500 21.75600
H  39.22000 41.29000 21.13700
H  39.91000 41.92100 19.04000
H  40.73200 43.42400 19.50300
H  39.01000 43.41600 19.59500
H  39.46500 46.03400 23.68200
H  40.04800 47.29600 24.75600
H  38.60100 46.41200 25.26200
H  40.32000 44.87500 29.99100
H  43.20400 48.03100 31.01300
H  43.10000 46.89700 32.41800
H  41.96000 48.18200 32.17100

