158

Mg 1.80800 -1.55000 44.24400
C  5.23900 -0.95200 43.57600
C  1.02900 0.96000 42.28400
C  -1.41100 -2.66300 44.38300
C  2.89900 -4.57200 45.87700
N  3.01800 -0.25100 43.10000
C  4.36400 -0.10200 42.93700
C  4.81400 0.93300 41.92700
C  3.43000 1.74100 41.73200
C  2.40600 0.78200 42.40400
C  3.42800 3.13500 42.28500
C  5.46800 0.39700 40.62800
C  6.73200 1.21800 40.29400
H  7.04700 1.41900 38.80500
N  -0.06100 -0.86300 43.59300
C  -0.11200 0.22100 42.79900
C  -1.49200 0.47300 42.48800
C  -2.23700 -0.50500 43.20200
C  -1.25900 -1.36900 43.85500
C  -2.07400 1.63900 41.59400
C  -3.77100 -0.60700 43.19600
O  -4.39800 0.23300 42.59700
C  -4.43200 -1.84500 43.92500
N  0.95600 -3.47400 44.89000
C  -0.42300 -3.59300 44.87700
C  -0.85200 -4.87600 45.54700
C  0.48400 -5.31400 46.26800
C  1.53300 -4.43700 45.65900
C  -2.00900 -4.79100 46.57500
C  0.76900 -6.88200 46.30500
C  1.04100 -7.63800 47.65700
N  3.70300 -2.62500 44.70400
C  4.01000 -3.77400 45.34800
C  5.40000 -3.98400 45.48800
C  5.94100 -2.88000 44.79100
C  4.90600 -2.09100 44.31900
C  6.11700 -5.19200 46.15600
C  7.16700 -2.23600 44.41400
O  8.36400 -2.53500 44.61900
C  6.77000 -0.93400 43.64100
C  7.21200 0.23800 44.51100
O  6.68600 0.65200 45.58200
O  8.32800 0.72000 43.82600
C  8.71500 2.01700 44.30100
H  0.77200 1.80600 41.64300
H  -2.38500 -3.12700 44.55400
H  3.15400 -5.34900 46.60100
H  5.56500 1.56200 42.40500
H  3.25300 1.82500 40.66000
H  2.44600 3.61000 42.28800
H  4.16800 3.77400 41.80200
H  3.71700 3.19500 43.33400
H  4.85200 0.64800 39.76500
H  5.75700 -0.65000 40.72100
H  7.62000 0.70100 40.65700
H  6.71400 2.23300 40.69200
H  -2.73900 1.27800 40.81000
H  -1.30700 2.30100 41.19200
H  -2.70300 2.23200 42.25900
H  -5.50000 -1.63100 43.90000
H  -3.99100 -1.92800 44.91900
H  -4.26600 -2.76100 43.35900
H  -1.16300 -5.63200 44.82700
H  0.44400 -4.92600 47.28600
H  -2.86800 -5.21400 46.05500
H  -2.28700 -3.79200 46.91200
H  -1.70800 -5.37200 47.44700
H  1.60700 -7.06300 45.63200
H  -0.06800 -7.40100 45.83800
H  0.62600 -8.64500 47.71000
H  0.71400 -6.97800 48.46100
H  2.10700 -7.79600 47.81900
H  6.08900 -5.04500 47.23500
H  7.18700 -5.27500 45.96400
H  5.56300 -6.10600 45.94400
H  7.14900 -0.83400 42.62400
H  8.02500 2.80800 44.00700
H  9.69200 2.22800 43.86500
H  8.80200 2.12900 45.38200
Mg -0.85900 7.93200 27.06900
C  0.13900 9.96700 29.83800
C  -1.10200 5.29300 29.17300
C  -1.44500 6.05300 24.33000
C  -0.47600 10.78800 25.09500
N  -0.37600 7.67700 29.31500
C  -0.20300 8.65500 30.28000
C  -0.48500 8.06100 31.66700
C  -0.74400 6.53100 31.41100
C  -0.79000 6.51300 29.87300
C  0.17600 5.45100 32.02700
C  -1.71800 8.77400 32.25500
C  -1.88600 8.80900 33.81200
H  -1.03200 7.93900 34.72600
N  -1.13000 5.90800 26.84300
C  -1.17900 4.93500 27.79200
C  -1.51800 3.66100 27.19800
C  -1.74900 3.89900 25.80100
C  -1.45200 5.33700 25.57700
C  -1.44400 2.40800 28.09600
C  -2.15500 2.96300 24.69600
O  -2.17300 3.18600 23.53700
C  -2.54000 1.50300 25.16800
N  -0.92800 8.34800 24.99100
C  -1.20200 7.45200 24.02700
C  -1.29000 8.07200 22.68000
C  -1.37400 9.59000 23.00000
C  -0.90300 9.61600 24.46400
C  -0.13200 7.67600 21.67700
C  -2.81700 10.25300 22.88400
C  -3.43600 10.47500 21.52500
N  -0.33900 9.96300 27.36400
C  -0.15100 10.98800 26.44200
C  0.33200 12.14400 27.07100
C  0.51000 11.81800 28.38900
C  0.12800 10.48600 28.47300
C  0.77400 13.33400 26.32600
C  0.98100 12.24400 29.63100
O  1.61400 13.25700 29.92300
C  0.57600 11.13200 30.65300
C  1.66300 10.71400 31.51300
O  2.58300 9.93900 31.29100
O  1.48300 11.49900 32.71700
C  2.63400 11.59100 33.61700
H  -1.38800 4.51900 29.88900
H  -1.81300 5.59400 23.41000
H  -0.32200 11.65000 24.44300
H  0.33900 8.31400 32.33400
H  -1.74500 6.32200 31.78600
H  -0.33300 4.62900 32.53200
H  0.81300 5.97400 32.74000
H  0.92700 5.05800 31.34100
H  -2.62400 8.24900 31.95400
H  -1.85000 9.79100 31.88700
H  -2.91900 8.53500 34.03100
H  -1.77500 9.85400 34.10000
H  -2.46200 2.12200 28.36300
H  -0.89800 2.63800 29.01000
H  -0.98800 1.61900 27.49800
H  -3.13400 1.70800 26.05800
H  -1.57800 1.05600 25.41900
H  -3.03700 0.94500 24.37400
H  -2.28100 7.81900 22.30200
H  -0.56600 10.17800 22.56300
H  -0.01500 8.42700 20.89600
H  -0.44300 6.71800 21.25900
H  0.79100 7.62600 22.25500
H  -2.52200 11.25600 23.19500
H  -3.50700 9.82200 23.60800
H  -3.22300 11.47500 21.14700
H  -4.51000 10.31400 21.43200
H  -3.01500 9.84400 20.74200
H  1.04100 12.99500 25.32500
H  1.63600 13.75100 26.84700
H  -0.04800 14.00500 26.07700
H  -0.26200 11.53600 31.22100
H  2.65100 12.58300 34.06900
H  3.53700 11.36200 33.05100
H  2.47500 10.91800 34.46000

