158

Mg 24.52000 -6.94000 46.63200
C  27.06200 -4.82300 45.46500
C  22.31500 -5.25100 44.54500
C  22.31000 -9.41600 47.15300
C  26.95700 -8.72000 48.41700
N  24.71300 -5.32600 45.12000
C  25.85900 -4.60100 44.79500
C  25.51200 -3.45900 43.88700
C  23.94400 -3.53400 43.61800
C  23.58900 -4.70600 44.50200
C  23.00600 -2.23400 43.83900
C  26.37200 -3.48900 42.54300
C  27.04400 -2.09700 42.28400
H  26.66800 -1.48900 40.95100
N  22.59300 -7.32200 45.95000
C  21.83800 -6.47800 45.11600
C  20.53400 -7.08600 44.86100
C  20.54900 -8.39000 45.54900
C  21.92200 -8.48700 46.29200
C  19.49200 -6.41000 43.99700
C  19.39700 -9.36000 45.55400
O  18.42100 -9.11600 44.80200
C  19.35400 -10.62600 46.33800
N  24.66200 -8.89700 47.53300
C  23.52400 -9.54400 47.86900
C  23.72500 -10.61700 48.93900
C  25.25600 -10.51600 49.21200
C  25.67400 -9.27400 48.42100
C  22.85200 -10.47900 50.17800
C  26.07700 -11.79800 48.94000
C  25.67700 -13.06600 49.66300
N  26.61000 -6.84700 46.97200
C  27.42700 -7.57700 47.75800
C  28.72300 -7.06000 47.74900
C  28.62900 -5.96900 46.88000
C  27.33800 -5.91400 46.38900
C  29.93000 -7.59600 48.59000
C  29.37900 -4.95000 46.23900
O  30.54400 -4.65800 46.37800
C  28.44600 -4.19600 45.24700
C  28.51800 -2.75500 45.43400
O  29.24700 -1.98800 44.88200
O  27.88000 -2.46600 46.52900
C  28.04300 -1.04600 46.94500
H  21.60600 -4.71000 43.91500
H  21.56500 -10.17200 47.40900
H  27.59600 -9.17600 49.17700
H  25.68600 -2.54900 44.46100
H  23.71800 -3.90300 42.61800
H  23.58600 -1.31900 43.71900
H  22.56600 -2.33100 44.83200
H  22.12200 -2.26500 43.20200
H  25.74200 -3.86000 41.73400
H  27.18500 -4.21500 42.54600
H  28.09600 -2.37500 42.21500
H  26.81200 -1.40100 43.09100
H  19.80200 -5.41600 43.67500
H  18.55600 -6.52200 44.54300
H  19.37500 -6.84600 43.00500
H  20.29100 -11.17900 46.28400
H  18.57800 -11.30200 45.98000
H  19.15200 -10.48600 47.40000
H  23.42700 -11.51600 48.39800
H  25.46000 -10.24600 50.24900
H  21.82600 -10.14600 50.02400
H  23.26700 -9.92400 51.01900
H  22.68100 -11.51900 50.45500
H  27.10900 -11.59800 49.22900
H  26.10700 -11.94500 47.86000
H  25.28000 -13.71800 48.88400
H  24.93300 -12.85800 50.43300
H  26.55500 -13.38500 50.22500
H  30.45700 -6.74200 49.01700
H  30.62600 -8.10600 47.92400
H  29.58500 -8.30700 49.34000
H  28.79600 -4.31100 44.22100
H  28.09900 -0.33300 46.12200
H  28.98300 -1.11800 47.49200
H  27.32700 -0.82400 47.73600
Mg 47.54000 33.87000 26.75400
C  45.49100 33.09400 29.51500
C  48.17200 36.81400 28.46700
C  48.97300 35.04100 24.00400
C  46.20700 31.24000 25.02700
N  47.17100 34.65000 28.94500
C  46.37700 34.09000 29.88500
C  46.59700 34.76900 31.26100
C  47.07200 36.19800 30.71600
C  47.50400 35.92100 29.29500
C  46.07100 37.36200 30.78600
C  47.61400 34.00800 32.19000
C  47.28200 33.78300 33.63800
H  46.31400 34.78600 34.19400
N  48.50000 35.62100 26.36300
C  48.72400 36.72200 27.15600
C  49.45000 37.74500 26.50200
C  49.76600 37.19800 25.20900
C  49.09000 35.87500 25.15800
C  49.92900 39.04600 27.18700
C  50.61300 37.83200 24.05500
O  51.01700 37.20700 23.08100
C  51.02300 39.29300 24.14200
N  47.44000 33.27400 24.67400
C  48.30200 33.83000 23.85200
C  48.31100 33.07600 22.51700
C  47.46300 31.80100 22.85400
C  47.01700 32.09000 24.27300
C  47.89600 33.81900 21.24100
C  48.14600 30.42600 22.57100
C  48.97200 29.84600 23.71500
N  46.08300 32.47300 27.12300
C  45.68200 31.41900 26.33400
C  44.72100 30.56200 27.07300
C  44.56000 31.17700 28.27600
C  45.44900 32.30800 28.29900
C  44.11000 29.29800 26.64100
C  43.90300 31.13500 29.56600
O  43.04300 30.41300 30.06000
C  44.36000 32.46400 30.23900
C  44.61500 31.98700 31.63100
O  45.27900 30.94800 31.93500
O  43.87300 32.69100 32.59400
C  43.80500 32.06600 33.96400
H  48.36300 37.81900 28.84900
H  49.51800 35.42800 23.14000
H  45.90500 30.30700 24.54600
H  45.62500 34.88200 31.74000
H  47.87900 36.59200 31.33200
H  46.36800 38.15000 31.47900
H  45.13400 36.87200 31.05000
H  45.94000 37.85200 29.82100
H  48.56600 34.53700 32.15100
H  47.72000 33.05400 31.67400
H  48.11900 33.82700 34.33500
H  46.90500 32.76100 33.59000
H  50.84200 39.48300 26.78400
H  50.22400 38.62000 28.14600
H  49.09000 39.72600 27.33700
H  50.33700 39.97100 24.64900
H  51.30200 39.75800 23.19700
H  52.00000 39.29700 24.62500
H  49.35600 32.82300 22.34000
H  46.50500 31.86500 22.34000
H  47.45100 34.79700 21.42800
H  47.24500 33.23200 20.59400
H  48.83100 33.92400 20.69000
H  48.85900 30.37800 21.74800
H  47.30400 29.78600 22.31100
H  49.08000 30.57100 24.52200
H  49.96900 29.67300 23.30900
H  48.44300 28.97400 24.10100
H  43.21800 29.52600 26.05700
H  43.80500 28.74900 27.53200
H  44.65500 28.66100 25.94500
H  43.47900 33.10100 30.16600
H  44.85300 31.92300 34.22700
H  43.20600 31.15600 33.98700
H  43.23500 32.75600 34.58700

