158

Mg 45.40900 2.88500 47.99500
C  43.20000 5.67700 47.10800
C  42.58900 0.87600 48.09600
C  47.39500 0.37500 48.04800
C  48.01000 5.22200 47.37500
N  43.15400 3.22800 47.44600
C  42.50300 4.40700 47.22500
C  40.95300 4.24700 47.21300
C  40.86000 2.68400 47.59800
C  42.28900 2.23000 47.79100
C  40.04700 2.49000 48.91600
C  40.29300 4.47400 45.80800
C  39.33100 5.60400 45.55900
H  39.62300 6.56300 44.34300
N  45.03100 0.85800 48.09800
C  43.82400 0.14600 48.19400
C  44.01400 -1.18600 48.36900
C  45.41700 -1.37400 48.24000
C  46.05100 -0.07000 48.10300
C  42.91600 -2.24400 48.30200
C  46.09200 -2.78900 48.31900
O  45.41500 -3.83900 48.57300
C  47.50400 -2.88700 48.12100
N  47.38700 2.72300 47.40500
C  48.00100 1.60400 47.75000
C  49.57700 1.86300 47.55600
C  49.65900 3.35500 47.35600
C  48.25600 3.84100 47.36800
C  50.47800 1.24100 48.70300
C  50.47600 3.85100 46.13600
C  51.85500 4.54900 46.52100
N  45.65200 5.05400 47.40800
C  46.75200 5.80400 47.34400
C  46.35800 7.19700 47.26200
C  44.99200 7.22300 47.14300
C  44.57100 5.86600 47.19500
C  47.24000 8.38900 47.31000
C  43.80500 8.05800 46.89300
O  43.67100 9.24100 46.70100
C  42.59000 7.07400 47.07300
C  41.80300 7.44500 48.34000
O  41.89100 6.96200 49.47200
O  40.99400 8.53500 47.98600
C  40.05200 8.94600 49.00500
H  41.67800 0.27500 48.08200
H  48.17300 -0.39100 48.05900
H  48.84100 5.93000 47.37700
H  40.41500 4.89100 47.90800
H  40.39600 2.07400 46.82200
H  39.48900 3.40900 49.09600
H  40.66100 2.30700 49.79800
H  39.30400 1.70400 48.78300
H  39.81300 3.54800 45.49000
H  41.07000 4.60900 45.05600
H  39.21500 6.31700 46.37500
H  38.40000 5.05300 45.42700
H  43.23500 -3.01100 49.00800
H  43.06500 -2.69300 47.32000
H  41.89300 -1.95600 48.54000
H  47.78200 -3.94100 48.13400
H  48.04900 -2.38600 48.92100
H  47.94300 -2.52900 47.19000
H  49.89700 1.35800 46.64400
H  50.20000 3.77000 48.20600
H  51.00800 0.37300 48.31100
H  49.89100 1.01500 49.59200
H  51.21900 1.98800 48.98900
H  49.81400 4.42200 45.48500
H  50.82500 2.98100 45.57900
H  51.78400 5.56700 46.13700
H  52.67800 3.92100 46.18100
H  51.99000 4.60000 47.60200
H  48.25700 8.07000 47.08000
H  47.17200 8.84000 48.30000
H  46.89900 9.15200 46.61000
H  41.94000 7.25700 46.21700
H  40.29400 10.00900 49.02700
H  40.22300 8.45900 49.96500
H  39.00700 8.87100 48.70200
Mg 9.62200 48.55000 25.90100
C  7.72300 48.88700 28.80700
C  12.29600 50.06700 27.77800
C  11.50500 48.31700 23.22700
C  6.77800 47.91000 24.07000
N  9.96100 49.44500 28.12900
C  9.05800 49.33400 29.14000
C  9.64300 49.85400 30.46900
C  10.98400 50.50100 30.03500
C  11.08800 50.00100 28.52700
C  11.07100 52.00300 30.14200
C  9.87300 48.67500 31.42600
C  9.83500 48.99500 32.94000
H  9.48200 47.84200 33.89400
N  11.53400 48.96700 25.60400
C  12.52900 49.57700 26.42800
C  13.83400 49.59100 25.71900
C  13.56800 49.16200 24.42800
C  12.16300 48.84400 24.37200
C  15.09900 50.08800 26.37400
C  14.54800 49.09700 23.28600
O  14.30700 48.78800 22.11300
C  16.01200 49.36900 23.54300
N  9.23500 48.34100 23.84300
C  10.20300 48.10700 22.93800
C  9.68700 47.59700 21.58000
C  8.13100 47.48100 21.88600
C  7.97600 47.93400 23.34400
C  10.00500 48.40100 20.28300
C  7.72500 45.97200 21.75600
C  7.75600 45.10900 23.04500
N  7.65400 48.41400 26.29800
C  6.55600 48.11700 25.43600
C  5.30800 48.30300 26.16500
C  5.78700 48.45400 27.51600
C  7.21900 48.61300 27.54800
C  3.89700 48.16900 25.67800
C  5.26900 48.67100 28.87800
O  4.12800 48.78400 29.26400
C  6.54000 48.77900 29.74300
C  6.56300 47.49800 30.44000
O  6.81700 46.40200 29.92400
O  6.31400 47.80800 31.77500
C  6.17100 46.64400 32.69300
H  13.15300 50.54900 28.25300
H  12.14500 48.11000 22.36700
H  5.91600 47.52100 23.52300
H  8.91200 50.57400 30.83400
H  11.75500 50.10400 30.69600
H  12.04500 52.26400 30.55700
H  10.26800 52.36600 30.78300
H  11.01300 52.51500 29.18200
H  10.81800 48.24700 31.09300
H  9.24900 47.79300 31.28300
H  9.13600 49.81200 33.11600
H  10.82200 49.36300 33.22200
H  15.09300 50.05600 27.46300
H  15.49200 51.02800 25.98700
H  15.85300 49.35300 26.09200
H  16.03000 50.43000 23.79200
H  16.56200 49.19700 22.61800
H  16.47500 48.79500 24.34600
H  10.14600 46.61700 21.45100
H  7.60400 48.22100 21.28200
H  10.68500 49.20500 20.56500
H  9.17200 48.78900 19.69700
H  10.56800 47.76300 19.60100
H  8.44900 45.44400 21.13600
H  6.71000 45.82200 21.38700
H  8.36800 45.51500 23.85000
H  8.29600 44.22700 22.70100
H  6.74100 44.85600 23.35200
H  3.70900 47.11600 25.46800
H  3.75900 48.78300 24.78800
H  3.16700 48.47000 26.42900
H  6.61300 49.54400 30.51600
H  6.54200 46.99300 33.65700
H  6.75700 45.81300 32.30100
H  5.11200 46.39800 32.76900

