158

Mg 5.83900 54.62000 40.64400
C  5.73800 51.03600 40.43900
C  9.19500 54.29800 39.62800
C  5.85700 57.86500 40.10400
C  2.50600 54.69000 41.29400
N  7.26600 52.81800 40.00500
C  6.99200 51.50100 39.97600
C  8.22500 50.67400 39.51900
C  9.38200 51.72400 39.60900
C  8.57500 53.04700 39.70100
C  10.32000 51.62700 40.92900
C  8.16700 49.88700 38.15800
C  7.99400 50.72800 36.83200
H  6.72300 50.58200 36.02000
N  7.30200 55.90800 40.05400
C  8.63600 55.61900 39.82100
C  9.42800 56.83700 39.64100
C  8.52600 57.84700 39.84500
C  7.15300 57.27800 39.96000
C  10.83800 56.93100 39.14100
C  8.86800 59.29400 39.97500
O  10.06400 59.56200 39.94200
C  7.82900 60.31600 40.22300
N  4.24000 56.06500 40.32800
C  4.58500 57.34800 40.36300
C  3.35900 58.25000 40.69400
C  2.24900 57.16200 40.79100
C  3.02700 55.89200 40.89500
C  3.67800 59.00400 42.11000
C  1.26300 57.11900 39.56900
C  -0.16300 57.61600 39.87000
N  4.33400 53.17100 40.88900
C  3.03500 53.38500 41.26100
C  2.44800 52.04900 41.50600
C  3.49600 51.14700 41.25100
C  4.61800 51.83800 40.83700
C  1.19000 51.58400 42.09300
C  3.90300 49.70200 41.26200
O  3.23800 48.71200 41.64500
C  5.34300 49.57700 40.64700
C  5.00100 48.88500 39.34200
O  4.58100 49.39000 38.28300
O  5.29000 47.54500 39.50400
C  4.81700 46.64300 38.37400
H  10.18700 54.34900 39.17400
H  5.83000 58.95200 40.00000
H  1.49000 54.72000 41.69400
H  8.37800 49.93100 40.30200
H  10.02000 51.73500 38.72600
H  11.33100 51.51100 40.53800
H  10.06700 50.79400 41.58500
H  10.31700 52.51400 41.56200
H  7.39600 49.12200 38.24200
H  9.09600 49.33100 38.02700
H  8.90300 50.53000 36.26300
H  7.95800 51.79200 37.06400
H  10.97500 57.70300 38.38300
H  11.35000 56.00100 38.89200
H  11.49300 57.23500 39.95800
H  8.29900 61.26800 40.47000
H  7.22200 60.01400 41.07700
H  7.19800 60.39800 39.33800
H  3.18300 58.89600 39.83400
H  1.62800 57.36300 41.66500
H  2.92900 59.79500 42.13400
H  4.69600 59.38500 42.19500
H  3.42500 58.44600 43.01100
H  1.10900 56.07600 39.29400
H  1.80000 57.69000 38.81100
H  -0.85400 56.83700 39.54700
H  -0.37500 58.55300 39.35500
H  -0.23900 57.82300 40.93800
H  0.62400 52.50400 42.24400
H  1.36700 51.06600 43.03600
H  0.84700 50.92500 41.29600
H  6.06200 48.98100 41.20900
H  3.73900 46.64300 38.21600
H  5.04500 45.60400 38.61100
H  5.27000 47.06100 37.47400
Mg 0.42000 43.29600 25.08700
C  2.85900 42.74200 27.69500
C  -1.92300 42.35000 27.32600
C  -1.53700 42.97700 22.43200
C  3.19500 43.85800 22.85800
N  0.45600 42.70300 27.29200
C  1.53800 42.47100 28.08000
C  1.00800 42.15600 29.46600
C  -0.49000 41.90800 29.33700
C  -0.66600 42.37300 27.87700
C  -0.95400 40.38300 29.62100
C  1.24900 43.38400 30.34200
C  0.92800 43.30200 31.82900
H  0.32000 41.92900 32.39600
N  -1.52500 42.75900 24.93000
C  -2.38700 42.43400 25.96300
C  -3.67800 42.03800 25.42900
C  -3.58800 42.23900 24.00500
C  -2.15500 42.66300 23.70100
C  -4.84400 41.58900 26.18000
C  -4.63700 42.02900 22.95100
O  -4.35700 42.16900 21.76800
C  -5.99900 41.55800 23.31900
N  0.76900 43.30100 23.01600
C  -0.24900 43.41300 22.12200
C  0.17700 43.82800 20.73200
C  1.64800 44.14000 20.91900
C  1.91000 43.68300 22.34300
C  -0.22700 42.87400 19.61500
C  2.10000 45.54800 20.54800
C  2.19300 46.65000 21.62100
N  2.57900 43.39600 25.20300
C  3.52000 43.66300 24.21300
C  4.83300 43.66000 24.81900
C  4.65900 43.31300 26.17000
C  3.24700 43.11400 26.36400
C  6.12300 43.84000 24.06100
C  5.36100 43.06400 27.43100
O  6.58000 43.07700 27.72100
C  4.15600 42.78200 28.47500
C  4.44800 41.63400 29.41100
O  4.53200 40.44900 29.12000
O  4.48600 42.16100 30.67700
C  4.64400 41.23900 31.72000
H  -2.70600 42.16600 28.06500
H  -2.20100 42.89500 21.56900
H  4.06200 44.25800 22.32800
H  1.46700 41.25300 29.86700
H  -1.03000 42.68500 29.87700
H  -0.22600 39.87700 30.25400
H  -1.08300 39.89200 28.65600
H  -1.80400 40.37300 30.30400
H  0.82100 44.33000 30.00900
H  2.31000 43.63500 30.35300
H  0.21400 44.07000 32.12800
H  1.83500 43.59300 32.36100
H  -5.25900 40.68600 25.73200
H  -5.55700 42.40400 26.30300
H  -4.52700 41.34200 27.19300
H  -6.48400 42.23100 24.02600
H  -5.90000 40.52100 23.63900
H  -6.61600 41.53000 22.42100
H  -0.38700 44.74700 20.57200
H  2.19800 43.36900 20.38100
H  -0.31100 41.84900 19.97500
H  0.57900 42.92800 18.88200
H  -1.15100 43.17700 19.12200
H  1.42100 45.95100 19.79600
H  3.08100 45.32900 20.12700
H  1.37200 46.42000 22.30000
H  2.22300 47.70100 21.33300
H  3.09300 46.56800 22.23000
H  6.92900 43.27300 24.52500
H  6.36000 44.89300 24.21700
H  5.96600 43.57600 23.01500
H  4.17800 43.64100 29.14600
H  4.04600 41.60700 32.55400
H  5.69100 41.19500 32.02000
H  4.28700 40.23300 31.49600

