158

Mg 53.65700 23.73000 44.51300
C  50.91900 25.72300 43.80900
C  51.99900 21.06400 43.04800
C  56.60800 22.04600 44.40700
C  55.42600 26.56800 45.41600
N  51.74800 23.55100 43.34100
C  50.76000 24.42700 43.38900
C  49.60900 23.91500 42.49200
C  49.75500 22.33700 42.61700
C  51.28800 22.28300 43.02000
C  48.66200 21.54200 43.52700
C  49.74000 24.36900 41.03000
C  48.45200 24.36800 40.14500
H  48.03000 22.95300 39.63100
N  54.18300 21.81600 43.82800
C  53.27100 20.82900 43.41800
C  53.89800 19.56700 43.42600
C  55.25900 19.81400 43.83200
C  55.44200 21.28400 44.02000
C  53.23200 18.26500 43.14600
C  56.32600 18.71300 43.87500
O  56.09900 17.55900 43.55800
C  57.69900 18.94900 44.28300
N  55.83900 24.29600 44.53300
C  56.77100 23.39000 44.67300
C  58.15400 23.99100 44.83400
C  57.82200 25.53000 45.15200
C  56.23300 25.49700 45.05000
C  58.98000 23.22300 45.91800
C  58.48700 26.58000 44.19800
C  59.65900 27.31300 44.81400
N  53.23100 25.70700 44.75500
C  54.04300 26.73900 45.17400
C  53.28700 27.93600 45.40900
C  52.02800 27.60900 44.87400
C  52.05900 26.23900 44.47000
C  53.79800 29.07900 46.14000
C  50.69800 28.12600 44.58800
O  50.18900 29.21700 44.81500
C  50.01100 26.88000 43.73900
C  49.55700 27.42100 42.47200
O  50.27800 27.88500 41.60700
O  48.23100 27.36400 42.44100
C  47.51000 28.06300 41.35700
H  51.51000 20.14400 42.72300
H  57.52600 21.48700 44.59800
H  55.97700 27.41900 45.82200
H  48.64400 24.27000 42.85400
H  49.70500 21.88000 41.62800
H  48.63600 21.88300 44.56200
H  49.01900 20.51300 43.56900
H  47.65600 21.35500 43.15300
H  50.40200 23.69700 40.48300
H  50.11800 25.37700 40.86100
H  48.75700 25.04400 39.34700
H  47.61100 24.77400 40.70700
H  53.70300 17.50900 43.77400
H  53.41500 17.97300 42.11200
H  52.17500 18.32800 43.40700
H  58.17200 19.37900 43.40100
H  58.11700 17.98000 44.55500
H  57.71800 19.53700 45.20100
H  58.53000 23.90300 43.81500
H  57.94900 25.81000 46.19800
H  59.48600 23.84800 46.65300
H  59.66900 22.54200 45.41600
H  58.25800 22.66300 46.51200
H  57.75900 27.38000 44.06600
H  58.91000 26.22300 43.25900
H  59.30800 28.31800 45.05000
H  60.57300 27.24100 44.22500
H  59.94900 26.88300 45.77300
H  54.86700 29.29600 46.13900
H  53.58400 29.03400 47.20800
H  53.26300 29.93500 45.72800
H  49.05600 26.72900 44.24100
H  47.95400 27.70500 40.42800
H  47.79500 29.11400 41.39300
H  46.42600 27.94900 41.33700
Mg 47.77800 14.34700 27.38400
C  45.69200 14.39600 30.25300
C  50.03700 16.10000 28.97100
C  49.58300 14.41100 24.50600
C  45.03300 13.04200 25.58600
N  47.81800 15.24000 29.42100
C  46.89600 15.09500 30.47300
C  47.37500 15.70400 31.82700
C  48.67800 16.41400 31.27900
C  48.87800 15.89500 29.81600
C  48.55100 17.95400 31.33100
C  47.64500 14.63000 32.91400
C  47.51700 15.13800 34.35600
H  48.75600 14.96400 35.25800
N  49.66600 14.96800 26.89100
C  50.47200 15.64900 27.71300
C  51.79600 15.77800 27.12400
C  51.66600 15.18700 25.77700
C  50.27300 14.87400 25.65300
C  52.98000 16.25400 27.87000
C  52.71400 15.07000 24.69300
O  52.48200 14.59400 23.54400
C  54.02500 15.53400 24.89800
N  47.39200 13.76100 25.30000
C  48.28400 13.95000 24.33200
C  47.75900 13.26200 22.98000
C  46.39200 12.73000 23.39100
C  46.21900 13.21500 24.86200
C  47.81800 14.18000 21.78700
C  46.18200 11.15500 23.20100
C  46.97200 10.38500 24.28500
N  45.80900 13.78300 27.82600
C  44.74500 13.31200 26.94800
C  43.49300 13.13500 27.73100
C  43.89200 13.46900 29.00300
C  45.24000 13.94800 29.03200
C  42.23000 12.36500 27.27300
C  43.39100 13.58300 30.33600
O  42.29500 13.37900 30.76400
C  44.53600 14.23600 31.18800
C  43.99000 15.51800 31.81800
O  43.61000 16.48000 31.18200
O  44.05700 15.46800 33.18800
C  43.71100 16.72700 33.91600
H  50.88500 16.56300 29.48000
H  50.17500 14.35300 23.59000
H  44.21500 12.53800 25.06600
H  46.56800 16.39000 32.08700
H  49.52000 16.11200 31.90300
H  48.67700 18.28400 30.30000
H  49.30700 18.46900 31.92400
H  47.50700 18.20500 31.51400
H  48.67500 14.29000 32.80400
H  47.03200 13.74100 32.76500
H  46.86100 14.46400 34.90600
H  47.04900 16.12100 34.39500
H  53.61300 15.37300 27.97700
H  52.75100 16.37800 28.92900
H  53.42500 17.12400 27.38700
H  54.38800 15.10100 25.83000
H  54.07700 16.61700 25.00500
H  54.72800 15.25900 24.11100
H  48.47400 12.47700 22.73500
H  45.55500 13.02100 22.75700
H  48.33800 15.10900 22.01900
H  46.80300 14.47900 21.52800
H  48.34400 13.69800 20.96200
H  46.71100 11.02300 22.25700
H  45.16800 10.77900 23.06500
H  47.72500 9.79600 23.76100
H  46.34900 9.65100 24.79600
H  47.49400 11.03600 24.98600
H  41.86900 11.81900 28.14500
H  42.62000 11.58100 26.62500
H  41.48600 12.96400 26.74800
H  44.64900 13.54100 32.02100
H  43.08600 17.42900 33.36400
H  44.70500 17.09500 34.17100
H  43.18900 16.58000 34.86100

