158

Mg -1.81800 17.27100 27.02000
C  -2.00300 15.20100 29.77300
C  -1.94300 19.90800 29.23400
C  -2.19900 19.27900 24.47100
C  -2.29100 14.44400 24.97600
N  -1.79800 17.53200 29.21400
C  -1.98000 16.53000 30.13400
C  -2.03400 17.08600 31.61000
C  -2.28400 18.62800 31.35000
C  -1.95500 18.69800 29.84100
C  -3.63800 19.15200 31.81400
C  -0.78000 16.72400 32.41200
C  -0.29100 17.66700 33.56700
H  -0.05000 16.81700 34.84600
N  -1.97400 19.39600 26.87100
C  -1.90500 20.30300 27.87400
C  -1.84700 21.63300 27.35500
C  -1.97800 21.48800 25.92400
C  -2.01500 20.02800 25.68500
C  -1.77900 22.93000 28.16600
C  -2.06500 22.60300 24.87500
O  -2.25500 22.25700 23.68800
C  -2.19000 24.08100 25.25400
N  -2.27700 16.87800 25.02600
C  -2.38500 17.93800 24.14300
C  -2.71800 17.42300 22.71000
C  -2.37400 15.88900 22.89200
C  -2.46500 15.69600 24.39400
C  -4.04800 17.80100 22.13700
C  -1.11400 15.32600 22.11100
C  0.16800 15.28200 23.01100
N  -1.92500 15.22000 27.21200
C  -2.19900 14.22000 26.30900
C  -2.29200 12.95700 27.02700
C  -2.23000 13.26600 28.40800
C  -2.04300 14.67400 28.44700
C  -2.68900 11.60800 26.43400
C  -2.38000 12.77300 29.68200
O  -2.45100 11.57700 30.04300
C  -2.29000 14.01000 30.64800
C  -1.21600 13.51800 31.57800
O  -0.00000 13.45600 31.30400
O  -1.79800 13.09900 32.74900
C  -0.80600 12.33400 33.58500
H  -2.08700 20.65300 30.01800
H  -2.34700 19.95100 23.62300
H  -2.45000 13.58600 24.32000
H  -2.88800 16.60600 32.08700
H  -1.52800 19.32200 31.71700
H  -4.10300 19.56900 30.92100
H  -3.57000 19.94100 32.56300
H  -4.27200 18.42300 32.31800
H  0.07400 16.64100 31.74000
H  -0.99300 15.76600 32.88600
H  -1.04100 18.45200 33.66700
H  0.63300 18.14600 33.24200
H  -2.56700 23.60300 27.82700
H  -0.81700 23.39300 27.94700
H  -1.83600 22.66200 29.22100
H  -1.23700 24.30600 25.73300
H  -3.10800 24.17100 25.83400
H  -2.28900 24.79800 24.43900
H  -2.08900 17.90400 21.96000
H  -3.18700 15.31300 22.45000
H  -3.84700 18.10700 21.11000
H  -4.55300 18.60200 22.67800
H  -4.71200 16.93600 22.12900
H  -0.84100 15.92500 21.24200
H  -1.27600 14.31200 21.74700
H  0.10800 15.63000 24.04200
H  1.07000 15.82300 22.72300
H  0.51600 14.25700 23.14100
H  -2.43400 10.90200 27.22400
H  -2.03500 11.24100 25.64300
H  -3.72600 11.51700 26.11000
H  -3.25600 14.05300 31.15000
H  -0.27700 11.55800 33.03200
H  -1.54300 11.88000 34.24800
H  -0.17400 12.95600 34.22000
Mg -5.45900 25.46800 25.44600
C  -3.70000 26.95200 27.95700
C  -6.68400 23.13100 27.53500
C  -7.17800 24.24300 22.81100
C  -3.92800 27.72400 23.20400
N  -5.18000 25.14700 27.50800
C  -4.48800 25.89100 28.40500
C  -4.76900 25.44200 29.81500
C  -5.55600 24.11000 29.62300
C  -5.86000 24.15700 28.12200
C  -4.74500 22.82000 30.08900
C  -5.53600 26.58600 30.57400
C  -4.85400 26.91200 31.89100
H  -4.50000 25.83400 32.91400
N  -6.86600 23.87000 25.25500
C  -7.28700 23.09500 26.25100
C  -8.31100 22.19200 25.74600
C  -8.38100 22.39700 24.34500
C  -7.46400 23.54500 24.06300
C  -9.12900 21.31900 26.74700
C  -9.20400 21.69900 23.38300
O  -9.34100 22.09400 22.23500
C  -10.07300 20.60000 23.81500
N  -5.32300 25.74200 23.24000
C  -6.25500 25.21800 22.44400
C  -6.19000 25.80000 21.01500
C  -5.16100 26.98300 21.18900
C  -4.76600 26.83800 22.63200
C  -5.81000 24.79000 19.87800
C  -5.73200 28.40000 20.95600
C  -4.96100 29.44600 20.22100
N  -4.00000 26.92500 25.50000
C  -3.50200 27.77400 24.48100
C  -2.48300 28.66500 25.06700
C  -2.55900 28.40800 26.44400
C  -3.46100 27.34400 26.65900
C  -1.70200 29.81100 24.45300
C  -2.00700 28.67800 27.77000
O  -1.12700 29.46400 28.11200
C  -2.81000 27.80200 28.80400
C  -1.86400 27.01700 29.64300
O  -1.15100 26.09400 29.25600
O  -1.89600 27.58200 30.92200
C  -1.03000 26.93200 31.91000
H  -7.06200 22.33100 28.17500
H  -7.80900 23.86800 22.00300
H  -3.51700 28.33400 22.39800
H  -3.78300 25.28100 30.25100
H  -6.44100 24.08900 30.25900
H  -4.57200 22.09500 29.29400
H  -5.27100 22.28700 30.88200
H  -3.75600 23.11900 30.43600
H  -6.54800 26.28000 30.83900
H  -5.78100 27.43700 29.93800
H  -5.67400 27.50300 32.29800
H  -3.96500 27.50500 31.67700
H  -10.17500 21.60700 26.85000
H  -8.69700 21.31400 27.74800
H  -9.11700 20.28200 26.41300
H  -9.53500 19.81900 24.35200
H  -10.44300 20.21000 22.86700
H  -10.99800 20.90000 24.30800
H  -7.17700 26.20500 20.78900
H  -4.25600 26.78300 20.61600
H  -6.46200 23.93500 20.06000
H  -4.77800 24.44100 19.90700
H  -5.97500 25.32100 18.94100
H  -6.09000 28.93200 21.83800
H  -6.65900 28.25700 20.40100
H  -4.04900 29.06600 19.76000
H  -4.73100 30.34000 20.80100
H  -5.58900 29.82000 19.41200
H  -1.98900 30.19000 23.47200
H  -0.72500 29.42500 24.16200
H  -1.61200 30.67600 25.10900
H  -3.37700 28.47200 29.45000
H  -1.06900 27.47200 32.85600
H  -0.06200 27.19100 31.48000
H  -1.22000 25.86100 31.83700

