158

Mg 25.40900 1.54400 30.74400
C  27.59300 1.37300 33.45800
C  22.74600 1.97000 33.03500
C  23.21000 1.45500 28.11300
C  28.05800 0.83900 28.63400
N  25.15500 1.63800 32.98500
C  26.21000 1.69800 33.81300
C  25.71600 1.96000 35.22900
C  24.17400 2.13200 35.16500
C  24.00000 2.01700 33.63000
C  23.35000 0.95800 35.80200
C  26.47800 3.15600 35.92800
C  27.34200 2.87900 37.10200
H  27.18600 3.84200 38.27400
N  23.30100 1.65200 30.58500
C  22.39400 1.85000 31.59800
C  21.03300 1.93700 31.10200
C  21.17200 1.83200 29.66200
C  22.57600 1.65700 29.40300
C  19.78500 2.26600 31.91900
C  20.14100 1.85800 28.59700
O  20.26900 1.68700 27.38900
C  18.75100 1.93600 29.02400
N  25.57600 1.09000 28.70900
C  24.57400 1.18800 27.79900
C  25.13500 1.17100 26.34300
C  26.65000 1.09200 26.51200
C  26.83000 1.06600 28.02400
C  24.57800 -0.03100 25.61500
C  27.44600 2.22800 25.84500
C  28.46900 1.65500 24.87700
N  27.40900 1.14000 30.95500
C  28.35500 0.85800 30.00700
C  29.59200 0.56000 30.62000
C  29.28800 0.75300 31.99200
C  27.95800 1.07200 32.13500
C  30.97800 0.22200 30.06200
C  29.96600 0.73400 33.32400
O  31.12700 0.38600 33.56900
C  28.80900 1.10400 34.30700
C  28.67300 0.02900 35.28500
O  27.96800 -0.96500 35.14200
O  29.45000 0.23600 36.36300
C  29.18800 -0.71300 37.48500
H  22.00400 2.47300 33.65900
H  22.63400 1.68900 27.21600
H  28.98700 0.82800 28.05900
H  26.00200 1.02900 35.71900
H  23.92700 3.15000 35.46800
H  22.94700 0.28700 35.04300
H  22.50400 1.40600 36.32300
H  23.93700 0.39700 36.52900
H  25.79200 3.94300 36.24100
H  27.12100 3.56500 35.14900
H  28.36200 2.96000 36.72500
H  27.29100 1.88200 37.53900
H  19.77800 3.35000 32.03900
H  19.89100 1.88500 32.93500
H  18.84700 1.80200 31.61400
H  18.62500 1.01000 29.58500
H  18.13100 1.99700 28.13000
H  18.68300 2.82500 29.65200
H  24.81500 2.06000 25.80000
H  26.97200 0.09600 26.20900
H  24.40800 -0.89100 26.26300
H  25.28900 -0.28200 24.82800
H  23.71700 0.36500 25.07700
H  27.89600 2.78800 26.66500
H  26.79000 2.88400 25.27200
H  28.87800 0.69300 25.18500
H  29.30200 2.32400 25.08900
H  28.16700 1.66200 23.83000
H  31.19600 0.98200 29.31200
H  31.02700 -0.76500 29.60100
H  31.79500 0.18100 30.78300
H  29.21500 2.01700 34.74300
H  28.96200 -1.74800 37.22900
H  28.38100 -0.26400 38.06300
H  30.06200 -0.69400 38.13500
Mg 27.24600 50.47500 26.19800
C  25.25200 51.37800 28.98000
C  29.56200 49.44700 28.63000
C  29.39000 50.05600 23.74700
C  24.82700 51.45100 24.07800
N  27.38100 50.42300 28.54800
C  26.46500 50.86600 29.44900
C  26.84000 50.64400 30.95100
C  28.35100 50.39000 30.73800
C  28.40800 49.96200 29.22900
C  29.44700 51.54000 31.01600
C  26.06800 49.38900 31.57500
C  25.00200 49.75700 32.64500
H  25.33400 49.24200 34.08300
N  29.10400 49.62500 26.13200
C  29.91400 49.27200 27.27100
C  31.21000 48.86700 26.81100
C  31.17000 49.04600 25.35100
C  29.90300 49.60500 25.00500
C  32.36800 48.35700 27.74400
C  32.28400 48.74600 24.38300
O  32.12100 48.94200 23.17200
C  33.73100 48.28000 24.75900
N  27.19000 50.81300 24.24900
C  28.15900 50.52900 23.35100
C  27.77900 50.93700 21.85600
C  26.19800 50.96600 22.07900
C  26.05000 51.11500 23.59200
C  28.36900 52.22900 21.26100
C  25.39700 49.68100 21.63500
C  24.10000 50.01200 20.94600
N  25.37900 51.26300 26.39700
C  24.47200 51.58100 25.43100
C  23.35300 52.20200 26.11400
C  23.61600 52.11400 27.48300
C  24.87200 51.56100 27.64000
C  22.26400 52.99600 25.45600
C  23.14000 52.49300 28.71800
O  22.02800 53.01000 29.03500
C  24.05400 51.88000 29.73400
C  24.41000 52.91900 30.77900
O  25.34600 53.68700 30.77300
O  23.31800 52.96000 31.66700
C  23.49800 54.07400 32.63600
H  30.35400 49.18100 29.33300
H  30.02400 49.92600 22.86800
H  24.03100 51.74000 23.38800
H  26.76700 51.57000 31.52200
H  28.74500 49.52500 31.27000
H  30.21200 51.16800 31.69700
H  29.06100 52.48400 31.40100
H  29.92500 51.91600 30.11100
H  26.70000 48.61100 32.00200
H  25.43100 48.97800 30.79300
H  24.07200 49.30600 32.29800
H  24.82500 50.83200 32.67700
H  32.19500 48.29000 28.81800
H  33.30900 48.90100 27.65700
H  32.66500 47.35100 27.44900
H  34.25600 48.84200 25.53100
H  34.26900 48.33300 23.81200
H  33.87600 47.23800 25.04500
H  27.95700 50.15400 21.12000
H  25.83100 51.84400 21.54600
H  29.13400 52.52500 21.97900
H  27.60100 53.00000 21.19700
H  28.83100 52.03400 20.29300
H  25.16800 49.02800 22.47700
H  26.01000 48.96900 21.08300
H  23.95000 49.60300 19.94600
H  23.97100 51.08100 20.77400
H  23.24700 49.78200 21.58400
H  21.22900 52.83200 25.75600
H  22.20500 52.85500 24.37700
H  22.58000 54.00800 25.70900
H  23.59700 51.02500 30.23200
H  23.61400 54.93600 31.97800
H  24.39300 53.81800 33.20300
H  22.60300 54.08900 33.25700

