158

Mg -1.70000 17.31400 26.65400
C  -1.66300 14.98800 29.12500
C  -2.30300 19.72100 29.03800
C  -1.73600 19.56900 24.13800
C  -1.48600 14.81800 24.32400
N  -1.83700 17.36300 28.81700
C  -1.76000 16.27500 29.62000
C  -1.96900 16.76500 31.09400
C  -2.50300 18.22200 30.96300
C  -2.16500 18.45400 29.54700
C  -4.00700 18.38900 31.34400
C  -0.55100 16.63000 31.89900
C  -0.07400 17.55800 33.02300
H  0.44600 16.95600 34.36600
N  -1.92700 19.31200 26.60100
C  -2.10700 20.13100 27.69400
C  -2.16200 21.54200 27.19600
C  -1.73900 21.51400 25.82800
C  -1.76100 20.14000 25.47200
C  -2.57200 22.79500 28.12800
C  -1.54100 22.68600 24.85300
O  -1.38500 22.56400 23.61600
C  -1.50700 24.07000 25.41100
N  -1.89100 17.21000 24.48900
C  -1.78200 18.27300 23.67900
C  -1.81900 17.86900 22.14900
C  -1.62100 16.32700 22.22100
C  -1.67900 16.08200 23.81900
C  -3.09900 18.37200 21.41000
C  -0.32000 15.79800 21.50400
C  1.00900 15.95000 22.34100
N  -1.75400 15.32600 26.64200
C  -1.57100 14.42100 25.63400
C  -1.49900 13.11700 26.16200
C  -1.57200 13.27900 27.55900
C  -1.67700 14.66700 27.77900
C  -1.26700 11.76600 25.45300
C  -1.57500 12.51800 28.82200
O  -1.36300 11.32800 29.09300
C  -1.87000 13.60900 29.88200
C  -0.95800 13.35400 31.02700
O  0.26200 13.58900 30.91100
O  -1.53800 12.85600 32.14400
C  -0.65900 12.65000 33.27900
H  -2.36600 20.44400 29.85300
H  -1.71700 20.31700 23.34200
H  -1.25000 14.04100 23.59400
H  -2.62500 16.07800 31.62700
H  -1.83700 18.90300 31.49100
H  -4.56800 17.60100 31.84700
H  -4.55100 18.60800 30.42500
H  -4.14600 19.28600 31.94800
H  0.28200 16.59500 31.19700
H  -0.73700 15.64900 32.33600
H  -0.78900 18.35000 33.24500
H  0.76300 18.06400 32.54200
H  -3.03000 22.41800 29.04200
H  -3.32700 23.31900 27.54100
H  -1.62300 23.26300 28.38900
H  -0.74400 24.06200 26.19000
H  -2.47100 24.30700 25.86100
H  -1.33500 24.79400 24.61500
H  -0.94100 18.31800 21.68400
H  -2.53900 15.92200 21.79500
H  -2.77800 19.09800 20.66200
H  -3.75400 18.97000 22.04300
H  -3.65400 17.57900 20.90800
H  -0.14700 16.23400 20.52000
H  -0.50300 14.72900 21.39600
H  0.84000 16.52900 23.24900
H  1.81700 16.29700 21.69700
H  1.31300 14.95700 22.67200
H  -0.58200 11.06900 25.93400
H  -1.01300 11.84900 24.39600
H  -2.22900 11.26000 25.37200
H  -2.87600 13.43500 30.26500
H  -0.23800 13.58200 33.65700
H  0.15000 12.01100 32.92500
H  -1.19200 11.97800 33.95300
Mg 1.76300 -0.95800 43.97700
C  5.07400 -0.39900 43.12500
C  1.00000 2.00300 42.46300
C  -1.51300 -1.90000 44.08700
C  2.72000 -4.16900 44.87800
N  2.94000 0.50800 42.89500
C  4.24000 0.60700 42.60400
C  4.71600 1.85200 41.88100
C  3.41500 2.66900 42.00100
C  2.41300 1.69000 42.55800
C  3.51800 4.01100 42.74500
C  5.25200 1.54100 40.38400
C  6.47400 2.44200 40.03500
H  6.28500 3.38900 38.87700
N  0.01400 -0.12000 43.34800
C  -0.11800 1.15900 42.77600
C  -1.46200 1.53000 42.61400
C  -2.19000 0.42700 43.09200
C  -1.22500 -0.61500 43.51600
C  -1.96300 2.81600 41.93000
C  -3.71500 0.39100 43.13400
O  -4.43900 1.34900 42.82300
C  -4.50500 -0.86200 43.52600
N  0.77600 -2.76200 44.48000
C  -0.55700 -2.86900 44.49600
C  -1.03200 -4.31400 44.95600
C  0.26800 -5.04500 45.08900
C  1.31100 -3.98700 44.73300
C  -1.92900 -4.29700 46.26000
C  0.30400 -6.39000 44.18600
C  0.60000 -7.68100 44.98900
N  3.57500 -2.04300 44.17800
C  3.75000 -3.30400 44.69000
C  5.17200 -3.62500 44.68000
C  5.76400 -2.48500 44.10700
C  4.74200 -1.60000 43.74700
C  5.83100 -4.99400 45.18500
C  7.00700 -1.86400 43.71800
O  8.19100 -2.12300 43.84800
C  6.61400 -0.44900 43.00500
C  7.33300 0.50600 43.77200
O  7.05200 0.92400 44.87400
O  8.47000 0.75100 43.07100
C  9.20600 1.97900 43.48800
H  0.73500 3.02100 42.16800
H  -2.58200 -2.11600 44.03100
H  2.99000 -5.19600 45.13300
H  5.56300 2.32500 42.37800
H  2.98600 3.01300 41.06000
H  2.91900 4.04400 43.65600
H  3.08600 4.76800 42.09000
H  4.48900 4.22700 43.19000
H  4.48500 1.84300 39.67200
H  5.40700 0.46400 40.32500
H  7.34400 1.81400 39.84000
H  6.70400 3.05300 40.90700
H  -3.00500 3.03600 42.15900
H  -1.89100 2.83900 40.84300
H  -1.29600 3.59200 42.30400
H  -5.56900 -0.65000 43.41900
H  -4.31000 -0.93700 44.59600
H  -4.24700 -1.75400 42.95600
H  -1.69700 -4.70300 44.18400
H  0.35800 -5.19900 46.16400
H  -1.55100 -4.96000 47.03800
H  -2.84100 -4.77600 45.90400
H  -2.18100 -3.30100 46.62400
H  1.02500 -6.17600 43.39700
H  -0.66700 -6.54300 43.71500
H  1.43800 -8.23100 44.56300
H  -0.26300 -8.33300 45.12900
H  0.86700 -7.27500 45.96500
H  6.91400 -4.87500 45.18500
H  5.60700 -5.68200 44.37000
H  5.52700 -5.36000 46.16600
H  6.92700 -0.40900 41.96200
H  10.14100 1.66400 43.95000
H  8.68300 2.47800 44.30500
H  9.47000 2.71800 42.73200

