158

Mg 25.66400 0.13000 29.18700
C  27.77700 -0.64700 31.95600
C  23.06800 0.59300 31.24800
C  23.90500 0.45000 26.49900
C  28.50400 -0.87600 27.17200
N  25.51500 0.02400 31.31800
C  26.48900 -0.22300 32.33100
C  25.96600 -0.07600 33.76900
C  24.47500 0.38000 33.43000
C  24.30600 0.30800 31.90100
C  23.39900 -0.27900 34.29000
C  26.77600 1.00700 34.65300
C  27.48100 0.56200 35.85000
H  27.36400 1.45900 37.06900
N  23.78700 0.51200 28.88700
C  22.83200 0.74200 29.84400
C  21.56300 1.05300 29.17900
C  21.88000 1.23200 27.81500
C  23.22800 0.67000 27.65300
C  20.26200 1.31200 30.04000
C  21.06000 1.75900 26.64300
O  21.48000 1.94000 25.50900
C  19.59900 1.94400 26.89800
N  26.19100 -0.06700 27.11200
C  25.22300 0.17300 26.18200
C  25.78000 0.02600 24.71500
C  27.30600 -0.09600 24.99100
C  27.37400 -0.32100 26.51600
C  25.02700 -1.09300 23.95400
C  28.17100 1.12700 24.50200
C  28.07100 2.45900 25.35200
N  27.65400 -0.92500 29.43900
C  28.68700 -1.18500 28.54600
C  29.87000 -1.72200 29.23800
C  29.53600 -1.54000 30.61200
C  28.21900 -0.96000 30.63500
C  31.14000 -2.27100 28.61000
C  30.04100 -1.66200 32.01500
O  31.14800 -1.98200 32.41900
C  28.82800 -1.09000 32.88700
C  28.48700 -2.12100 33.85600
O  27.61600 -2.93300 33.87400
O  29.37600 -1.98500 34.86000
C  29.13900 -2.74400 36.08800
H  22.19700 0.83400 31.86000
H  23.28300 0.73800 25.64800
H  29.32500 -1.19600 26.52700
H  25.82500 -1.01300 34.30600
H  24.33600 1.44400 33.61700
H  22.94100 -1.03000 33.64700
H  22.65200 0.50700 34.40400
H  23.70500 -0.69700 35.24900
H  26.05000 1.72500 35.03400
H  27.42000 1.58900 33.99400
H  28.51300 0.44700 35.51900
H  26.99600 -0.38900 36.06800
H  20.00700 2.37100 30.01100
H  20.33300 0.83500 31.01700
H  19.44000 0.82300 29.51800
H  19.15100 2.12300 25.92000
H  19.67500 2.90600 27.40600
H  19.15500 1.08200 27.39400
H  25.68600 0.95400 24.15100
H  27.60500 -1.05100 24.55900
H  24.09000 -1.12700 24.50900
H  25.54500 -2.05000 24.01200
H  24.66600 -0.92000 22.94000
H  27.93500 1.42700 23.48100
H  29.18400 0.75200 24.65100
H  27.35200 2.40500 26.16900
H  27.70600 3.22600 24.66900
H  29.02200 2.82900 25.73500
H  32.04900 -1.94700 29.11700
H  31.12800 -2.02200 27.54800
H  31.07300 -3.35100 28.47900
H  29.20600 -0.23600 33.45000
H  29.37000 -3.80300 35.97500
H  28.08400 -2.90600 36.30900
H  29.60000 -2.29500 36.96700
Mg 47.30300 45.41400 42.45500
C  43.94600 44.68000 42.27400
C  47.93000 42.05600 42.12500
C  50.45000 46.24000 41.63600
C  46.50900 48.92000 42.51400
N  46.05600 43.56300 42.11500
C  44.71500 43.45600 42.22300
C  44.19200 42.05200 42.33800
C  45.54000 41.31200 42.71900
C  46.59000 42.37500 42.37800
C  45.58200 40.77400 44.20500
C  43.50600 41.49500 41.08200
C  43.75000 42.18500 39.73600
H  43.28000 41.40600 38.51600
N  48.97200 44.33700 41.88200
C  49.01000 42.95500 41.79600
C  50.31300 42.54300 41.28200
C  51.15300 43.69800 41.21200
C  50.20700 44.82400 41.59900
C  50.77500 41.11300 41.16300
C  52.60400 43.71900 40.76300
O  53.22400 42.68900 40.51100
C  53.39500 44.98700 40.85000
N  48.31900 47.27400 42.12800
C  49.61900 47.35700 41.88200
C  50.13000 48.84000 41.95200
C  48.88800 49.55500 42.52200
C  47.83100 48.52800 42.30400
C  51.47100 49.13000 42.66500
C  48.56900 50.97400 41.84300
C  48.38700 52.19700 42.83700
N  45.64600 46.55000 42.31400
C  45.51600 47.94600 42.33800
C  44.00700 48.21000 42.41800
C  43.46000 46.96700 42.38500
C  44.43300 46.03300 42.28000
C  43.26100 49.54400 42.39500
C  42.13000 46.28400 42.45100
O  41.06000 46.80400 42.55000
C  42.45700 44.80300 42.40900
C  41.85900 44.03700 43.61500
O  41.09900 43.04500 43.60300
O  42.28200 44.70000 44.72200
C  41.87700 44.04900 45.96700
H  48.32400 41.03900 42.17000
H  51.39400 46.56900 41.19700
H  46.14900 49.94300 42.64200
H  43.50200 41.97200 43.17800
H  45.71900 40.56500 41.94600
H  46.42300 41.25500 44.70500
H  45.67200 39.68900 44.25800
H  44.61200 41.00700 44.64300
H  42.42400 41.45800 41.21000
H  43.72000 40.44000 40.91100
H  44.82200 42.24400 39.54900
H  43.34300 43.19600 39.75300
H  49.98000 40.49500 40.74500
H  51.25900 40.65500 42.02600
H  51.57800 41.16200 40.42700
H  53.06700 45.63600 40.03800
H  54.44300 44.80100 40.61300
H  53.31400 45.43300 41.84100
H  50.15700 49.16000 40.91000
H  49.02100 49.83200 43.56800
H  51.35000 49.82400 43.49800
H  52.20600 49.64500 42.04700
H  51.90000 48.18800 43.00500
H  47.67800 50.88900 41.22100
H  49.26300 51.22400 41.04100
H  49.08800 53.02000 42.69400
H  48.38100 51.88300 43.88100
H  47.40100 52.60400 42.61200
H  43.51200 50.09100 43.30500
H  42.20000 49.38300 42.58900
H  43.46900 50.07500 41.46600
H  41.86600 44.47500 41.55400
H  42.23800 43.02400 46.05000
H  40.79100 44.10900 46.03500
H  42.39000 44.51100 46.81100

