158

Mg 30.50000 57.98400 40.43800
C  27.79900 55.99900 39.18500
C  32.69400 55.49800 39.28400
C  33.03400 60.15000 40.87800
C  28.19200 60.57700 40.95000
N  30.23900 55.98300 39.31600
C  29.08300 55.36200 39.09200
C  29.38200 53.92400 38.46700
C  30.87700 53.72500 38.80400
C  31.33200 55.16400 39.19100
C  31.24500 52.73400 39.85100
C  29.12700 53.80500 36.86800
C  28.08700 52.92200 36.34700
H  27.06600 53.61400 35.43100
N  32.54100 57.87000 40.08900
C  33.29200 56.76600 39.64300
C  34.76400 57.10500 39.64400
C  34.83600 58.43600 40.18100
C  33.40100 58.90600 40.35600
C  35.89300 56.18800 39.24800
C  36.16700 59.16100 40.48600
O  37.17800 58.62600 40.13900
C  36.27100 60.31100 41.34500
N  30.62500 60.09900 40.91500
C  31.78900 60.71800 41.03800
C  31.61400 62.25100 41.27400
C  30.04200 62.37200 41.27600
C  29.58700 60.93300 41.10500
C  32.31300 62.76800 42.53200
C  29.43600 63.41300 40.22900
C  29.21900 64.80200 40.71400
N  28.38700 58.28200 40.21000
C  27.59400 59.40100 40.47800
C  26.17700 59.07200 40.25400
C  26.21000 57.75600 39.75100
C  27.58700 57.35500 39.72000
C  24.92800 59.86500 40.58000
C  25.39700 56.61600 39.34000
O  24.19400 56.48200 39.34100
C  26.37300 55.44100 39.07100
C  26.14800 54.30500 40.03300
O  26.45700 54.35500 41.24500
O  25.60800 53.23800 39.42700
C  25.37800 52.09400 40.35600
H  33.46900 54.73700 39.17500
H  33.77400 60.95200 40.90600
H  27.53200 61.44000 41.05600
H  28.70100 53.23400 38.96500
H  31.45800 53.45100 37.92400
H  30.30500 52.25700 40.12700
H  31.68500 53.06200 40.79300
H  31.91600 51.94000 39.52500
H  29.99800 53.30200 36.44700
H  29.05600 54.82700 36.49500
H  27.45500 52.52900 37.14400
H  28.53200 52.04400 35.87800
H  36.69600 55.98600 39.95600
H  36.33200 56.51400 38.30500
H  35.47900 55.19900 39.05400
H  35.40400 60.24600 42.00200
H  36.31300 61.22500 40.75300
H  37.10200 60.25700 42.04800
H  31.95200 62.84400 40.42400
H  29.72500 62.69800 42.26600
H  31.53900 63.21900 43.15200
H  33.20800 63.37800 42.40900
H  32.72500 61.89500 43.03900
H  28.48900 63.03700 39.84100
H  30.06800 63.46500 39.34300
H  30.03200 65.44100 40.37100
H  29.20400 64.87500 41.80100
H  28.39200 65.30900 40.21600
H  25.23000 60.65500 41.26700
H  24.11700 59.28300 41.01800
H  24.53900 60.39800 39.71200
H  26.14200 55.05700 38.07800
H  26.17300 51.91800 41.08100
H  25.38100 51.27700 39.63400
H  24.46600 52.14000 40.95100
Mg -2.70300 34.71000 26.59100
C  -3.97900 32.85200 29.42200
C  -1.13000 36.70500 29.03300
C  -2.08500 36.80800 24.23300
C  -4.59900 32.69900 24.50700
N  -2.58400 34.77900 29.02400
C  -3.11800 33.85100 29.90900
C  -2.61900 34.06300 31.32000
C  -1.84600 35.37200 31.16600
C  -1.82900 35.67000 29.67900
C  -2.36600 36.52000 32.02200
C  -1.66100 32.89600 32.00500
C  -2.10400 32.33100 33.37200
H  -1.25400 32.24000 34.62700
N  -1.67200 36.50000 26.57700
C  -1.16200 37.17700 27.64900
C  -0.37200 38.28900 27.17700
C  -0.61300 38.29900 25.75000
C  -1.50700 37.18200 25.43300
C  0.62600 39.03000 28.06600
C  -0.26900 39.32600 24.69500
O  -0.59100 39.21900 23.52900
C  0.53200 40.48900 25.17100
N  -3.35700 34.80400 24.73700
C  -2.85000 35.74700 23.82500
C  -3.28000 35.51700 22.37000
C  -3.86200 34.08600 22.53100
C  -4.03000 33.87700 24.02200
C  -4.25600 36.65000 21.89200
C  -2.87600 33.00900 21.93600
C  -3.38500 32.08800 20.84100
N  -4.01900 33.11500 26.87000
C  -4.68000 32.33900 25.93200
C  -5.38800 31.28300 26.52500
C  -5.16400 31.46700 27.87500
C  -4.39400 32.63500 28.09800
C  -6.18900 30.22800 25.82300
C  -5.54400 30.93600 29.12300
O  -6.13900 29.96900 29.42600
C  -4.76500 31.75500 30.23700
C  -5.78700 32.43200 31.06200
O  -6.71600 33.02500 30.55400
O  -5.57700 32.25800 32.43900
C  -6.58400 32.87900 33.30900
H  -0.61800 37.36100 29.74000
H  -1.94900 37.47100 23.37600
H  -5.22300 32.01500 23.93000
H  -3.44200 34.21800 32.01700
H  -0.82200 35.21800 31.50600
H  -2.87400 36.23800 32.94400
H  -3.06000 37.13100 31.44400
H  -1.47400 37.03800 32.37200
H  -0.65700 33.30400 32.12300
H  -1.67800 32.05400 31.31200
H  -2.33500 31.29400 33.12800
H  -3.06000 32.76100 33.66800
H  0.23200 39.97100 28.45000
H  1.63500 39.17200 27.67700
H  0.86700 38.39300 28.91700
H  0.71000 41.04400 24.25000
H  1.41800 40.02200 25.59900
H  -0.13000 40.98200 25.88400
H  -2.44100 35.56000 21.67600
H  -4.88900 33.94200 22.19700
H  -4.56800 37.38600 22.63300
H  -5.23000 36.28500 21.56300
H  -3.85100 37.23200 21.06400
H  -2.55500 32.44800 22.81300
H  -1.91800 33.40700 21.60200
H  -3.76000 31.17200 21.29700
H  -2.56200 31.83300 20.17400
H  -4.24600 32.43700 20.27000
H  -5.75700 29.24300 26.00200
H  -6.26400 30.31300 24.73900
H  -7.18700 30.31100 26.25400
H  -4.14200 31.11100 30.85700
H  -7.41200 33.37900 32.80700
H  -6.08000 33.55800 33.99600
H  -7.04800 32.03200 33.81400

