158

Mg 47.23600 25.59600 27.63400
C  48.41600 27.61400 30.34300
C  46.39300 23.13200 30.12900
C  46.81900 23.32100 25.15900
C  48.76500 27.70000 25.56600
N  47.36900 25.41700 30.03800
C  47.79100 26.46500 30.87100
C  47.51200 26.09900 32.30200
C  46.92700 24.61000 32.23900
C  46.88600 24.35700 30.75900
C  47.77400 23.60500 32.96700
C  46.57700 27.17200 32.95700
C  47.16500 27.92000 34.17800
H  46.23500 28.07500 35.30200
N  46.58000 23.50100 27.66000
C  46.26100 22.68600 28.77400
C  45.72600 21.42700 28.22100
C  45.81500 21.56900 26.78500
C  46.40400 22.85100 26.48100
C  45.12000 20.34100 29.02900
C  45.33700 20.46000 25.75300
O  45.33300 20.65300 24.54600
C  44.91500 19.06700 26.14400
N  47.87800 25.46200 25.69100
C  47.50100 24.44300 24.84200
C  47.90300 24.73700 23.39700
C  48.24000 26.27800 23.56500
C  48.23400 26.50800 25.00900
C  49.22600 23.85400 23.04300
C  47.19500 27.18600 22.83400
C  45.83300 27.24100 23.60400
N  48.37700 27.31000 27.81900
C  48.83800 28.12900 26.87900
C  49.49500 29.31700 27.46100
C  49.32700 29.12700 28.80100
C  48.68000 27.89300 28.99200
C  50.27200 30.49100 26.74900
C  49.66200 29.66500 30.11500
O  50.27700 30.67400 30.42000
C  49.06900 28.64100 31.16900
C  50.17300 28.16400 32.01000
O  50.98600 27.32700 31.66400
O  50.33100 28.92800 33.12800
C  51.61700 28.73200 33.85700
H  45.98800 22.41000 30.84100
H  46.62800 22.61600 24.34800
H  49.04700 28.50600 24.88500
H  48.44700 26.03600 32.85800
H  45.94300 24.71000 32.69600
H  47.15100 22.76000 33.25900
H  48.36800 24.06200 33.75800
H  48.44300 23.14900 32.23700
H  45.56800 26.82000 33.17300
H  46.31400 27.93300 32.22100
H  47.40300 28.93400 33.85600
H  48.12700 27.51600 34.49100
H  45.21400 20.47400 30.10600
H  45.69400 19.44700 28.78700
H  44.06300 20.35200 28.76200
H  45.80200 18.59000 26.56000
H  44.83800 18.40300 25.28300
H  44.05400 19.06600 26.81300
H  47.09900 24.45500 22.71800
H  49.25400 26.40800 23.18500
H  50.11100 24.45700 22.84200
H  48.92700 23.19600 22.22700
H  49.44100 23.38700 24.00500
H  46.89500 26.76500 21.87500
H  47.63900 28.17100 22.69100
H  45.82200 27.97600 24.40900
H  45.65300 26.28700 24.09900
H  45.02300 27.30100 22.87700
H  50.92000 30.09600 25.96600
H  50.87400 30.98900 27.50900
H  49.52300 31.10000 26.24200
H  48.41400 29.20400 31.83400
H  51.52100 28.13600 34.76400
H  51.91800 29.70600 34.24400
H  52.51800 28.47800 33.29800
Mg 10.19600 46.53500 26.33200
C  8.39900 46.97600 29.24000
C  12.73100 48.32900 27.87100
C  12.03400 46.36100 23.49500
C  7.36000 45.77100 24.51600
N  10.52500 47.41200 28.33300
C  9.74700 47.22800 29.43800
C  10.46800 47.50300 30.71300
C  11.73200 48.33100 30.22000
C  11.70100 47.97600 28.72700
C  11.74000 49.87100 30.45200
C  10.78600 46.39100 31.66100
C  10.03400 46.41500 32.98400
H  9.98700 45.20600 33.91300
N  12.20900 47.15500 25.72800
C  13.05300 47.93000 26.50400
C  14.26500 48.23100 25.79200
C  14.09400 47.59600 24.46200
C  12.76100 47.05400 24.51200
C  15.48900 48.82000 26.47600
C  15.05500 47.47800 23.30000
O  14.72000 47.00300 22.24400
C  16.43500 48.25800 23.35100
N  9.78900 46.10200 24.28500
C  10.77100 45.92600 23.31800
C  10.21900 45.29800 22.07200
C  8.76000 44.89600 22.50500
C  8.63400 45.58300 23.86800
C  10.31600 46.06200 20.68600
C  8.60800 43.34200 22.56200
C  8.62000 42.49400 23.82600
N  8.27700 46.45900 26.70600
C  7.20300 46.16400 25.87500
C  5.98100 46.29800 26.74600
C  6.47200 46.47200 28.01300
C  7.82500 46.63400 27.93400
C  4.57700 46.12600 26.21300
C  6.00500 46.57100 29.39300
O  4.91800 46.43600 29.91700
C  7.27000 46.69000 30.21500
C  7.39800 45.38600 30.84300
O  7.95100 44.41800 30.35500
O  6.70100 45.39100 32.00200
C  6.96500 44.28700 32.97700
H  13.45300 49.05300 28.25300
H  12.63600 46.17600 22.60300
H  6.46200 45.45500 23.98100
H  9.78700 48.17900 31.22900
H  12.60000 47.95600 30.76100
H  12.48400 50.00700 31.23700
H  10.80800 50.08900 30.97300
H  11.81700 50.42900 29.51900
H  11.84400 46.36900 31.92100
H  10.52200 45.39100 31.31700
H  9.07000 46.87500 32.76900
H  10.61300 47.20000 33.47000
H  15.67900 49.79100 26.02000
H  16.30700 48.11900 26.30800
H  15.31700 48.79400 27.55200
H  16.97000 47.99300 24.26300
H  16.00900 49.23300 23.11500
H  17.02800 47.92500 22.49900
H  10.81300 44.40900 21.86200
H  7.93700 45.36400 21.96600
H  9.35900 46.04200 20.16500
H  11.02300 45.59700 19.99800
H  10.58000 47.11800 20.74300
H  9.37400 42.83200 21.97800
H  7.72200 43.11400 21.97000
H  9.00900 43.08200 24.65700
H  9.20200 41.58400 23.67800
H  7.58000 42.35100 24.12200
H  4.06400 47.07300 26.37800
H  4.08100 45.29100 26.70800
H  4.76000 45.87000 25.16900
H  7.24900 47.48000 30.96500
H  7.06800 44.84400 33.90900
H  7.70800 43.53700 32.70700
H  6.04000 43.71100 33.02000

