158

Mg 26.29700 50.93200 25.56600
C  24.20700 52.02800 28.18000
C  28.70800 50.19800 27.90300
C  28.53000 50.46200 22.99800
C  24.00100 52.01900 23.26600
N  26.43500 51.20100 27.87800
C  25.41600 51.53700 28.69000
C  25.74200 51.19800 30.12900
C  27.31900 50.88400 30.08800
C  27.50800 50.69200 28.54200
C  28.33500 51.95300 30.67900
C  24.94300 50.07500 30.91300
C  24.19800 50.43900 32.18000
H  25.03500 50.96300 33.28800
N  28.29500 50.29500 25.40600
C  29.08600 50.08800 26.52000
C  30.41000 49.64100 26.06100
C  30.43800 49.70900 24.65700
C  29.09200 50.19300 24.28100
C  31.39000 49.19600 27.11300
C  31.46800 49.34600 23.67400
O  31.36800 49.52500 22.47900
C  32.74300 48.75500 24.10100
N  26.25200 51.09200 23.43800
C  27.26800 50.91100 22.59700
C  26.81500 50.88300 21.10300
C  25.38900 51.49100 21.22300
C  25.18100 51.49000 22.75200
C  27.80800 51.72100 20.31600
C  24.37000 50.58900 20.43800
C  23.09700 51.24500 19.91500
N  24.49200 51.91400 25.63100
C  23.65600 52.26000 24.65200
C  22.45000 52.90700 25.28300
C  22.61100 52.81000 26.62100
C  23.91600 52.24300 26.80200
C  21.32100 53.49400 24.39700
C  21.97600 53.13700 27.86800
O  20.94800 53.66800 28.12400
C  22.97900 52.60100 28.94000
C  23.32800 53.73400 29.83000
O  24.08400 54.69400 29.67300
O  22.49900 53.61800 30.93500
C  22.91500 54.30900 32.11700
H  29.36400 49.91600 28.72900
H  29.17700 50.32100 22.13000
H  23.30600 52.32500 22.48200
H  25.53100 52.08700 30.72300
H  27.40700 49.99900 30.71900
H  28.35000 51.80000 31.75800
H  27.84100 52.89700 30.44900
H  29.23000 52.05100 30.06500
H  25.51200 49.19100 31.20100
H  24.19200 49.77500 30.18200
H  23.88700 49.46700 32.56400
H  23.32500 51.06800 32.00400
H  31.52400 49.72800 28.05500
H  32.39600 49.17600 26.69500
H  31.15600 48.14700 27.29600
H  33.38300 48.59900 23.23300
H  32.53000 47.84000 24.65400
H  33.26400 49.46300 24.74500
H  26.79700 49.85000 20.75700
H  25.33800 52.48300 20.77600
H  28.27100 52.58900 20.78500
H  27.32200 51.99100 19.37900
H  28.63800 51.06600 20.04900
H  24.18200 49.78500 21.14900
H  24.89000 50.17200 19.57600
H  23.06000 51.00600 18.85200
H  22.94000 52.31900 20.00700
H  22.25500 50.76100 20.40900
H  20.33100 53.34700 24.83000
H  21.50800 53.05100 23.41800
H  21.58400 54.52800 24.17500
H  22.48300 51.76600 29.43400
H  22.42300 53.77200 32.92800
H  22.61100 55.35600 32.15000
H  23.99900 54.20900 32.17800
Mg -1.62200 34.81200 26.86200
C  -3.31900 32.92900 29.38700
C  -0.78000 36.99100 29.32000
C  -0.60400 36.81900 24.40100
C  -3.16300 32.72000 24.43600
N  -2.05100 34.96200 29.12100
C  -2.65500 34.03600 29.91700
C  -2.51400 34.37200 31.35500
C  -1.92000 35.82100 31.31300
C  -1.56900 35.99700 29.83700
C  -2.83000 36.92000 31.96500
C  -1.55700 33.32700 32.06200
C  -2.06400 32.40500 33.19600
H  -1.04600 32.35000 34.42200
N  -0.69400 36.54700 26.87000
C  -0.39100 37.28600 27.97200
C  0.39900 38.47900 27.53300
C  0.32400 38.47400 26.11800
C  -0.31700 37.27900 25.74600
C  1.18600 39.39700 28.46200
C  1.07800 39.40100 25.14600
O  0.96800 39.32400 23.90900
C  1.92700 40.50400 25.56600
N  -1.92900 34.83000 24.71700
C  -1.25800 35.66900 23.92800
C  -1.43400 35.30100 22.43500
C  -2.04400 33.91500 22.47400
C  -2.44700 33.80600 23.94500
C  -2.30800 36.34500 21.66900
C  -1.05400 32.76400 22.07000
C  0.13800 32.51600 23.01800
N  -2.86000 33.05300 26.85900
C  -3.46600 32.38400 25.78800
C  -4.23800 31.23200 26.32200
C  -4.21600 31.44800 27.71700
C  -3.41000 32.57000 28.00400
C  -5.04800 30.37700 25.51400
C  -4.68300 30.95300 28.98500
O  -5.38800 29.92200 29.15800
C  -4.03400 31.75600 30.08900
C  -5.05400 32.11900 31.11400
O  -5.96500 32.88100 30.91000
O  -5.00700 31.23700 32.15000
C  -6.13300 31.35100 33.08700
H  -0.38400 37.62800 30.11400
H  -0.26000 37.32300 23.49500
H  -3.51200 32.03900 23.65800
H  -3.50300 34.43300 31.80900
H  -1.02300 35.91800 31.92400
H  -2.28500 37.36000 32.80000
H  -3.82700 36.63300 32.29700
H  -2.96700 37.60200 31.12500
H  -0.65400 33.81400 32.42900
H  -0.90800 32.84800 31.32900
H  -2.25900 31.38700 32.86100
H  -2.98600 32.91800 33.47000
H  2.23400 39.47400 28.17000
H  1.13400 38.90800 29.43500
H  0.81300 40.40800 28.62200
H  2.21800 41.04200 24.66400
H  2.90900 40.13400 25.86100
H  1.52100 41.20500 26.29600
H  -0.40500 35.30400 22.07700
H  -2.93500 33.75900 21.86600
H  -3.18700 35.85400 21.25200
H  -1.63900 36.71500 20.89300
H  -2.50900 37.22200 22.28600
H  -0.59600 33.00100 21.11000
H  -1.67700 31.88000 21.93300
H  1.03400 32.65200 22.41200
H  0.21800 31.46300 23.28800
H  0.11800 33.14400 23.90900
H  -4.93900 29.44200 26.06400
H  -4.52600 30.02500 24.62400
H  -6.11300 30.57600 25.39600
H  -3.37400 31.13400 30.69400
H  -5.90100 32.09900 33.84500
H  -6.26300 30.38500 33.57500
H  -7.06500 31.66900 32.62000

