158

Mg 36.57200 49.18400 25.10600
C  36.65200 47.25800 28.08900
C  35.17600 51.87700 27.01900
C  35.84300 50.87000 22.35400
C  37.67500 46.46700 23.32300
N  36.01000 49.48600 27.30300
C  36.22200 48.54200 28.32800
C  35.96700 49.19600 29.67300
C  35.31100 50.57400 29.33000
C  35.48100 50.67100 27.78900
C  33.80700 50.79400 29.83000
C  37.34300 49.44800 30.44000
C  37.32800 49.10800 31.91100
H  36.00500 49.32700 32.68200
N  35.67100 51.11000 24.68600
C  35.19300 52.01200 25.62200
C  34.73500 53.13900 24.91200
C  34.99500 52.92800 23.56700
C  35.47600 51.54500 23.51800
C  34.17400 54.38000 25.53000
C  34.88200 53.85900 22.32900
O  35.02000 53.44100 21.18300
C  34.55700 55.22800 22.50200
N  36.71500 48.76900 23.05100
C  36.37200 49.63300 22.09600
C  36.92800 49.11200 20.73000
C  37.59000 47.79700 21.06300
C  37.37000 47.68100 22.54300
C  35.79400 49.11500 19.61500
C  39.05400 47.59800 20.60000
C  40.13300 48.45900 21.31600
N  36.93700 47.29800 25.57400
C  37.47000 46.31100 24.70500
C  37.92700 45.14100 25.55500
C  37.37800 45.39600 26.81100
C  36.90200 46.77900 26.79100
C  38.44400 43.83200 25.07500
C  37.27700 44.86500 28.14200
O  37.53600 43.72900 28.51200
C  36.84800 46.06500 29.00600
C  35.52900 45.78600 29.76500
O  34.44800 45.83400 29.23200
O  35.82200 45.36300 31.06600
C  34.64900 45.12100 31.88500
H  34.73200 52.70400 27.57600
H  35.69400 51.26500 21.34700
H  38.21200 45.71300 22.74500
H  35.26400 48.64500 30.29700
H  35.86600 51.36500 29.83400
H  33.26000 49.89400 30.11000
H  33.29900 51.09500 28.91400
H  33.63800 51.64000 30.49600
H  37.71800 50.47100 30.46800
H  38.05500 48.72400 30.04400
H  37.93200 49.73300 32.57000
H  37.57500 48.06000 32.07600
H  33.69100 54.19000 26.48800
H  33.34500 54.63300 24.87000
H  34.86600 55.22100 25.58600
H  33.50600 55.25900 22.79200
H  34.57100 55.68200 21.51200
H  35.26300 55.75300 23.14600
H  37.76900 49.78500 20.56700
H  36.98900 47.04200 20.55600
H  35.80800 50.01200 18.99600
H  34.85100 49.16000 20.15900
H  35.86200 48.24000 18.96800
H  39.06600 48.00100 19.58800
H  39.43300 46.57800 20.65000
H  40.85400 48.94000 20.65400
H  40.78800 47.83400 21.92300
H  39.67500 49.23700 21.92700
H  39.48600 43.98100 24.79400
H  37.88200 43.58900 24.17300
H  38.39200 43.11100 25.89100
H  37.56300 46.30200 29.79400
H  33.93000 45.93900 31.84500
H  34.95500 45.07700 32.93000
H  34.13100 44.21800 31.56200
Mg 26.68300 50.32900 26.65500
C  24.66600 51.27300 29.25300
C  28.92800 49.04600 28.85400
C  28.86000 49.96500 24.19400
C  24.39800 51.83700 24.47600
N  26.68300 50.11500 28.75500
C  25.74400 50.52300 29.68500
C  26.22700 50.38800 31.15700
C  27.63000 49.81700 30.88500
C  27.74200 49.62000 29.44000
C  28.84000 50.55400 31.37600
C  25.26200 49.61800 32.02800
C  24.92800 50.29700 33.43200
H  25.96400 50.94700 34.32600
N  28.60100 49.39900 26.51100
C  29.35500 48.99500 27.56300
C  30.71600 48.74200 27.12100
C  30.67600 49.10100 25.74600
C  29.36100 49.56500 25.41600
C  31.89800 48.39200 28.04200
C  31.85800 49.18100 24.74900
O  31.70600 49.67800 23.64200
C  33.30500 48.89900 25.26600
N  26.71400 51.00900 24.57600
C  27.68300 50.53700 23.72600
C  27.30500 50.94800 22.28400
C  25.80000 51.39000 22.40300
C  25.57000 51.37100 23.95300
C  28.28000 51.90900 21.67200
C  24.78800 50.44800 21.66400
C  23.94600 51.06600 20.47000
N  24.92600 51.35800 26.76700
C  24.07400 51.92000 25.82600
C  23.03700 52.65000 26.40500
C  23.23900 52.46000 27.77900
C  24.39300 51.65000 27.94900
C  22.04800 53.56600 25.82200
C  22.80300 52.82100 29.03500
O  21.98500 53.70000 29.30400
C  23.75300 52.09600 30.11600
C  24.62200 53.21500 30.80700
O  25.52800 53.80800 30.25400
O  24.33600 53.37300 32.14500
C  25.14400 54.42400 32.81800
H  29.68500 48.68200 29.55300
H  29.51600 49.81900 23.33400
H  23.71100 52.31100 23.77200
H  26.35400 51.36900 31.61400
H  27.72500 48.95700 31.54800
H  29.62900 49.84200 31.62100
H  28.70600 51.07500 32.32400
H  29.25400 51.26900 30.66400
H  25.79400 48.71500 32.32700
H  24.37100 49.39200 31.44300
H  24.52500 49.43700 33.96600
H  24.10400 50.97900 33.22200
H  32.17900 47.33900 28.02300
H  31.54500 48.40700 29.07300
H  32.86700 48.88000 27.93600
H  33.95300 49.19800 24.44200
H  33.41100 47.89200 25.67200
H  33.51200 49.65300 26.02500
H  27.22000 50.00300 21.74800
H  25.74200 52.43800 22.11100
H  29.06500 51.76000 22.41300
H  27.94900 52.91400 21.40700
H  28.52700 51.45300 20.71400
H  24.06800 50.06500 22.38600
H  25.27000 49.65600 21.09000
H  23.79900 52.09700 20.79200
H  23.03500 50.48400 20.33200
H  24.52100 50.92100 19.55600
H  22.34400 54.57700 26.10100
H  21.09600 53.37500 26.31800
H  21.97800 53.37600 24.75100
H  23.15900 51.50300 30.81100
H  26.22800 54.36400 32.71700
H  24.73400 54.29500 33.82000
H  24.83200 55.38900 32.42000

