158

Mg 16.55500 -1.33800 27.93200
C  15.27700 0.54300 30.73600
C  18.61900 -3.02800 29.95400
C  17.60100 -2.81000 25.17500
C  14.53000 0.83800 25.95000
N  16.98100 -1.10100 30.10700
C  16.31200 -0.41100 31.04500
C  16.85100 -0.68900 32.45300
C  17.94100 -1.76800 32.21700
C  17.88500 -1.99900 30.67000
C  19.37900 -1.33800 32.63800
C  15.62000 -1.28500 33.36500
C  15.30900 -0.70400 34.75000
H  16.32500 0.15600 35.46400
N  17.75400 -2.77000 27.64300
C  18.57600 -3.36700 28.56400
C  19.38800 -4.42500 27.97800
C  19.13500 -4.35700 26.60200
C  18.14500 -3.27600 26.42100
C  20.24100 -5.37800 28.83200
C  19.94700 -5.01200 25.46500
O  19.68400 -4.80200 24.29400
C  20.93100 -6.06000 25.85700
N  16.16300 -0.88000 25.84400
C  16.71000 -1.75500 24.95700
C  16.37000 -1.24800 23.53100
C  15.06500 -0.34100 23.79400
C  15.26300 -0.07800 25.26500
C  17.50900 -0.48700 22.79300
C  13.71700 -1.09200 23.51100
C  12.67400 -0.11500 22.91200
N  15.33100 0.45800 28.21400
C  14.55800 1.14500 27.31900
C  13.64000 2.02800 27.98600
C  13.87700 1.86900 29.33500
C  14.92800 0.90300 29.44700
C  12.69400 3.06900 27.40500
C  13.55500 2.30400 30.67400
O  12.82800 3.17500 31.03400
C  14.45400 1.41800 31.63800
C  15.32800 2.42000 32.23700
O  16.43900 2.80900 31.82800
O  14.80300 2.90200 33.39700
C  15.66600 3.88800 34.02900
H  19.22100 -3.65500 30.61500
H  17.86800 -3.42300 24.31100
H  13.84100 1.49500 25.41600
H  17.23100 0.21900 32.92100
H  17.74700 -2.74900 32.65000
H  19.98600 -1.45400 31.74100
H  19.66600 -1.92700 33.50900
H  19.52300 -0.28300 32.87200
H  15.62500 -2.36900 33.48300
H  14.76000 -1.32200 32.69600
H  15.08100 -1.60300 35.32200
H  14.38900 -0.12100 34.80400
H  19.85100 -6.39600 28.84400
H  20.34100 -5.23500 29.90800
H  21.28600 -5.37700 28.52100
H  21.78200 -5.60800 26.36800
H  21.30900 -6.38900 24.88900
H  20.44900 -6.86600 26.41000
H  16.17300 -2.15000 22.95200
H  15.21200 0.54800 23.18100
H  17.06900 0.45100 22.45300
H  17.77100 -1.14200 21.96200
H  18.38700 -0.32100 23.41700
H  13.32200 -1.77600 24.26100
H  13.87300 -1.81400 22.70900
H  11.91400 -0.84900 22.64600
H  12.97400 0.54700 22.09900
H  12.26800 0.47400 23.73500
H  11.86600 2.93300 28.10100
H  12.30400 2.73300 26.44500
H  13.19900 4.03500 27.37000
H  13.82600 0.95500 32.39800
H  16.13400 4.57400 33.32200
H  16.45800 3.39800 34.59400
H  15.05300 4.35300 34.80100
Mg 54.43400 24.46700 44.55900
C  51.60900 26.34400 43.91700
C  52.66100 21.64300 43.64600
C  57.30500 22.80300 44.21100
C  56.15800 27.47200 45.19900
N  52.39600 24.10000 43.88400
C  51.39300 25.00700 43.65200
C  50.09000 24.30900 43.21500
C  50.38700 22.78400 43.48700
C  51.90400 22.80700 43.75800
C  49.56600 22.24400 44.63100
C  49.75900 24.60700 41.77000
C  48.33500 25.07500 41.45500
H  47.92600 25.37600 40.01400
N  54.92300 22.49300 43.94000
C  54.06700 21.47400 43.65400
C  54.77300 20.28100 43.33100
C  56.11100 20.53400 43.52900
C  56.20000 21.98300 43.90800
C  54.13600 19.01800 42.70600
C  57.25100 19.55600 43.40500
O  57.08800 18.38600 43.06800
C  58.66900 19.92700 43.84100
N  56.44200 25.13400 44.37700
C  57.48200 24.21700 44.33000
C  58.84400 24.93600 44.64200
C  58.47500 26.37800 44.79100
C  56.89400 26.34300 44.83200
C  59.64500 24.47500 45.87700
C  58.99900 27.40400 43.73000
C  59.80800 28.63800 44.34100
N  53.95000 26.45800 44.86000
C  54.71200 27.60200 45.10800
C  53.87900 28.76600 45.19300
C  52.64000 28.31100 44.73900
C  52.75500 26.89900 44.54300
C  54.20300 30.17100 45.61700
C  51.28500 28.76700 44.50400
O  50.74000 29.85600 44.59900
C  50.63600 27.50000 43.85500
C  50.06900 28.00500 42.48800
O  50.79000 28.31400 41.53400
O  48.69700 28.28700 42.58500
C  48.04300 28.92500 41.41400
H  52.13200 20.69000 43.57400
H  58.30700 22.36900 44.18400
H  56.69600 28.36700 45.52000
H  49.27800 24.68600 43.83600
H  50.24400 22.13500 42.62400
H  48.52900 22.58200 44.63400
H  49.93200 22.26800 45.65700
H  49.40400 21.18100 44.45600
H  49.94000 23.73800 41.13700
H  50.42000 25.38900 41.39600
H  48.15500 25.95300 42.07600
H  47.75800 24.19600 41.74200
H  54.36100 18.07700 43.20900
H  54.51300 19.01600 41.68400
H  53.05300 19.12100 42.65000
H  59.06700 20.75500 43.25400
H  59.20000 18.97500 43.81100
H  58.52000 20.14600 44.89800
H  59.46300 24.85000 43.74900
H  58.63000 26.80200 45.78300
H  59.11500 23.77500 46.52400
H  59.97700 25.29500 46.51300
H  60.54800 24.02500 45.46500
H  58.07700 27.78100 43.28800
H  59.57200 26.90700 42.94700
H  60.81800 28.69200 43.93400
H  59.98100 28.63900 45.41700
H  59.26600 29.55900 44.12500
H  53.69300 30.80300 44.89000
H  55.28500 30.22400 45.49900
H  53.86800 30.49400 46.60300
H  49.79200 27.23500 44.49200
H  47.71800 29.95500 41.56100
H  47.12500 28.34700 41.31500
H  48.63900 29.07000 40.51200

