158

Mg 16.83500 -1.06200 27.68500
C  15.88700 1.09700 30.19300
C  18.59000 -2.85800 30.08900
C  18.39300 -2.78800 25.23500
C  15.46900 1.09800 25.30100
N  17.20600 -0.85600 29.89000
C  16.71500 0.11600 30.70900
C  17.08100 -0.13600 32.21100
C  18.17000 -1.25600 32.00000
C  18.00600 -1.67500 30.52500
C  19.63700 -0.84600 32.17800
C  15.80800 -0.53500 33.09100
C  16.38200 -0.83500 34.50600
H  17.58200 -0.13300 35.10200
N  18.19100 -2.71100 27.64300
C  18.68500 -3.36800 28.76700
C  19.34800 -4.55800 28.29200
C  19.24800 -4.57700 26.87700
C  18.59800 -3.36000 26.53100
C  20.02700 -5.57300 29.20800
C  19.87700 -5.56800 25.91700
O  19.83400 -5.50800 24.68600
C  20.55600 -6.79000 26.37200
N  17.03000 -0.78000 25.59800
C  17.72600 -1.66700 24.78800
C  17.63800 -1.30800 23.30300
C  16.61000 -0.12200 23.32000
C  16.37100 0.10200 24.84300
C  19.00200 -0.92300 22.70000
C  15.32300 -0.40100 22.48000
C  14.07400 -0.79400 23.30200
N  15.83000 0.73600 27.73400
C  15.29400 1.46900 26.66600
C  14.53500 2.54300 27.12100
C  14.74100 2.46200 28.54500
C  15.61300 1.40700 28.85400
C  13.84700 3.60100 26.35900
C  14.39700 3.12100 29.80700
O  13.75000 4.11500 30.06000
C  15.09900 2.20700 30.99100
C  16.00100 3.06900 31.75400
O  17.23100 3.22500 31.55800
O  15.26500 3.62300 32.82000
C  16.10000 4.44100 33.70300
H  19.22500 -3.47900 30.72500
H  18.80800 -3.36500 24.40500
H  14.98500 1.67300 24.50900
H  17.48500 0.75900 32.68400
H  18.01300 -2.11900 32.64800
H  20.07600 -1.58900 32.84400
H  19.77800 0.11000 32.68100
H  20.25700 -0.87600 31.28200
H  15.54700 -1.53200 32.73500
H  14.95300 0.13400 33.18400
H  16.40900 -1.92100 34.58700
H  15.55100 -0.49100 35.12200
H  21.09200 -5.34100 29.19400
H  19.77000 -6.59200 28.91800
H  19.63200 -5.53100 30.22300
H  20.90500 -7.37600 25.52200
H  19.79600 -7.35900 26.90900
H  21.48900 -6.61400 26.90800
H  17.39100 -2.16100 22.67000
H  17.11500 0.73900 22.88200
H  19.21500 0.14600 22.70700
H  19.17000 -1.29100 21.68800
H  19.80900 -1.29500 23.33100
H  15.30300 -1.13500 21.67400
H  15.09900 0.56000 22.01700
H  14.30500 -1.49800 24.10100
H  13.31400 -1.25000 22.66700
H  13.62300 0.10100 23.73000
H  14.46300 3.56200 25.46000
H  13.82900 4.60100 26.79200
H  12.84100 3.20900 26.21300
H  14.31100 1.80900 31.63000
H  16.56200 5.23300 33.11300
H  16.80000 3.73600 34.15100
H  15.59800 4.97800 34.50800
Mg -4.68600 25.55100 25.78800
C  -3.79000 27.10300 28.72300
C  -6.63200 23.37000 27.55200
C  -5.06900 23.63900 22.96500
C  -2.55000 27.63600 24.02000
N  -5.05000 25.27700 27.96500
C  -4.58300 26.02400 28.97100
C  -5.20500 25.63600 30.34200
C  -6.08300 24.36900 29.99600
C  -5.94200 24.32900 28.41300
C  -5.59200 23.08600 30.64600
C  -6.01100 26.83600 31.08100
C  -5.75700 26.91900 32.64300
H  -5.16600 25.65600 33.35200
N  -5.69500 23.79600 25.32800
C  -6.46400 23.07200 26.19300
C  -7.06200 21.91900 25.54500
C  -6.54400 21.96200 24.19500
C  -5.73500 23.18900 24.10900
C  -7.96000 20.90800 26.30300
C  -6.75600 21.02300 23.10000
O  -6.22900 21.05900 21.99800
C  -7.59800 19.84900 23.39000
N  -4.09800 25.68500 23.72600
C  -4.37200 24.82700 22.77200
C  -3.60600 25.14900 21.43700
C  -3.05400 26.56100 21.74000
C  -3.20600 26.68900 23.27200
C  -2.68400 24.00700 20.95000
C  -3.70000 27.66100 20.83100
C  -2.80300 28.31100 19.80700
N  -3.40000 26.98200 26.26800
C  -2.58700 27.75500 25.43800
C  -1.85400 28.75300 26.18800
C  -2.29400 28.45300 27.52200
C  -3.23200 27.44700 27.50100
C  -0.92200 29.77800 25.58500
C  -2.05700 28.85500 28.88000
O  -1.36200 29.73300 29.41800
C  -2.95100 27.95700 29.76000
C  -2.13900 27.09700 30.68100
O  -1.62700 26.03900 30.33100
O  -1.90300 27.80400 31.85300
C  -1.12900 27.06600 32.83000
H  -7.25600 22.68300 28.12600
H  -5.13200 23.08600 22.02600
H  -1.87900 28.34700 23.53500
H  -4.35000 25.34100 30.95000
H  -7.10600 24.64900 30.24700
H  -5.96800 22.29600 29.99500
H  -6.09600 22.78300 31.56400
H  -4.50600 23.11800 30.55300
H  -7.05800 26.76000 30.78800
H  -5.59900 27.74200 30.63600
H  -6.75200 27.07700 33.06000
H  -5.26200 27.86400 32.86400
H  -7.63700 19.89500 26.06600
H  -9.00700 20.95800 26.00200
H  -8.00200 20.98400 27.39000
H  -7.04600 19.24000 24.10500
H  -7.81900 19.27100 22.49200
H  -8.55200 20.23500 23.74900
H  -4.22600 25.23800 20.54600
H  -1.98700 26.36200 21.63800
H  -1.65300 24.34600 20.85400
H  -3.07200 23.72700 19.97000
H  -2.75800 23.10900 21.56400
H  -4.10800 28.43800 21.47700
H  -4.60400 27.31700 20.32800
H  -3.45000 28.30800 18.93000
H  -1.90900 27.79400 19.45900
H  -2.49000 29.27700 20.20300
H  -1.65400 30.53000 25.28900
H  -0.47100 29.41700 24.66100
H  -0.19000 29.97500 26.36700
H  -3.58300 28.72300 30.20900
H  -0.28200 26.47700 32.47800
H  -1.82500 26.39600 33.33400
H  -0.74700 27.88800 33.43600

