158

Mg 25.58800 0.12600 29.07400
C  27.34700 -0.22400 32.07000
C  22.68900 0.25500 30.97600
C  23.91000 0.61100 26.26500
C  28.46800 -0.51400 27.24200
N  25.05700 0.09500 31.35000
C  25.96000 -0.16900 32.33600
C  25.12200 -0.09800 33.68900
C  23.62500 -0.05000 33.27500
C  23.79100 0.04000 31.82300
C  22.68900 -1.24800 33.58200
C  25.43100 1.23300 34.45800
C  25.88800 1.02000 35.95000
H  25.68600 2.22100 36.87500
N  23.58600 0.37400 28.66800
C  22.56200 0.36300 29.54700
C  21.29000 0.54800 28.80900
C  21.64800 0.67400 27.45300
C  23.10200 0.56900 27.39800
C  19.94100 0.58000 29.43900
C  20.72900 0.84100 26.25400
O  21.14400 0.88200 25.13800
C  19.29100 0.88900 26.45400
N  26.03500 -0.26500 27.03000
C  25.26000 0.31400 26.08400
C  25.93000 0.43400 24.74300
C  27.31400 -0.20700 24.97500
C  27.25600 -0.36000 26.49700
C  25.18400 -0.05900 23.53100
C  28.58500 0.56100 24.45500
C  29.50400 -0.40300 23.57300
N  27.48500 -0.18200 29.49700
C  28.57500 -0.54600 28.67900
C  29.74800 -0.74800 29.50000
C  29.44100 -0.52700 30.87000
C  27.99500 -0.25100 30.77600
C  31.18400 -1.22000 29.00900
C  29.84700 -0.53800 32.25100
O  30.93300 -0.85100 32.77800
C  28.50100 -0.29000 33.09900
C  28.33500 -1.39900 34.13500
O  27.92400 -2.56400 33.85400
O  28.85500 -1.07000 35.38700
C  28.81400 -1.95300 36.53800
H  21.80000 0.34200 31.60400
H  23.43100 0.93400 25.33800
H  29.37300 -0.81500 26.70900
H  25.44600 -0.95400 34.28000
H  23.02900 0.83300 33.50300
H  22.77500 -1.79700 34.52000
H  22.75400 -2.03200 32.82700
H  21.68300 -0.84200 33.47300
H  24.56600 1.89700 34.46800
H  26.23700 1.74400 33.93200
H  26.93200 0.71400 35.89200
H  25.29000 0.25600 36.44800
H  19.95300 0.51300 30.52700
H  19.44700 -0.23500 28.91000
H  19.44300 1.48800 29.09700
H  18.98100 1.68600 27.13100
H  19.14900 -0.11000 26.86500
H  18.82900 0.96500 25.47000
H  25.99500 1.51300 24.59800
H  27.31200 -1.27100 24.73700
H  25.11100 0.77100 22.82900
H  24.23600 -0.52700 23.79800
H  25.69200 -0.89300 23.04700
H  29.17700 0.83800 25.32800
H  28.43300 1.46300 23.86300
H  28.92500 -1.05200 22.91500
H  30.18200 -1.03000 24.15200
H  30.14800 0.16900 22.90400
H  31.39700 -0.98400 27.96700
H  31.25100 -2.27500 29.27400
H  31.86900 -0.63100 29.61900
H  28.69600 0.53600 33.78300
H  28.60700 -3.01600 36.41600
H  28.07500 -1.60200 37.25800
H  29.67200 -1.89400 37.20800
Mg 45.00000 2.97000 46.56500
C  42.67500 5.66500 46.15500
C  42.49900 0.82000 45.98200
C  47.30500 0.64700 46.78100
C  47.55600 5.45500 46.26800
N  42.77000 3.22300 46.10000
C  42.07000 4.37900 45.94300
C  40.59000 4.12900 45.65700
C  40.48400 2.58200 45.83300
C  42.01800 2.13900 45.80100
C  39.76400 2.19800 47.21900
C  40.29000 4.59300 44.12100
C  38.98500 5.26700 43.94900
H  38.15700 4.94900 42.65400
N  44.95700 0.92700 46.43400
C  43.81900 0.21000 46.20700
C  44.10900 -1.23100 46.13400
C  45.55100 -1.29400 46.46600
C  46.01500 0.07600 46.65400
C  43.15500 -2.28700 45.70600
C  46.31800 -2.59400 46.70200
O  45.85600 -3.63600 46.48700
C  47.71600 -2.57200 47.21200
N  47.04500 3.00500 46.21100
C  47.74300 1.95200 46.72800
C  49.23000 2.27300 46.83800
C  49.41300 3.63000 46.09500
C  47.91700 4.10500 46.09500
C  49.71800 2.27800 48.35000
C  49.96900 3.46800 44.65500
C  51.47200 3.05900 44.44100
N  45.15500 5.10400 46.44000
C  46.24000 5.96200 46.44000
C  45.86200 7.32000 46.40300
C  44.44100 7.26700 46.33800
C  44.08600 5.88700 46.38000
C  46.74600 8.51300 46.35100
C  43.19100 8.02400 46.32600
O  43.00400 9.21500 46.43400
C  41.93700 7.01200 46.22300
C  41.14900 7.06100 47.50400
O  41.28000 6.28900 48.41400
O  40.07800 7.93500 47.45900
C  39.16100 7.76000 48.61700
H  41.70300 0.07400 45.93400
H  48.13000 -0.03900 46.98600
H  48.38600 6.16300 46.31600
H  39.96300 4.66400 46.37000
H  39.93800 2.15000 44.99500
H  38.91400 1.55600 46.98900
H  39.40500 3.12300 47.67000
H  40.49400 1.76400 47.90300
H  40.37300 3.77000 43.41200
H  41.06900 5.32400 43.90300
H  39.21900 6.33100 43.92200
H  38.30000 5.10500 44.78100
H  43.67500 -3.06200 45.14200
H  42.51700 -1.80300 44.96600
H  42.58100 -2.75100 46.50700
H  48.25200 -2.31600 46.29800
H  48.17600 -3.51800 47.49600
H  47.70800 -1.84300 48.02300
H  49.70500 1.46200 46.28500
H  49.99600 4.34000 46.68100
H  50.46500 3.02900 48.60600
H  50.04700 1.29600 48.69300
H  48.76600 2.49900 48.83100
H  49.61500 4.39700 44.20900
H  49.40500 2.65400 44.19900
H  52.17200 3.87600 44.26400
H  51.52200 2.29400 43.66700
H  51.76300 2.71900 45.43600
H  46.55200 9.20800 47.16800
H  46.45100 9.08200 45.47000
H  47.81900 8.31900 46.32400
H  41.21300 7.28900 45.45700
H  39.30800 8.41800 49.47400
H  39.10400 6.79000 49.11100
H  38.12900 7.99200 48.35300

