158

Mg 34.94800 2.28500 29.24600
C  33.03100 3.41200 32.06200
C  37.74800 2.77300 31.15800
C  36.78700 2.05000 26.43300
C  32.02800 2.57000 27.37100
N  35.29400 3.00300 31.31100
C  34.42100 3.29800 32.30600
C  35.10100 3.54800 33.63700
C  36.62100 3.52200 33.29400
C  36.57700 3.10400 31.85400
C  37.40500 4.85600 33.59900
C  34.72600 2.42700 34.71300
C  34.30000 2.95100 36.08400
H  35.30300 3.97400 36.80100
N  37.00500 2.07900 28.83700
C  38.00400 2.27000 29.78900
C  39.34500 1.96200 29.17000
C  39.06000 1.76700 27.78700
C  37.59200 1.91100 27.59900
C  40.67900 2.09600 29.89600
C  40.07400 1.52800 26.65300
O  39.83400 1.58700 25.44800
C  41.45700 1.26300 26.97500
N  34.46200 2.39400 27.26700
C  35.42800 2.16100 26.32400
C  34.83400 1.97400 24.95100
C  33.32100 1.88100 25.31200
C  33.24500 2.27300 26.76600
C  35.14600 3.21200 24.10000
C  32.74100 0.49500 25.18900
C  31.45000 0.43500 24.30700
N  32.90700 2.85400 29.58100
C  31.85400 2.90400 28.72400
C  30.67200 3.30900 29.44900
C  31.08400 3.54200 30.79700
C  32.45800 3.19800 30.78300
C  29.35500 3.37200 28.85800
C  30.61400 3.83700 32.20400
O  29.54600 4.11500 32.75200
C  31.95600 3.83400 33.01000
C  32.14000 5.16300 33.63200
O  32.41200 6.19200 33.13200
O  31.71600 5.02000 34.94900
C  31.70900 6.23000 35.75200
H  38.67100 2.75000 31.74000
H  37.27000 2.22300 25.46900
H  31.19200 2.47700 26.67500
H  34.86000 4.52900 34.04500
H  37.12000 2.69800 33.80500
H  38.15800 4.68500 34.36800
H  36.71200 5.62300 33.94500
H  37.84700 5.19100 32.66100
H  35.58100 1.90400 35.14200
H  33.97700 1.73300 34.33100
H  34.20300 2.06600 36.71400
H  33.26300 3.25200 35.94200
H  41.14500 3.06200 29.70400
H  41.29100 1.26100 29.55600
H  40.45100 1.96200 30.95400
H  41.96200 0.89600 26.08100
H  41.43200 0.42500 27.67200
H  41.87700 2.12000 27.50100
H  35.12700 1.16500 24.28100
H  32.74100 2.68600 24.86200
H  35.74100 3.90200 24.69900
H  34.23900 3.65900 23.69500
H  35.71800 2.94700 23.21100
H  32.40900 0.15000 26.16800
H  33.48500 -0.25800 24.92700
H  30.58800 0.14700 24.90900
H  31.67100 -0.38800 23.62800
H  31.29400 1.38200 23.78900
H  28.75000 4.10400 29.39300
H  28.92400 2.37100 28.89300
H  29.48500 3.75200 27.84500
H  31.91600 3.12800 33.84000
H  30.86600 6.33400 36.43600
H  31.70700 7.15100 35.17000
H  32.58200 6.15400 36.40000
Mg 16.86100 52.55300 26.52800
C  18.80200 50.95000 28.92600
C  14.45100 53.13400 28.77000
C  15.18700 54.35600 24.07000
C  19.14000 51.39700 24.04000
N  16.67900 52.05700 28.55500
C  17.63600 51.49800 29.46900
C  17.21300 51.61300 30.94400
C  15.74100 52.13400 30.74500
C  15.59900 52.44100 29.25900
C  14.71900 51.21500 31.34400
C  18.27500 52.47300 31.69900
C  18.66000 51.86900 33.12100
H  17.94200 52.29300 34.43200
N  15.07000 53.63600 26.44800
C  14.20000 53.76500 27.48600
C  13.07400 54.56900 27.07700
C  13.26400 54.93400 25.70900
C  14.56400 54.28900 25.35000
C  11.96500 54.93200 28.04800
C  12.34100 55.75000 24.82000
O  12.59600 55.89900 23.58800
C  11.18800 56.57700 25.33100
N  17.02800 52.71600 24.36600
C  16.28900 53.58300 23.62600
C  16.61200 53.46600 22.16100
C  18.01600 52.71200 22.18600
C  18.05200 52.16500 23.61800
C  15.38600 52.81600 21.42600
C  19.20700 53.49500 21.66700
C  20.01700 52.86500 20.54200
N  18.58100 51.36600 26.36600
C  19.38700 50.97900 25.33900
C  20.46000 50.15400 25.79800
C  20.31000 50.21400 27.14300
C  19.12700 50.91300 27.47800
C  21.66100 49.59000 24.98200
C  20.97500 49.74500 28.41900
O  21.99400 49.08600 28.62500
C  20.05300 50.29300 29.59800
C  19.75600 49.09500 30.46400
O  19.10100 48.11500 30.14500
O  20.59200 49.19400 31.59600
C  20.56600 48.10500 32.55600
H  13.64900 53.34000 29.48200
H  14.81400 55.00700 23.27700
H  19.90800 51.17800 23.29600
H  17.22800 50.60400 31.35500
H  15.60300 53.10100 31.22900
H  15.15400 50.25000 31.60400
H  13.99400 51.03100 30.55100
H  14.16000 51.56900 32.21000
H  18.04800 53.50600 31.96500
H  19.24000 52.39300 31.19700
H  19.67700 52.20200 33.32300
H  18.64500 50.77900 33.12900
H  10.99800 54.70800 27.59700
H  11.87600 56.00000 28.24400
H  11.91500 54.35500 28.97100
H  11.52800 57.38200 25.98300
H  10.42900 55.91900 25.75300
H  10.68800 56.97900 24.44900
H  16.68400 54.48100 21.77100
H  17.89200 51.93700 21.42900
H  15.71400 52.13300 20.64300
H  14.71500 53.53800 20.96100
H  14.90200 52.10500 22.09600
H  19.82600 53.55500 22.56200
H  19.01300 54.51300 21.33000
H  20.27300 53.57400 19.75400
H  19.37400 52.18400 19.98500
H  20.86900 52.28400 20.89600
H  21.29200 48.76800 24.36900
H  22.45900 49.30200 25.66600
H  22.04000 50.34300 24.29100
H  20.69400 50.91500 30.22300
H  19.66700 48.02700 33.16600
H  21.44800 48.32000 33.16000
H  20.76700 47.19700 31.98700

