158

Mg 2.12400 -3.34000 45.62400
C  5.57700 -2.23200 45.28400
C  1.37600 -1.35800 43.00500
C  -0.80100 -4.66900 45.76100
C  3.47700 -6.09100 47.44000
N  3.39800 -2.11800 44.20800
C  4.73300 -1.77000 44.25900
C  5.08500 -0.82600 43.10600
C  3.69300 -0.24800 42.75600
C  2.77200 -1.34500 43.29500
C  3.31100 1.14400 43.34100
C  5.76200 -1.61900 41.95500
C  7.06300 -1.03700 41.36900
H  7.08600 -0.05300 40.19500
N  0.45900 -2.96100 44.66700
C  0.30600 -2.05800 43.60900
C  -1.07700 -1.99500 43.29000
C  -1.72100 -2.78400 44.20000
C  -0.71600 -3.51700 44.97900
C  -1.66900 -1.02400 42.27500
C  -3.25800 -2.85300 44.40200
O  -3.92000 -2.23300 43.60400
C  -3.94300 -3.47500 45.58900
N  1.39000 -5.20800 46.47000
C  0.10700 -5.45600 46.52300
C  -0.20600 -6.67500 47.34800
C  1.21400 -7.27400 47.71800
C  2.09000 -6.17600 47.10000
C  -1.27800 -6.39000 48.44200
C  1.65700 -8.66000 47.26700
C  1.19300 -9.07000 45.81600
N  4.06600 -3.99700 46.30500
C  4.38300 -5.10200 47.06700
C  5.77500 -5.04700 47.44500
C  6.31000 -3.97300 46.73500
C  5.22000 -3.29800 46.06700
C  6.43100 -6.05200 48.44400
C  7.45700 -3.21100 46.43600
O  8.55900 -3.25500 46.93400
C  7.06700 -2.06300 45.46400
C  7.39900 -0.67600 46.08900
O  7.08800 -0.28100 47.15800
O  7.99100 0.18500 45.11800
C  8.20700 1.63300 45.52100
H  1.18500 -0.64900 42.19600
H  -1.86000 -4.92900 45.82100
H  3.84500 -6.85500 48.12800
H  5.65800 0.04700 43.41800
H  3.45000 -0.27000 41.69400
H  4.18400 1.69600 43.69000
H  2.62300 0.97500 44.17000
H  2.81400 1.75500 42.58800
H  5.14000 -1.71500 41.06500
H  6.08800 -2.57800 42.35800
H  7.70100 -1.85000 41.02000
H  7.59800 -0.47600 42.13500
H  -1.95400 -0.04700 42.66600
H  -2.60300 -1.40800 41.86500
H  -0.91800 -0.89700 41.49600
H  -3.89400 -4.54500 45.39100
H  -4.96500 -3.11700 45.71500
H  -3.40400 -3.34900 46.52800
H  -0.65300 -7.36900 46.63600
H  1.33400 -7.28500 48.80100
H  -2.01300 -5.61400 48.23000
H  -0.69000 -6.14400 49.32700
H  -1.69300 -7.38300 48.61400
H  1.01400 -9.40700 47.73100
H  2.72500 -8.86300 47.34700
H  0.49400 -9.89300 45.96300
H  2.07200 -9.40700 45.26800
H  0.68600 -8.24700 45.31200
H  5.65100 -6.44900 49.09400
H  7.18500 -5.47100 48.97600
H  6.83200 -6.73900 47.70000
H  7.54000 -2.06700 44.48200
H  7.24600 2.13900 45.60700
H  8.74900 2.08200 44.68800
H  8.85600 1.75600 46.38900
Mg 51.23300 45.28000 42.77100
C  47.93300 45.89800 42.14200
C  50.68700 41.90900 42.01700
C  54.68200 44.84100 42.37100
C  51.87700 48.73400 42.88000
N  49.52800 44.03900 42.12400
C  48.27600 44.53300 41.97700
C  47.28900 43.38400 41.59700
C  48.10800 42.03700 41.85800
C  49.51100 42.68600 42.01700
C  47.65100 41.06000 42.97000
C  46.76900 43.47800 40.13600
C  47.61800 43.95000 38.98100
H  47.60100 43.04400 37.72600
N  52.50300 43.53800 42.40800
C  52.03700 42.25900 42.13500
C  53.24800 41.45000 42.03200
C  54.35500 42.27400 42.29400
C  53.89300 43.63000 42.33700
C  53.16600 40.00300 41.60800
C  55.87600 41.80500 42.52600
O  56.14800 40.60800 42.20200
C  56.94900 42.66300 43.13100
N  52.96000 46.57000 42.71100
C  54.22000 46.11000 42.47600
C  55.13800 47.25200 42.08000
C  54.36500 48.55000 42.61500
C  52.94600 47.89800 42.69100
C  56.63500 47.27000 42.66900
C  54.50200 49.84000 41.71300
C  54.89100 51.11100 42.45600
N  50.16500 46.96200 42.71200
C  50.51400 48.25300 42.82600
C  49.25100 49.06700 42.82900
C  48.23800 48.15700 42.62800
C  48.84500 46.92100 42.41300
C  49.07400 50.44800 43.14400
C  46.78900 48.06000 42.46400
O  45.92100 48.91900 42.56100
C  46.52400 46.57900 42.01000
C  45.48800 46.03000 43.03600
O  44.30200 46.08400 42.87700
O  46.03400 45.42200 44.05000
C  45.19900 45.15400 45.22100
H  50.59200 40.85500 41.74700
H  55.71500 44.56800 42.14500
H  51.98100 49.81800 42.96900
H  46.42700 43.49600 42.25400
H  48.18600 41.34900 41.01600
H  47.17300 40.15700 42.59000
H  47.04500 41.52500 43.74700
H  48.52200 40.75800 43.55300
H  45.88800 44.11800 40.18300
H  46.48900 42.44700 39.92000
H  48.61100 44.07500 39.41300
H  47.12400 44.86600 38.65600
H  53.03200 39.42400 42.52200
H  53.95900 39.59200 40.98300
H  52.34100 39.70400 40.96200
H  57.25700 43.23700 42.25700
H  57.85900 42.13200 43.41200
H  56.65000 43.38200 43.89500
H  55.23900 47.35000 40.99900
H  54.51600 48.78200 43.66900
H  57.33800 47.22400 41.83700
H  56.88300 46.41600 43.30000
H  56.81400 48.13700 43.30400
H  53.56900 49.96100 41.16300
H  55.25700 49.62300 40.95700
H  54.25100 51.95000 42.18400
H  55.86100 51.43200 42.07500
H  55.14300 50.97200 43.50700
H  48.31500 50.87700 42.49000
H  50.02600 50.97500 43.08500
H  48.74400 50.51500 44.18000
H  46.05900 46.59100 41.02400
H  45.24000 45.90400 46.01100
H  45.50300 44.20700 45.66800
H  44.13100 45.19500 45.00700

