158

Mg 1.77100 -1.44300 44.54900
C  5.24500 -0.82200 44.04400
C  1.11800 1.22900 42.65100
C  -1.48800 -2.34800 44.78300
C  2.77600 -4.46600 46.19100
N  3.04100 -0.11200 43.24400
C  4.41700 -0.00000 43.25900
C  4.90500 1.16700 42.39400
C  3.56700 2.01200 42.25100
C  2.51000 0.99600 42.69900
C  3.41500 3.30200 43.06900
C  5.49300 0.61700 41.08500
C  6.86500 1.23600 40.72900
H  7.16600 1.61100 39.30100
N  0.06900 -0.66800 43.80400
C  0.02200 0.52500 43.09000
C  -1.33900 0.88900 42.93200
C  -2.15500 -0.12300 43.57200
C  -1.20300 -1.08700 44.12300
C  -1.78700 2.17800 42.25800
C  -3.73100 -0.12700 43.65100
O  -4.30400 0.77900 43.07300
C  -4.52800 -1.18900 44.27900
N  0.74200 -3.20800 45.27300
C  -0.61500 -3.36400 45.27000
C  -1.09500 -4.76700 45.91400
C  0.35700 -5.30400 46.39700
C  1.34600 -4.29500 45.85300
C  -2.19900 -4.73800 46.99400
C  0.55000 -6.78700 45.80300
C  -0.38400 -7.96300 46.36900
N  3.60300 -2.44400 45.19400
C  3.84200 -3.63700 45.84000
C  5.29700 -3.76400 46.05900
C  5.87600 -2.68300 45.39900
C  4.81600 -1.96000 44.86600
C  6.01100 -4.91700 46.79200
C  7.13400 -2.03100 44.99200
O  8.25100 -2.46000 45.22500
C  6.73300 -0.76600 44.16200
C  7.14800 0.49100 44.90800
O  6.89400 0.71900 46.05100
O  7.82100 1.39100 44.07200
C  8.03100 2.72700 44.66800
H  0.83800 2.17000 42.17300
H  -2.54600 -2.55700 44.95300
H  2.94300 -5.44800 46.63700
H  5.62800 1.79700 42.91100
H  3.43300 2.36100 41.22700
H  4.34500 3.73200 43.44000
H  2.76000 3.19900 43.93400
H  2.91800 4.09300 42.50800
H  4.84100 0.83500 40.23800
H  5.60200 -0.46300 41.18800
H  7.61600 0.45800 40.86800
H  7.16400 2.07300 41.36100
H  -2.69300 2.49900 42.77100
H  -2.05900 1.87300 41.24700
H  -0.99600 2.92700 42.31600
H  -4.41600 -2.17200 43.81900
H  -5.60600 -1.03500 44.32500
H  -4.16200 -1.19900 45.30500
H  -1.36600 -5.31500 45.01100
H  0.34600 -5.27400 47.48600
H  -1.88200 -5.09200 47.97500
H  -3.12400 -5.29400 46.84000
H  -2.43700 -3.67500 46.95600
H  1.59500 -7.01700 46.01300
H  0.44600 -6.70100 44.72100
H  -1.03800 -7.56000 47.14300
H  0.28900 -8.72300 46.76600
H  -1.04000 -8.39000 45.61100
H  5.46700 -5.84300 46.97800
H  6.29100 -4.57000 47.78600
H  6.83900 -5.22900 46.15500
H  7.03400 -0.87300 43.12000
H  7.84200 3.49300 43.91500
H  9.05300 2.72100 45.04600
H  7.40900 2.97000 45.53000
Mg -5.84000 24.80800 25.98400
C  -4.49900 26.33300 28.64300
C  -8.00000 23.07500 28.26700
C  -7.10400 23.07100 23.47900
C  -3.56600 26.44900 23.86300
N  -5.99300 24.41900 28.18100
C  -5.48000 25.38700 29.02200
C  -5.97700 25.17400 30.47100
C  -6.96800 23.99100 30.33400
C  -7.03600 23.84000 28.82600
C  -6.60800 22.64700 30.91700
C  -6.65500 26.43900 31.10500
C  -6.65300 26.52700 32.59500
H  -5.98700 25.47800 33.49400
N  -7.36500 23.25400 25.88600
C  -8.12300 22.75000 26.91000
C  -9.20300 21.97400 26.33000
C  -8.98600 21.91500 24.93500
C  -7.80800 22.77400 24.71300
C  -10.37200 21.48400 27.09500
C  -9.72700 21.16100 23.93000
O  -9.45600 21.16000 22.74800
C  -10.74100 20.08700 24.43300
N  -5.28200 24.66200 23.97900
C  -5.93900 23.83900 23.14500
C  -5.38900 23.88600 21.63200
C  -4.51600 25.20300 21.73900
C  -4.45700 25.51700 23.27200
C  -4.63200 22.56900 21.21100
C  -5.07700 26.46600 21.05900
C  -4.50100 26.96900 19.67000
N  -4.21700 26.05200 26.12600
C  -3.43400 26.72500 25.25000
C  -2.54600 27.72500 25.95500
C  -2.93800 27.47400 27.31900
C  -3.91700 26.50800 27.33700
C  -1.61700 28.72800 25.31600
C  -2.76600 28.04200 28.56800
O  -2.05400 28.93100 28.89000
C  -3.71200 27.28100 29.48900
C  -2.83300 26.55000 30.39100
O  -2.60700 25.38300 30.47000
O  -2.47100 27.42100 31.39200
C  -1.75200 26.97900 32.59900
H  -8.59800 22.53100 29.00100
H  -7.45200 22.43900 22.65900
H  -2.89600 27.00900 23.20800
H  -5.19100 24.84400 31.15000
H  -7.94600 24.19900 30.76600
H  -7.20200 22.53900 31.82400
H  -5.55500 22.56700 31.18700
H  -6.69800 21.71800 30.35400
H  -7.71200 26.53900 30.85900
H  -6.31300 27.35500 30.62400
H  -7.71500 26.60500 32.82900
H  -6.20000 27.49900 32.79300
H  -10.31200 21.88200 28.10800
H  -10.28800 20.39800 27.05800
H  -11.28200 21.94800 26.71600
H  -11.53100 20.66400 24.91400
H  -10.18000 19.37000 25.03300
H  -11.17200 19.51000 23.61500
H  -6.19900 24.00300 20.91200
H  -3.53400 25.01000 21.30700
H  -3.57900 22.78200 21.02500
H  -5.11400 22.07600 20.36700
H  -4.59200 21.84400 22.02400
H  -5.00000 27.30100 21.75600
H  -6.14800 26.28800 20.96400
H  -4.08000 27.95800 19.84800
H  -5.27000 26.93700 18.89800
H  -3.67300 26.35900 19.30800
H  -1.91700 29.75300 25.53700
H  -1.64600 28.80800 24.22900
H  -0.56400 28.50000 25.48100
H  -4.37600 27.98700 29.98700
H  -1.11300 26.11700 32.40400
H  -2.34000 26.74000 33.48500
H  -1.05600 27.78600 32.82500

