158

Mg 40.74700 8.27300 29.02600
C  41.95900 9.77500 31.94300
C  38.55500 6.46200 31.09800
C  39.46900 6.64600 26.33100
C  43.26900 9.70300 27.18400
N  40.23700 8.28200 31.22300
C  40.84200 9.03800 32.17300
C  40.22200 8.76000 33.57800
C  39.27400 7.50300 33.31200
C  39.37700 7.34900 31.74500
C  39.60800 6.18000 33.90000
C  39.66400 10.07600 34.26700
C  39.76100 10.23400 35.82900
H  40.45200 11.38400 36.48500
N  39.17000 6.82100 28.73600
C  38.46100 6.22700 29.70900
C  37.47300 5.30800 29.12100
C  37.58800 5.47200 27.74200
C  38.74900 6.33400 27.50100
C  36.57800 4.31700 29.84900
C  36.75000 5.11800 26.58400
O  37.08500 5.31000 25.40400
C  35.44300 4.56500 26.84200
N  41.22500 8.10800 27.07700
C  40.62900 7.31900 26.11300
C  41.32600 7.50500 24.77600
C  42.33800 8.63600 25.07200
C  42.30300 8.82300 26.56700
C  42.09300 6.25500 24.20100
C  42.14900 9.97000 24.31100
C  41.17900 10.98100 24.91600
N  42.42300 9.33800 29.43500
C  43.33400 9.98000 28.56300
C  44.31000 10.74500 29.36700
C  43.84000 10.69200 30.70600
C  42.68700 9.85700 30.66200
C  45.43600 11.49900 28.76200
C  44.09200 11.06400 32.07700
O  44.97400 11.73600 32.61100
C  42.91800 10.45500 32.87900
C  43.35500 9.52100 33.94000
O  43.88600 8.41600 33.71600
O  43.10000 9.94700 35.20200
C  43.58800 8.96900 36.20800
H  37.90000 5.86300 31.73500
H  39.14800 6.08000 25.45400
H  44.07700 10.06700 26.54500
H  41.06400 8.40700 34.17300
H  38.25600 7.72200 33.63200
H  38.70700 5.87900 34.43500
H  40.41400 6.37500 34.60800
H  40.03800 5.45100 33.21400
H  38.59300 10.12300 34.06900
H  40.14100 10.96800 33.86100
H  40.24900 9.30400 36.11900
H  38.76000 10.14800 36.25200
H  36.74100 4.03900 30.89000
H  36.61700 3.37500 29.30200
H  35.54900 4.66400 29.75200
H  35.57900 3.60900 27.34900
H  34.74700 4.35200 26.03000
H  34.87100 5.17900 27.53700
H  40.59300 7.78500 24.01900
H  43.31400 8.21600 24.83000
H  41.74100 5.36400 24.72000
H  43.17400 6.30900 24.06700
H  41.68800 6.16600 23.19200
H  41.77000 9.78400 23.30600
H  43.17700 10.32800 24.25900
H  41.66900 11.77600 25.47800
H  40.57000 10.62800 25.74800
H  40.55200 11.40500 24.13200
H  45.63000 12.46900 29.22000
H  45.29000 11.81100 27.72800
H  46.31300 10.85700 28.84400
H  42.38100 11.27000 33.36500
H  44.65900 8.85300 36.04000
H  43.13000 8.00100 36.00300
H  43.26900 9.40900 37.15200
Mg 15.82500 51.09700 26.20400
C  18.04000 50.21500 28.89400
C  13.42900 51.63200 28.49000
C  13.76000 51.41500 23.71100
C  18.56100 50.15300 24.02900
N  15.81200 50.92800 28.32300
C  16.80200 50.64100 29.20900
C  16.36100 51.10700 30.60400
C  14.79700 51.27600 30.57400
C  14.69100 51.43100 29.03100
C  14.13300 49.95000 31.04100
C  17.10300 52.50000 31.02300
C  17.59700 52.86500 32.46800
H  16.96100 52.11400 33.64400
N  13.89700 51.49800 26.14700
C  13.01300 51.71500 27.17000
C  11.68500 51.79600 26.68600
C  11.75000 51.56000 25.25100
C  13.16500 51.50200 24.99100
C  10.40100 51.88100 27.58500
C  10.68900 51.48200 24.18500
O  10.99100 51.09300 23.04600
C  9.22500 51.80400 24.58800
N  16.16800 50.90200 24.19000
C  15.07900 51.15000 23.35300
C  15.57200 51.05700 21.81900
C  17.07100 50.62000 21.96300
C  17.32400 50.58400 23.49700
C  14.69000 50.19300 20.81200
C  18.08100 51.42600 21.13600
C  19.03000 50.70900 20.19100
N  17.85300 50.32700 26.39300
C  18.79500 50.06500 25.40200
C  20.00200 49.63500 26.02700
C  19.83000 49.72900 27.42600
C  18.48200 50.09600 27.56000
C  21.33300 49.21000 25.39100
C  20.41900 49.55400 28.70100
O  21.52100 49.16000 29.06000
C  19.28800 49.83100 29.75200
C  19.11300 48.69400 30.68100
O  18.57600 47.64700 30.45700
O  19.64300 49.03200 31.89200
C  19.30200 48.11000 32.95500
H  12.63200 51.81800 29.21300
H  13.15500 51.64500 22.83200
H  19.40700 49.95000 23.36900
H  16.71100 50.28300 31.22500
H  14.25700 52.03900 31.13500
H  14.92600 49.20300 31.08800
H  13.29800 49.66000 30.40400
H  13.78800 50.20800 32.04200
H  16.52600 53.30300 30.56300
H  18.08400 52.63700 30.56800
H  17.35000 53.89100 32.74000
H  18.68400 52.83200 32.54600
H  9.90100 50.91500 27.64900
H  9.80500 52.63200 27.06700
H  10.66400 52.31800 28.54900
H  8.56900 51.74200 23.72000
H  9.17700 52.83800 24.92900
H  8.95600 51.05500 25.33300
H  15.48300 52.09100 21.48500
H  17.16100 49.57700 21.65800
H  13.73200 49.88900 21.23400
H  15.29600 49.55600 20.16700
H  14.31600 50.85300 20.03000
H  18.68300 52.01700 21.82700
H  17.50400 52.09200 20.49500
H  19.12200 51.45100 19.39700
H  18.48200 49.89900 19.71000
H  19.91900 50.37400 20.72600
H  22.15600 49.61100 25.98200
H  21.27600 49.68800 24.41200
H  21.38200 48.12100 25.36900
H  19.53600 50.71500 30.34000
H  20.00900 47.28900 33.08200
H  18.26900 47.76600 32.91400
H  19.31400 48.73300 33.84900

