158

Mg 0.55900 7.66800 26.17700
C  1.24900 9.92700 28.79700
C  1.17300 5.11200 28.31500
C  0.17200 5.59200 23.61400
C  0.66400 10.39100 24.02300
N  1.01900 7.57900 28.34700
C  1.15300 8.62500 29.23900
C  1.37300 8.06100 30.59300
C  1.58800 6.54300 30.40100
C  1.32500 6.36700 28.89100
C  2.97500 6.00000 30.80300
C  0.20200 8.48400 31.60800
C  0.29500 7.71700 32.93200
H  1.65600 7.48300 33.63500
N  0.58900 5.63000 25.96800
C  0.64200 4.73300 27.02100
C  0.19700 3.43900 26.56700
C  -0.15600 3.61300 25.19500
C  0.18400 4.98200 24.85100
C  0.08400 2.18100 27.46500
C  -0.72000 2.67100 24.15600
O  -0.83800 2.94300 22.95300
C  -0.87600 1.24800 24.48400
N  0.43300 7.99500 24.16800
C  0.35900 6.91500 23.28100
C  0.46800 7.41600 21.81500
C  0.13600 8.94100 22.02200
C  0.36700 9.13100 23.49700
C  1.74600 7.11000 21.04400
C  -1.25900 9.42400 21.58300
C  -1.16500 10.66600 20.66900
N  0.88900 9.75700 26.33500
C  0.84000 10.74700 25.38100
C  1.10500 12.07500 25.93900
C  1.22600 11.74500 27.30200
C  1.06600 10.36100 27.49700
C  1.17900 13.36700 25.26000
C  1.57600 12.35900 28.54700
O  1.92200 13.48800 28.82400
C  1.48600 11.17500 29.58300
C  2.73600 11.01600 30.43600
O  3.78800 10.43000 30.13300
O  2.59200 11.64100 31.62500
C  3.77200 11.65200 32.52400
H  1.38400 4.31500 29.03200
H  -0.10100 5.02200 22.72300
H  0.50100 11.21400 23.32400
H  2.27400 8.58700 30.91000
H  0.95500 5.88800 30.99900
H  3.70500 6.77900 31.02500
H  3.41300 5.47000 29.95700
H  2.87400 5.24500 31.58200
H  -0.72100 8.22400 31.09000
H  0.25400 9.56200 31.75900
H  -0.24500 6.79000 32.73800
H  -0.31300 8.28900 33.63300
H  0.61300 1.30100 27.09800
H  -0.94000 2.07200 27.82100
H  0.73000 2.38900 28.31800
H  0.06500 0.72800 24.66300
H  -1.35000 0.58300 23.76200
H  -1.44800 1.16100 25.40800
H  -0.33800 7.05800 21.17500
H  0.92500 9.48100 21.49800
H  1.52800 6.41500 20.23400
H  2.37400 6.51000 21.70300
H  2.36100 7.96800 20.77200
H  -1.88800 9.76000 22.40800
H  -1.82800 8.63900 21.08500
H  -1.66700 10.36700 19.74900
H  -0.11300 10.85100 20.45100
H  -1.66100 11.58400 20.98500
H  0.18100 13.80500 25.24400
H  1.57900 13.17900 24.26300
H  1.88200 13.91400 25.88900
H  0.61100 11.34600 30.21000
H  4.53500 12.31300 32.11100
H  4.07200 10.61600 32.68100
H  3.43900 12.16000 33.42900
Mg 9.41100 47.96800 27.55300
C  7.11100 47.74800 30.27800
C  11.87300 48.27200 29.67800
C  11.40300 48.48700 24.77300
C  6.56200 48.02400 25.31200
N  9.38500 47.95100 29.77500
C  8.43500 47.84300 30.73000
C  8.96400 48.00500 32.18400
C  10.51300 48.27500 31.93200
C  10.65000 48.08100 30.36500
C  11.08800 49.60300 32.58900
C  8.53600 46.87800 33.15400
C  9.63500 46.28000 34.05000
H  9.07300 45.80500 35.39800
N  11.40300 48.22800 27.28600
C  12.27400 48.23100 28.29900
C  13.59000 48.42300 27.84100
C  13.50700 48.50600 26.43200
C  12.06000 48.34300 26.03800
C  14.88200 48.41900 28.74000
C  14.64300 48.54300 25.42300
O  14.41100 48.50700 24.18600
C  16.09600 48.47300 25.87000
N  9.06100 48.16200 25.38600
C  10.06600 48.34000 24.45900
C  9.55700 48.54300 23.02100
C  8.04500 48.32900 23.22800
C  7.85300 48.16700 24.72200
C  10.00000 49.92100 22.41200
C  7.24800 47.14200 22.52000
C  5.94400 47.45500 21.76800
N  7.29600 47.91200 27.66100
C  6.29600 47.97200 26.69200
C  5.02300 47.84600 27.34800
C  5.28900 47.69700 28.70600
C  6.68000 47.76300 28.85200
C  3.66600 47.71800 26.69200
C  4.68700 47.62600 29.97700
O  3.49300 47.42700 30.27000
C  5.84100 47.70100 31.07300
C  5.70100 46.40600 31.70900
O  5.93900 45.35500 31.19600
O  5.36900 46.50300 33.04600
C  5.24200 45.15600 33.74400
H  12.68800 48.62700 30.31100
H  12.03700 48.81000 23.94500
H  5.77500 47.96800 24.55600
H  8.46800 48.89100 32.58100
H  11.14000 47.48900 32.35400
H  12.10100 49.35200 32.90700
H  10.41900 50.00100 33.35200
H  11.19000 50.30400 31.76100
H  8.16500 46.01400 32.60200
H  7.63400 47.23100 33.65200
H  10.29600 47.11800 34.27100
H  10.17000 45.43400 33.61900
H  14.68700 48.46400 29.81100
H  15.44400 49.32700 28.52200
H  15.57400 47.60800 28.51400
H  16.20500 47.44200 26.20700
H  16.15900 49.28600 26.59300
H  16.84400 48.50200 25.07800
H  9.97400 47.79000 22.35200
H  7.55700 49.29000 23.06700
H  10.80400 50.45600 22.91700
H  9.13700 50.58300 22.32900
H  10.32500 49.66600 21.40400
H  7.01700 46.40100 23.28600
H  7.88600 46.62000 21.80700
H  5.76900 48.52900 21.83500
H  5.12900 46.88500 22.21200
H  5.93600 47.18600 20.71100
H  3.91000 47.54400 25.64400
H  3.14600 48.67200 26.77200
H  3.13900 46.93600 27.24000
H  5.71900 48.58100 31.70400
H  4.89200 45.21100 34.77500
H  6.18400 44.63500 33.57200
H  4.44600 44.56800 33.28700

