158

Mg 47.72300 14.61300 27.87800
C  45.73800 14.82100 30.65600
C  50.09400 16.62300 29.54800
C  49.56400 14.56500 25.17500
C  45.37900 12.57100 26.32400
N  47.86300 15.56800 29.91700
C  46.97200 15.40600 30.89800
C  47.44900 16.02200 32.18600
C  48.80700 16.77200 31.79300
C  48.94600 16.34200 30.32300
C  48.84000 18.33300 31.89800
C  47.49300 15.00000 33.33700
C  46.66100 15.15800 34.58500
H  47.46100 15.70600 35.79400
N  49.59100 15.47400 27.39600
C  50.41100 16.23100 28.22200
C  51.67200 16.40900 27.55500
C  51.52700 15.80600 26.27500
C  50.17000 15.28100 26.22500
C  52.78300 17.36100 28.05600
C  52.49100 15.80700 25.06400
O  52.13600 15.37200 23.94200
C  53.89400 16.38900 25.23400
N  47.38300 13.78300 25.92200
C  48.36800 13.89800 24.98900
C  47.91800 13.04400 23.72200
C  46.70500 12.31700 24.15500
C  46.42900 12.94400 25.47400
C  47.71600 13.81500 22.42800
C  46.79700 10.77900 24.03100
C  47.53900 10.09800 25.20900
N  45.98200 13.88100 28.31400
C  45.10900 12.99900 27.58500
C  43.94500 12.76200 28.39400
C  44.10900 13.50900 29.57000
C  45.38100 14.10700 29.47800
C  42.76600 11.90600 27.94000
C  43.50400 13.83400 30.82600
O  42.40800 13.60000 31.38300
C  44.57800 14.65700 31.60900
C  43.94000 15.94400 31.88300
O  43.60400 16.74700 31.04200
O  43.89900 16.16000 33.22000
C  43.37000 17.31400 33.74700
H  50.76800 17.29300 30.08500
H  50.16300 14.30000 24.30200
H  44.58500 11.94200 25.91500
H  46.58500 16.63800 32.43300
H  49.66100 16.42200 32.37300
H  48.87800 18.89900 30.96800
H  49.64000 18.50900 32.61700
H  47.84900 18.58200 32.27800
H  48.48400 14.98800 33.79000
H  47.28900 14.01600 32.91600
H  46.17200 14.20700 34.79400
H  45.83900 15.85900 34.44000
H  52.26500 18.12700 28.63300
H  53.33300 17.94900 27.32100
H  53.49600 16.79700 28.65800
H  54.20700 16.17900 26.25700
H  54.05900 17.41700 24.91100
H  54.65400 15.86200 24.65800
H  48.76100 12.36200 23.61500
H  45.83100 12.67000 23.60800
H  46.73500 14.28700 22.47400
H  47.90300 13.11500 21.61400
H  48.44800 14.62000 22.35900
H  47.37100 10.62200 23.11800
H  45.84600 10.28400 23.83400
H  47.09400 10.53400 26.10300
H  48.60700 10.31100 25.15900
H  47.32900 9.02800 25.21500
H  42.80400 10.89800 28.35400
H  42.76700 11.72500 26.86500
H  41.85500 12.46900 28.14100
H  44.91500 14.09800 32.48100
H  44.07800 18.09900 33.48100
H  43.32400 17.41800 34.83100
H  42.35700 17.42100 33.35900
Mg 47.27000 24.23300 28.34100
C  48.23200 26.53200 30.69400
C  46.34200 22.08400 30.99000
C  47.11500 21.68900 26.20100
C  48.51600 26.31000 25.83900
N  47.46200 24.18700 30.53500
C  47.67900 25.35100 31.24100
C  47.37800 25.24900 32.71200
C  46.96100 23.70000 32.88100
C  46.81700 23.34900 31.41300
C  47.99700 22.75800 33.59600
C  46.20700 26.20900 33.12500
C  46.36500 26.71600 34.68700
H  45.23200 26.52000 35.66500
N  46.65600 22.25500 28.54500
C  46.26300 21.62400 29.67100
C  45.89300 20.26700 29.29500
C  46.05200 20.12900 27.84200
C  46.63000 21.40500 27.48300
C  45.47300 19.12200 30.38300
C  45.82500 18.85100 27.05100
O  46.00200 18.81500 25.84000
C  45.21000 17.60000 27.77900
N  48.02700 23.96500 26.36200
C  47.77800 22.81300 25.65000
C  47.89400 23.06300 24.13200
C  48.15900 24.59100 23.97400
C  48.34100 25.00000 25.45700
C  48.89900 22.07400 23.51200
C  47.17100 25.32400 23.15100
C  45.88100 25.72200 23.78100
N  48.23400 26.06200 28.24900
C  48.65300 26.81800 27.17600
C  49.04200 28.16000 27.63000
C  48.85300 28.13000 29.04400
C  48.44200 26.81600 29.32800
C  49.67800 29.26400 26.85200
C  48.92600 28.93500 30.27400
O  49.12800 30.17000 30.45800
C  48.64100 27.82700 31.38600
C  49.82700 27.69100 32.23500
O  50.91300 27.29100 31.88100
O  49.45700 27.99500 33.50900
C  50.46000 27.68100 34.53100
H  45.91000 21.53100 31.82700
H  46.93600 20.97200 25.39700
H  48.65400 27.09900 25.09700
H  48.28200 25.49700 33.26800
H  45.94000 23.51600 33.21400
H  48.60200 23.38600 34.25000
H  48.71400 22.23500 32.96400
H  47.49500 21.95600 34.13700
H  45.22500 25.75700 32.99000
H  46.04200 27.10400 32.52500
H  46.45200 27.80200 34.65600
H  47.32000 26.28600 34.99100
H  44.53100 18.81400 29.92900
H  45.16500 19.58100 31.32300
H  46.23300 18.36200 30.56500
H  45.07600 16.79700 27.05500
H  44.23500 17.84200 28.20400
H  45.76800 17.06400 28.54600
H  46.87300 22.87000 23.80300
H  49.20100 24.71500 23.68000
H  49.33500 21.41300 24.26100
H  49.60300 22.64700 22.91000
H  48.51100 21.41300 22.73700
H  46.93900 24.71400 22.27800
H  47.72900 26.23300 22.92500
H  45.22700 25.28600 23.02600
H  45.80500 26.80400 23.89500
H  45.72900 25.33200 24.78800
H  50.18500 28.76700 26.02400
H  50.35300 29.72000 27.57600
H  48.99000 30.02700 26.48800
H  47.79600 28.32700 31.85900
H  49.87600 27.34200 35.38600
H  50.92600 28.62200 34.82200
H  51.19700 26.95800 34.17800

