158

Mg 2.56300 -1.16500 43.72500
C  6.00900 -0.39500 43.30300
C  1.85700 1.98200 42.21100
C  -0.44300 -2.20100 43.02500
C  3.49200 -4.40200 44.77600
N  3.77100 0.57500 42.80600
C  5.13700 0.66800 42.80700
C  5.66700 1.91300 42.10700
C  4.36500 2.71000 41.85900
C  3.23800 1.79900 42.38400
C  4.30300 4.11700 42.36700
C  6.47200 1.60300 40.75400
C  7.28100 2.77400 40.16500
H  6.90700 3.23800 38.73000
N  0.87800 -0.17500 43.06200
C  0.78600 1.10700 42.45300
C  -0.51900 1.43100 42.19200
C  -1.27200 0.21000 42.39100
C  -0.30200 -0.80600 42.88500
C  -0.99400 2.73100 41.59600
C  -2.65600 -0.03700 41.96900
O  -3.35600 0.76000 41.37900
C  -3.36500 -1.40700 42.30800
N  1.67000 -3.07000 43.87600
C  0.38600 -3.27800 43.49500
C  0.02400 -4.81700 43.57400
C  1.16200 -5.35500 44.44500
C  2.16100 -4.24500 44.41800
C  -1.41800 -5.18300 43.95900
C  1.71100 -6.79800 44.04400
C  1.75100 -7.85900 45.18800
N  4.32300 -2.18000 44.08600
C  4.57600 -3.44000 44.55600
C  5.96200 -3.67300 44.74100
C  6.55900 -2.52900 44.21300
C  5.58400 -1.58700 43.88700
C  6.58900 -4.92200 45.31900
C  7.85700 -1.86500 43.96500
O  8.98900 -2.20300 44.19600
C  7.52700 -0.53300 43.26100
C  8.48700 0.52100 43.79600
O  9.60300 0.81000 43.30400
O  7.99000 1.09600 44.99500
C  8.93400 1.99000 45.72300
H  1.54900 2.93900 41.78500
H  -1.42200 -2.64000 42.82000
H  3.79600 -5.36200 45.19800
H  6.27300 2.55500 42.74700
H  4.20400 2.86900 40.79200
H  3.26000 4.42800 42.30700
H  4.90200 4.74100 41.70400
H  4.82500 4.09000 43.32400
H  5.70300 1.39200 40.01100
H  7.10700 0.72300 40.85500
H  8.37000 2.73100 40.20100
H  6.98400 3.66100 40.72500
H  -2.02200 3.01800 41.81900
H  -0.58100 2.88500 40.59900
H  -0.42400 3.46400 42.16600
H  -4.42700 -1.17300 42.23700
H  -3.42300 -1.78700 43.32800
H  -3.12000 -2.17800 41.57800
H  0.26100 -5.19100 42.57800
H  0.79700 -5.40000 45.47100
H  -1.41300 -6.03200 44.64300
H  -2.02400 -5.50900 43.11400
H  -1.99800 -4.32700 44.30300
H  2.69600 -6.61000 43.61800
H  1.15000 -7.33400 43.27800
H  2.83000 -7.95900 45.30700
H  1.10500 -8.71100 44.98100
H  1.33400 -7.32800 46.04400
H  6.34300 -5.87500 44.85000
H  6.09200 -4.93000 46.28900
H  7.67300 -4.83600 45.39700
H  7.80200 -0.73100 42.22500
H  8.70800 2.99500 45.36800
H  9.99300 1.73500 45.74500
H  8.61500 1.93600 46.76400
Mg 36.13400 1.50700 30.40000
C  33.57200 2.68500 32.57000
C  38.13400 1.09800 33.06400
C  38.51800 0.45100 28.25100
C  33.89700 1.82400 27.77900
N  35.85800 1.94400 32.57800
C  34.78000 2.48700 33.26700
C  34.96900 2.40600 34.75200
C  36.57100 2.18500 34.85700
C  36.82900 1.62300 33.39200
C  37.42600 3.47000 35.08900
C  34.06600 1.34200 35.48100
C  33.52000 1.82200 36.83900
H  34.24300 2.91900 37.60800
N  38.06100 0.83400 30.64600
C  38.63100 0.61400 31.82900
C  39.92100 -0.00800 31.58600
C  39.99100 -0.26100 30.21100
C  38.81400 0.28600 29.63700
C  40.93600 -0.33800 32.72500
C  40.97200 -1.02600 29.36600
O  40.73200 -1.45200 28.23000
C  42.25700 -1.55800 29.96700
N  36.28100 1.33900 28.25000
C  37.34100 0.95000 27.54400
C  37.00600 0.85200 26.04600
C  35.53400 1.25400 25.93300
C  35.20100 1.53000 27.41300
C  37.89800 1.63200 25.00000
C  34.57100 0.21100 25.33900
C  34.00900 0.56000 23.96500
N  34.15800 2.10600 30.13000
C  33.40800 2.23700 29.02100
C  32.13500 2.75400 29.34200
C  32.10800 2.94300 30.74700
C  33.37400 2.52800 31.20100
C  31.07800 3.09200 28.34200
C  31.31800 3.45400 31.85500
O  30.20900 3.93900 31.92500
C  32.21500 3.22900 33.12100
C  32.38500 4.53900 33.86700
O  33.14100 5.40000 33.60200
O  31.50900 4.61600 34.89500
C  31.51800 5.84400 35.67500
H  38.88300 1.01400 33.85300
H  39.23700 0.22500 27.46000
H  33.19800 1.90000 26.94300
H  34.77300 3.40400 35.14400
H  36.81800 1.50400 35.67100
H  37.11900 3.99700 35.99200
H  37.35300 4.11500 34.21400
H  38.51300 3.42700 35.14900
H  34.65000 0.45500 35.72400
H  33.21400 1.09100 34.85000
H  33.42200 0.91900 37.44100
H  32.50100 2.14100 36.62000
H  41.19600 -1.39300 32.80400
H  40.42500 -0.18600 33.67600
H  41.84700 0.22300 32.51700
H  42.22000 -2.04400 30.94200
H  42.98200 -0.75900 29.81100
H  42.73600 -2.34600 29.38700
H  37.22800 -0.20000 25.86600
H  35.32500 2.26000 25.56700
H  38.71100 2.20600 25.44500
H  37.31100 2.33800 24.41300
H  38.38600 0.87600 24.38500
H  33.72900 -0.04800 25.98000
H  35.02200 -0.75600 25.11300
H  32.92100 0.55900 24.03400
H  34.26200 -0.11600 23.14800
H  34.30400 1.57900 23.71400
H  31.39100 3.17400 27.30100
H  30.55500 4.01100 28.60600
H  30.37600 2.25900 28.33700
H  31.67500 2.48300 33.70500
H  31.71800 6.66400 34.98600
H  32.19600 5.72300 36.52000
H  30.44900 5.94000 35.86700

