158

Mg 45.06700 3.65900 47.03800
C  43.17000 6.55800 46.93400
C  42.39700 1.78400 47.16200
C  47.14600 1.02600 46.28700
C  48.07300 5.89000 46.74200
N  43.03200 4.14800 46.88100
C  42.41500 5.35300 46.86800
C  40.90000 5.23700 46.93400
C  40.72900 3.68800 47.07800
C  42.14000 3.16500 47.05200
C  39.94900 3.10600 48.35500
C  40.07800 5.75200 45.72300
C  40.69600 5.68100 44.38700
H  40.98900 6.92400 43.59600
N  44.75800 1.70100 46.68900
C  43.56100 0.99600 46.87900
C  43.81300 -0.42600 46.69200
C  45.20200 -0.59800 46.35400
C  45.73600 0.78900 46.34900
C  42.76700 -1.48500 46.82500
C  45.85500 -1.88700 45.99300
O  45.24600 -2.94800 46.15400
C  47.25400 -1.94600 45.51600
N  47.36000 3.53100 46.76900
C  47.86000 2.30900 46.43900
C  49.40000 2.42500 46.27700
C  49.71500 3.91800 46.40800
C  48.31500 4.48700 46.71000
C  50.13800 1.53600 47.41000
C  50.50200 4.56400 45.20000
C  51.98400 4.77700 45.38000
N  45.60800 5.77300 46.99000
C  46.74500 6.49100 46.89300
C  46.49000 7.92600 46.87500
C  45.10000 8.04400 46.98600
C  44.61100 6.70500 46.94100
C  47.59600 8.99300 46.74000
C  43.95200 8.87900 47.06100
O  43.79500 10.08100 46.95800
C  42.67500 7.87500 46.98500
C  41.69700 8.22700 48.11100
O  41.67500 7.60800 49.17600
O  40.71700 9.00300 47.57300
C  39.49200 9.05300 48.33400
H  41.55300 1.10200 47.28200
H  47.93600 0.27700 46.19700
H  48.93100 6.54000 46.55400
H  40.38800 5.70100 47.77700
H  40.19900 3.21500 46.25100
H  39.26000 3.89000 48.67000
H  40.71700 2.89200 49.09800
H  39.44500 2.18200 48.07200
H  39.88800 6.82300 45.80200
H  39.09300 5.29300 45.81500
H  39.97900 5.01800 43.90300
H  41.65000 5.16600 44.50500
H  42.83000 -2.08500 45.91700
H  41.77100 -1.05600 46.71100
H  42.91600 -2.15200 47.67400
H  47.39800 -2.97800 45.19900
H  47.94800 -1.76400 46.33700
H  47.34600 -1.21500 44.71300
H  49.73700 2.18500 45.26800
H  50.28700 4.04400 47.32700
H  50.87700 2.21300 47.83900
H  50.67200 0.65500 47.05300
H  49.50000 1.23400 48.24000
H  50.11600 5.57000 45.03800
H  50.36600 4.04100 44.25300
H  52.22100 5.83800 45.46300
H  52.44000 4.32300 44.50000
H  52.33800 4.20000 46.23400
H  48.17500 8.70100 45.86400
H  48.17300 9.06600 47.66100
H  47.16900 9.99700 46.74600
H  42.14900 8.24800 46.10600
H  39.11200 8.03200 48.37200
H  38.74700 9.73700 47.93000
H  39.78500 9.40100 49.32400
Mg 26.99500 49.35000 26.38800
C  24.67700 50.44500 28.72800
C  29.15000 48.71600 29.09000
C  29.26800 48.35500 24.29000
C  24.91000 50.46500 23.85300
N  26.93600 49.69100 28.67800
C  25.80600 49.93600 29.35200
C  25.98100 49.71600 30.93700
C  27.50400 49.28300 30.96200
C  27.87200 49.18800 29.49700
C  28.38100 50.41000 31.61500
C  24.98800 48.66100 31.52300
C  24.12300 48.93600 32.73200
H  24.76700 49.67800 33.96600
N  28.90900 48.70100 26.66200
C  29.61600 48.46900 27.82500
C  30.87800 47.90700 27.54900
C  31.02800 47.93400 26.19200
C  29.69700 48.31300 25.62800
C  31.94500 47.51800 28.58300
C  32.26400 47.55200 25.28900
O  32.34300 47.66900 24.06300
C  33.60200 47.12800 25.88700
N  27.14400 49.53800 24.33900
C  28.14400 48.87900 23.69000
C  27.86300 48.80000 22.22600
C  26.39100 49.35400 22.02100
C  26.17400 49.87800 23.49500
C  28.90800 49.50400 21.33000
C  25.39100 48.20900 21.54900
C  24.62400 47.36500 22.58800
N  25.13900 50.24700 26.26100
C  24.41300 50.67000 25.10800
C  23.18500 51.29400 25.57500
C  23.19400 51.16000 26.92600
C  24.43100 50.56800 27.37100
C  22.16400 51.99500 24.69300
C  22.40800 51.34800 28.16400
O  21.27400 51.80500 28.30800
C  23.28500 50.83300 29.39700
C  23.41600 51.96700 30.40900
O  24.36500 52.73600 30.46700
O  22.47200 51.80100 31.37900
C  22.49400 52.76300 32.39300
H  29.77900 48.34800 29.90300
H  29.97500 47.89700 23.59600
H  24.20600 50.69800 23.05200
H  25.75900 50.62300 31.49900
H  27.69300 48.35600 31.50300
H  29.32500 50.49900 31.07700
H  28.57000 50.13700 32.65300
H  27.89400 51.38300 31.54300
H  25.65000 47.84100 31.80000
H  24.42000 48.23100 30.69800
H  23.81700 47.92900 33.01500
H  23.28200 49.56500 32.44000
H  32.17600 46.46600 28.41300
H  31.57200 47.53700 29.60700
H  32.90700 48.02700 28.63100
H  34.12300 46.67100 25.04600
H  33.32400 46.38700 26.63700
H  34.11200 47.98400 26.32700
H  27.97500 47.74700 21.96500
H  26.29600 50.27200 21.44200
H  29.45300 48.75800 20.75200
H  29.50500 50.15600 21.96700
H  28.44300 50.21400 20.64500
H  26.01000 47.60400 20.88600
H  24.64300 48.74600 20.96600
H  24.92700 46.39500 22.19400
H  23.53800 47.44100 22.62300
H  25.06600 47.43400 23.58200
H  22.01000 51.49000 23.74000
H  22.50200 53.01200 24.49600
H  21.26000 52.05500 25.29900
H  22.74900 50.01300 29.87600
H  22.58700 53.79000 32.04200
H  23.23900 52.50500 33.14600
H  21.47900 52.70400 32.78500

