158

Mg 40.60600 8.66900 29.68900
C  42.31000 10.03600 32.53300
C  38.35900 7.25100 31.85500
C  39.10400 7.33600 27.01200
C  42.96400 10.19500 27.69100
N  40.49500 8.53500 31.98200
C  41.22200 9.21700 32.88700
C  40.61600 9.07200 34.30200
C  39.55300 7.97800 34.05300
C  39.46900 7.85100 32.50800
C  39.80300 6.65100 34.74500
C  40.11300 10.55800 34.70700
C  40.77700 11.19500 35.94000
H  39.93000 11.87800 36.97000
N  38.97900 7.50600 29.48300
C  38.18500 7.03200 30.43400
C  37.11400 6.28700 29.89000
C  37.22000 6.40100 28.48200
C  38.46800 7.06700 28.26200
C  36.04500 5.61800 30.74500
C  36.16600 5.98400 27.38700
O  36.32400 6.11800 26.15200
C  34.86100 5.22800 27.84500
N  40.89700 8.87800 27.66900
C  40.19600 8.17200 26.72600
C  40.75600 8.34600 25.24100
C  41.93900 9.28200 25.47900
C  41.92200 9.45600 27.06100
C  41.15500 7.03400 24.48600
C  41.83800 10.71900 24.79100
C  42.95700 11.08700 23.77200
N  42.37100 9.85800 29.98600
C  43.24000 10.33800 29.07100
C  44.30400 11.02500 29.72700
C  44.00100 10.96900 31.02800
C  42.79500 10.23300 31.14800
C  45.40700 11.70600 29.09100
C  44.36100 11.41800 32.34700
O  45.27000 12.14100 32.73600
C  43.26800 10.91400 33.26200
C  43.93600 10.17900 34.42800
O  44.40700 9.11000 34.34900
O  44.03300 11.02100 35.54300
C  44.72700 10.34400 36.66400
H  37.49300 7.03700 32.48600
H  38.66200 6.81900 26.15800
H  43.65900 10.63000 26.97000
H  41.43000 8.65800 34.89800
H  38.57700 8.42100 34.25000
H  39.88700 5.77700 34.10000
H  38.97800 6.38300 35.40500
H  40.71000 6.74700 35.34300
H  39.08400 10.31700 34.97100
H  40.10900 11.34900 33.95700
H  41.53700 11.91200 35.62900
H  41.40900 10.43300 36.39600
H  36.59900 5.13500 31.55000
H  35.52900 4.78400 30.26800
H  35.27500 6.29800 31.11000
H  34.31100 5.81200 28.58300
H  35.36900 4.30300 28.11800
H  34.23300 5.23300 26.95400
H  39.86100 8.75200 24.77000
H  42.88900 8.87500 25.13200
H  40.47100 6.95000 23.64200
H  41.02600 6.25000 25.23300
H  42.20800 7.10900 24.21800
H  41.77200 11.55300 25.49000
H  40.86500 10.81000 24.30800
H  43.76900 10.36100 23.80200
H  43.32400 11.97300 24.29000
H  42.46600 11.08000 22.79900
H  45.13600 12.67500 28.67300
H  45.72200 11.04800 28.28100
H  46.28200 11.68100 29.74100
H  42.93600 11.87500 33.65600
H  45.79300 10.14100 36.55900
H  44.15000 9.51100 37.06600
H  44.67500 10.96700 37.55700
Mg 41.39500 41.92900 26.14300
C  40.73800 44.22900 28.63700
C  42.44800 39.65700 28.56100
C  42.63700 39.98500 23.69400
C  40.60200 44.46500 23.80200
N  41.41600 41.86300 28.32800
C  41.13900 42.97400 29.10600
C  41.28100 42.69100 30.61600
C  41.84700 41.21100 30.53500
C  41.88100 40.83800 29.07500
C  43.14400 40.93300 31.34800
C  39.97400 42.73800 31.53100
C  40.24400 43.27000 32.99300
H  40.20500 42.29800 34.10500
N  42.33100 40.00300 26.14800
C  42.70200 39.23400 27.25300
C  43.29100 38.02700 26.76500
C  43.39700 38.11400 25.33100
C  42.81200 39.41800 24.98000
C  43.88700 36.95800 27.63200
C  44.16800 37.17400 24.35000
O  44.36200 37.42900 23.15500
C  44.80300 35.87400 24.83600
N  41.67900 42.20600 24.09800
C  42.17200 41.24700 23.24400
C  42.01200 41.59100 21.76300
C  41.24100 42.99700 21.84000
C  41.12700 43.27200 23.34300
C  43.27100 41.58200 20.89000
C  39.82000 43.12100 21.23500
C  39.42900 44.41600 20.50400
N  40.71900 43.90700 26.14300
C  40.42800 44.76600 25.16700
C  40.09200 46.06700 25.72600
C  40.07200 45.89000 27.10100
C  40.53000 44.57800 27.32600
C  39.87000 47.39800 25.02500
C  39.89400 46.56100 28.44400
O  39.56700 47.69200 28.72300
C  40.29500 45.48100 29.50500
C  41.27300 45.99800 30.34200
O  42.43000 46.03100 30.07000
O  40.70000 46.25500 31.59200
C  41.64200 46.85000 32.54700
H  42.69100 38.95600 29.36200
H  42.94600 39.33700 22.87100
H  40.23000 45.20500 23.09100
H  42.05200 43.39500 30.92900
H  41.05900 40.50400 30.79600
H  43.32500 41.69900 32.10200
H  44.09700 40.84300 30.82600
H  43.14200 40.05800 31.99800
H  39.56500 41.73300 31.63800
H  39.12600 43.21100 31.03600
H  39.51300 44.06500 33.14100
H  41.20600 43.76200 32.84700
H  44.93900 37.21400 27.76000
H  43.78900 36.01700 27.09100
H  43.34600 36.99500 28.57800
H  45.45200 35.98800 25.70500
H  45.49200 35.49800 24.08000
H  44.07400 35.13600 25.17100
H  41.42100 40.80900 21.28500
H  41.86600 43.80700 21.46500
H  44.12600 41.39600 21.54100
H  43.40300 42.48700 20.29600
H  43.23100 40.70800 20.24000
H  39.08700 43.12600 22.04200
H  39.69600 42.37800 20.44700
H  38.44900 44.71100 20.87800
H  39.29900 44.25900 19.43300
H  40.19800 45.17800 20.62800
H  38.89200 47.35800 24.54500
H  40.71900 47.52200 24.35300
H  39.81500 48.21600 25.74300
H  39.44600 45.19100 30.12500
H  42.15700 46.03100 33.04900
H  41.08300 47.39400 33.30800
H  42.39000 47.58400 32.24500

