158

Mg 1.46900 -1.06900 44.18800
C  4.80300 -0.15700 43.46000
C  0.59900 1.50700 42.19000
C  -1.70200 -2.23000 44.22300
C  2.59900 -4.06900 45.54600
N  2.55300 0.57900 43.08100
C  3.91500 0.72700 42.86900
C  4.28800 1.95000 41.93000
C  2.88700 2.63000 41.84500
C  1.92500 1.47200 42.37000
C  2.74300 3.86800 42.74000
C  4.87200 1.41500 40.57700
C  6.25100 1.81300 40.20800
H  6.40100 2.87000 39.09800
N  -0.29900 -0.47100 43.35300
C  -0.50500 0.69200 42.61100
C  -1.87600 1.00100 42.47500
C  -2.61100 -0.14000 43.00300
C  -1.53200 -0.99700 43.60100
C  -2.39000 2.17800 41.74500
C  -4.10200 -0.31100 42.96700
O  -4.80800 0.62300 42.52000
C  -4.78300 -1.50600 43.42000
N  0.58600 -3.12000 44.48200
C  -0.76300 -3.18700 44.66900
C  -1.11800 -4.50400 45.29600
C  0.27000 -5.13700 45.84700
C  1.23200 -3.99900 45.34700
C  -2.18600 -4.37900 46.40300
C  0.67700 -6.49800 45.16500
C  0.70800 -7.74900 46.05000
N  3.32200 -1.92200 44.57500
C  3.62300 -3.12200 45.16100
C  5.07900 -3.23600 45.39200
C  5.56100 -2.11000 44.73000
C  4.48200 -1.31600 44.22200
C  5.78000 -4.42600 46.03200
C  6.77500 -1.56000 44.24800
O  7.95500 -1.86200 44.37900
C  6.36400 -0.20300 43.46500
C  7.04800 0.98600 44.19900
O  8.22900 1.20900 44.22600
O  6.14500 1.76400 44.97800
C  6.77700 3.01300 45.36600
H  0.30500 2.39600 41.62800
H  -2.71400 -2.51300 44.51800
H  3.00400 -4.89800 46.13000
H  5.04700 2.60400 42.35900
H  2.62200 2.76700 40.79600
H  2.26800 4.64500 42.14100
H  3.72300 4.20200 43.08100
H  2.09400 3.71400 43.60300
H  4.23600 1.78700 39.77300
H  4.85300 0.32800 40.49000
H  6.91500 1.00300 39.90700
H  6.80400 2.26600 41.03100
H  -3.22400 2.57000 42.32900
H  -2.78000 1.99200 40.74400
H  -1.71400 3.03300 41.75600
H  -5.85000 -1.52600 43.19800
H  -4.72500 -1.38500 44.50200
H  -4.30500 -2.42800 43.08800
H  -1.53500 -5.15800 44.52900
H  0.25500 -5.11900 46.93700
H  -2.27500 -3.35100 46.75400
H  -1.89800 -4.92100 47.30300
H  -3.23200 -4.58000 46.17300
H  1.60400 -6.44900 44.59300
H  -0.15100 -6.71800 44.49100
H  0.03700 -7.52800 46.88000
H  1.68500 -8.21700 46.17300
H  0.11300 -8.53600 45.58700
H  6.30000 -5.08300 45.33600
H  5.06000 -4.98900 46.62700
H  6.59200 -4.13600 46.69900
H  6.83700 -0.24200 42.48300
H  6.12700 3.70900 45.89600
H  7.08500 3.56300 44.47700
H  7.59300 2.86500 46.07500
Mg -10.17800 17.29300 41.00600
C  -6.67000 17.28900 41.00700
C  -10.08500 20.58500 40.33400
C  -13.50000 17.12500 40.54500
C  -10.17100 13.74700 41.44200
N  -8.45800 18.74100 40.44800
C  -7.11500 18.56600 40.57200
C  -6.36400 19.86000 40.25000
C  -7.51500 20.92700 40.47900
C  -8.80200 20.05500 40.44600
C  -7.36900 21.93000 41.72200
C  -5.78600 19.80400 38.82400
C  -4.31300 19.32200 38.77700
H  -4.10000 18.20200 37.76400
N  -11.61300 18.70200 40.58100
C  -11.35900 19.95300 40.23800
C  -12.61400 20.66000 39.96900
C  -13.68800 19.73500 40.09500
C  -12.89600 18.41800 40.46200
C  -12.60800 22.12600 39.47000
C  -15.17500 19.96300 39.81500
O  -15.49200 21.08600 39.54200
C  -16.27400 18.88300 39.75100
N  -11.60100 15.63500 41.04100
C  -12.88500 15.85400 40.72200
C  -13.71300 14.56600 40.59800
C  -12.64800 13.46300 40.97800
C  -11.38200 14.32400 41.15300
C  -14.98900 14.57900 41.52600
C  -12.46500 12.28400 39.99600
C  -11.74900 12.61400 38.63100
N  -8.78700 15.78700 41.21800
C  -8.91500 14.44100 41.42700
C  -7.67900 13.82900 41.74700
C  -6.68600 14.87500 41.60600
C  -7.43500 16.10300 41.28000
C  -7.47200 12.37400 41.86300
C  -5.30700 15.23100 41.62700
O  -4.32200 14.51500 41.90100
C  -5.21900 16.76400 41.28300
C  -4.39800 17.34900 42.34500
O  -3.30300 16.94300 42.63700
O  -4.99800 18.45100 42.92100
C  -4.20600 19.19300 43.89600
H  -10.10300 21.66600 40.18000
H  -14.56500 17.11900 40.30100
H  -10.14500 12.65600 41.41100
H  -5.50900 19.99600 40.91200
H  -7.54200 21.44800 39.52200
H  -6.39900 21.78900 42.19800
H  -8.15400 21.69100 42.43900
H  -7.58500 22.97400 41.49200
H  -5.95200 20.76500 38.33800
H  -6.38100 19.12200 38.21600
H  -3.92600 18.83800 39.67400
H  -3.72300 20.19200 38.48800
H  -13.45500 22.23400 38.79300
H  -11.71200 22.36900 38.89800
H  -12.70200 22.79400 40.32700
H  -16.07600 18.18300 38.93900
H  -17.20300 19.44000 39.63000
H  -16.33900 18.28700 40.66100
H  -14.07700 14.42800 39.58000
H  -12.75300 13.07500 41.99200
H  -14.61400 14.66700 42.54600
H  -15.54500 13.66400 41.32500
H  -15.63900 15.42400 41.30000
H  -13.44300 11.88800 39.72000
H  -11.94100 11.54500 40.60300
H  -12.49600 12.48000 37.84900
H  -10.86700 12.02000 38.38900
H  -11.49000 13.67200 38.58300
H  -8.31300 11.89700 42.36600
H  -6.49000 12.17000 42.29000
H  -7.51000 11.96800 40.85200
H  -4.58400 16.81100 40.39900
H  -3.25600 19.46800 43.43800
H  -3.97500 18.46700 44.67500
H  -4.67000 20.14300 44.16300

