158

Mg 24.85200 -4.30100 45.71500
C  27.16600 -2.11200 44.17300
C  22.46000 -3.48400 43.26300
C  22.76900 -7.00900 46.60000
C  27.26100 -5.55900 47.83700
N  24.87900 -2.93100 43.86000
C  25.93400 -2.11000 43.47700
C  25.52900 -1.25700 42.32100
C  23.95100 -1.58500 42.14300
C  23.68700 -2.72800 43.14700
C  22.91900 -0.38500 42.37900
C  26.41000 -1.48500 41.02800
C  26.12400 -0.49600 39.85100
H  25.87900 -1.06500 38.45800
N  22.87800 -5.06900 45.10100
C  22.05500 -4.49900 44.16600
C  20.79000 -5.27600 44.07900
C  20.88900 -6.34100 44.98800
C  22.20100 -6.21900 45.60100
C  19.70900 -4.93400 43.15100
C  19.77600 -7.35700 45.20300
O  18.85600 -7.44900 44.41600
C  19.79000 -8.36800 46.30100
N  25.02700 -6.07600 46.93700
C  24.02100 -7.00100 47.17500
C  24.57300 -8.09700 48.11700
C  25.94200 -7.57900 48.65000
C  26.07900 -6.29800 47.80600
C  23.52200 -8.52200 49.15900
C  27.09500 -8.61600 48.62400
C  27.54200 -9.26500 49.99100
N  26.79800 -3.87000 46.06500
C  27.69300 -4.46300 46.95700
C  28.89200 -3.77900 46.80400
C  28.81800 -2.85500 45.72000
C  27.50400 -2.97900 45.29100
C  30.10000 -4.17400 47.66400
C  29.47900 -1.96200 44.85600
O  30.65200 -1.59800 44.72500
C  28.40100 -1.29000 43.93400
C  28.24600 0.10400 44.34000
O  27.75800 0.49100 45.42200
O  28.66400 0.92800 43.29200
C  28.70800 2.27600 43.62300
H  21.66600 -3.17500 42.58000
H  22.20600 -7.93600 46.73000
H  28.07400 -5.82600 48.51500
H  25.55700 -0.19300 42.55300
H  23.82800 -1.99900 41.14200
H  23.43400 0.50100 42.75100
H  22.16500 -0.67500 43.11100
H  22.40800 -0.02800 41.48500
H  26.35900 -2.54500 40.77700
H  27.41500 -1.19300 41.33200
H  26.98000 0.17700 39.80800
H  25.34400 0.17500 40.21200
H  19.87700 -5.55000 42.26800
H  19.64300 -3.87700 42.89200
H  18.72000 -5.10800 43.57400
H  20.40300 -9.23400 46.05000
H  18.77700 -8.74900 46.42500
H  20.00300 -7.93300 47.27800
H  24.80700 -8.94900 47.48000
H  25.72500 -7.12400 49.61600
H  23.87500 -8.31000 50.16900
H  23.43800 -9.60100 49.02700
H  22.52700 -8.09100 49.05300
H  27.93900 -8.04600 48.23700
H  26.86200 -9.44800 47.96000
H  26.95300 -8.81600 50.79100
H  28.58400 -9.00900 50.18200
H  27.40400 -10.34700 49.99300
H  30.35900 -5.23300 47.63600
H  30.01400 -3.78200 48.67700
H  30.85600 -3.66800 47.06400
H  28.74400 -1.38500 42.90400
H  28.10800 2.67000 44.44400
H  28.34600 2.77500 42.72400
H  29.75400 2.51500 43.81000
Mg 50.63700 46.65500 42.80900
C  47.47100 47.87800 41.71000
C  49.91500 43.73100 41.06600
C  53.80300 45.75100 43.06900
C  51.21600 49.76100 44.22500
N  48.92900 45.95400 41.36800
C  47.72500 46.54300 41.21500
C  46.68900 45.58000 40.53900
C  47.42900 44.19400 40.60600
C  48.83300 44.64200 41.02800
C  46.82500 43.15400 41.56100
C  46.41500 46.00000 39.06200
C  45.03600 45.53800 38.68300
H  44.78900 44.36900 37.73000
N  51.65400 44.82900 42.33900
C  51.22300 43.79400 41.61600
C  52.29400 42.80700 41.47000
C  53.46100 43.44500 41.93400
C  53.00200 44.71500 42.53500
C  52.18900 41.47400 40.65300
C  54.87500 42.83600 41.87400
O  54.99600 41.75400 41.30000
C  56.07400 43.41300 42.42800
N  52.33400 47.61600 43.62000
C  53.56700 47.02500 43.55300
C  54.58100 47.92600 44.16000
C  53.76700 49.17100 44.58300
C  52.37600 48.93800 44.03700
C  55.26500 47.24900 45.30900
C  54.52600 50.52700 44.18600
C  55.01400 51.53800 45.27800
N  49.59900 48.49100 42.96900
C  49.98900 49.62700 43.66200
C  48.82200 50.58300 43.68900
C  47.87100 49.86400 42.93700
C  48.39400 48.70000 42.47900
C  48.81900 51.93000 44.24900
C  46.52100 49.95900 42.46400
O  45.65100 50.85200 42.61200
C  46.20700 48.69200 41.64300
C  44.91100 48.10400 42.00600
O  44.67100 47.38500 42.96800
O  43.97700 48.43400 41.07400
C  42.58000 47.87900 41.20900
H  49.63800 42.78900 40.58800
H  54.83900 45.46100 43.25900
H  51.52700 50.71200 44.66100
H  45.89600 45.54100 41.28600
H  47.49700 43.73300 39.62000
H  47.05100 42.15000 41.20200
H  45.75500 43.31800 41.43500
H  47.13600 43.20800 42.60500
H  47.05700 45.53800 38.31200
H  46.40400 47.09000 39.05500
H  44.46400 46.31300 38.17300
H  44.37000 45.35500 39.52700
H  52.84800 41.71700 39.81900
H  51.18900 41.18400 40.33200
H  52.72000 40.60500 41.04200
H  56.15700 44.47700 42.20400
H  56.98300 42.94200 42.05400
H  55.81900 43.29600 43.48100
H  55.26800 48.11600 43.33600
H  53.63800 49.16100 45.66500
H  54.91800 46.21600 45.32900
H  55.18700 47.74200 46.27800
H  56.32600 47.20900 45.06200
H  53.83400 51.11500 43.58300
H  55.48400 50.35000 43.69700
H  55.98400 51.96000 45.01100
H  55.04800 51.10200 46.27600
H  54.26400 52.32400 45.36400
H  49.55600 52.03800 45.04500
H  47.83700 52.05900 44.70200
H  48.88000 52.65700 43.43800
H  46.07200 48.92300 40.58700
H  42.76500 46.82400 41.00300
H  41.88100 48.33000 40.50500
H  42.15600 48.04000 42.20000

