158

Mg 46.92700 46.65800 43.78600
C  43.61300 46.76900 42.75300
C  47.41400 43.67700 42.01600
C  50.13500 46.88800 44.19200
C  46.42300 49.83300 45.14800
N  45.65100 45.60000 42.32200
C  44.33600 45.74500 42.16500
C  43.83600 44.57600 41.22000
C  44.93500 43.50600 41.28400
C  46.09000 44.30100 41.96900
C  44.73800 42.16200 42.13600
C  43.53600 45.11100 39.80000
C  42.26200 44.59500 39.14100
H  42.51600 43.25800 38.32300
N  48.55700 45.32100 43.28600
C  48.61300 44.21900 42.52800
C  49.93200 43.60200 42.60000
C  50.77000 44.57000 43.24200
C  49.84400 45.66600 43.55200
C  50.24600 42.22100 41.92700
C  52.23300 44.33100 43.48000
O  52.79600 43.24700 43.30700
C  53.15400 45.42900 44.11900
N  48.04500 48.12800 44.67600
C  49.42900 48.01600 44.63800
C  50.07400 49.29100 45.16500
C  48.86700 50.24900 45.48200
C  47.68600 49.37100 45.08500
C  51.22800 49.16100 46.18600
C  48.97000 51.58700 44.74800
C  49.36000 52.81700 45.55700
N  45.35000 48.11200 43.92200
C  45.24500 49.25100 44.60100
C  43.89700 49.76700 44.68100
C  43.24000 48.78100 44.02000
C  44.14100 47.83300 43.53600
C  43.41700 50.96700 45.35800
C  41.91700 48.35500 43.61200
O  40.82000 48.86600 43.77000
C  42.16900 47.00200 42.78900
C  41.48000 45.92600 43.55200
O  40.69200 45.06400 43.13000
O  41.89300 45.99100 44.82300
C  41.73300 44.78600 45.71500
H  47.45000 42.64900 41.65000
H  51.21200 47.06300 44.23700
H  46.32600 50.81300 45.62100
H  42.90200 44.13700 41.57100
H  45.37600 43.30000 40.30800
H  43.71000 41.80900 42.05600
H  44.90500 42.48200 43.16500
H  45.41600 41.38600 41.78100
H  44.37800 44.76100 39.20400
H  43.49200 46.19400 39.91700
H  41.96500 45.34500 38.40700
H  41.46900 44.34500 39.84500
H  51.23800 42.20100 41.47600
H  49.52500 42.05000 41.12800
H  50.17700 41.38400 42.62300
H  53.40300 46.16400 43.35300
H  54.10600 44.96700 44.38300
H  52.65500 45.83900 44.99600
H  50.59900 49.68400 44.29400
H  48.87300 50.40400 46.56100
H  51.09100 49.89900 46.97600
H  52.14400 49.49000 45.69400
H  51.13800 48.17100 46.63200
H  48.02400 51.75900 44.23500
H  49.72700 51.43100 43.97800
H  50.39200 53.10600 45.35800
H  49.04400 52.84300 46.59900
H  48.83000 53.67900 45.15100
H  44.15700 51.53700 45.92000
H  42.77800 50.57200 46.14800
H  42.80500 51.49500 44.62700
H  41.69700 47.07200 41.80900
H  42.04400 45.00200 46.73800
H  42.31600 43.91300 45.41900
H  40.65700 44.66200 45.83300
Mg 25.42900 52.15800 26.91700
C  22.91700 52.83400 29.46200
C  27.51000 51.24900 29.56800
C  28.01300 52.17000 24.81600
C  23.33100 53.49900 24.63600
N  25.23500 52.17100 29.28400
C  24.10000 52.27600 30.07700
C  24.32400 51.94700 31.52200
C  25.89100 51.68100 31.55900
C  26.26600 51.69900 30.04700
C  26.74500 52.76400 32.39900
C  23.41400 50.76600 32.06900
C  23.01300 50.65600 33.52900
H  23.70300 51.44800 34.60800
N  27.38500 51.64300 27.15100
C  28.04300 51.21500 28.23500
C  29.44100 50.88100 27.95600
C  29.66100 51.23200 26.60300
C  28.34300 51.70800 26.14200
C  30.43100 50.41100 28.98200
C  30.85400 51.13200 25.73400
O  30.87200 51.49900 24.54200
C  32.11200 50.57600 26.33000
N  25.62900 52.69600 24.94500
C  26.77400 52.65800 24.25100
C  26.66600 53.18000 22.84900
C  25.17000 53.46500 22.79000
C  24.63700 53.21500 24.21600
C  27.58000 54.35500 22.44800
C  24.40600 52.63300 21.74100
C  23.62100 51.39400 22.17500
N  23.47000 52.91100 27.01600
C  22.70300 53.38600 25.93500
C  21.42400 53.79900 26.39700
C  21.52700 53.71500 27.82100
C  22.72800 53.07100 28.09100
C  20.20700 54.36000 25.72800
C  20.77400 53.95500 29.07300
O  19.66700 54.32700 29.22000
C  21.67000 53.33900 30.15700
C  22.02500 54.33000 31.21800
O  22.75700 55.27000 31.09400
O  21.16500 54.11500 32.28300
C  21.19600 55.25200 33.20000
H  28.18800 50.96500 30.37600
H  28.76300 52.25900 24.02700
H  22.67600 54.09900 24.00000
H  23.92900 52.80900 32.05800
H  26.06800 50.67400 31.93700
H  27.29600 53.52400 31.84500
H  27.41000 52.23400 33.08000
H  26.17100 53.41700 33.05800
H  23.93900 49.83900 31.84200
H  22.47700 50.78600 31.51300
H  23.07100 49.59000 33.74500
H  21.97900 50.93300 33.73500
H  30.09800 50.46300 30.01900
H  31.35900 50.97400 28.87900
H  30.61600 49.38100 28.67800
H  31.90100 49.62200 26.81300
H  32.29100 51.33000 27.09700
H  33.00300 50.52400 25.70500
H  26.94400 52.36400 22.18100
H  25.02400 54.54200 22.71800
H  28.36500 54.00400 21.77800
H  28.03800 54.89900 23.27400
H  26.96200 55.06100 21.89300
H  25.14600 52.28800 21.01800
H  23.70700 53.23500 21.16000
H  24.01800 51.07100 23.13800
H  23.87400 50.57700 21.49900
H  22.54100 51.50700 22.08200
H  20.64000 54.60800 24.75900
H  19.84400 55.28000 26.18700
H  19.32500 53.72300 25.66400
H  21.21600 52.50500 30.69100
H  21.25500 56.26700 32.80700
H  22.00000 55.10800 33.92200
H  20.20000 55.19300 33.64000

