158

Mg 27.22500 49.81300 27.35900
C  25.09900 50.98900 29.97300
C  29.27600 48.73200 29.85700
C  29.27900 49.05400 24.89200
C  24.88100 51.04200 25.06600
N  27.09300 49.94700 29.58400
C  26.15900 50.36100 30.50100
C  26.41300 50.03400 31.99800
C  27.73400 49.21000 31.82600
C  28.09400 49.29100 30.32700
C  29.00700 49.55600 32.74800
C  25.27500 49.35500 32.75500
C  24.88300 50.11400 34.08900
H  24.59700 49.30500 35.30000
N  29.07300 49.06000 27.42500
C  29.77900 48.62900 28.49300
C  31.12600 48.26500 28.02100
C  31.17700 48.39800 26.61800
C  29.80000 48.80100 26.25600
C  32.23700 47.85200 29.03500
C  32.31200 48.12200 25.64100
O  32.22300 48.33100 24.41000
C  33.60400 47.64400 26.13300
N  27.12200 50.11700 25.32600
C  27.99700 49.51200 24.51900
C  27.69900 49.56900 23.01600
C  26.20700 50.07200 23.09000
C  26.05400 50.50300 24.53000
C  28.69300 50.38900 22.11800
C  25.06300 49.08200 22.60400
C  23.80600 49.85200 21.96600
N  25.35600 50.86100 27.42000
C  24.51700 51.28400 26.42600
C  23.31500 51.88000 26.99500
C  23.54900 51.85500 28.38000
C  24.80800 51.19400 28.57300
C  22.16700 52.38500 26.19100
C  22.87500 52.11600 29.61200
O  21.72700 52.45600 29.85600
C  23.92000 51.59600 30.66500
C  24.31400 52.72000 31.63000
O  25.26400 53.51300 31.45700
O  23.44200 52.87600 32.70100
C  23.83900 53.86400 33.68700
H  29.85600 48.33000 30.69000
H  29.86000 48.84300 23.99200
H  24.17800 51.33300 24.28300
H  26.65000 50.99200 32.46100
H  27.35800 48.20200 31.99900
H  28.62000 49.92100 33.69900
H  29.69700 50.30600 32.36000
H  29.59300 48.68300 33.03500
H  25.59600 48.35400 33.04300
H  24.42800 49.22600 32.08100
H  23.95500 50.66700 33.94500
H  25.61300 50.84200 34.44200
H  33.20000 48.36200 29.00700
H  32.46300 46.79400 28.90200
H  31.90700 47.98500 30.06600
H  33.20400 46.82300 26.72800
H  34.15800 48.36300 26.73600
H  34.22800 47.33900 25.29200
H  27.70000 48.54300 22.64700
H  26.19500 51.01900 22.55000
H  29.42200 50.84300 22.78900
H  28.19100 51.25000 21.67700
H  29.07000 49.87500 21.23400
H  24.69300 48.51700 23.45900
H  25.38400 48.43600 21.78700
H  23.85400 49.56000 20.91700
H  23.72600 50.93900 21.98100
H  22.82900 49.60300 22.38100
H  21.23900 51.87300 26.44400
H  22.35700 52.53800 25.12900
H  22.00900 53.39200 26.57800
H  23.29600 50.91500 31.24400
H  24.85700 53.59000 33.96300
H  23.09500 53.96000 34.47800
H  23.81800 54.80800 33.14200
Mg 17.14500 50.90700 26.88300
C  19.18100 49.92100 29.57200
C  14.84500 52.14500 28.98700
C  15.38200 51.86200 24.27200
C  19.61300 49.52700 24.66600
N  17.03000 51.01300 28.94100
C  17.96600 50.56100 29.90800
C  17.43500 50.83700 31.34100
C  15.88900 51.14300 31.07900
C  15.92400 51.51300 29.55100
C  14.96500 49.99600 31.38200
C  18.23700 52.05400 31.91500
C  18.16900 52.41700 33.45100
H  17.07400 51.92500 34.37200
N  15.47700 52.03800 26.68500
C  14.57800 52.46800 27.63800
C  13.48500 53.22600 27.07400
C  13.64400 53.15100 25.68100
C  14.90000 52.35900 25.48900
C  12.31500 53.71100 27.89400
C  12.74000 53.66400 24.59300
O  12.87900 53.50300 23.39700
C  11.51600 54.41000 25.00200
N  17.43600 50.72700 24.76600
C  16.48200 51.18700 23.87400
C  16.78800 50.81800 22.43600
C  18.27400 50.16400 22.52800
C  18.51500 50.13600 24.04600
C  15.69800 49.98900 21.70000
C  19.33700 50.78200 21.56500
C  20.10400 51.97800 22.18000
N  18.95700 49.88900 26.97000
C  19.87600 49.46600 26.04000
C  20.97500 48.83300 26.67600
C  20.73500 48.96500 28.08400
C  19.54000 49.65800 28.21400
C  22.13900 48.08100 25.99100
C  21.27700 48.64900 29.36700
O  22.20500 47.99100 29.69600
C  20.25100 49.31600 30.42000
C  19.69400 48.31400 31.31300
O  19.22900 47.25600 30.96500
O  19.98000 48.68000 32.64100
C  19.53700 47.78400 33.71100
H  14.02900 52.49000 29.62500
H  14.79700 52.38300 23.51100
H  20.30500 49.04800 23.97000
H  17.52200 49.90900 31.90700
H  15.58000 51.99200 31.68900
H  14.13200 50.38800 31.96600
H  15.57700 49.21800 31.83900
H  14.55600 49.54900 30.47500
H  17.85200 52.99200 31.51500
H  19.26300 52.00400 31.55000
H  18.06700 53.50100 33.48900
H  19.11600 52.14600 33.91800
H  12.46300 53.69400 28.97300
H  11.35400 53.30700 27.57500
H  12.17900 54.78700 27.78100
H  11.71500 55.36000 25.49800
H  10.82800 53.69700 25.45400
H  10.94000 54.72400 24.13100
H  16.94100 51.87400 22.21200
H  18.13900 49.10700 22.30000
H  14.88400 49.76100 22.38900
H  16.21200 49.09800 21.34000
H  15.25200 50.56700 20.89000
H  18.91000 50.92700 20.57200
H  20.04500 49.97100 21.39900
H  19.73300 52.19900 23.18100
H  19.87800 52.89300 21.63300
H  21.19300 51.92200 22.20000
H  21.97500 47.01800 26.17100
H  23.14800 48.34200 26.31200
H  22.04400 48.18900 24.91000
H  20.78200 50.09200 30.97200
H  20.27100 46.97800 33.70600
H  18.53500 47.36700 33.61000
H  19.58900 48.43300 34.58500

