158

Mg 36.62200 50.39300 25.78700
C  36.07300 48.15900 28.44700
C  35.92500 53.03700 27.86000
C  36.53000 52.39600 23.01500
C  37.08600 47.66600 23.64800
N  35.90300 50.56300 27.92500
C  35.93800 49.56500 28.83400
C  35.76200 50.10900 30.25000
C  35.42900 51.58200 29.97800
C  35.77300 51.77800 28.51400
C  33.92800 52.00000 30.29300
C  37.15800 49.94600 31.11700
C  36.98800 50.16000 32.59000
H  35.58500 50.27300 33.15900
N  36.38200 52.46000 25.49400
C  36.16900 53.40800 26.51400
C  36.31700 54.72300 25.94700
C  36.36200 54.62700 24.49100
C  36.46800 53.15500 24.25700
C  36.32200 55.96100 26.88300
C  36.39800 55.75900 23.48800
O  36.53600 55.53200 22.30200
C  36.47100 57.09100 23.90500
N  36.75600 50.05600 23.58500
C  36.62000 51.04000 22.68800
C  36.78100 50.54600 21.17500
C  37.17400 49.03900 21.46200
C  37.03700 48.85900 22.98300
C  35.47300 50.64000 20.37700
C  38.68400 48.90300 20.99100
C  39.13600 47.49200 20.45500
N  36.57800 48.30600 25.99200
C  36.87000 47.34600 25.00700
C  37.02400 46.03700 25.69600
C  36.57500 46.30300 27.01200
C  36.34400 47.68900 27.14200
C  37.42900 44.70100 25.15000
C  36.37800 45.70600 28.33800
O  36.45500 44.51600 28.63800
C  36.01500 46.88000 29.31500
C  34.73600 46.57000 29.93900
O  33.65600 46.87700 29.39000
O  34.88600 46.09700 31.17300
C  33.62600 45.96300 32.05000
H  35.72600 53.84100 28.57100
H  36.62800 52.97500 22.09400
H  37.09200 46.74500 23.06200
H  34.95000 49.50700 30.65900
H  36.09200 52.23200 30.54900
H  33.81600 52.49600 31.25700
H  33.20800 51.18200 30.31000
H  33.57600 52.67000 29.50900
H  37.84100 50.68000 30.68800
H  37.50200 48.91800 31.00400
H  37.51700 51.07400 32.86100
H  37.52400 49.30700 33.00500
H  37.22200 56.57100 26.81000
H  36.23400 55.64700 27.92300
H  35.43300 56.57700 26.74900
H  36.31600 57.85000 23.13800
H  37.42700 57.20000 24.41600
H  35.63300 57.27900 24.57500
H  37.56600 51.04100 20.60300
H  36.59000 48.34300 20.86000
H  35.08100 51.65100 20.48600
H  34.70700 49.88900 20.56700
H  35.67300 50.54200 19.31000
H  39.24000 49.19000 21.88400
H  38.85400 49.53200 20.11800
H  38.33700 46.75700 20.55100
H  39.98400 47.16600 21.05700
H  39.45700 47.56400 19.41500
H  37.61100 43.89700 25.86300
H  38.16900 44.88100 24.37000
H  36.54800 44.27900 24.66800
H  36.75600 46.90200 30.11500
H  33.05000 46.88500 31.96900
H  33.93900 45.91100 33.09200
H  33.14600 45.01700 31.80100
Mg 0.45200 43.16900 25.25700
C  2.88000 42.29500 27.65500
C  -1.86400 43.27600 27.81300
C  -1.90500 43.38800 22.97900
C  2.79900 42.48600 22.70100
N  0.53500 42.70600 27.43300
C  1.62700 42.40900 28.23700
C  1.19800 42.30800 29.70800
C  -0.37800 42.29000 29.59700
C  -0.65900 42.76000 28.19400
C  -0.97900 40.89900 29.72600
C  1.63400 43.54400 30.57800
C  1.41300 43.44900 32.06300
H  1.18800 42.12600 32.66700
N  -1.60300 43.52600 25.37300
C  -2.35900 43.56700 26.49400
C  -3.76100 43.99900 26.15300
C  -3.82300 43.92700 24.73400
C  -2.47100 43.56800 24.26100
C  -4.73500 44.49600 27.18300
C  -5.00700 44.09100 23.89200
O  -4.93800 43.75000 22.71500
C  -6.26100 44.31900 24.50000
N  0.49500 43.01800 23.10600
C  -0.64100 43.22400 22.43800
C  -0.37200 43.11100 20.93700
C  1.19300 42.94700 20.80300
C  1.59100 42.94600 22.26000
C  -1.12500 41.95100 20.23000
C  1.86200 44.13200 20.03300
C  2.18000 45.45400 20.76600
N  2.40500 42.62900 25.15200
C  3.23000 42.42600 24.04000
C  4.56200 42.33400 24.49500
C  4.48300 42.20700 25.89500
C  3.11200 42.40800 26.23100
C  5.80300 42.23500 23.76600
C  5.28100 42.01200 27.12000
O  6.45500 41.89000 27.29300
C  4.25000 42.09200 28.29300
C  4.41200 40.95400 29.23700
O  4.06100 39.82200 28.94100
O  5.01500 41.23500 30.37000
C  5.02900 40.14800 31.47100
H  -2.60800 43.51200 28.57600
H  -2.60600 43.37000 22.14100
H  3.54300 42.20400 21.95300
H  1.63600 41.42500 30.17400
H  -0.84700 42.97400 30.30400
H  -0.22900 40.15700 29.99800
H  -1.48500 40.59800 28.80900
H  -1.67900 40.88900 30.56200
H  0.97900 44.36700 30.29000
H  2.66600 43.81700 30.35800
H  0.53000 44.02500 32.34000
H  2.23500 43.89600 32.62300
H  -4.27900 44.47000 28.17200
H  -5.62400 43.87300 27.28300
H  -5.17000 45.45400 26.89900
H  -7.04800 44.32300 23.74500
H  -6.23200 45.18100 25.16700
H  -6.36000 43.44500 25.14400
H  -0.65800 44.04900 20.46000
H  1.49700 42.08700 20.20500
H  -0.49700 41.13000 19.88500
H  -1.64800 42.21900 19.31100
H  -1.74100 41.52200 21.02000
H  1.19100 44.34600 19.20100
H  2.71600 43.73900 19.48100
H  2.15700 45.34400 21.85000
H  1.46900 46.24900 20.54100
H  3.14800 45.82900 20.43400
H  5.82300 42.74600 22.80300
H  5.93600 41.16700 23.59300
H  6.63200 42.58200 24.38200
H  4.43700 43.03800 28.80100
H  4.11500 39.55400 31.48400
H  5.17500 40.63400 32.43600
H  5.89900 39.52200 31.27300

