158

Mg 16.99300 -1.23100 27.84200
C  15.78500 0.78300 30.51200
C  19.12500 -2.74600 30.01700
C  18.65100 -2.69000 25.29700
C  15.17500 0.69200 25.75700
N  17.50300 -0.83400 29.97400
C  16.84100 -0.11600 30.98400
C  17.38200 -0.38100 32.39700
C  18.54800 -1.42800 32.11500
C  18.41100 -1.75800 30.62500
C  19.95300 -1.00100 32.59800
C  16.24000 -0.96900 33.37600
C  16.10700 -0.28100 34.72900
H  17.35900 0.33500 35.29900
N  18.59300 -2.59700 27.65000
C  19.27500 -3.17800 28.69900
C  20.09300 -4.24200 28.16700
C  20.02900 -4.19500 26.76600
C  19.03200 -3.15000 26.53100
C  20.83200 -5.17900 28.96400
C  20.63800 -5.04800 25.76300
O  20.16800 -5.19300 24.60100
C  21.74400 -5.90900 26.08000
N  16.92700 -1.12100 25.87100
C  17.67900 -1.73100 24.92500
C  17.40600 -1.32300 23.52100
C  16.11500 -0.46000 23.70700
C  16.04100 -0.30100 25.23800
C  18.60100 -0.61700 22.80600
C  14.78800 -1.17100 23.24200
C  14.58400 -1.45700 21.72100
N  15.64300 0.34800 28.01100
C  14.92000 1.02200 27.11200
C  14.04100 2.02600 27.70200
C  14.32800 1.95600 29.07500
C  15.35100 0.97300 29.18900
C  13.04800 2.97900 27.04000
C  14.06800 2.55200 30.38300
O  13.39600 3.52900 30.68900
C  14.84300 1.69200 31.46600
C  15.64400 2.61500 32.33500
O  16.77700 3.02300 32.09500
O  14.91600 2.92700 33.43100
C  15.63700 3.81300 34.40900
H  19.78900 -3.23800 30.73100
H  19.22400 -3.06200 24.44500
H  14.58900 1.33000 25.09300
H  17.85200 0.54000 32.74300
H  18.48700 -2.43300 32.53300
H  20.50200 -1.90200 32.87100
H  19.87800 -0.40500 33.50800
H  20.54600 -0.52200 31.81800
H  16.28100 -2.04600 33.53600
H  15.31500 -0.78200 32.83000
H  15.59200 -0.92100 35.44500
H  15.36100 0.47900 34.49400
H  20.39200 -6.17400 28.91000
H  20.88500 -4.86400 30.00600
H  21.90400 -5.23800 28.77200
H  21.40800 -6.70600 26.74300
H  22.47400 -5.31400 26.63100
H  22.24700 -6.31000 25.20000
H  17.19200 -2.25900 23.00400
H  16.23500 0.48300 23.17300
H  19.11900 -1.31900 22.15300
H  19.37100 -0.28600 23.50400
H  18.32200 0.21100 22.15600
H  14.02000 -0.49300 23.61200
H  14.76700 -2.07400 23.85200
H  13.62000 -1.00000 21.49900
H  14.51000 -2.49200 21.38700
H  15.34700 -1.03000 21.07000
H  12.47200 2.46600 26.26900
H  13.55000 3.80500 26.53700
H  12.25600 3.34600 27.69300
H  14.06300 1.15700 32.00700
H  15.33200 4.85400 34.51500
H  16.72700 3.83800 34.41400
H  15.38200 3.30000 35.33600
Mg 36.30000 49.55200 24.75900
C  36.38400 47.89200 27.68300
C  34.86300 52.22300 26.32100
C  35.50900 50.79100 21.72500
C  37.38000 46.53500 23.14200
N  35.60800 50.01500 26.71100
C  35.81500 49.17300 27.78700
C  35.40300 49.75800 29.18700
C  34.65300 51.02100 28.67400
C  35.07000 51.18800 27.13100
C  33.07800 51.15700 28.86800
C  36.64900 50.19000 30.08100
C  36.60000 49.95500 31.56000
H  35.29000 49.98400 32.30700
N  35.37800 51.36800 24.16600
C  34.98400 52.41700 24.94100
C  34.64000 53.54200 24.11900
C  34.66300 53.05300 22.75700
C  35.15500 51.65400 22.83300
C  34.25700 54.84200 24.68100
C  34.40500 53.81900 21.48400
O  34.57100 53.37500 20.32800
C  33.79300 55.19900 21.53100
N  36.55500 48.86800 22.79200
C  36.08800 49.50500 21.68100
C  36.42700 48.75800 20.37600
C  37.37600 47.57300 20.85100
C  37.12400 47.61700 22.38800
C  35.15400 48.31600 19.57900
C  38.89600 47.76300 20.62200
C  39.68600 46.54100 20.21000
N  36.79700 47.65400 25.27300
C  37.25800 46.52400 24.54500
C  37.59500 45.46800 25.45100
C  37.27400 45.98700 26.70300
C  36.84900 47.32100 26.54700
C  38.13200 44.14400 25.05400
C  37.23600 45.68300 28.08200
O  37.45400 44.67300 28.72700
C  36.86500 46.88100 28.76900
C  35.77300 46.53400 29.74600
O  34.56400 46.39300 29.49600
O  36.30800 46.29700 31.01300
C  35.38600 45.69000 32.01600
H  34.42000 53.02800 26.91100
H  35.18400 51.18200 20.75900
H  37.73100 45.59500 22.71300
H  34.66900 49.16100 29.72900
H  35.15600 51.91600 29.04000
H  32.82800 52.21800 28.89200
H  32.64300 50.50100 29.62200
H  32.64600 50.96600 27.88500
H  37.07800 51.17900 29.92300
H  37.45300 49.52300 29.76800
H  37.26500 50.65300 32.06800
H  37.06900 49.00200 31.80400
H  34.55000 54.92200 25.72800
H  33.17000 54.92200 24.69300
H  34.84700 55.54900 24.09800
H  32.81500 55.07300 21.99500
H  33.78600 55.63300 20.53100
H  34.51300 55.85200 22.02400
H  36.89200 49.48200 19.70800
H  37.08500 46.60700 20.43900
H  34.20200 48.72700 19.91600
H  35.05100 47.24500 19.40300
H  35.18100 48.81600 18.61100
H  39.46300 48.05800 21.50400
H  39.00000 48.59800 19.92900
H  39.14000 45.68600 20.61000
H  40.61400 46.44100 20.77400
H  39.77700 46.36200 19.13900
H  39.21600 44.18500 24.95300
H  37.67500 43.83300 24.11400
H  37.80900 43.45700 25.83600
H  37.69200 47.26700 29.36500
H  35.11200 44.68800 31.68500
H  34.50300 46.30900 32.17300
H  35.90200 45.67300 32.97600

