158

Mg 47.18300 25.46200 27.40700
C  47.97700 27.51400 30.15700
C  46.31400 23.03000 29.39700
C  46.90800 23.57600 24.61900
C  48.92800 27.92500 25.33500
N  47.23900 25.31000 29.56600
C  47.53100 26.27500 30.46600
C  47.34300 25.76800 31.92000
C  46.78700 24.28900 31.68000
C  46.86300 24.14400 30.13000
C  47.53600 23.11100 32.36700
C  46.35400 26.65300 32.69700
C  46.92900 27.26200 34.00400
H  45.95400 27.55800 35.09100
N  46.45100 23.59000 27.04200
C  46.08900 22.75200 28.00800
C  45.71100 21.47700 27.40600
C  45.93200 21.57200 26.00300
C  46.43800 22.97600 25.82200
C  45.22900 20.22300 28.22800
C  45.84600 20.45200 24.93500
O  46.34400 20.61300 23.85500
C  45.17000 19.07300 25.24400
N  47.92000 25.67100 25.27500
C  47.46300 24.79400 24.32100
C  47.76100 25.20000 22.92000
C  48.20600 26.64500 23.14800
C  48.38900 26.80600 24.70000
C  48.91600 24.35200 22.23100
C  47.11100 27.71700 22.77600
C  47.53600 29.05800 22.17300
N  48.24300 27.30000 27.66900
C  48.90900 28.13100 26.74800
C  49.26700 29.43900 27.38900
C  49.00900 29.18400 28.81300
C  48.32400 27.90100 28.84100
C  50.06900 30.63000 26.72100
C  49.15100 29.68400 30.14500
O  49.52200 30.79800 30.55400
C  48.60000 28.52800 31.04100
C  49.68100 27.99200 31.81900
O  50.34800 26.97500 31.51000
O  49.90100 28.65200 32.93300
C  51.09200 28.30600 33.76500
H  46.17800 22.22500 30.12300
H  46.84900 22.89200 23.76900
H  49.23200 28.66500 24.59100
H  48.28800 25.81200 32.46000
H  45.75700 24.09800 31.98100
H  46.77800 22.43000 32.75600
H  48.19200 23.50600 33.14200
H  48.09300 22.62300 31.56700
H  45.52000 25.99400 32.93700
H  46.01900 27.46600 32.05200
H  47.26500 28.27700 33.79400
H  47.81700 26.78400 34.41800
H  45.82800 19.36800 27.91400
H  44.23700 19.94500 27.87100
H  45.34800 20.47000 29.28300
H  45.86000 18.50800 25.87100
H  45.03300 18.57100 24.28700
H  44.16300 19.18500 25.64600
H  46.82900 25.12800 22.36000
H  49.15200 26.94200 22.69400
H  48.48900 23.92100 21.32600
H  49.21300 23.49200 22.83100
H  49.83400 24.84800 21.91300
H  46.51200 27.90900 23.66600
H  46.41500 27.27100 22.06500
H  48.56000 29.02900 21.80200
H  47.40000 29.81900 22.94100
H  47.00600 29.27600 21.24600
H  49.98900 30.65500 25.63500
H  51.12600 30.51900 26.96300
H  49.64400 31.57100 27.07000
H  47.90800 28.97900 31.75200
H  51.97700 28.07200 33.17300
H  50.80700 27.41300 34.32200
H  51.37000 29.20100 34.32100
Mg 31.76500 58.50800 41.03500
C  28.96000 56.79500 39.29400
C  33.76700 55.99200 39.88000
C  34.29300 60.53300 41.74600
C  29.41100 61.14200 41.73900
N  31.38700 56.68100 39.68500
C  30.25900 56.20500 39.10900
C  30.62900 54.91000 38.29600
C  32.06700 54.62900 38.69000
C  32.44200 55.82500 39.49300
C  32.36100 53.24800 39.24000
C  30.28600 55.02800 36.82300
C  29.21100 54.14600 36.13700
H  28.29400 54.72700 35.02900
N  33.78200 58.26100 40.87400
C  34.47200 57.11500 40.43600
C  35.92200 57.42500 40.53200
C  36.08900 58.74800 41.06200
C  34.73900 59.24500 41.22200
C  36.92300 56.39900 40.09800
C  37.38400 59.44700 41.46500
O  38.51700 58.98600 41.38600
C  37.45900 60.78000 42.11800
N  31.83400 60.51600 41.71100
C  33.02300 61.13500 41.94100
C  32.83600 62.59000 42.44800
C  31.24400 62.72400 42.53400
C  30.77100 61.37100 41.96100
C  33.49300 62.93000 43.81700
C  30.58400 63.96400 41.88200
C  29.76500 64.86000 42.84200
N  29.53600 58.91400 40.75900
C  28.79000 60.05600 41.14100
C  27.41000 59.89700 40.53900
C  27.47400 58.58200 39.86800
C  28.75800 58.04700 40.05000
C  26.20800 60.72100 40.66000
C  26.65500 57.69000 39.10900
O  25.49500 57.76800 38.72600
C  27.57500 56.43500 38.74100
C  27.00700 55.23700 39.39900
O  27.46400 54.62500 40.37800
O  26.04300 54.65700 38.62400
C  25.35300 53.46600 39.17900
H  34.32200 55.11900 39.52900
H  35.08200 61.23400 42.02800
H  28.84300 62.02300 42.04400
H  29.99400 54.09000 38.63200
H  32.61900 54.86600 37.78100
H  32.57700 53.24500 40.30900
H  33.22900 52.79500 38.76200
H  31.48700 52.62500 39.04800
H  31.18700 54.96400 36.21300
H  29.91600 56.02100 36.56600
H  28.59100 53.78800 36.95800
H  29.75300 53.29800 35.71800
H  37.65000 57.05200 39.61500
H  36.45200 55.70000 39.40700
H  37.39300 55.82900 40.89900
H  38.51800 60.97100 42.29000
H  36.99800 60.70000 43.10300
H  37.12800 61.66700 41.57700
H  33.39200 63.12600 41.67900
H  30.91400 62.54600 43.55800
H  33.83800 62.08400 44.41000
H  32.88500 63.60100 44.42400
H  34.37800 63.53300 43.61800
H  29.99700 63.76400 40.98500
H  31.46600 64.51500 41.55600
H  28.87700 65.32700 42.41700
H  30.25600 65.76500 43.20000
H  29.34100 64.31900 43.68800
H  26.20200 61.26500 39.71500
H  26.28000 61.37300 41.53100
H  25.35800 60.03900 40.67500
H  27.59800 56.20300 37.67700
H  26.08000 52.66300 39.30400
H  24.46500 53.14600 38.63300
H  24.86500 53.67200 40.13100

