158

Mg 1.69000 -1.07100 44.12900
C  5.09800 -0.25300 43.43300
C  0.81400 1.69400 42.26600
C  -1.37600 -2.05200 44.54200
C  2.87700 -4.04800 45.47300
N  2.84700 0.48000 42.88700
C  4.19100 0.64500 42.83200
C  4.58500 1.76200 41.91600
C  3.22800 2.58700 41.75200
C  2.21300 1.54200 42.26400
C  2.99900 3.82400 42.65200
C  5.35700 1.34300 40.58500
C  6.70000 2.01000 40.28300
H  7.00200 2.72900 39.02100
N  -0.01800 -0.19400 43.62600
C  -0.18800 0.87100 42.80400
C  -1.63700 1.14400 42.60900
C  -2.28600 0.14400 43.28500
C  -1.25000 -0.74400 43.91500
C  -2.22200 2.22600 41.79100
C  -3.86600 0.08300 43.36100
O  -4.56600 0.88500 42.75600
C  -4.59200 -1.01400 44.06400
N  0.91000 -2.85200 44.79900
C  -0.44700 -3.03500 44.83100
C  -0.86700 -4.41700 45.36500
C  0.48000 -4.90500 45.99200
C  1.48200 -3.90700 45.33600
C  -2.21400 -4.67500 46.18500
C  0.69300 -6.45200 45.91400
C  0.87700 -7.17900 47.23100
N  3.57100 -2.01700 44.37200
C  3.87900 -3.26200 44.88200
C  5.32600 -3.47700 44.91400
C  5.82200 -2.24100 44.49000
C  4.73800 -1.43200 44.03500
C  6.03500 -4.69100 45.45400
C  7.04600 -1.47400 44.36200
O  8.16300 -1.73000 44.77400
C  6.60800 -0.16700 43.63500
C  6.99900 0.95300 44.50700
O  6.67500 1.06600 45.67900
O  7.77500 1.84600 43.82900
C  8.57900 2.81600 44.61400
H  0.55500 2.55300 41.64300
H  -2.41600 -2.37300 44.63600
H  3.18200 -4.92500 46.04800
H  5.36500 2.35100 42.39900
H  2.90900 2.82200 40.73600
H  3.84200 4.13800 43.26700
H  2.18500 3.69300 43.36500
H  2.69400 4.65700 42.02000
H  4.69100 1.40200 39.72300
H  5.58700 0.28100 40.67100
H  7.47900 1.25300 40.38100
H  6.83900 2.77100 41.05100
H  -2.91300 1.82500 41.05000
H  -1.48300 2.87900 41.32800
H  -2.89700 2.81100 42.41600
H  -5.62500 -0.70500 44.22600
H  -4.18400 -0.95800 45.07400
H  -4.35200 -2.00900 43.68900
H  -1.01100 -4.87500 44.38600
H  0.41300 -4.67600 47.05500
H  -2.91000 -5.35300 45.69000
H  -2.66500 -3.71200 46.42100
H  -1.88600 -5.17400 47.09700
H  1.58600 -6.60600 45.30700
H  -0.09900 -6.89500 45.31100
H  0.34500 -8.12300 47.11200
H  0.41500 -6.65300 48.06700
H  1.95600 -7.16400 47.38500
H  7.07800 -4.58400 45.15600
H  5.64900 -5.58200 44.95900
H  5.98100 -4.72200 46.54200
H  7.23800 -0.13400 42.74700
H  9.51000 2.97000 44.06900
H  8.69000 2.46200 45.64000
H  8.18200 3.83100 44.60800
Mg 26.46900 1.33400 29.48100
C  28.26000 1.07100 32.40500
C  23.54800 1.61100 31.35800
C  24.70400 1.56000 26.64800
C  29.39000 0.65900 27.67100
N  25.99900 1.39300 31.63900
C  26.85900 1.31100 32.65500
C  26.19300 1.56800 34.00000
C  24.66400 1.73900 33.63600
C  24.70300 1.55200 32.14700
C  23.65700 0.83000 34.46900
C  26.98600 2.65400 34.92900
C  26.13700 3.22700 36.09300
H  26.48300 2.73100 37.47700
N  24.42500 1.50000 29.03700
C  23.38800 1.62900 29.94500
C  22.08700 1.89400 29.23700
C  22.37300 1.84900 27.84100
C  23.91000 1.64300 27.80300
C  20.77200 2.08600 29.97800
C  21.46900 1.86400 26.61000
O  21.86800 1.57800 25.43900
C  19.99300 2.16000 26.78600
N  26.97200 1.06000 27.47300
C  26.06700 1.27800 26.47000
C  26.69000 1.16400 25.06100
C  28.22600 0.87000 25.37900
C  28.20900 0.81300 26.90300
C  25.98700 0.26300 24.06200
C  29.18400 1.95900 24.78400
C  29.36300 1.98000 23.25700
N  28.44500 0.86600 29.87400
C  29.55000 0.63600 29.04900
C  30.72300 0.45100 29.83400
C  30.25100 0.63200 31.14500
C  28.90100 0.92200 31.09900
C  31.95900 -0.13800 29.29000
C  30.63800 0.66300 32.50900
O  31.78600 0.63800 32.97500
C  29.42600 0.95100 33.36900
C  29.34000 -0.07500 34.38800
O  28.73200 -1.12300 34.23200
O  30.00000 0.33600 35.55300
C  29.54900 -0.50400 36.71300
H  22.63500 1.66200 31.95600
H  24.28300 1.85300 25.68400
H  30.29600 0.62500 27.06400
H  26.22800 0.62300 34.54200
H  24.37000 2.76500 33.85700
H  24.07900 0.28700 35.31500
H  23.19500 0.16100 33.74300
H  22.88800 1.54700 34.75500
H  27.46800 3.52300 34.48100
H  27.76000 2.08000 35.43900
H  25.07500 3.07900 35.89800
H  26.27600 4.30800 36.10500
H  20.16500 2.91600 29.61900
H  20.92000 2.02400 31.05700
H  20.23800 1.24900 29.52900
H  20.00700 3.22100 27.03800
H  19.54400 1.48300 27.51300
H  19.45600 1.99000 25.85300
H  26.63300 2.17700 24.66400
H  28.41600 -0.16500 25.09700
H  25.14800 -0.19900 24.58300
H  26.55400 -0.59800 23.70700
H  25.61600 0.90000 23.25900
H  30.17000 1.86400 25.23800
H  28.90800 2.98100 25.04200
H  28.94600 1.11500 22.74100
H  30.44300 1.98800 23.11700
H  28.92400 2.88200 22.83000
H  32.50400 -0.57600 30.12600
H  32.69000 0.58000 28.91800
H  31.77800 -0.90700 28.53800
H  29.66700 1.92200 33.80200
H  30.50200 -0.76900 37.17200
H  29.29600 -1.55100 36.54900
H  28.78300 0.00400 37.29800

