158

Mg 8.67400 3.53400 27.86800
C  10.10000 1.56600 30.54400
C  6.83300 5.32500 30.08300
C  7.38000 5.15400 25.29200
C  10.13200 1.08500 25.74600
N  8.37900 3.30400 30.02500
C  9.19800 2.60700 30.93400
C  8.95700 3.19900 32.33700
C  7.62600 4.03100 32.19100
C  7.55700 4.30900 30.65400
C  6.34100 3.30100 32.63200
C  10.17000 3.91600 33.07100
C  9.88000 4.73600 34.29600
H  10.75000 4.57200 35.49900
N  7.26900 4.99000 27.73500
C  6.68900 5.67300 28.76300
C  5.75200 6.68300 28.26300
C  5.92000 6.66100 26.81800
C  6.94300 5.60300 26.52000
C  4.93300 7.64100 29.11400
C  5.14000 7.36100 25.77200
O  5.18400 7.11200 24.53200
C  4.16400 8.41600 26.08100
N  8.66700 3.06200 25.85600
C  8.10200 3.95700 24.99100
C  8.52700 3.60800 23.52300
C  9.09200 2.16900 23.62800
C  9.40100 2.11900 25.16600
C  7.34600 3.76700 22.52300
C  10.28700 1.95900 22.66900
C  10.12300 0.72300 21.76500
N  10.04000 1.78000 28.04800
C  10.49500 0.93400 27.10400
C  11.28400 -0.18700 27.68000
C  11.20800 0.07300 29.06700
C  10.40300 1.25000 29.20500
C  11.95300 -1.37500 27.12300
C  11.64400 -0.37100 30.34200
O  12.34200 -1.36500 30.66500
C  11.06700 0.66500 31.34300
C  10.35900 -0.11600 32.38600
O  9.48700 -0.94400 32.16500
O  10.91000 0.27300 33.57900
C  10.39900 -0.29900 34.76100
H  6.29300 5.99300 30.75600
H  7.00300 5.73400 24.44700
H  10.49000 0.36300 25.00900
H  8.74500 2.36700 33.00800
H  7.70300 4.92500 32.81100
H  6.50300 2.92100 33.64000
H  6.14700 2.49600 31.92200
H  5.59600 4.09500 32.62900
H  10.70000 4.53500 32.34700
H  10.83100 3.10600 33.37900
H  8.84800 4.72700 34.64900
H  10.09800 5.78300 34.08600
H  3.88300 7.54900 28.83600
H  5.21500 8.66000 28.84900
H  5.10800 7.58500 30.18800
H  3.32600 8.11500 26.70900
H  3.67500 8.67700 25.14200
H  4.76600 9.25300 26.43600
H  9.27500 4.34200 23.22400
H  8.31300 1.42200 23.47900
H  6.41000 4.08900 22.98000
H  7.21900 2.79300 22.04900
H  7.54600 4.48400 21.72800
H  11.25800 1.96200 23.16500
H  10.34300 2.87000 22.07300
H  10.99100 0.06400 21.80100
H  10.02900 1.01400 20.71900
H  9.28500 0.10400 22.08400
H  12.99400 -1.29100 26.81000
H  11.30600 -1.71900 26.31700
H  11.99900 -2.13900 27.89900
H  11.86400 1.31200 31.70900
H  10.05500 0.51500 35.39900
H  11.21500 -0.80500 35.27600
H  9.53000 -0.93700 34.60200
Mg 53.63400 23.88000 46.12900
C  51.02300 25.72200 44.99300
C  51.85700 21.05200 45.14400
C  56.48600 22.02500 46.51300
C  55.54500 26.79900 46.70000
N  51.70900 23.39800 45.08500
C  50.79100 24.38200 44.78400
C  49.41200 23.73000 44.30700
C  49.62100 22.25700 44.69200
C  51.11900 22.23200 44.96200
C  48.83600 21.67600 45.92700
C  49.13600 23.90700 42.73700
C  47.70800 24.50600 42.42800
H  47.11900 23.96100 41.11500
N  54.10300 21.82500 45.84800
C  53.22400 20.83300 45.43400
C  53.96200 19.52000 45.48800
C  55.31600 19.83900 45.77000
C  55.32300 21.23500 46.10200
C  53.32000 18.22700 44.99300
C  56.43200 18.84300 45.95200
O  56.35000 17.66700 45.66100
C  57.85200 19.18700 46.48500
N  55.73100 24.36800 46.33900
C  56.62900 23.42500 46.63700
C  57.93000 23.98000 47.24800
C  57.72600 25.49400 47.07900
C  56.25200 25.57600 46.70500
C  58.20000 23.45600 48.67300
C  58.57500 26.14800 45.93400
C  59.36900 27.39900 46.44500
N  53.39900 25.89900 46.02100
C  54.25200 26.94800 46.32400
C  53.43700 28.15000 46.23700
C  52.20500 27.73300 45.67000
C  52.23300 26.36500 45.54200
C  53.67500 29.53700 46.69600
C  50.88000 28.20900 45.22600
O  50.41800 29.33700 45.28900
C  50.14700 26.92700 44.67800
C  50.17500 27.25300 43.21700
O  51.01500 26.88400 42.42000
O  49.02000 27.90900 42.82900
C  48.82300 28.21000 41.35200
H  51.20500 20.18700 45.00500
H  57.42600 21.53300 46.77300
H  55.99200 27.73300 47.04800
H  48.62900 24.08100 44.98000
H  49.35200 21.63700 43.83700
H  48.12100 20.93600 45.56800
H  48.21900 22.45600 46.37400
H  49.36600 21.34400 46.82000
H  49.24100 22.97600 42.17900
H  49.85500 24.51700 42.19100
H  47.73500 25.59600 42.42300
H  47.05000 24.43400 43.29500
H  53.58900 17.47000 45.73000
H  53.81000 17.98500 44.05000
H  52.23600 18.29900 44.89600
H  58.49200 19.86100 45.91800
H  58.35700 18.25000 46.72100
H  57.80800 19.62300 47.48400
H  58.87000 23.72500 46.75900
H  57.86000 25.94000 48.06400
H  57.34600 22.93900 49.11400
H  58.42100 24.20600 49.43200
H  58.98200 22.69900 48.72900
H  57.96900 26.51500 45.10500
H  59.31300 25.42800 45.58200
H  60.35600 27.44000 45.98400
H  59.30100 27.54900 47.52200
H  58.93700 28.31600 46.04400
H  52.99700 30.16700 46.12000
H  54.70700 29.85200 46.54100
H  53.50700 29.73700 47.75400
H  49.11000 26.82500 44.99800
H  49.85000 28.37800 41.02500
H  48.10500 29.02900 41.34800
H  48.40900 27.38100 40.77700

