158

Mg 40.27000 9.56500 29.19100
C  42.13800 10.43800 32.09600
C  37.80800 7.93100 31.26400
C  38.77600 8.27900 26.46300
C  42.91300 10.68600 27.32600
N  40.10200 9.18400 31.40100
C  40.89100 9.79500 32.32900
C  40.26300 9.54600 33.72800
C  38.95200 8.58900 33.44100
C  38.94600 8.60200 31.92400
C  38.90300 7.28000 34.27700
C  39.87900 10.92300 34.43200
C  39.04100 10.69800 35.68200
H  39.35300 11.63200 36.83900
N  38.58200 8.31000 28.89600
C  37.76400 7.71300 29.83700
C  36.70600 7.01000 29.21500
C  36.82400 7.18600 27.75700
C  38.05900 8.03400 27.67300
C  35.70000 6.19100 30.06000
C  35.95000 6.76600 26.58000
O  36.14900 7.01400 25.37000
C  34.68900 6.08500 26.92500
N  40.79100 9.47800 27.19600
C  39.97000 8.95100 26.25200
C  40.60900 9.05500 24.78400
C  41.92600 9.87000 25.05700
C  41.84300 10.03800 26.62700
C  40.87300 7.66200 24.12800
C  42.15100 11.18100 24.23600
C  41.23200 12.34400 24.68500
N  42.09500 10.52700 29.56400
C  43.08100 10.92100 28.72300
C  44.26300 11.38800 29.41500
C  43.97700 11.29300 30.76600
C  42.60600 10.72800 30.83400
C  45.43100 12.12400 28.67900
C  44.32300 11.66100 32.12600
O  45.25700 12.26000 32.59900
C  43.13100 11.12100 33.00600
C  43.71500 10.27200 34.05600
O  44.48700 9.34300 33.83600
O  43.34300 10.76800 35.31000
C  43.97000 10.16400 36.48600
H  37.00200 7.62900 31.93600
H  38.22600 7.95600 25.57700
H  43.83600 11.00500 26.83700
H  40.97300 8.92900 34.27900
H  38.06700 9.13500 33.76700
H  38.89400 6.37600 33.66800
H  38.06600 7.16300 34.96600
H  39.68200 7.17900 35.03300
H  39.36500 11.40200 33.59800
H  40.70900 11.53000 34.79300
H  39.21000 9.69900 36.08500
H  37.98800 10.85000 35.44400
H  36.10800 6.01700 31.05600
H  35.55500 5.23700 29.55500
H  34.73700 6.65000 30.28500
H  34.80700 5.34700 27.71800
H  34.30500 5.62600 26.01400
H  34.01500 6.87200 27.26500
H  39.88900 9.56200 24.14200
H  42.87900 9.35400 24.93900
H  40.31300 6.85900 24.60700
H  41.94600 7.46800 24.10700
H  40.69100 7.75500 23.05800
H  42.10000 11.13800 23.14800
H  43.19100 11.36400 24.50500
H  41.78500 13.28300 24.68200
H  40.70400 12.09500 25.60600
H  40.51800 12.32500 23.86200
H  45.78600 11.44800 27.90200
H  46.23100 12.40200 29.36600
H  45.04100 13.04100 28.23700
H  42.79500 12.07600 33.40800
H  45.05500 10.22600 36.39900
H  43.62400 9.13800 36.61000
H  43.80000 10.74100 37.39500
Mg -12.12800 37.86800 42.10400
C  -9.87700 35.33200 41.23500
C  -10.15900 40.06400 40.12700
C  -14.61400 40.19800 41.96100
C  -14.29900 35.56000 43.38200
N  -10.38100 37.62700 40.68200
C  -9.57900 36.51600 40.55100
C  -8.38500 36.69800 39.62400
C  -8.51600 38.24400 39.29400
C  -9.75200 38.71900 40.03500
C  -7.26400 39.02400 39.57000
C  -8.62500 35.63000 38.45200
C  -7.44500 34.84900 37.93500
H  -6.77000 35.61400 36.81300
N  -12.28600 39.89600 41.42400
C  -11.32600 40.59100 40.67300
C  -11.71400 41.93600 40.46700
C  -13.04100 42.03200 40.93800
C  -13.42900 40.67300 41.43000
C  -10.85200 43.00100 39.74200
C  -13.87300 43.20500 40.86800
O  -13.43600 44.23100 40.40900
C  -15.30800 43.32100 41.31800
N  -14.24100 37.89900 42.55000
C  -15.02000 38.95000 42.45500
C  -16.50900 38.59000 42.80300
C  -16.30800 37.17900 43.37400
C  -14.91000 36.80000 42.96300
C  -17.04100 39.72700 43.79400
C  -17.33300 36.13900 42.78500
C  -17.94200 35.16700 43.84400
N  -12.14300 35.85000 42.33400
C  -13.00100 35.05600 42.96600
C  -12.47900 33.73000 43.14000
C  -11.30000 33.82500 42.43000
C  -11.08200 35.14300 42.00000
C  -13.22100 32.53400 43.79600
C  -10.07100 33.09900 42.08100
O  -9.77900 31.94200 42.29100
C  -9.04700 34.09400 41.35600
C  -7.91200 34.22500 42.33700
O  -7.04500 33.40100 42.63800
O  -7.94600 35.54800 42.89800
C  -6.71200 35.90600 43.60400
H  -9.46400 40.73700 39.61900
H  -15.48200 40.85900 41.92300
H  -14.94800 34.90200 43.96300
H  -7.41800 36.50600 40.08900
H  -8.79500 38.33900 38.24400
H  -6.35000 38.49200 39.30700
H  -7.15600 39.24900 40.63100
H  -7.37500 39.89600 38.92500
H  -8.95500 36.21100 37.59100
H  -9.32100 34.86100 38.78500
H  -8.00300 33.96300 37.63000
H  -6.82100 34.60700 38.79600
H  -11.00100 44.03200 40.06600
H  -11.02700 42.90800 38.67000
H  -9.79700 42.82900 39.95700
H  -15.94600 42.70900 40.68000
H  -15.67000 44.34200 41.43900
H  -15.32700 42.95700 42.34500
H  -17.05100 38.57600 41.85800
H  -16.41000 37.22900 44.45800
H  -17.91600 40.26800 43.43200
H  -16.22100 40.41200 44.01000
H  -17.25300 39.23600 44.74400
H  -17.05500 35.46800 41.97200
H  -18.10900 36.72100 42.28800
H  -18.87600 35.65700 44.12100
H  -17.17900 35.02800 44.61000
H  -18.16300 34.21800 43.35500
H  -12.77700 32.35700 44.77500
H  -13.18500 31.68700 43.11000
H  -14.26100 32.82400 43.94700
H  -8.70300 33.59000 40.45200
H  -6.42100 35.33100 44.48300
H  -6.90200 36.92600 43.93900
H  -5.85800 35.86600 42.92800

