158

Mg 16.98900 -1.01400 27.34200
C  16.25400 0.92400 30.09900
C  19.16600 -2.87600 29.32200
C  18.40200 -2.45500 24.54900
C  15.33000 1.19700 25.28700
N  17.72500 -0.81900 29.41000
C  17.14600 -0.05700 30.41900
C  17.65600 -0.43100 31.78900
C  18.76000 -1.54000 31.51700
C  18.56900 -1.75400 29.92300
C  20.26900 -1.26200 31.89300
C  16.48900 -0.89200 32.71300
C  16.32600 -0.23400 34.01400
H  17.56700 0.49200 34.66900
N  18.41500 -2.57900 26.98400
C  19.12500 -3.27700 27.97400
C  19.74700 -4.42200 27.38900
C  19.53000 -4.33600 25.93900
C  18.78700 -3.06200 25.75600
C  20.57100 -5.43900 28.20900
C  19.89400 -5.25400 24.82900
O  19.74900 -4.86800 23.65100
C  20.69200 -6.63800 25.07600
N  16.85800 -0.69600 25.24500
C  17.49600 -1.40700 24.28500
C  17.06000 -1.02500 22.84700
C  15.99600 0.05300 23.09000
C  16.09900 0.28200 24.65100
C  18.13600 -0.66000 21.81800
C  14.55400 -0.21300 22.51200
C  14.14400 0.77600 21.44500
N  15.81400 0.64300 27.59700
C  15.16500 1.42700 26.67300
C  14.46300 2.43700 27.38900
C  14.74000 2.25700 28.77800
C  15.61700 1.14400 28.84400
C  13.59000 3.49700 26.70200
C  14.60800 2.80900 30.14400
O  14.00700 3.81500 30.49900
C  15.52000 1.89100 31.05200
C  16.48700 2.76900 31.84700
O  17.53400 3.15400 31.48800
O  15.90600 3.11100 33.05700
C  16.44700 4.30700 33.69400
H  19.79000 -3.49500 29.97100
H  18.75500 -2.91200 23.62200
H  14.82600 1.82100 24.54600
H  18.06000 0.46600 32.25700
H  18.49100 -2.44800 32.05700
H  20.61200 -2.21800 32.28900
H  20.28500 -0.63100 32.78100
H  20.82800 -0.91300 31.02500
H  16.72600 -1.93700 32.90800
H  15.54500 -1.00700 32.18100
H  15.97800 -0.96800 34.74100
H  15.54400 0.51300 33.87600
H  20.32800 -6.50000 28.15200
H  20.57500 -5.21000 29.27400
H  21.62100 -5.26800 27.96900
H  21.58100 -6.53400 25.69800
H  21.04800 -7.15700 24.18600
H  19.95600 -7.32700 25.48900
H  16.46600 -1.86600 22.49100
H  16.40600 1.02200 22.80600
H  17.96700 0.33800 21.41500
H  18.23000 -1.52600 21.16200
H  19.07700 -0.55600 22.35700
H  13.80600 -0.01300 23.28000
H  14.36300 -1.23000 22.17200
H  14.88600 1.51700 21.14900
H  13.22900 1.26400 21.78200
H  13.79100 0.22000 20.57600
H  13.54600 3.41600 25.61600
H  13.95900 4.48800 26.96500
H  12.59700 3.34800 27.12700
H  14.91300 1.40900 31.81800
H  17.32000 4.02400 34.28100
H  15.80400 4.69200 34.48600
H  16.71000 5.06500 32.95600
Mg 54.40200 24.38100 44.53300
C  52.12500 26.88500 43.76600
C  52.11900 22.00200 43.90800
C  56.87700 22.22400 44.64300
C  56.63400 27.00200 45.46700
N  52.39000 24.52500 43.82100
C  51.58000 25.60800 43.58000
C  50.19300 25.10600 43.23100
C  50.14700 23.62600 43.73300
C  51.65600 23.34200 43.88000
C  49.44700 23.44600 45.11000
C  49.58200 25.41100 41.80600
C  48.01800 25.52300 41.78600
H  47.61200 24.51200 40.68700
N  54.45900 22.36000 44.16300
C  53.43300 21.51900 43.96400
C  53.92100 20.20900 43.97200
C  55.28100 20.23700 44.15900
C  55.61200 21.63000 44.38100
C  53.07100 18.93100 43.83400
C  56.12800 18.96000 44.35900
O  55.58500 17.81500 44.38700
C  57.64900 19.05600 44.76900
N  56.47800 24.66500 44.86200
C  57.27300 23.50000 44.83600
C  58.72200 23.89700 44.96800
C  58.61700 25.48600 45.16500
C  57.21300 25.72000 45.27900
C  59.50100 23.23600 46.10700
C  59.41500 26.23200 44.05900
C  58.61200 26.86000 42.85700
N  54.47300 26.57500 44.56800
C  55.36700 27.42000 45.11200
C  54.85800 28.72400 45.17400
C  53.51700 28.59200 44.69100
C  53.37800 27.21800 44.32400
C  55.58700 29.98600 45.54300
C  52.24900 29.28000 44.36100
O  51.93500 30.47900 44.43700
C  51.33300 28.18800 43.74400
C  50.99400 28.51900 42.34600
O  51.89200 28.44600 41.53900
O  49.75900 29.04600 42.11100
C  49.36000 29.05700 40.68100
H  51.31500 21.26400 43.86500
H  57.69300 21.49900 44.67100
H  57.39500 27.76300 45.64800
H  49.53600 25.57600 43.96300
H  49.65900 23.00700 42.98000
H  49.18400 24.37100 45.62400
H  50.14000 22.87300 45.72500
H  48.52700 22.86200 45.08500
H  49.94000 24.70300 41.05900
H  49.93200 26.34200 41.36000
H  47.64400 26.47400 41.40500
H  47.66500 25.17100 42.75500
H  53.41800 18.08800 43.23700
H  52.14500 19.08100 43.27900
H  52.86900 18.59500 44.85100
H  57.89700 18.03000 45.04300
H  57.59700 19.65700 45.67700
H  58.31100 19.46500 44.00500
H  59.23100 23.61000 44.04700
H  58.96900 25.80500 46.14600
H  60.11200 23.99900 46.59000
H  60.07300 22.42300 45.65900
H  58.73000 22.93500 46.81600
H  60.13800 25.53700 43.63100
H  59.94300 26.99300 44.63600
H  57.57000 26.54900 42.78600
H  59.07700 26.61400 41.90200
H  58.70900 27.93700 42.99900
H  56.64700 29.73400 45.53300
H  55.29400 30.31400 46.54000
H  55.42300 30.75000 44.78300
H  50.34600 28.19600 44.20700
H  49.46000 30.10600 40.40200
H  48.35100 28.68100 40.51100
H  49.97700 28.51000 39.96800

