158

Mg 47.57400 25.13500 28.14600
C  48.62700 27.38100 30.69200
C  47.12400 22.74900 30.51700
C  46.96800 22.96300 25.63900
C  48.60700 27.49900 25.76300
N  47.92900 25.08500 30.32700
C  48.20800 26.10800 31.14100
C  47.81300 25.79400 32.56600
C  47.42300 24.25800 32.53800
C  47.46700 23.99600 31.03200
C  48.41600 23.23500 33.24200
C  46.84800 26.85700 33.32100
C  46.29300 26.39300 34.64600
H  46.12100 27.34000 35.78700
N  47.04900 23.18400 28.09900
C  46.90300 22.39500 29.19400
C  46.42500 21.15400 28.77600
C  46.37900 21.14100 27.31000
C  46.82300 22.48100 26.94400
C  45.98900 19.98900 29.73600
C  45.89300 20.04800 26.36700
O  45.97100 20.26400 25.14000
C  45.46800 18.70200 26.81400
N  47.76100 25.20200 26.03600
C  47.48700 24.17200 25.23600
C  47.68300 24.48500 23.78300
C  47.92400 25.99400 23.83000
C  48.13400 26.23700 25.32700
C  48.81900 23.71500 23.06300
C  46.69800 26.81900 23.37200
C  46.88600 28.08800 22.44600
N  48.57300 26.97000 28.17100
C  48.89200 27.79600 27.09000
C  49.45200 29.04700 27.60000
C  49.29000 28.92100 29.01900
C  48.78300 27.63700 29.31700
C  50.09500 30.21200 26.89800
C  49.35100 29.63700 30.25900
O  49.72800 30.77400 30.52400
C  48.85800 28.65800 31.40500
C  49.94000 28.74900 32.43900
O  51.17000 28.51800 32.30400
O  49.37100 29.19400 33.57000
C  50.10600 29.19500 34.86600
H  46.86300 22.14300 31.38700
H  47.02900 22.29300 24.77900
H  48.99900 28.05000 24.90600
H  48.77900 25.81100 33.07200
H  46.46500 24.27000 33.05800
H  49.03000 22.65900 32.54900
H  47.69700 22.73800 33.89300
H  49.10100 23.77400 33.89700
H  46.13000 27.20400 32.57800
H  47.45400 27.70900 33.62700
H  47.00100 25.63700 34.98400
H  45.36500 25.83400 34.52100
H  45.13900 19.48700 29.27400
H  45.69200 20.53200 30.63300
H  46.83800 19.32900 29.90800
H  44.55000 18.87700 27.37400
H  46.32500 18.42900 27.43100
H  45.39300 18.09100 25.91500
H  46.80900 24.31200 23.15500
H  48.85000 26.27800 23.32900
H  48.43300 23.53000 22.06100
H  49.12700 22.85000 23.65100
H  49.76800 24.24400 22.97900
H  46.09200 27.14200 24.21800
H  46.05600 26.13900 22.81300
H  46.55600 27.85600 21.43300
H  47.89800 28.48000 22.34800
H  46.33100 28.94100 22.83500
H  50.59300 29.83300 26.00600
H  50.86200 30.64000 27.54300
H  49.38300 30.99300 26.63600
H  47.92300 28.96900 31.87100
H  49.66700 28.45200 35.53300
H  50.00300 30.18100 35.31900
H  51.15400 28.95000 34.69200
Mg 6.12200 52.94400 40.94900
C  5.03500 49.54100 40.79200
C  9.23800 51.91000 39.63700
C  6.86400 56.06800 40.52500
C  2.71500 53.67400 41.72200
N  6.94400 51.01500 40.30000
C  6.39400 49.73500 40.32900
C  7.39000 48.70100 39.82100
C  8.73700 49.47900 39.79200
C  8.28800 50.93400 39.95100
C  9.75100 49.02300 40.96300
C  7.17800 47.98100 38.48500
C  6.44900 48.78900 37.31900
H  7.26600 49.36500 36.14500
N  7.94200 53.88700 40.39400
C  9.09000 53.33500 39.83100
C  10.08400 54.34400 39.60600
C  9.36200 55.56500 39.92300
C  8.00000 55.24600 40.34600
C  11.57100 54.30300 39.33600
C  9.98200 56.93400 39.80800
O  11.10900 57.15700 39.46200
C  9.17300 58.10700 40.20800
N  4.92100 54.63400 40.88400
C  5.47200 55.80300 40.70700
C  4.35900 56.85500 40.70100
C  3.09500 56.07100 41.18300
C  3.65100 54.72400 41.39300
C  4.66400 58.13100 41.58100
C  1.94900 55.97200 40.10900
C  0.50000 56.49200 40.50300
N  4.26100 51.82500 41.37700
C  2.93300 52.29000 41.66500
C  2.12300 51.15100 41.93100
C  2.88900 50.05300 41.60200
C  4.12200 50.49400 41.19400
C  0.72000 51.09100 42.48000
C  2.83600 48.66500 41.53300
O  1.95100 47.85100 41.74900
C  4.31900 48.19800 41.02300
C  4.12000 47.37000 39.76200
O  3.68400 47.79500 38.73700
O  4.63800 46.11000 39.92700
C  4.60100 45.25200 38.73200
H  10.20200 51.49700 39.33400
H  7.00500 57.14700 40.44200
H  1.74800 54.06300 42.04900
H  7.39800 47.98100 40.64000
H  9.19400 49.29300 38.82000
H  10.69100 48.86600 40.43300
H  9.45800 48.08500 41.43300
H  9.83600 49.81200 41.71000
H  6.55300 47.11800 38.71300
H  8.12300 47.51900 38.20100
H  6.03600 49.66000 37.82800
H  5.60000 48.15100 37.07300
H  12.07600 54.69100 40.22000
H  11.80800 55.01300 38.54300
H  11.88900 53.27300 39.17500
H  8.43600 58.22400 39.41300
H  9.71400 59.04000 40.05200
H  8.93600 58.05200 41.27000
H  4.30900 57.16000 39.65600
H  2.65700 56.55600 42.05500
H  4.37100 59.01300 41.01200
H  5.71900 58.13700 41.85700
H  4.11300 58.13800 42.52100
H  1.91800 54.98700 39.64200
H  2.16000 56.64200 39.27500
H  -0.18600 55.77100 40.05900
H  0.28000 57.47100 40.07700
H  0.34600 56.56900 41.58000
H  0.08900 51.83100 41.98800
H  0.78100 51.38200 43.52900
H  0.35800 50.08300 42.27300
H  4.71200 47.48100 41.74500
H  5.07700 44.28300 38.88200
H  5.02300 45.68000 37.82200
H  3.57300 45.01200 38.46000

