158

Mg -1.57200 34.56000 25.56300
C  -3.45000 33.10800 28.19300
C  -0.55900 36.83500 27.93500
C  -0.17500 36.26500 23.15100
C  -3.27200 32.41900 23.24000
N  -1.96100 34.89700 27.93800
C  -2.65200 34.10200 28.74300
C  -2.52300 34.61200 30.19400
C  -1.61100 35.88800 30.05000
C  -1.39400 35.96800 28.58100
C  -2.01300 37.16800 30.90500
C  -1.99800 33.54100 31.18900
C  -2.71000 33.47900 32.58300
H  -2.12300 32.60800 33.65500
N  -0.49900 36.28000 25.52400
C  -0.22200 37.10200 26.57700
C  0.58600 38.18600 26.11700
C  0.62800 38.14400 24.74700
C  0.01300 36.88800 24.39700
C  1.02700 39.21000 27.07500
C  1.17300 39.10500 23.73400
O  1.13600 38.88000 22.50600
C  1.60300 40.49700 24.24400
N  -1.84000 34.48500 23.49300
C  -0.97000 35.17800 22.70300
C  -1.15600 34.76200 21.24200
C  -2.06100 33.42400 21.35600
C  -2.40400 33.41300 22.77900
C  -1.72800 35.85900 20.29000
C  -1.32200 32.09100 20.85800
C  -0.03400 31.59300 21.48800
N  -3.03900 33.09400 25.66600
C  -3.64600 32.24800 24.62100
C  -4.39600 31.21900 25.28700
C  -4.48000 31.62200 26.61700
C  -3.60900 32.70900 26.83400
C  -5.11700 30.06800 24.60100
C  -4.96100 31.17800 27.91500
O  -5.75000 30.19200 28.19500
C  -4.45600 32.14900 28.96400
C  -5.53800 32.87800 29.49500
O  -6.13000 33.80200 28.95000
O  -5.77100 32.48700 30.79500
C  -6.88800 33.05400 31.55000
H  -0.13000 37.41800 28.75200
H  0.32700 36.65100 22.26100
H  -3.67500 31.70100 22.52300
H  -3.50700 34.97700 30.48600
H  -0.65500 35.57300 30.46900
H  -2.86400 37.06400 31.57800
H  -2.35500 37.90200 30.17500
H  -1.21000 37.56500 31.52600
H  -0.93600 33.67600 31.39100
H  -2.07800 32.64200 30.57800
H  -3.69000 33.03100 32.42000
H  -2.94400 34.49200 32.90900
H  0.27800 39.99900 27.14200
H  2.03700 39.52700 26.81300
H  1.18900 38.75000 28.05000
H  0.96000 40.86700 25.04200
H  1.67700 41.19800 23.41200
H  2.62800 40.54900 24.61000
H  -0.13000 34.60700 20.90900
H  -2.95300 33.38300 20.73100
H  -1.28900 35.85100 19.29200
H  -1.32000 36.79000 20.68400
H  -2.81700 35.87200 20.32500
H  -1.10500 32.27300 19.80600
H  -2.01000 31.25000 20.94600
H  -0.12600 30.82300 22.25400
H  0.50000 32.42600 21.94600
H  0.62700 31.22800 20.70200
H  -4.44700 29.92900 23.75200
H  -6.07300 30.41600 24.20900
H  -5.15700 29.29300 25.36600
H  -4.02900 31.57800 29.78900
H  -6.46800 33.66000 32.35300
H  -7.47900 32.19400 31.86500
H  -7.45800 33.74300 30.92700
Mg -11.09200 16.65700 41.72900
C  -7.76400 17.37400 41.56100
C  -11.83500 19.99100 41.14500
C  -14.37100 15.85600 41.60300
C  -10.34100 13.25200 42.13100
N  -9.94200 18.42400 41.34500
C  -8.61000 18.44300 41.26800
C  -8.07900 19.83400 40.91700
C  -9.36200 20.75900 41.16200
C  -10.43600 19.66300 41.26200
C  -9.34400 21.51800 42.51900
C  -7.67500 19.89000 39.44000
C  -6.20600 20.33300 39.19200
H  -5.52600 19.65100 38.02300
N  -12.85900 17.76700 41.17300
C  -12.95300 19.09200 41.08500
C  -14.33300 19.41400 40.90000
C  -15.07700 18.21600 40.96700
C  -14.08500 17.20400 41.28400
C  -14.73400 20.82700 40.73800
C  -16.59000 18.13600 40.58600
O  -17.26100 19.15000 40.38800
C  -17.20400 16.74400 40.33500
N  -12.19600 14.75300 41.80400
C  -13.54800 14.70100 41.83100
C  -14.10300 13.30200 42.04300
C  -12.76600 12.41700 42.01900
C  -11.70800 13.51100 41.96700
C  -14.89800 13.12300 43.27600
C  -12.84900 11.39800 40.80400
C  -13.14000 9.91200 41.09100
N  -9.37200 15.46700 41.86600
C  -9.22600 14.14400 42.13000
C  -7.75500 13.82300 41.98100
C  -7.17700 15.12900 41.90400
C  -8.20600 16.06600 41.80100
C  -7.13100 12.49600 41.94500
C  -5.86500 15.80800 41.83500
O  -4.67800 15.44700 41.93500
C  -6.23800 17.31100 41.65100
C  -5.64000 18.10700 42.72300
O  -6.29000 18.65900 43.54100
O  -4.28800 18.05800 42.57700
C  -3.53400 19.11800 43.32300
H  -12.04500 21.05700 41.03000
H  -15.41200 15.60300 41.81500
H  -10.13000 12.19000 42.27200
H  -7.24200 20.16000 41.53500
H  -9.59300 21.44200 40.34400
H  -8.66100 21.05300 43.23100
H  -10.34600 21.63400 42.93200
H  -8.94600 22.50900 42.30200
H  -8.27900 20.47600 38.74800
H  -7.78300 18.89800 39.00200
H  -5.59800 20.31300 40.09600
H  -6.24000 21.36900 38.85500
H  -14.66100 21.14400 39.69800
H  -14.16400 21.47800 41.40100
H  -15.73400 20.79200 41.17000
H  -18.11100 16.89000 39.74900
H  -17.46400 16.19300 41.23900
H  -16.52100 16.20000 39.68300
H  -14.72200 13.17500 41.15400
H  -12.68300 11.84000 42.94000
H  -15.81300 13.68700 43.09300
H  -14.26500 13.60900 44.01900
H  -14.95100 12.07400 43.56800
H  -11.86200 11.42800 40.34200
H  -13.57500 11.79300 40.09300
H  -13.70600 9.81500 42.01700
H  -12.18200 9.41000 41.23100
H  -13.68000 9.49500 40.24100
H  -6.85700 12.38700 40.89500
H  -7.88500 11.71100 41.99900
H  -6.22000 12.35900 42.52800
H  -5.81400 17.74000 40.74300
H  -4.07300 20.06600 43.34100
H  -2.52400 19.20500 42.92300
H  -3.41600 18.79300 44.35600

