158

Mg 1.65900 -2.48000 44.65600
C  4.87400 -1.35000 43.95200
C  0.36100 -0.03600 42.50200
C  -1.34200 -4.10200 44.83900
C  3.15700 -5.42300 46.11000
N  2.48500 -0.83900 43.40800
C  3.87200 -0.56300 43.27100
C  4.15000 0.45900 42.19200
C  2.75800 1.03600 41.98800
C  1.79900 0.07600 42.69900
C  2.69400 2.49800 42.32900
C  4.73000 -0.23800 40.95700
C  6.00900 0.38400 40.44200
H  5.82200 1.22100 39.12700
N  -0.23600 -2.10900 43.80000
C  -0.57600 -1.03200 43.00100
C  -1.99900 -1.04600 42.74100
C  -2.57100 -2.20200 43.40600
C  -1.32800 -2.89100 44.01000
C  -2.76500 0.05300 42.02700
C  -4.08100 -2.57900 43.59300
O  -4.95400 -1.82000 43.21800
C  -4.49400 -3.86000 44.31000
N  1.03100 -4.39300 45.51700
C  -0.28500 -4.75000 45.44000
C  -0.51100 -6.15500 45.98900
C  0.86000 -6.59500 46.50200
C  1.73600 -5.38500 46.02100
C  -1.65900 -6.21200 47.07100
C  1.37900 -8.00100 46.04000
C  1.96100 -8.92300 47.08300
N  3.62500 -3.24500 45.10900
C  4.07000 -4.39400 45.73400
C  5.49600 -4.39300 45.78200
C  5.89500 -3.10900 45.19500
C  4.69000 -2.50600 44.71300
C  6.29800 -5.46900 46.33800
C  6.93100 -2.13600 44.86000
O  8.09400 -2.14000 45.15700
C  6.38500 -1.13700 43.88800
C  6.75200 0.22700 44.15800
O  7.57000 0.88500 43.57200
O  6.06800 0.74500 45.21500
C  6.55300 2.10700 45.56100
H  0.05900 0.61500 41.67900
H  -2.27000 -4.51200 45.24200
H  3.69300 -6.09600 46.78200
H  4.82700 1.21000 42.59700
H  2.49600 0.90400 40.93800
H  2.26100 2.71000 43.30700
H  1.97300 3.02300 41.70300
H  3.68600 2.94600 42.29000
H  4.04000 -0.21500 40.11400
H  5.00000 -1.27100 41.17700
H  6.76700 -0.39600 40.36400
H  6.46000 1.11100 41.11800
H  -2.22600 0.97900 42.22400
H  -3.79400 0.10100 42.38400
H  -2.79300 -0.21300 40.97000
H  -3.79000 -4.64100 44.02300
H  -5.56000 -3.96000 44.10400
H  -4.57800 -3.72700 45.38900
H  -0.86000 -6.85900 45.23300
H  0.87200 -6.53900 47.59000
H  -1.25400 -6.61200 48.00100
H  -2.37700 -6.95200 46.71700
H  -2.10800 -5.24000 47.27400
H  1.98800 -7.88000 45.14400
H  0.60700 -8.51300 45.46500
H  2.95700 -9.27400 46.81500
H  1.24800 -9.74600 47.14100
H  2.14700 -8.44700 48.04600
H  6.00300 -6.28800 45.68300
H  5.93800 -5.58300 47.36100
H  7.36100 -5.23100 46.35600
H  6.73900 -1.48200 42.91600
H  6.33000 2.09200 46.62800
H  5.89700 2.84800 45.10500
H  7.59200 2.39400 45.40000
Mg 46.33400 17.10800 29.05500
C  44.58800 16.64400 32.20400
C  48.66800 18.77900 30.69600
C  47.43800 17.80900 26.17200
C  43.46200 15.51000 27.60300
N  46.57300 17.73100 31.25200
C  45.78400 17.36200 32.33300
C  46.44700 17.91000 33.60000
C  47.67100 18.77100 33.10300
C  47.62400 18.53500 31.59700
C  47.67500 20.27900 33.51700
C  46.88400 16.84500 34.66600
C  46.05800 16.84800 35.99800
H  45.83100 18.21900 36.63500
N  47.99100 17.95600 28.51700
C  48.89400 18.56600 29.30900
C  50.09900 18.94900 28.51800
C  49.75100 18.66600 27.19500
C  48.31800 18.19300 27.23000
C  51.28700 19.59800 29.06900
C  50.52100 18.67600 25.95900
O  50.00300 18.45300 24.88500
C  51.96100 18.91200 25.97800
N  45.52800 16.72400 27.15700
C  46.15900 17.16200 26.10000
C  45.43900 16.85500 24.74400
C  44.31800 15.83400 25.26500
C  44.44900 15.92000 26.75900
C  45.00900 18.18100 24.03000
C  44.44600 14.46400 24.69500
C  43.56400 14.12700 23.51600
N  44.39500 16.30200 29.72800
C  43.37900 15.68200 28.95200
C  42.36400 15.17400 29.80200
C  42.79200 15.52700 31.08400
C  44.03500 16.23300 30.97300
C  41.01100 14.55600 29.33600
C  42.42800 15.51600 32.48700
O  41.42100 15.01700 33.04800
C  43.57000 16.19900 33.23900
C  42.93100 17.32300 33.96900
O  42.78200 18.46300 33.46400
O  42.47000 16.84500 35.15400
C  41.44800 17.79600 35.80800
H  49.46000 19.32900 31.20900
H  47.79300 18.15800 25.20000
H  42.71100 14.82300 27.20900
H  45.68400 18.51200 34.09400
H  48.59400 18.32800 33.47600
H  48.42200 20.47000 34.28800
H  46.73700 20.62600 33.95100
H  47.83500 20.93300 32.66000
H  47.93700 16.97300 34.91400
H  46.73300 15.86000 34.22500
H  46.63100 16.38100 36.79900
H  45.18000 16.22900 35.81500
H  51.32300 20.65600 28.81300
H  52.13000 19.01500 28.69900
H  51.25200 19.48000 30.15200
H  52.49200 18.09200 26.46300
H  52.25700 19.86000 26.42600
H  52.29700 18.87900 24.94200
H  46.15300 16.32800 24.11100
H  43.29200 16.12800 25.04400
H  45.59600 19.00500 24.43600
H  43.94900 18.35700 24.20900
H  45.28600 18.17800 22.97600
H  44.14700 13.68800 25.39900
H  45.46000 14.12900 24.47300
H  44.11400 14.53500 22.66800
H  42.55600 14.50700 23.68100
H  43.60400 13.04200 23.41900
H  40.58100 15.05400 28.46800
H  40.31400 14.52500 30.17400
H  41.20700 13.52100 29.05600
H  43.93400 15.50500 33.99700
H  42.11200 18.21600 36.56400
H  40.64000 17.30700 36.35200
H  40.99700 18.54200 35.15300

