158

Mg 24.55800 -7.20600 47.07900
C  26.61600 -4.69700 45.61700
C  22.17400 -6.36400 44.63500
C  23.14600 -10.14400 47.62500
C  27.54000 -8.29600 48.71800
N  24.49100 -5.63400 45.34300
C  25.41700 -4.83600 44.91900
C  24.94800 -4.04300 43.63600
C  23.40200 -4.34100 43.70100
C  23.32400 -5.53600 44.60300
C  22.56500 -3.11700 44.09500
C  25.64700 -4.17400 42.23400
C  26.19400 -2.85100 41.60200
H  25.65400 -2.58700 40.20600
N  22.80500 -7.98700 46.48300
C  22.00000 -7.53000 45.47100
C  20.83000 -8.49700 45.30900
C  21.06900 -9.52200 46.28800
C  22.39800 -9.24200 46.86400
C  19.70200 -8.42500 44.36200
C  20.20900 -10.70800 46.44900
O  19.21000 -10.78900 45.80900
C  20.43000 -11.73100 47.53400
N  25.24300 -8.93200 47.96500
C  24.44700 -10.03700 48.14100
C  25.22200 -11.13300 48.95000
C  26.61600 -10.59300 49.19600
C  26.43800 -9.16900 48.69700
C  24.51500 -11.71000 50.24200
C  27.76000 -11.45600 48.54800
C  28.87500 -12.01200 49.44200
N  26.60600 -6.56100 47.39000
C  27.58800 -7.10400 48.10600
C  28.76700 -6.21000 48.04500
C  28.41800 -5.28800 47.09700
C  27.11100 -5.55600 46.63900
C  30.10200 -6.36000 48.74800
C  28.90000 -4.17200 46.39500
O  30.04100 -3.67300 46.47100
C  27.76400 -3.68500 45.41800
C  27.23600 -2.30200 45.92400
O  26.86200 -2.06700 47.03000
O  27.47800 -1.39100 44.97400
C  27.34200 0.04400 45.35900
H  21.36300 -6.09700 43.95500
H  22.78800 -11.09200 48.03100
H  28.30900 -8.92000 49.17800
H  25.10200 -2.98400 43.84400
H  23.08700 -4.63400 42.70000
H  21.86900 -3.49500 44.84400
H  22.03900 -2.83400 43.18300
H  23.16200 -2.28800 44.47600
H  24.96500 -4.58600 41.49100
H  26.53700 -4.78100 42.40200
H  27.28000 -2.84800 41.69800
H  25.92400 -2.00300 42.23100
H  19.66700 -7.44100 43.89400
H  18.75900 -8.50100 44.90300
H  19.68200 -9.10300 43.50900
H  21.28300 -12.37800 47.32900
H  19.58600 -12.42000 47.51800
H  20.49600 -11.23400 48.50200
H  25.28500 -11.99900 48.29200
H  26.78100 -10.50500 50.27000
H  23.67600 -11.02900 50.38700
H  25.17700 -11.53300 51.08900
H  24.13800 -12.72700 50.13000
H  28.11700 -10.95200 47.65000
H  27.29500 -12.34000 48.11100
H  28.42800 -12.90600 49.87500
H  29.01200 -11.21700 50.17500
H  29.85200 -12.20300 48.99800
H  29.92700 -6.43000 49.82200
H  30.78400 -5.51800 48.63300
H  30.56900 -7.26900 48.36800
H  28.06400 -3.55900 44.37800
H  27.31100 0.65500 44.45700
H  28.19800 0.29500 45.98700
H  26.50600 0.20400 46.04000
Mg 41.11300 7.61900 29.03700
C  42.68800 9.24200 31.84300
C  38.76100 6.55600 31.38100
C  39.70100 6.29700 26.53300
C  43.83900 8.66400 27.05000
N  40.80600 7.84100 31.42300
C  41.55000 8.62100 32.25100
C  40.92900 8.59000 33.68500
C  39.66900 7.66800 33.46600
C  39.75600 7.24600 31.99000
C  39.42900 6.58800 34.63500
C  40.60600 9.96600 34.30900
C  39.55600 10.11500 35.49000
H  39.99900 10.81800 36.83800
N  39.45100 6.61800 28.90700
C  38.56400 6.27500 29.95200
C  37.32500 5.70300 29.37900
C  37.53100 5.72700 27.97300
C  38.91900 6.22100 27.72300
C  36.19100 5.11500 30.23700
C  36.50300 5.41500 26.81100
O  36.89300 5.56600 25.67300
C  35.04800 4.97800 27.09700
N  41.81100 7.42200 27.00200
C  40.94900 6.82300 26.11600
C  41.51500 6.79800 24.66100
C  42.65700 7.87400 24.84200
C  42.77600 7.99500 26.38700
C  41.88600 5.40600 24.02800
C  42.47300 9.24800 24.20400
C  43.70000 9.97400 23.78900
N  42.85300 8.69200 29.35000
C  43.81800 9.03600 28.42600
C  44.76600 9.91800 29.04700
C  44.35400 9.95900 30.36800
C  43.16700 9.15800 30.55100
C  45.89000 10.71600 28.46900
C  44.71500 10.54800 31.59500
O  45.66500 11.18300 31.92800
C  43.59100 10.21600 32.55400
C  44.15100 9.58600 33.77200
O  44.32900 8.39300 33.98600
O  44.42800 10.57500 34.73300
C  44.65500 10.03300 36.06500
H  38.06300 6.24800 32.16200
H  39.14400 5.95500 25.65800
H  44.69300 8.95500 26.43500
H  41.80900 8.16100 34.16500
H  38.76600 8.27700 33.50900
H  38.39500 6.81200 34.89400
H  40.07300 6.82300 35.48300
H  39.52300 5.55300 34.30700
H  40.28700 10.51700 33.42400
H  41.55900 10.38800 34.62900
H  39.29300 9.10500 35.80600
H  38.63400 10.58300 35.14600
H  35.43100 5.89500 30.18400
H  36.34200 4.96300 31.30600
H  35.87800 4.21600 29.70700
H  35.14600 4.03200 27.62900
H  34.54500 4.75400 26.15600
H  34.59700 5.82500 27.61400
H  40.75600 7.18300 23.98000
H  43.59800 7.51900 24.42200
H  42.94200 5.19200 23.85900
H  41.18500 5.07800 23.26200
H  41.54500 4.81000 24.87500
H  42.06100 9.78300 25.05900
H  41.71300 9.39100 23.43500
H  43.50900 10.15500 22.73100
H  44.62700 9.40300 23.83100
H  43.75000 10.86700 24.41200
H  45.81200 10.77600 27.38300
H  46.74500 10.09600 28.73700
H  45.88300 11.71200 28.91100
H  43.02900 11.13600 32.70900
H  43.75700 9.45100 36.27600
H  44.83800 10.85300 36.76000
H  45.54000 9.40800 35.94600

