158

Mg 2.01700 -1.50600 44.49400
C  5.42400 -0.62600 43.75900
C  1.12400 1.11200 42.30900
C  -1.12700 -2.60500 44.72100
C  3.22400 -4.46400 45.78000
N  3.11900 -0.05000 43.05700
C  4.51600 0.12500 43.07300
C  4.89700 1.26800 42.13300
C  3.52500 1.96100 41.93800
C  2.50900 0.99600 42.44000
C  3.48100 3.36200 42.53200
C  5.55100 0.77100 40.88300
C  6.60000 1.85300 40.36300
H  6.55000 2.30300 38.94900
N  0.21100 -0.79600 43.75700
C  0.09000 0.25800 42.86300
C  -1.34900 0.45200 42.66600
C  -2.01700 -0.63800 43.32000
C  -0.93600 -1.43300 44.00400
C  -1.87800 1.42300 41.67900
C  -3.51200 -0.81600 43.34400
O  -4.13600 -0.01000 42.72700
C  -4.17700 -1.97300 44.07700
N  1.14500 -3.33500 45.10500
C  -0.17500 -3.52500 45.12200
C  -0.46700 -4.91300 45.73200
C  0.89200 -5.55300 45.93700
C  1.81400 -4.42200 45.60900
C  -1.32700 -4.84600 47.10100
C  1.19500 -6.80500 44.97100
C  0.62900 -8.25500 45.42400
N  3.88400 -2.33900 44.83800
C  4.23300 -3.55300 45.38800
C  5.64100 -3.71900 45.61000
C  6.17000 -2.58200 45.02300
C  5.05400 -1.77400 44.51200
C  6.29200 -4.88500 46.18400
C  7.37900 -1.83300 44.68400
O  8.50600 -2.09400 45.02000
C  6.96000 -0.57900 43.92200
C  7.54900 0.64200 44.51800
O  7.44100 0.93800 45.69500
O  8.22800 1.40400 43.55900
C  8.76800 2.69400 44.02400
H  0.99300 2.06400 41.79100
H  -2.11300 -3.07400 44.70100
H  3.45100 -5.45900 46.16800
H  5.65200 1.82300 42.69100
H  3.32400 2.12300 40.87900
H  3.68800 4.14500 41.80300
H  4.15100 3.36500 43.39200
H  2.52000 3.68200 42.93500
H  4.77300 0.75900 40.11900
H  5.95900 -0.23800 40.94000
H  7.53600 1.30600 40.47700
H  6.63100 2.75500 40.97500
H  -2.32400 0.85400 40.86200
H  -1.12700 2.04400 41.19100
H  -2.63300 2.03100 42.17800
H  -5.25400 -1.84800 43.96600
H  -3.93400 -1.81400 45.12800
H  -3.87900 -2.92000 43.62800
H  -1.10800 -5.34300 44.96300
H  1.07300 -5.87600 46.96200
H  -1.66000 -5.82800 47.43700
H  -2.17500 -4.26600 46.73800
H  -0.75700 -4.36900 47.89800
H  2.25300 -6.92900 44.74200
H  0.68200 -6.53800 44.04700
H  1.42000 -8.93700 45.73600
H  0.08300 -8.68200 44.58300
H  -0.15700 -8.08000 46.16000
H  5.82700 -5.28000 47.08600
H  7.30900 -4.68100 46.52200
H  6.22400 -5.74100 45.51300
H  7.31900 -0.62600 42.89400
H  9.34100 3.09900 43.18900
H  9.37000 2.51400 44.91500
H  7.97600 3.39700 44.28200
Mg 54.95600 24.36300 44.17300
C  52.27000 26.27100 43.22300
C  53.37700 21.50100 43.27900
C  58.05700 22.68600 44.13900
C  56.90700 27.38000 44.50400
N  53.06200 24.00600 43.25400
C  52.03900 24.90800 43.01000
C  50.75800 24.18600 42.53200
C  51.11300 22.74000 43.08900
C  52.61700 22.71400 43.22800
C  50.34000 22.54700 44.44000
C  50.63200 24.12600 41.00600
C  49.24200 24.01500 40.44600
H  49.04100 23.73100 38.94300
N  55.58800 22.32600 43.79900
C  54.75500 21.30400 43.45700
C  55.44300 20.09900 43.51900
C  56.82100 20.40500 43.80300
C  56.86100 21.87800 43.96500
C  54.73700 18.86700 43.09000
C  57.86400 19.37500 43.90100
O  57.53800 18.23900 43.69500
C  59.27800 19.65200 44.35900
N  57.15900 24.92800 44.17900
C  58.16200 24.04600 44.23200
C  59.53300 24.71500 44.44900
C  59.21900 26.21000 44.57800
C  57.61600 26.17400 44.35000
C  60.38700 24.12800 45.55600
C  59.97800 27.05300 43.54100
C  60.69100 28.23800 44.10100
N  54.66200 26.45500 43.92000
C  55.48700 27.54100 44.23800
C  54.61500 28.68200 44.42000
C  53.31900 28.22400 43.98900
C  53.49000 26.86700 43.67000
C  54.98800 30.02900 44.90900
C  51.93700 28.63100 43.94400
O  51.36300 29.60600 44.30200
C  51.17200 27.39400 43.34400
C  50.69300 27.86700 42.03100
O  51.46000 28.27600 41.12100
O  49.32500 27.79000 41.84300
C  48.70200 28.24700 40.58200
H  52.85200 20.55200 43.40700
H  58.96600 22.08100 44.12600
H  57.50100 28.25000 44.79300
H  49.83900 24.62500 42.92000
H  50.77700 21.97800 42.38600
H  51.02200 22.24800 45.23500
H  49.63900 21.74100 44.22200
H  49.84200 23.44600 44.80200
H  51.16500 23.21700 40.72800
H  51.18900 24.93000 40.52400
H  48.73000 24.97600 40.48500
H  48.70200 23.30300 41.07100
H  54.34700 19.04700 42.08800
H  53.83500 18.82400 43.70100
H  55.25100 17.91700 43.23100
H  59.83400 20.23500 43.62500
H  59.74700 18.73600 44.72000
H  59.29600 20.18300 45.31100
H  60.09500 24.54800 43.53000
H  59.46300 26.61700 45.55900
H  60.60400 24.89400 46.30100
H  61.24600 23.57800 45.17300
H  59.67000 23.42500 45.98000
H  59.30400 27.42000 42.76800
H  60.78400 26.58300 42.97700
H  61.65800 28.34900 43.60900
H  60.86700 28.18600 45.17500
H  60.11400 29.15200 43.95700
H  55.57700 29.88100 45.81400
H  54.13400 30.69600 45.01900
H  55.58000 30.49700 44.12200
H  50.33900 27.12000 43.99100
H  48.76100 27.53100 39.76200
H  49.34900 29.08100 40.30900
H  47.66300 28.57500 40.58100

