158

Mg 42.42500 40.91100 26.36500
C  41.68000 43.06100 29.03200
C  43.62700 38.60000 28.58100
C  43.15000 38.90900 23.76800
C  41.61300 43.44000 24.13300
N  42.77000 40.97800 28.53100
C  42.31600 41.88400 29.42200
C  42.47500 41.42400 30.96400
C  43.17300 40.07600 30.73900
C  43.15300 39.84700 29.12800
C  44.57100 39.88700 31.43300
C  41.14200 41.33200 31.73800
C  41.16700 41.94100 33.13900
H  40.54200 41.12100 34.21100
N  43.21300 38.95100 26.21900
C  43.68000 38.17800 27.20100
C  44.06800 36.91100 26.73100
C  43.81200 36.87800 25.32300
C  43.44200 38.25700 25.03500
C  44.56700 35.84300 27.66800
C  44.08600 35.84300 24.29300
O  43.88100 35.95600 23.09300
C  44.58900 34.61500 24.85700
N  42.41100 41.08000 24.26900
C  42.74500 40.18900 23.40400
C  42.62800 40.64400 21.94700
C  42.00700 42.06700 21.97800
C  41.98600 42.21500 23.56100
C  43.95400 40.70300 21.20300
C  40.64300 42.18800 21.30700
C  40.48600 43.43500 20.45200
N  41.86400 42.91000 26.47900
C  41.49700 43.82700 25.50500
C  41.05900 45.02300 26.07500
C  40.94000 44.66700 27.46100
C  41.59200 43.44600 27.66000
C  40.73500 46.30300 25.37000
C  40.47300 45.17700 28.75600
O  39.91200 46.23600 29.00100
C  41.15700 44.20400 29.81300
C  42.23400 44.97200 30.50100
O  43.35900 45.07000 30.15000
O  41.74800 45.12400 31.75900
C  42.77100 45.62300 32.72800
H  43.74100 37.83400 29.35200
H  43.30100 38.25800 22.90400
H  41.33700 44.21500 23.41400
H  43.05600 42.22900 31.41400
H  42.54200 39.27100 31.11700
H  45.37300 40.27700 30.80700
H  44.67400 38.84900 31.74800
H  44.44500 40.43500 32.36700
H  40.90600 40.27200 31.83000
H  40.40600 41.83400 31.10900
H  40.76300 42.95100 33.06200
H  42.20000 42.09900 33.44900
H  44.01700 34.91700 27.50000
H  44.58200 36.10600 28.72600
H  45.60600 35.63000 27.41800
H  43.82400 34.32800 25.57900
H  45.58300 34.85500 25.23500
H  44.78800 33.94100 24.02400
H  41.95500 39.98900 21.39400
H  42.71500 42.73400 21.48700
H  44.77500 40.59700 21.91100
H  44.08100 41.63800 20.65700
H  43.90400 39.86500 20.50700
H  39.88800 42.30500 22.08500
H  40.56100 41.26600 20.73100
H  39.41400 43.61900 20.38800
H  40.82200 43.29800 19.42400
H  41.01100 44.28900 20.88000
H  41.26200 46.26000 24.41700
H  40.97700 47.19000 25.95500
H  39.68200 46.10700 25.16500
H  40.35300 43.86100 30.46400
H  42.74400 46.70000 32.56200
H  43.75600 45.23800 32.46300
H  42.53900 45.50400 33.78600
Mg 9.45200 47.92600 25.43900
C  7.14400 48.33500 28.10200
C  11.81300 49.29600 27.64000
C  11.69800 47.80800 22.94300
C  6.84500 47.01800 23.28000
N  9.49700 48.44700 27.70800
C  8.46100 48.65500 28.50900
C  8.96900 49.04000 29.92400
C  10.29000 49.74500 29.60800
C  10.59100 49.09900 28.26600
C  10.20000 51.21600 29.51900
C  9.09100 47.77300 30.75300
C  8.62900 47.92200 32.17600
H  8.87700 46.79500 33.19800
N  11.47800 48.43500 25.32200
C  12.28100 48.95000 26.34700
C  13.63000 49.19200 25.84100
C  13.62300 48.73900 24.47600
C  12.20600 48.34700 24.19300
C  14.78900 49.65500 26.58000
C  14.72900 48.42700 23.53000
O  14.54900 48.05300 22.39400
C  16.14600 48.72700 23.96900
N  9.27600 47.61900 23.39900
C  10.36600 47.49500 22.53300
C  9.95300 47.18400 21.09400
C  8.41900 46.80400 21.24900
C  8.18200 47.16800 22.74700
C  10.17100 48.30400 20.08800
C  8.07900 45.32200 20.93700
C  8.57500 44.33100 21.99800
N  7.40900 47.76400 25.57600
C  6.51800 47.42400 24.61200
C  5.14100 47.44000 25.19200
C  5.39200 47.65200 26.55200
C  6.78800 47.91800 26.72700
C  3.87900 47.19300 24.51200
C  4.74200 47.84600 27.87500
O  3.57400 47.80700 28.30300
C  5.86100 48.21500 28.88800
C  5.87100 47.18200 29.94600
O  6.31600 46.04900 29.73800
O  5.37900 47.61300 31.15700
C  5.37600 46.65500 32.24600
H  12.56800 49.66000 28.34100
H  12.32100 47.69300 22.05300
H  5.96700 46.73800 22.69400
H  8.28100 49.78500 30.32300
H  11.11800 49.45600 30.25500
H  9.16900 51.56700 29.46900
H  10.56500 51.61100 28.57100
H  10.68200 51.63700 30.40000
H  10.14900 47.65900 30.98900
H  8.64500 46.89900 30.27700
H  7.61600 48.31300 32.26700
H  9.19900 48.71400 32.66300
H  15.39800 50.30600 25.95300
H  15.32000 48.75100 26.87700
H  14.33600 50.07600 27.47800
H  16.41200 49.78400 23.99900
H  16.75000 48.14700 23.27100
H  16.31100 48.27100 24.94500
H  10.50200 46.29500 20.78500
H  7.66800 47.40500 20.73800
H  9.78400 49.28100 20.37900
H  9.62000 48.11000 19.16800
H  11.20000 48.41500 19.74800
H  8.41200 45.06700 19.93200
H  6.98900 45.30700 20.92900
H  9.28100 44.67100 22.75600
H  9.04100 43.46700 21.52400
H  7.73900 43.95900 22.59000
H  3.99100 46.90000 23.46800
H  3.34800 48.14400 24.52300
H  3.22100 46.46600 24.98900
H  5.67200 49.19700 29.32100
H  5.90300 47.18900 33.03600
H  5.71500 45.67900 31.89700
H  4.31200 46.48700 32.41400

