158

Mg 8.67000 5.34500 27.31800
C  9.58100 3.58200 30.07500
C  6.03600 6.87400 29.08500
C  7.45900 6.94300 24.46800
C  10.42200 3.16800 25.23800
N  8.01400 5.32400 29.35200
C  8.55600 4.49400 30.32900
C  7.90700 4.80500 31.77200
C  6.58900 5.53200 31.18900
C  6.89800 5.97000 29.82400
C  5.33300 4.53200 31.09900
C  8.77000 5.75500 32.58500
C  9.08600 5.37200 34.02000
H  10.14400 6.02700 34.85900
N  7.08100 6.83400 26.87100
C  6.14700 7.27900 27.73600
C  5.28000 8.30400 27.10100
C  5.79800 8.53600 25.79200
C  6.80900 7.42000 25.64900
C  4.34700 9.14100 27.90000
C  5.39200 9.50400 24.69800
O  5.97500 9.55900 23.57000
C  4.32200 10.45800 24.97200
N  8.74300 4.97800 25.13100
C  8.26600 5.85300 24.19400
C  8.78900 5.49200 22.71900
C  9.64700 4.19600 23.08400
C  9.65400 4.10400 24.59100
C  7.62000 5.27100 21.63300
C  11.08300 4.15700 22.56500
C  11.44300 2.84500 21.89000
N  9.86000 3.79600 27.51100
C  10.54400 2.96600 26.63100
C  11.31200 1.98400 27.34700
C  11.04100 2.23800 28.70800
C  10.08700 3.31500 28.74800
C  12.20300 0.83200 26.74100
C  11.47400 1.88500 30.01700
O  12.41800 1.17100 30.32600
C  10.51400 2.69300 30.95800
C  9.69300 1.79400 31.75700
O  8.84300 1.02600 31.33800
O  10.08900 2.02500 33.08700
C  9.50600 1.02400 33.99100
H  5.12300 7.05300 29.65700
H  7.16300 7.39000 23.51700
H  11.15900 2.59800 24.66800
H  7.70800 3.89100 32.33000
H  6.37000 6.35400 31.87100
H  4.61900 4.77300 31.88600
H  5.56300 3.46700 31.09700
H  4.72200 4.63800 30.20300
H  8.36100 6.76300 32.52300
H  9.80300 5.82500 32.24500
H  9.30400 4.30800 34.10800
H  8.13900 5.36800 34.56000
H  4.31600 8.83000 28.94400
H  3.37300 9.09600 27.41200
H  4.62700 10.19500 27.87600
H  3.42100 9.92500 25.27400
H  4.31100 11.03800 24.04900
H  4.59500 11.09400 25.81500
H  9.42700 6.33700 22.45800
H  9.03500 3.41400 22.63500
H  6.73000 5.77500 22.00900
H  7.38800 4.20600 21.64300
H  7.80600 5.70000 20.64800
H  11.75100 4.38100 23.39700
H  11.33500 4.99100 21.91000
H  12.13000 3.07200 21.07400
H  10.61800 2.22900 21.53400
H  12.07800 2.25600 22.55200
H  13.26500 1.07400 26.70400
H  11.84100 0.62700 25.73300
H  12.05900 -0.04600 27.37000
H  11.18600 3.27000 31.59300
H  8.45800 0.82100 33.77100
H  9.34900 1.55600 34.92900
H  10.13200 0.14600 34.15500
Mg -5.52300 25.87100 25.61800
C  -4.61200 27.27900 28.62500
C  -7.16800 23.47200 27.40300
C  -5.76400 24.21200 22.78800
C  -3.16000 28.13500 24.19900
N  -5.75800 25.36000 27.79000
C  -5.38300 26.12700 28.80800
C  -5.78700 25.57700 30.23400
C  -6.44900 24.22300 29.79300
C  -6.43300 24.30300 28.26000
C  -5.69500 22.92200 30.28200
C  -6.77300 26.51400 31.13600
C  -6.80300 26.17800 32.69000
H  -5.90400 24.98900 33.29200
N  -6.53300 24.20600 25.16300
C  -7.22800 23.38800 25.94900
C  -7.92400 22.43400 25.18500
C  -7.55500 22.61200 23.85000
C  -6.60000 23.75600 23.86000
C  -8.89600 21.50100 25.73000
C  -8.02200 21.85100 22.59100
O  -7.54800 22.20000 21.50900
C  -9.14900 20.81200 22.69000
N  -4.64300 26.22000 23.76300
C  -4.88300 25.37400 22.70500
C  -3.95100 25.70200 21.49200
C  -3.55800 27.18200 21.89700
C  -3.69100 27.12200 23.42000
C  -2.72300 24.73900 21.33200
C  -4.43300 28.25700 21.34100
C  -3.70700 29.46700 20.53100
N  -4.26700 27.48400 26.21500
C  -3.39900 28.27600 25.51200
C  -2.85700 29.27600 26.36800
C  -3.33700 28.87300 27.64900
C  -4.16800 27.78800 27.44900
C  -1.82800 30.33900 26.04600
C  -3.22500 29.18400 29.04600
O  -2.68700 30.19600 29.58800
C  -4.03000 28.19400 29.71800
C  -3.10800 27.59000 30.70000
O  -2.26400 26.73600 30.42500
O  -3.24200 28.13600 31.99700
C  -2.23200 27.76000 33.06100
H  -7.74700 22.74200 27.97200
H  -5.84700 23.59600 21.89000
H  -2.39400 28.80200 23.79700
H  -4.87800 25.37300 30.80100
H  -7.42900 24.12200 30.26000
H  -4.84600 23.06900 30.95000
H  -5.28300 22.44800 29.39100
H  -6.41000 22.28300 30.80000
H  -7.72900 26.21900 30.70300
H  -6.65200 27.57200 30.90300
H  -7.85500 26.18600 32.97600
H  -6.39200 27.03200 33.22800
H  -8.70600 20.46900 25.43500
H  -9.90000 21.80800 25.43800
H  -8.81900 21.36800 26.80900
H  -9.46200 20.53300 21.68400
H  -9.91500 21.45300 23.12500
H  -8.96700 19.89800 23.25600
H  -4.50700 25.74300 20.55600
H  -2.49000 27.26200 21.69400
H  -1.85300 25.31100 21.01100
H  -2.90900 24.03200 20.52400
H  -2.50700 24.10200 22.18900
H  -4.97400 28.78000 22.13000
H  -5.25000 27.94900 20.69000
H  -3.97100 29.40600 19.47600
H  -2.66100 29.31000 20.79800
H  -4.04900 30.44100 20.88200
H  -2.36600 31.28000 26.16700
H  -1.40100 30.25000 25.04800
H  -1.15800 30.28300 26.90400
H  -4.82400 28.67100 30.29200
H  -1.25800 27.59600 32.60000
H  -2.64400 26.79200 33.34600
H  -2.25500 28.53600 33.82700

