158

Mg 17.01900 51.07100 26.90000
C  19.24200 49.93500 29.26900
C  15.00100 52.14600 29.35000
C  15.14100 52.09500 24.43900
C  19.45300 49.85500 24.45700
N  17.05300 50.98700 29.04800
C  18.16300 50.54000 29.84100
C  17.88900 50.76900 31.34200
C  16.33900 51.15700 31.28000
C  16.12000 51.50800 29.80900
C  15.40600 50.05700 31.84300
C  18.77400 51.94000 31.92500
C  18.92900 51.89300 33.53600
H  17.84300 51.20500 34.30800
N  15.30000 51.95000 26.88000
C  14.61100 52.34600 27.96000
C  13.40100 53.04100 27.53600
C  13.41300 53.05500 26.05500
C  14.67100 52.30700 25.70800
C  12.30000 53.49600 28.54700
C  12.41000 53.50600 24.96500
O  12.52400 53.45100 23.76600
C  11.17700 54.16400 25.47800
N  17.32300 50.97600 24.73900
C  16.33100 51.50600 24.00600
C  16.78800 51.54300 22.56000
C  18.23200 51.00300 22.53300
C  18.35900 50.57600 23.96700
C  15.87200 50.92600 21.56100
C  19.26400 52.10900 22.10300
C  20.22700 51.64300 20.99200
N  18.84500 49.87900 26.86500
C  19.75000 49.56100 25.85000
C  20.85700 48.76300 26.34200
C  20.72900 48.96200 27.72100
C  19.51700 49.62000 27.95600
C  22.01000 48.23300 25.58100
C  21.44200 48.77700 28.94600
O  22.46900 48.27100 29.27400
C  20.42100 49.43600 29.98700
C  19.97800 48.38500 30.97200
O  19.14800 47.54100 30.68600
O  20.69700 48.43600 32.17600
C  20.07600 47.59400 33.22300
H  14.33100 52.57200 30.09900
H  14.49300 52.46300 23.64000
H  20.22400 49.61900 23.72200
H  18.20500 49.86200 31.85900
H  16.17200 52.10200 31.79600
H  14.54300 49.96900 31.18200
H  15.03700 50.26600 32.84700
H  15.84400 49.05900 31.81800
H  18.35900 52.92500 31.71100
H  19.73800 51.93400 31.41700
H  19.06800 52.89400 33.94300
H  19.89000 51.38200 33.59600
H  11.32500 53.03100 28.40200
H  12.14100 54.55900 28.36600
H  12.42500 53.36100 29.62200
H  10.76300 53.47900 26.21700
H  10.46800 54.41000 24.68800
H  11.57400 55.12300 25.81200
H  16.69600 52.60100 22.31400
H  18.32300 50.16500 21.84200
H  15.67900 49.93000 21.95800
H  16.41900 50.80700 20.62500
H  14.99400 51.56800 21.49000
H  19.91900 52.32500 22.94800
H  18.78500 53.03800 21.79700
H  19.69200 51.76400 20.05000
H  20.50000 50.60300 21.17200
H  21.12600 52.25900 20.98500
H  22.88200 48.39400 26.21400
H  22.20500 48.65400 24.59500
H  21.83900 47.17800 25.36600
H  21.06500 50.21600 30.39300
H  19.02100 47.34000 33.12200
H  20.27500 47.90000 34.25000
H  20.45800 46.61100 32.94500
Mg -11.76200 17.12100 41.50500
C  -8.72300 15.43600 40.83000
C  -10.38200 19.95300 39.99600
C  -14.82300 18.39100 41.26900
C  -13.08900 13.97700 42.50300
N  -9.86600 17.55100 40.40600
C  -8.76200 16.71900 40.25400
C  -7.58200 17.38600 39.60600
C  -8.10500 18.82100 39.47700
C  -9.54000 18.81100 39.98600
C  -7.26000 19.93200 40.17200
C  -7.20200 16.71000 38.28500
C  -5.79300 16.09500 38.14400
H  -4.98700 16.42300 36.85500
N  -12.49200 18.99200 40.86700
C  -11.75300 20.01800 40.32900
C  -12.61300 21.07500 40.02400
C  -13.93900 20.71100 40.43000
C  -13.79800 19.30100 40.89500
C  -12.21600 22.40900 39.50500
C  -15.17800 21.64600 40.52700
O  -15.12400 22.86000 40.36100
C  -16.50600 21.07600 40.95400
N  -13.70600 16.33300 41.91000
C  -14.83800 17.07200 41.70400
C  -16.10500 16.24200 41.88700
C  -15.57100 14.93800 42.61800
C  -14.02800 15.00900 42.25000
C  -17.33800 16.84400 42.57700
C  -16.31800 13.69500 42.13500
C  -16.37800 12.56400 43.17800
N  -11.12900 15.11700 41.71000
C  -11.72000 13.98700 42.20200
C  -10.73100 12.98300 42.45900
C  -9.55400 13.47500 41.86600
C  -9.84900 14.79400 41.40000
C  -11.08800 11.57500 42.98500
C  -8.16500 13.06500 41.59600
O  -7.50500 12.06500 41.83100
C  -7.52900 14.42100 41.04200
C  -6.32700 14.83700 41.87500
O  -6.35000 15.43000 42.92100
O  -5.17800 14.48600 41.19700
C  -4.00600 14.69300 42.02800
H  -9.93600 20.86500 39.59200
H  -15.85600 18.67600 41.06300
H  -13.41100 13.01000 42.89500
H  -6.70600 17.31300 40.25100
H  -8.08200 19.05300 38.41200
H  -7.04600 20.75000 39.48400
H  -6.37100 19.49700 40.63000
H  -7.88300 20.33800 40.96900
H  -7.25800 17.37800 37.42500
H  -8.00400 16.00100 38.08000
H  -5.80800 15.00500 38.15300
H  -5.26500 16.50900 39.00300
H  -11.14100 22.57300 39.58100
H  -12.43100 23.18900 40.23500
H  -12.67100 22.78400 38.58800
H  -17.16600 21.92800 41.11600
H  -16.38100 20.50700 41.87500
H  -17.03700 20.41900 40.26500
H  -16.46400 15.93700 40.90400
H  -15.55400 15.05700 43.70200
H  -18.20400 17.00800 41.93500
H  -17.07100 17.82000 42.98000
H  -17.66700 16.22700 43.41300
H  -15.81400 13.45200 41.19900
H  -17.35200 13.88400 41.84800
H  -17.44200 12.40800 43.35300
H  -15.87100 12.77100 44.12000
H  -15.99000 11.68100 42.67100
H  -11.66500 10.90600 42.34700
H  -11.65600 11.72800 43.90300
H  -10.21800 10.92300 43.06700
H  -7.19000 14.13700 40.04500
H  -3.11100 14.19200 41.66200
H  -4.09300 14.50600 43.09800
H  -3.81800 15.76000 41.90500

