158

Mg 2.12300 -0.88300 44.21400
C  5.58400 -0.35000 43.65000
C  1.51400 1.93600 42.26400
C  -1.11900 -1.82900 43.97900
C  2.93900 -4.16000 45.37700
N  3.47200 0.58100 42.98900
C  4.81800 0.58600 43.00400
C  5.34000 1.74500 42.18800
C  4.01700 2.54100 41.87700
C  2.92700 1.70900 42.44600
C  3.91700 3.97400 42.40800
C  6.03000 1.23300 40.90500
C  7.19100 2.08100 40.37300
H  6.73900 2.93600 39.23900
N  0.45000 0.00200 43.35800
C  0.40900 1.14600 42.66100
C  -0.99100 1.51200 42.48800
C  -1.82700 0.46100 42.92100
C  -0.85100 -0.53600 43.45000
C  -1.31400 2.96500 42.00200
C  -3.39800 0.51400 43.08500
O  -3.98200 1.52700 42.80400
C  -4.16800 -0.58500 43.66100
N  1.07900 -2.66200 44.75900
C  -0.28500 -2.75700 44.66600
C  -0.82300 -4.14500 45.13500
C  0.47600 -4.82100 45.57800
C  1.56400 -3.85200 45.18200
C  -1.88500 -4.04200 46.29500
C  0.65600 -6.22000 44.89000
C  1.28300 -7.32200 45.81600
N  3.92900 -1.96500 44.54700
C  4.05500 -3.24400 45.04000
C  5.49500 -3.50600 45.25100
C  6.14200 -2.34900 44.73800
C  5.10700 -1.48200 44.32800
C  5.95300 -4.73000 46.01200
C  7.42000 -1.72600 44.51400
O  8.51900 -2.18700 44.79200
C  7.10200 -0.33500 43.83500
C  7.73400 0.79100 44.67400
O  7.22500 1.20800 45.70300
O  8.80100 1.31500 44.03600
C  9.48700 2.41300 44.70300
H  1.37700 2.85600 41.69100
H  -2.13300 -2.23400 43.95500
H  3.00000 -5.21000 45.67300
H  5.92700 2.46800 42.75400
H  3.85600 2.69400 40.81000
H  3.86100 3.78200 43.47900
H  3.06500 4.54200 42.03200
H  4.80600 4.50900 42.07400
H  5.31800 1.08300 40.09300
H  6.48100 0.28800 41.20900
H  7.95200 1.37500 40.03900
H  7.54700 2.76400 41.14400
H  -2.35500 3.07200 41.69600
H  -0.71700 3.16300 41.11200
H  -1.07600 3.62800 42.83400
H  -5.16300 -0.27700 43.98100
H  -3.71800 -0.83800 44.62100
H  -4.16000 -1.40100 42.93800
H  -1.41200 -4.64600 44.36700
H  0.51900 -4.89100 46.66500
H  -1.74600 -4.82800 47.03700
H  -2.84000 -4.31900 45.84800
H  -2.04900 -3.04000 46.69300
H  1.31000 -6.01500 44.04300
H  -0.32400 -6.57000 44.56600
H  1.61900 -6.88500 46.75600
H  2.19500 -7.73700 45.38800
H  0.42100 -7.97600 45.95500
H  5.27300 -5.06100 46.79600
H  7.00800 -4.60500 46.25500
H  5.93300 -5.62600 45.39100
H  7.60900 -0.26100 42.87300
H  10.37600 2.63900 44.11500
H  9.73300 2.11800 45.72300
H  8.86900 3.30100 44.83100
Mg 25.81100 0.23800 29.19200
C  27.59700 0.12300 32.24200
C  22.81900 0.24700 30.85900
C  24.22800 0.37500 26.23500
C  28.81500 -0.61800 27.58900
N  25.29700 0.20500 31.33700
C  26.22500 0.34700 32.39900
C  25.42900 0.51200 33.74800
C  23.97700 0.53500 33.22100
C  24.00500 0.33600 31.62100
C  23.02200 -0.51200 33.93100
C  25.92800 1.83100 34.46400
C  26.70200 1.68400 35.77900
H  26.12500 2.72300 36.74300
N  23.79000 0.20200 28.65300
C  22.68400 0.10700 29.46800
C  21.48600 0.19600 28.72400
C  21.87100 0.42100 27.34900
C  23.37000 0.29700 27.38000
C  20.05600 0.07700 29.34200
C  20.99400 0.73800 26.10100
O  21.50100 0.94400 24.99900
C  19.52500 0.76400 26.22500
N  26.46400 -0.10900 27.14800
C  25.65700 0.15500 26.14700
C  26.43700 0.24700 24.77600
C  27.87300 -0.01800 25.24600
C  27.74200 -0.27600 26.74800
C  25.93200 -0.74400 23.66800
C  28.94100 1.08300 24.90400
C  29.97200 0.58900 23.85600
N  27.75300 -0.19100 29.74800
C  28.86100 -0.55100 29.00800
C  30.08800 -0.74800 29.87700
C  29.62300 -0.46300 31.18300
C  28.23500 -0.15700 31.01300
C  31.32500 -1.31700 29.37900
C  30.03700 -0.34800 32.57500
O  31.11400 -0.46900 33.12900
C  28.69400 0.17400 33.34600
C  28.50900 -0.88500 34.38900
O  27.93900 -1.96500 34.21300
O  28.97600 -0.45600 35.59500
C  28.51700 -1.14500 36.82500
H  21.90400 0.43800 31.42300
H  23.73300 0.48900 25.26800
H  29.77200 -0.83100 27.10800
H  25.48000 -0.35600 34.40600
H  23.43000 1.47700 33.24700
H  22.73000 -1.32700 33.27000
H  22.12900 -0.04900 34.35100
H  23.28100 -1.07200 34.82900
H  24.99000 2.36400 34.61600
H  26.59800 2.29300 33.73900
H  27.70500 2.03400 35.53900
H  26.60300 0.64100 36.08000
H  20.04100 -0.01100 30.42800
H  19.37700 -0.58600 28.80300
H  19.52300 0.99500 29.09400
H  19.18800 0.65500 25.19500
H  19.23700 1.72400 26.65500
H  19.00400 -0.03700 26.75000
H  26.25000 1.22000 24.32200
H  28.29500 -0.95600 24.88400
H  25.25900 -1.35800 24.26500
H  26.71000 -1.37200 23.23400
H  25.40600 -0.17800 22.90000
H  29.55400 1.38700 25.75200
H  28.35700 1.90100 24.48300
H  29.81000 1.30400 23.05000
H  29.76200 -0.37000 23.38100
H  31.01500 0.60100 24.17200
H  31.69900 -0.66700 28.58800
H  31.09500 -2.32400 29.03200
H  32.04100 -1.28800 30.19900
H  28.87300 1.15200 33.79400
H  28.14300 -0.42200 37.54900
H  29.31300 -1.53600 37.45900
H  27.79700 -1.95700 36.72000

