158

Mg 24.54300 -6.53600 46.49500
C  26.75400 -4.23100 44.96500
C  22.32100 -5.78800 43.95000
C  22.86100 -9.32000 47.17500
C  27.28000 -7.72400 48.41100
N  24.55600 -5.05200 44.74300
C  25.51500 -4.27100 44.27000
C  25.21400 -3.59300 42.92300
C  23.76100 -4.14000 42.69000
C  23.48500 -5.04500 43.83000
C  22.80100 -2.91700 42.64600
C  26.18200 -3.88800 41.71200
C  26.55000 -2.70100 40.86500
H  25.91600 -2.58300 39.52400
N  22.68500 -7.31100 45.93200
C  21.95300 -6.88100 44.80500
C  20.73400 -7.63400 44.70200
C  20.83700 -8.62900 45.59600
C  22.18700 -8.46500 46.25100
C  19.60600 -7.28600 43.73100
C  19.73500 -9.70500 45.97800
O  18.69900 -9.64100 45.35000
C  19.95700 -10.84200 46.99300
N  25.03200 -8.23600 47.67800
C  24.13000 -9.16000 47.88100
C  24.71500 -10.31800 48.80500
C  26.04600 -9.69600 49.33300
C  26.14600 -8.54300 48.42200
C  23.77800 -10.84100 49.90900
C  27.21900 -10.71900 49.42700
C  28.05600 -10.96100 48.14500
N  26.56500 -6.03700 46.71800
C  27.48800 -6.57600 47.58100
C  28.77200 -5.83700 47.46600
C  28.49900 -4.97600 46.44900
C  27.15100 -5.10600 46.03900
C  30.08900 -5.95200 48.26300
C  29.08500 -3.87700 45.67300
O  30.17400 -3.30800 45.76700
C  27.96300 -3.44700 44.61400
C  27.80900 -1.98000 44.69700
O  28.05600 -1.22600 43.72500
O  27.29700 -1.61300 45.92400
C  27.06400 -0.19800 46.15300
H  21.69000 -5.55000 43.09200
H  22.40100 -10.26500 47.47100
H  28.13000 -8.00400 49.03700
H  25.21300 -2.53500 43.18300
H  23.54300 -4.58100 41.71700
H  22.80600 -2.42900 41.67200
H  23.03300 -2.24400 43.47200
H  21.73400 -3.11400 42.75700
H  25.65300 -4.56300 41.04000
H  27.07100 -4.42000 42.05200
H  27.63800 -2.64800 40.88300
H  26.22800 -1.85100 41.46800
H  19.88800 -6.82100 42.78700
H  18.92600 -6.60200 44.23900
H  18.96700 -8.15800 43.58800
H  19.94400 -10.34000 47.96000
H  20.82100 -11.37400 46.59500
H  19.26500 -11.68200 46.93200
H  24.98800 -11.03300 48.02900
H  25.90800 -9.27600 50.33000
H  23.97700 -11.91200 49.86600
H  22.72100 -10.62600 49.75600
H  24.09800 -10.55200 50.91100
H  26.84000 -11.73000 49.57200
H  27.85700 -10.50200 50.28500
H  27.53800 -10.56600 47.27100
H  28.22300 -12.02100 47.95400
H  29.05500 -10.53600 48.24100
H  30.90800 -6.33700 47.65600
H  30.08500 -6.59300 49.14400
H  30.27300 -4.93500 48.61100
H  28.41800 -3.71400 43.66000
H  26.15600 0.24000 45.73800
H  27.86800 0.44400 45.79200
H  26.99700 -0.04800 47.23000
Mg 46.59900 44.35700 42.60000
C  43.26400 43.43400 42.93400
C  47.25300 40.96300 42.39000
C  49.84100 45.06600 41.88900
C  45.70100 47.70200 42.24700
N  45.37000 42.42400 42.80900
C  44.01000 42.31700 42.81500
C  43.54800 40.86800 42.79200
C  44.94900 40.13300 43.05800
C  45.90800 41.26400 42.64400
C  45.23400 39.65800 44.46600
C  42.84700 40.46700 41.52800
C  43.27100 40.99500 40.13800
H  43.98300 40.16200 39.04700
N  48.30600 43.13100 42.22100
C  48.38300 41.75400 42.23600
C  49.73300 41.29400 41.96200
C  50.47300 42.48600 41.70700
C  49.56000 43.65200 41.95800
C  50.15100 39.83800 42.07600
C  51.94100 42.46800 41.43400
O  52.54300 41.43800 41.29900
C  52.67200 43.84500 41.35600
N  47.55500 46.12000 42.05900
C  48.91600 46.16700 41.95400
C  49.46700 47.60600 41.97700
C  48.18800 48.45500 42.29400
C  47.05200 47.40400 42.12100
C  50.62300 47.98300 42.87100
C  48.06000 49.78300 41.46800
C  47.86300 51.13800 42.26800
N  44.82500 45.45900 42.58100
C  44.61600 46.82500 42.54300
C  43.25200 47.04800 42.80500
C  42.64600 45.75800 42.96700
C  43.64900 44.76900 42.75800
C  42.57800 48.42800 42.75800
C  41.46600 45.04200 43.25000
O  40.31200 45.40800 43.45600
C  41.84300 43.53100 43.30700
C  41.67700 43.03900 44.74800
O  42.29500 43.41600 45.72900
O  40.65000 42.09800 44.87600
C  40.55500 41.36000 46.12300
H  47.40200 39.88200 42.34200
H  50.89200 45.36100 41.93200
H  45.44500 48.76100 42.32800
H  42.88600 40.70000 43.64100
H  45.11900 39.35600 42.31300
H  45.76600 40.46800 44.96500
H  45.99600 38.87900 44.48900
H  44.29800 39.46100 44.98800
H  41.79500 40.64900 41.74900
H  42.96000 39.39600 41.36500
H  43.78500 41.95500 40.18800
H  42.31100 41.20600 39.66700
H  50.39700 39.29300 41.16500
H  49.45100 39.17500 42.58400
H  51.04900 39.85600 42.69300
H  52.23300 44.47700 40.58400
H  53.73300 43.65000 41.20100
H  52.56300 44.16700 42.39100
H  49.81700 47.76600 40.95700
H  48.35400 48.70100 43.34400
H  50.68600 48.99000 43.28400
H  51.54600 47.79600 42.32200
H  50.70200 47.32300 43.73400
H  47.32500 49.72500 40.66500
H  49.06200 49.91800 41.05900
H  47.01400 51.68900 41.86300
H  48.73000 51.79900 42.24500
H  47.71100 50.91600 43.32400
H  41.56900 48.20700 43.10600
H  42.46500 48.87700 41.77100
H  42.93200 49.12900 43.51400
H  41.11500 42.95200 42.74000
H  41.37200 41.60400 46.80200
H  40.62600 40.30400 45.85900
H  39.68100 41.65400 46.70500

