158

Mg 1.74400 -0.93600 44.07400
C  5.21100 -0.19400 43.38000
C  1.00600 1.74100 42.06300
C  -1.41100 -1.91800 44.30300
C  2.85000 -3.91200 45.63500
N  3.01200 0.51100 42.70100
C  4.32700 0.69700 42.73900
C  4.74900 1.94800 41.85900
C  3.38300 2.63600 41.66000
C  2.40800 1.59400 42.24000
C  3.14500 4.03500 42.38500
C  5.57200 1.72500 40.51000
C  6.47800 2.90500 40.06900
H  6.31100 3.57500 38.70100
N  0.00000 -0.15000 43.31900
C  -0.11200 0.91400 42.52300
C  -1.57900 1.20900 42.35700
C  -2.32400 0.14100 42.98400
C  -1.22800 -0.66300 43.60300
C  -2.11100 2.41800 41.63600
C  -3.76200 0.02100 42.99300
O  -4.46200 0.78600 42.27900
C  -4.53200 -0.97800 43.86500
N  0.85300 -2.69600 44.84200
C  -0.52400 -2.85400 44.88000
C  -0.97400 -4.07900 45.62500
C  0.40000 -4.68900 46.07300
C  1.47100 -3.75300 45.52700
C  -1.94100 -3.91100 46.81000
C  0.63200 -6.21000 45.71900
C  0.72100 -7.06100 47.07000
N  3.63700 -2.00100 44.37800
C  3.93700 -3.19100 45.04700
C  5.35200 -3.39000 45.20200
C  5.90000 -2.17800 44.58900
C  4.77400 -1.34000 44.15600
C  6.04200 -4.51000 45.84100
C  7.13300 -1.48700 44.35900
O  8.32300 -1.74400 44.70500
C  6.72500 -0.23100 43.48200
C  7.19800 0.97000 44.17900
O  6.82500 1.33400 45.29900
O  8.14200 1.64300 43.56700
C  8.72600 2.82500 44.15000
H  0.73700 2.62800 41.48500
H  -2.48500 -2.00900 44.48000
H  3.15500 -4.80500 46.18500
H  5.35600 2.54400 42.54100
H  3.32000 2.82200 40.58700
H  4.05900 4.31700 42.90800
H  2.29700 4.05300 43.06900
H  2.95000 4.80900 41.64200
H  4.88500 1.55500 39.68100
H  6.24400 0.86800 40.56200
H  7.49600 2.51600 40.08400
H  6.29900 3.69000 40.80300
H  -2.66100 2.20200 40.72000
H  -1.44300 3.26500 41.48000
H  -2.84800 2.85800 42.30800
H  -5.60600 -0.79600 43.89100
H  -4.19300 -0.79400 44.88500
H  -4.33200 -1.95800 43.43400
H  -1.36000 -4.75800 44.86500
H  0.59200 -4.49300 47.12800
H  -2.31300 -2.89800 46.66100
H  -1.44500 -4.19600 47.73800
H  -2.86300 -4.45800 46.61100
H  1.54500 -6.30900 45.13200
H  -0.03000 -6.52800 44.91300
H  1.59700 -7.69200 47.22000
H  -0.18400 -7.66800 47.04600
H  0.55900 -6.43700 47.94900
H  6.55000 -4.99900 45.01000
H  5.42500 -5.24400 46.35800
H  6.76900 -4.04200 46.50600
H  7.31800 -0.21600 42.56700
H  9.76200 2.53600 44.32500
H  8.18400 3.21600 45.01000
H  8.60700 3.67400 43.47700
Mg 35.63800 48.42800 26.38400
C  35.74300 46.63300 29.45400
C  34.49100 51.12500 28.22700
C  35.46400 50.23000 23.53900
C  36.39800 45.56100 24.64200
N  35.08100 48.80000 28.63400
C  35.33200 47.97000 29.70300
C  35.12300 48.72700 31.04400
C  34.57100 50.09300 30.56700
C  34.70000 50.00400 29.08800
C  33.14400 50.40100 31.19900
C  36.40700 48.57000 32.05100
C  36.01900 48.28900 33.54200
H  36.15200 49.41300 34.55100
N  34.88200 50.41700 25.90200
C  34.64400 51.43800 26.87400
C  34.41300 52.65100 26.19600
C  34.82600 52.47900 24.82400
C  35.06900 51.02400 24.67100
C  33.90400 53.92800 26.82400
C  35.06700 53.55200 23.68100
O  35.51100 53.20300 22.60300
C  34.62100 54.99100 23.92600
N  35.66600 47.92100 24.31400
C  35.74400 48.88000 23.38800
C  35.98300 48.18800 22.04500
C  36.44600 46.77300 22.39600
C  36.24000 46.77100 23.92100
C  34.81400 48.33300 21.08300
C  37.95200 46.47700 22.06300
C  38.25900 45.32300 21.14200
N  35.97200 46.42500 26.86600
C  36.25600 45.37000 26.02800
C  36.35600 44.13100 26.82400
C  36.14600 44.61100 28.12000
C  35.92100 45.97900 28.14200
C  36.64600 42.82300 26.27000
C  36.05900 44.16800 29.46600
O  36.22300 43.03700 29.89400
C  35.85700 45.49700 30.34400
C  34.65000 45.29400 31.21700
O  33.50600 45.64500 30.91400
O  35.08800 44.85500 32.45100
C  34.08600 44.42900 33.44700
H  34.15900 51.90600 28.91500
H  35.35000 50.76800 22.59600
H  36.55300 44.68500 24.01000
H  34.27500 48.27200 31.55500
H  35.30600 50.80400 30.94200
H  32.72800 51.24800 30.65200
H  33.04000 50.65200 32.25500
H  32.47900 49.56300 30.99500
H  36.92000 49.53200 32.03500
H  37.07700 47.78600 31.70000
H  36.55800 47.43000 33.94100
H  35.02100 47.86800 33.41500
H  34.69400 54.67900 26.85500
H  33.59900 53.67600 27.83900
H  32.97400 54.28900 26.38500
H  34.54400 55.39400 22.91600
H  35.36900 55.61900 24.41100
H  33.60400 55.10200 24.30200
H  36.84100 48.75300 21.68000
H  35.81000 46.06500 21.86400
H  35.07400 48.97600 20.24300
H  33.96000 48.88400 21.47800
H  34.51100 47.36900 20.67500
H  38.58900 46.45300 22.94700
H  38.37400 47.34600 21.55700
H  37.52000 44.56500 20.88200
H  39.05200 44.80200 21.67700
H  38.72300 45.70600 20.23300
H  35.99000 42.80000 25.40000
H  36.45300 42.01200 26.97300
H  37.68000 42.85500 25.92800
H  36.82500 45.57800 30.83800
H  34.32400 43.45900 33.88200
H  33.14900 44.23900 32.92300
H  34.03100 45.03700 34.35000

