158

Mg 17.37900 -0.58900 26.64200
C  16.09100 1.16800 29.37100
C  19.14500 -2.53600 28.85000
C  18.57600 -2.44300 24.04300
C  15.64900 1.40100 24.49800
N  17.71700 -0.52400 28.91400
C  17.03600 0.19200 29.81600
C  17.39100 -0.23000 31.23400
C  18.49400 -1.33200 31.09100
C  18.40300 -1.51600 29.55300
C  20.02000 -0.97500 31.44700
C  16.23600 -0.60100 32.13000
C  16.59500 -0.95600 33.58600
H  17.86900 -0.29700 34.20000
N  18.72900 -2.27500 26.44400
C  19.36800 -2.87900 27.51400
C  20.07400 -3.95800 27.01700
C  19.90800 -3.97800 25.54100
C  19.04600 -2.91400 25.29300
C  20.72200 -5.01100 27.80500
C  20.53000 -4.98100 24.49100
O  20.21800 -5.00200 23.33500
C  21.45600 -5.97200 25.05200
N  17.33900 -0.39600 24.55500
C  17.86700 -1.29800 23.72200
C  17.48700 -0.97600 22.23200
C  16.38100 0.20900 22.40100
C  16.50400 0.42800 23.87700
C  18.68900 -0.46800 21.37700
C  14.92500 -0.06200 22.06700
C  14.46700 -1.48900 22.35100
N  16.26500 0.97000 26.82300
C  15.51000 1.64600 25.84900
C  14.52800 2.50500 26.48000
C  14.80300 2.36700 27.90200
C  15.80200 1.41000 27.99700
C  13.49400 3.31400 25.78200
C  14.42700 2.94100 29.18900
O  13.64100 3.85400 29.43100
C  15.27300 2.10600 30.24200
C  16.15700 3.03300 31.01700
O  16.81600 3.95400 30.53300
O  15.82200 2.93700 32.32600
C  16.42200 4.04100 33.15100
H  19.81500 -3.08800 29.51200
H  18.86000 -2.96000 23.12400
H  15.12700 1.91600 23.68900
H  17.76700 0.69300 31.67500
H  18.16700 -2.27700 31.52300
H  20.18100 0.04600 31.79200
H  20.57900 -1.08100 30.51700
H  20.42500 -1.56500 32.27000
H  15.87200 -1.58600 31.83700
H  15.43600 0.13800 32.09900
H  16.66200 -2.03000 33.76000
H  15.73300 -0.59600 34.14700
H  20.29500 -5.97400 27.52700
H  20.60000 -4.92000 28.88400
H  21.80700 -5.04400 27.70200
H  21.81600 -6.66400 24.29000
H  20.92100 -6.65300 25.71500
H  22.37800 -5.51600 25.41200
H  17.04400 -1.86200 21.77800
H  16.70300 1.02100 21.75000
H  18.80700 0.60300 21.21400
H  18.70600 -1.06300 20.46400
H  19.59800 -0.66900 21.94400
H  14.84700 0.02000 20.98300
H  14.22400 0.63600 22.52400
H  13.73000 -1.30400 23.13200
H  15.21700 -2.14300 22.79600
H  13.91800 -1.77400 21.45400
H  13.22000 2.70100 24.92200
H  13.99900 4.21800 25.44200
H  12.55400 3.63600 26.22800
H  14.48300 1.66800 30.85100
H  16.24400 3.88200 34.21500
H  15.96600 5.02100 33.01200
H  17.51100 4.07500 33.10600
Mg 16.77400 50.84800 27.17000
C  18.61600 49.66400 29.80400
C  14.32300 52.08400 29.31000
C  14.80700 51.78800 24.54000
C  18.90000 49.13900 24.91700
N  16.47200 50.75400 29.30700
C  17.40200 50.34100 30.18600
C  16.93600 50.74700 31.62100
C  15.43400 51.21100 31.48800
C  15.32600 51.26400 29.92700
C  14.42500 50.14200 32.02300
C  17.87000 51.81600 32.24100
C  17.96300 51.93500 33.78400
H  17.20200 50.96300 34.70300
N  14.93300 51.94000 26.96700
C  14.09500 52.39900 27.96200
C  13.02400 53.21000 27.37800
C  13.13100 53.11700 25.98800
C  14.28700 52.24800 25.75500
C  12.02300 53.91100 28.31400
C  12.35800 53.92500 24.96600
O  12.60900 53.84100 23.77400
C  11.17400 54.79000 25.34500
N  16.76600 50.48500 25.00500
C  15.86100 50.94800 24.15700
C  16.14800 50.58000 22.65800
C  17.58500 50.00800 22.76300
C  17.79400 49.84100 24.31600
C  15.04600 49.67600 21.93100
C  18.64100 50.92900 22.07500
C  19.79100 50.22500 21.32400
N  18.41500 49.59500 27.30100
C  19.25200 49.05100 26.30700
C  20.31600 48.42300 27.01100
C  20.10900 48.54300 28.36900
C  18.90700 49.36900 28.48600
C  21.36500 47.61900 26.32800
C  20.56900 48.30200 29.62200
O  21.62700 47.74000 29.91400
C  19.58800 48.96200 30.67500
C  18.93300 47.86200 31.43700
O  18.04000 47.16600 30.99600
O  19.51400 47.59800 32.61800
C  19.00700 46.38700 33.28500
H  13.53300 52.52700 29.92100
H  14.20300 52.19500 23.72600
H  19.52500 48.63000 24.18000
H  17.06800 49.88700 32.27800
H  15.24400 52.11100 32.07200
H  14.94300 49.23300 32.32800
H  13.70700 50.04700 31.20900
H  13.86600 50.44100 32.90900
H  17.55200 52.83200 32.00900
H  18.86500 51.83000 31.79700
H  17.75700 52.97300 34.04300
H  19.00300 51.70000 34.00700
H  11.73100 54.91900 28.01900
H  12.38200 54.12300 29.32100
H  11.10900 53.33300 28.45000
H  10.50200 54.04300 25.76700
H  10.81200 54.99900 24.33800
H  11.53000 55.65300 25.90800
H  16.11000 51.55300 22.16700
H  17.56900 49.09000 22.17500
H  14.40500 50.30900 21.31700
H  14.49500 49.11900 22.68900
H  15.46900 49.01500 21.17500
H  19.19800 51.59400 22.73500
H  18.10600 51.54800 21.35400
H  20.73900 50.50600 21.78300
H  19.97300 50.51100 20.28800
H  19.67300 49.14300 21.39200
H  21.12300 47.44800 25.27900
H  21.56900 46.67400 26.83100
H  22.25700 48.24100 26.40300
H  20.07200 49.68000 31.33700
H  17.98300 46.47300 33.64800
H  19.61700 46.16400 34.16100
H  19.22500 45.45800 32.75800

