158

Mg 16.75400 -3.27900 28.47800
C  15.42100 -1.26500 31.06000
C  18.73100 -4.74900 30.76900
C  18.41200 -4.79700 25.99100
C  15.04600 -1.27400 26.13100
N  17.08800 -2.89200 30.72500
C  16.34400 -2.19800 31.58000
C  16.75000 -2.51200 33.00000
C  17.95200 -3.44700 32.80700
C  17.92600 -3.73900 31.28600
C  19.35500 -2.97300 33.32200
C  15.55700 -3.07200 33.71700
C  15.15100 -2.44300 35.09200
H  16.13100 -1.39100 35.57100
N  18.22900 -4.66900 28.39100
C  18.96100 -5.11700 29.44700
C  19.83500 -6.19100 29.00300
C  19.67700 -6.30000 27.62300
C  18.70800 -5.22000 27.26100
C  20.77100 -6.94000 29.98500
C  20.38900 -7.21000 26.70000
O  20.30900 -7.07200 25.47400
C  21.15900 -8.31100 27.20100
N  16.86100 -2.89000 26.34700
C  17.64100 -3.68800 25.58500
C  17.56200 -3.22900 24.09700
C  16.37500 -2.26300 24.11700
C  16.04800 -2.15500 25.60000
C  18.83500 -2.69800 23.38000
C  15.10100 -2.58700 23.28200
C  14.72700 -1.73100 22.05500
N  15.48200 -1.68400 28.58100
C  14.80400 -1.02600 27.51600
C  13.89500 -0.05500 28.06700
C  14.13800 -0.06700 29.44900
C  15.06100 -1.11600 29.73500
C  12.96000 0.88200 27.30600
C  13.74200 0.49300 30.69900
O  12.95700 1.39000 30.93900
C  14.60700 -0.17800 31.78700
C  15.39200 0.85200 32.54400
O  16.59200 1.02900 32.54200
O  14.55700 1.48400 33.34100
C  15.13100 2.52100 34.18400
H  19.33600 -5.32000 31.47600
H  18.91600 -5.32700 25.18000
H  14.26000 -0.79100 25.54700
H  17.20700 -1.63400 33.45700
H  17.73700 -4.45900 33.15100
H  20.07000 -3.03700 32.50200
H  19.74000 -3.61200 34.11700
H  19.39600 -1.99200 33.79500
H  15.72400 -4.14400 33.82900
H  14.70300 -2.85500 33.07500
H  15.05500 -3.23200 35.83800
H  14.19300 -1.96200 34.89300
H  20.97400 -7.95400 29.64100
H  20.42400 -7.04300 31.01300
H  21.71900 -6.40100 30.01600
H  20.37200 -8.84100 27.73800
H  21.96500 -7.85100 27.77200
H  21.58900 -8.97900 26.45300
H  17.23500 -4.08100 23.50100
H  16.75700 -1.27700 23.85300
H  19.69600 -2.81200 24.03800
H  18.78400 -1.63000 23.16900
H  19.07600 -3.21900 22.45300
H  14.22300 -2.58500 23.92800
H  15.23100 -3.60200 22.90800
H  13.72600 -1.31100 22.15700
H  14.64300 -2.36900 21.17500
H  15.37000 -0.87400 21.85600
H  12.34300 0.20600 26.71500
H  13.46200 1.47200 26.53900
H  12.35700 1.46100 28.00500
H  13.92800 -0.59800 32.53000
H  15.32100 3.27600 33.42100
H  16.07900 2.28400 34.66600
H  14.43200 2.74800 34.98900
Mg 31.30100 58.75900 40.27700
C  28.79500 56.80500 38.92400
C  33.67500 56.62400 38.86000
C  33.78400 60.99500 41.16700
C  28.93500 61.31000 40.71600
N  31.21100 57.04500 39.04000
C  30.10300 56.42500 38.60400
C  30.36300 55.08600 37.74300
C  31.84600 54.89200 38.19700
C  32.31000 56.26400 38.68200
C  31.93700 53.91500 39.43100
C  30.12900 55.33100 36.19900
C  29.11700 54.39100 35.53400
H  28.06700 55.02200 34.56500
N  33.43500 58.79600 40.09400
C  34.20100 57.74700 39.50800
C  35.60200 58.14100 39.70300
C  35.65300 59.31400 40.45500
C  34.26500 59.75000 40.63900
C  36.76000 57.28600 39.15600
C  36.96100 60.03300 40.89800
O  38.03500 59.50700 40.58900
C  37.02800 61.26200 41.57200
N  31.32900 60.86300 40.86700
C  32.45800 61.52300 41.25600
C  32.18200 62.94900 41.79300
C  30.60500 63.14600 41.52200
C  30.23900 61.71000 40.92100
C  32.64100 63.22200 43.24400
C  30.25800 64.25100 40.48400
C  29.09700 65.21000 40.80600
N  29.21300 59.01000 40.15900
C  28.39500 60.11200 40.32400
C  27.00300 59.78200 40.00300
C  27.12900 58.43000 39.50800
C  28.48300 58.07400 39.53400
C  25.76100 60.70600 40.25100
C  26.34000 57.30600 38.97500
O  25.14900 57.18000 38.71100
C  27.44500 56.22600 38.48500
C  26.99300 54.98400 39.16000
O  27.44000 54.50500 40.15500
O  26.02500 54.38500 38.41000
C  25.40200 53.25600 39.06300
H  34.34500 55.81300 38.56600
H  34.61000 61.64600 41.46200
H  28.20400 62.11200 40.83500
H  29.65900 54.35200 38.13400
H  32.38800 54.43000 37.37200
H  30.96500 53.42800 39.50800
H  32.10200 54.52600 40.31800
H  32.70400 53.15500 39.27800
H  31.07200 55.22000 35.66300
H  29.80900 56.37200 36.15600
H  28.56800 53.84700 36.30200
H  29.65200 53.66700 34.91900
H  37.27600 57.84000 38.37200
H  36.42500 56.34700 38.71600
H  37.45900 57.16500 39.98300
H  38.07900 61.44900 41.79000
H  36.49300 61.33400 42.51900
H  36.65200 62.12000 41.01400
H  32.76500 63.68500 41.24000
H  30.08300 63.36400 42.45400
H  33.43800 63.96500 43.28300
H  33.14000 62.28700 43.50000
H  31.80500 63.51400 43.87900
H  30.07600 63.74300 39.53700
H  31.11500 64.91500 40.37400
H  29.39700 66.24900 40.67200
H  28.69200 65.09300 41.81200
H  28.24700 65.00200 40.15600
H  25.11900 60.33100 41.04900
H  25.12600 60.89700 39.38600
H  26.11500 61.64700 40.67100
H  27.39300 56.10000 37.40400
H  24.62000 53.64700 39.71500
H  26.10300 52.60600 39.58600
H  24.81400 52.62800 38.39400

