158

Mg 6.36900 54.65600 40.65600
C  6.06000 50.95800 40.32200
C  9.61000 54.35400 39.77800
C  6.40300 57.89300 40.50300
C  2.85900 54.57400 41.73900
N  7.51500 52.86600 39.97500
C  7.29900 51.46400 40.02000
C  8.61100 50.70800 39.87200
C  9.65400 51.83700 40.00300
C  8.87900 53.12000 39.89700
C  10.50800 51.71900 41.30400
C  8.80100 49.93200 38.50600
C  8.49000 50.69400 37.27100
H  7.62800 50.08500 36.12700
N  7.71400 55.97900 40.13000
C  9.04900 55.67300 39.77800
C  9.71400 56.84700 39.39800
C  8.75300 57.96400 39.49500
C  7.57500 57.32900 40.07800
C  11.24000 56.98200 38.95500
C  9.02900 59.32800 39.06800
O  10.07300 59.64400 38.55200
C  7.98500 60.32800 39.11400
N  4.74200 56.04300 41.01600
C  5.13300 57.39200 40.95900
C  3.94400 58.35700 41.31300
C  2.90100 57.26000 41.85800
C  3.54600 55.85100 41.53700
C  4.31800 59.42700 42.38900
C  1.49900 57.42300 41.31800
C  0.48100 57.23400 42.41700
N  4.77900 53.14800 40.98900
C  3.45200 53.26600 41.38800
C  2.74800 52.03700 41.37900
C  3.77700 51.12800 41.02800
C  4.95000 51.83500 40.79100
C  1.36900 51.63500 41.71700
C  4.11700 49.74600 40.93500
O  3.35700 48.82400 41.27400
C  5.62800 49.57900 40.47300
C  5.49300 48.81100 39.22600
O  5.19200 49.21700 38.13300
O  5.98700 47.52800 39.40600
C  5.90300 46.63700 38.27100
H  10.68300 54.33200 39.57900
H  6.44200 58.97400 40.64800
H  1.78700 54.59200 41.95000
H  8.76800 49.95600 40.64500
H  10.32800 51.77800 39.14800
H  11.55700 51.91500 41.07900
H  10.50700 50.73300 41.76800
H  10.09300 52.36200 42.08000
H  8.27700 48.97600 38.49600
H  9.84900 49.65700 38.39300
H  9.43600 50.77100 36.73400
H  8.03100 51.66400 37.46000
H  11.72400 56.21200 39.55600
H  11.66200 57.91200 39.33600
H  11.24200 56.84400 37.87400
H  7.01600 60.15500 38.64600
H  8.41400 61.20800 38.63500
H  7.98000 60.64900 40.15600
H  3.60400 58.80000 40.37700
H  2.89200 57.15600 42.94300
H  3.48100 59.43500 43.08700
H  4.47300 60.36700 41.86000
H  5.26500 59.19600 42.87600
H  1.35600 56.61900 40.59600
H  1.25500 58.35600 40.81100
H  -0.22000 56.50300 42.01500
H  -0.10800 58.14900 42.46900
H  0.84200 56.88300 43.38300
H  0.89300 51.26900 40.80700
H  0.87600 52.55100 42.04200
H  1.29400 50.79300 42.40400
H  6.26900 49.14800 41.24200
H  4.86000 46.35400 38.13200
H  6.43300 45.71200 38.49600
H  6.24500 47.08800 37.33900
Mg 16.96300 52.62200 26.84200
C  19.04100 51.17500 29.10600
C  14.62900 53.26900 29.44800
C  14.69300 53.97800 24.57500
C  19.03900 51.73000 24.33900
N  16.82100 52.15000 28.91400
C  17.91500 51.82000 29.65300
C  17.69900 52.10200 31.16300
C  16.18700 52.40200 31.32000
C  15.78400 52.56000 29.78700
C  15.33900 51.32800 32.14900
C  18.60600 53.14500 31.71700
C  18.90400 53.10300 33.21200
H  17.99700 52.39100 34.27500
N  15.02100 53.60200 27.02600
C  14.23300 53.74200 28.14800
C  13.02500 54.47800 27.84100
C  13.16000 54.87900 26.46300
C  14.34200 54.12500 25.98200
C  11.95000 54.82700 28.85400
C  12.32600 55.84700 25.66400
O  12.43600 55.96500 24.47800
C  11.16000 56.45100 26.36800
N  16.80000 52.73500 24.77100
C  15.81700 53.38900 24.03800
C  16.04100 53.16800 22.55400
C  17.55800 52.91200 22.45300
C  17.86900 52.48100 23.95500
C  15.04800 52.09200 22.00200
C  18.43400 54.11100 22.06400
C  18.60200 54.31100 20.59100
N  18.56600 51.52900 26.65400
C  19.37600 51.24300 25.59900
C  20.53900 50.42500 25.98300
C  20.46700 50.41400 27.34400
C  19.25900 51.12300 27.70700
C  21.56200 49.69500 24.99800
C  21.06200 49.94100 28.60900
O  22.06800 49.22900 28.67700
C  20.22900 50.51100 29.88700
C  19.83200 49.52500 30.91000
O  19.10000 48.57700 30.77900
O  20.32900 49.97100 32.15400
C  19.99300 49.04200 33.27200
H  14.12800 53.61100 30.35600
H  14.01400 54.41600 23.84000
H  19.80200 51.60100 23.56800
H  17.93400 51.19000 31.71200
H  16.06400 53.40500 31.73000
H  14.67700 50.85400 31.42400
H  14.71000 51.87700 32.85000
H  15.99500 50.63300 32.67200
H  18.24700 54.13700 31.44400
H  19.62200 53.21800 31.33100
H  18.69500 54.13400 33.49500
H  19.93800 52.77300 33.31600
H  11.88100 54.11900 29.67900
H  10.92400 54.80300 28.48600
H  12.14000 55.81400 29.27700
H  10.74900 57.22300 25.71800
H  11.37600 56.87100 27.35100
H  10.48000 55.61200 26.51300
H  15.79400 54.13300 22.11100
H  17.65500 52.04400 21.80100
H  15.65000 51.31700 21.52700
H  14.47300 52.67500 21.28200
H  14.35700 51.62900 22.70500
H  19.40900 53.98100 22.53500
H  18.02600 55.05800 22.41700
H  18.73300 55.34300 20.26500
H  17.72200 53.78100 20.22800
H  19.50500 53.78400 20.28200
H  21.11100 49.57700 24.01300
H  21.73600 48.72200 25.45700
H  22.52200 50.21200 24.96600
H  20.61800 51.36200 30.44400
H  20.58800 48.13500 33.15600
H  18.93700 48.77600 33.24600
H  20.24300 49.51700 34.22000

