158

Mg 44.76200 3.87400 47.18600
C  42.43200 6.51700 46.70400
C  42.09800 1.71100 46.97600
C  46.85800 1.40900 46.55300
C  47.22000 6.14500 46.97300
N  42.51400 4.12100 46.63700
C  41.85500 5.25900 46.55700
C  40.39300 5.03800 46.37000
C  40.18400 3.61200 46.97700
C  41.68100 3.09300 46.88800
C  39.63800 3.59400 48.48000
C  39.90100 5.22100 44.89100
C  38.69100 6.19700 44.72500
H  38.00000 6.25600 43.35200
N  44.51400 1.78800 46.82200
C  43.34200 1.09700 46.83000
C  43.60200 -0.32300 46.74000
C  44.96000 -0.42700 46.52200
C  45.51100 0.94200 46.67700
C  42.54600 -1.38000 46.89600
C  45.75600 -1.69200 46.22200
O  45.14600 -2.73800 46.35800
C  47.17500 -1.70900 45.89000
N  46.78600 3.76300 46.61300
C  47.49100 2.61500 46.62000
C  48.97000 2.81900 46.76800
C  49.08700 4.41000 47.08600
C  47.56500 4.78800 46.92300
C  49.72800 1.83300 47.70100
C  50.07500 5.10300 46.06500
C  51.10000 6.04300 46.69800
N  44.84300 5.95400 46.95300
C  45.95700 6.71000 46.94400
C  45.58000 8.17600 46.87800
C  44.15600 8.12800 46.87400
C  43.78600 6.77500 46.83200
C  46.40800 9.41900 46.92300
C  42.95100 8.92800 46.87900
O  42.88100 10.17300 47.02700
C  41.81100 7.93700 46.74700
C  40.96100 7.95500 48.00400
O  41.14300 7.30400 48.99900
O  39.91600 8.89300 47.86300
C  38.77000 8.80900 48.86900
H  41.30500 0.98100 47.15500
H  47.62000 0.62800 46.52600
H  47.94300 6.95100 47.11400
H  40.07000 5.80800 47.07100
H  39.61600 2.99100 46.28400
H  38.68400 3.06700 48.47500
H  39.46300 4.59200 48.88400
H  40.36100 3.11400 49.14000
H  39.67300 4.24800 44.45600
H  40.70500 5.75600 44.38500
H  39.06000 7.18200 45.01400
H  37.96700 5.96900 45.50800
H  42.70600 -1.91700 47.83100
H  42.67900 -2.10500 46.09300
H  41.48200 -1.14400 46.86300
H  47.43600 -2.75700 45.74300
H  47.75300 -1.49600 46.79000
H  47.43100 -1.19800 44.96200
H  49.26000 2.65900 45.72900
H  49.47600 4.60200 48.08600
H  50.47800 2.38100 48.27100
H  50.18800 1.09400 47.04500
H  49.04500 1.33700 48.39100
H  49.51300 5.66400 45.31900
H  50.53600 4.33800 45.44100
H  52.07300 5.55400 46.73300
H  50.90500 6.41000 47.70600
H  51.24400 6.94400 46.10200
H  46.44400 9.81400 45.90800
H  47.42200 9.29900 47.30400
H  45.88300 10.14500 47.54400
H  41.24700 8.11600 45.83200
H  37.87800 8.95900 48.26100
H  38.87200 9.59700 49.61500
H  38.78300 7.86900 49.42100
Mg -5.26200 25.92300 26.36800
C  -3.87900 27.45500 29.23700
C  -7.22300 24.02500 28.37100
C  -5.95000 24.00000 23.72500
C  -2.89000 27.64200 24.41200
N  -5.42900 25.65000 28.58700
C  -4.78800 26.43100 29.51700
C  -5.30100 26.04900 30.93600
C  -6.30300 24.89700 30.69200
C  -6.36200 24.83500 29.13600
C  -5.95000 23.53700 31.29500
C  -5.98900 27.29200 31.60500
C  -6.26500 27.31000 33.14500
H  -5.87900 26.04800 33.98700
N  -6.71400 24.56500 25.96900
C  -7.48600 23.90000 26.95700
C  -8.36100 22.96200 26.33900
C  -8.01200 22.91100 24.96000
C  -6.83100 23.82700 24.78100
C  -9.42800 22.10100 27.04400
C  -8.58500 22.04900 23.86000
O  -8.11500 22.01900 22.69600
C  -9.68700 21.09400 24.26800
N  -4.30900 25.67500 24.33200
C  -4.88600 24.83300 23.48400
C  -4.22200 25.03400 22.06100
C  -3.30300 26.27400 22.26100
C  -3.49300 26.57300 23.74800
C  -3.52200 23.78700 21.58200
C  -3.69400 27.49000 21.42500
C  -2.51100 28.22500 20.68100
N  -3.72200 27.30800 26.69300
C  -2.89000 27.89500 25.79200
C  -1.98900 28.78600 26.54900
C  -2.38400 28.64700 27.84600
C  -3.48900 27.81500 27.93100
C  -0.81100 29.52100 26.03200
C  -2.00800 29.11100 29.14500
O  -1.13800 29.89300 29.44300
C  -2.97200 28.33800 30.11800
C  -2.15400 27.53500 31.06900
O  -1.40400 26.64800 30.75700
O  -2.27400 27.98700 32.33300
C  -1.72500 27.21400 33.47300
H  -7.88700 23.38500 28.95600
H  -6.20700 23.36900 22.87100
H  -2.20000 28.34000 23.93300
H  -4.45600 25.75600 31.56000
H  -7.29900 25.04200 31.11000
H  -5.35000 23.72800 32.18600
H  -5.39900 22.97000 30.54500
H  -6.86200 23.03000 31.60800
H  -6.98100 27.41900 31.17200
H  -5.49400 28.25000 31.44100
H  -7.30100 27.53700 33.39700
H  -5.70400 28.17100 33.50900
H  -9.12300 21.05500 27.07500
H  -10.41900 22.32600 26.65000
H  -9.50500 22.29400 28.11500
H  -10.62600 21.58700 24.52100
H  -9.26200 20.38700 24.98000
H  -9.87900 20.46600 23.39800
H  -5.01800 25.23100 21.34300
H  -2.26300 26.04700 22.02300
H  -2.43900 23.78600 21.70400
H  -3.61100 23.65700 20.50400
H  -3.97700 22.92300 22.06800
H  -4.38900 28.23000 21.82100
H  -4.29800 27.04800 20.63300
H  -2.36700 28.06500 19.61200
H  -1.59100 27.88500 21.15800
H  -2.66700 29.27700 20.91900
H  -0.41300 29.15700 25.08400
H  -0.03600 29.57900 26.79600
H  -1.02800 30.55800 25.77600
H  -3.52500 29.03400 30.74900
H  -1.27100 26.24900 33.24700
H  -2.47500 27.14400 34.26100
H  -0.92200 27.84100 33.86000

