158

Mg 47.08200 35.55800 28.45200
C  45.47300 33.70500 30.92400
C  47.30500 38.13100 30.73200
C  48.00600 37.59700 25.99500
C  46.32800 33.02100 26.15400
N  46.55400 35.83800 30.56400
C  45.97100 34.90300 31.41200
C  46.03800 35.42800 32.88500
C  46.12800 36.94800 32.71700
C  46.65000 36.99600 31.25700
C  44.84500 37.76700 33.01600
C  47.32100 34.80400 33.58200
C  46.99700 34.40700 35.03700
H  47.45500 35.47600 36.09300
N  47.80300 37.50800 28.45100
C  47.86800 38.37500 29.49600
C  48.50000 39.59900 28.92900
C  48.74200 39.39600 27.52600
C  48.18900 38.14000 27.27300
C  48.77400 40.73700 29.82100
C  49.45400 40.33300 26.50600
O  49.79600 40.04200 25.35600
C  49.79300 41.68300 26.89600
N  47.20500 35.38700 26.41700
C  47.55700 36.37300 25.57200
C  47.46300 35.82000 24.08600
C  47.00500 34.37800 24.18500
C  46.73800 34.25100 25.71400
C  46.69700 36.79800 23.08100
C  47.97100 33.36000 23.55600
C  47.35900 32.44600 22.54000
N  46.15500 33.68200 28.47200
C  46.01000 32.65800 27.51800
C  45.53000 31.44900 28.08800
C  45.24700 31.83700 29.40300
C  45.66500 33.19100 29.58000
C  45.20600 30.13600 27.42500
C  44.64200 31.37900 30.65600
O  44.16900 30.23900 30.92300
C  44.59700 32.66200 31.56800
C  45.03800 32.29500 32.98700
O  46.17900 31.82800 33.22300
O  43.92700 32.50200 33.81600
C  43.96800 31.90100 35.11800
H  47.39600 38.93500 31.46600
H  48.38100 38.23800 25.19300
H  46.23100 32.17400 25.47200
H  45.10800 35.15800 33.38500
H  46.79100 37.31400 33.50100
H  44.73400 38.51500 32.23100
H  44.97600 38.28100 33.96800
H  43.98300 37.10700 33.11700
H  48.00200 35.65200 33.50600
H  47.78400 33.96700 33.06000
H  47.56000 33.50300 35.26800
H  45.95000 34.14400 35.18900
H  49.86200 40.67900 29.85000
H  48.41500 40.59400 30.84000
H  48.56800 41.70000 29.35400
H  48.91600 42.14000 27.35500
H  50.11400 42.25700 26.02700
H  50.66200 41.73400 27.55100
H  48.47800 35.66200 23.72000
H  46.03700 34.26900 23.69700
H  46.08500 37.57300 23.54200
H  45.97400 36.23100 22.49400
H  47.40300 37.28900 22.41200
H  48.45600 32.75000 24.31800
H  48.75200 33.83500 22.96200
H  48.18000 32.25200 21.85000
H  46.45200 32.80300 22.05100
H  47.01900 31.53400 23.03000
H  44.33100 30.36400 26.81600
H  45.14500 29.35300 28.18000
H  46.04100 29.98600 26.74100
H  43.57200 33.00900 31.70400
H  43.68700 32.66500 35.84400
H  44.94500 31.46300 35.31900
H  43.18700 31.14100 35.10200
Mg 35.42300 49.99400 25.73800
C  35.71500 47.97800 28.50400
C  33.77200 52.38800 27.67000
C  34.97300 51.82400 22.90000
C  36.70100 47.39800 23.80300
N  34.73000 50.08500 27.79500
C  35.06000 49.22500 28.74900
C  34.69900 49.78600 30.14700
C  33.94000 51.09600 29.87000
C  34.11700 51.22900 28.32900
C  32.44200 51.10200 30.28100
C  35.88800 50.02500 31.14000
C  35.51800 49.73300 32.62900
H  34.07400 49.71100 33.06400
N  34.50300 51.91600 25.33600
C  33.90300 52.71800 26.28400
C  33.59900 53.98100 25.60200
C  33.81000 53.79200 24.18400
C  34.44200 52.47800 24.07600
C  33.04900 55.16400 26.38300
C  33.60800 54.76800 23.07900
O  34.00400 54.60300 21.91700
C  32.73400 55.95500 23.25800
N  35.68900 49.59900 23.64600
C  35.51000 50.58700 22.70700
C  36.11900 50.10100 21.40500
C  36.76500 48.76200 21.61100
C  36.34500 48.55900 23.04200
C  35.20600 50.03100 20.14000
C  38.32700 48.77900 21.42600
C  39.12600 49.49900 22.40500
N  35.87400 48.04700 26.00400
C  36.33600 47.06600 25.09000
C  36.51300 45.85800 25.74200
C  36.30200 46.13900 27.11900
C  35.93000 47.48700 27.20800
C  37.22900 44.71600 25.14800
C  36.43600 45.62200 28.45800
O  36.76800 44.52500 28.85900
C  36.05600 46.78000 29.43200
C  34.96800 46.38100 30.26400
O  33.77800 46.54500 30.02600
O  35.47700 45.87900 31.45200
C  34.52900 45.50000 32.48900
H  33.32500 53.19200 28.25700
H  35.05100 52.41600 21.98500
H  37.21100 46.69800 23.13800
H  33.96200 49.05000 30.47000
H  34.44600 51.96900 30.28000
H  31.76600 50.97900 29.43400
H  32.27700 52.11800 30.63900
H  32.24300 50.43100 31.11600
H  36.35300 51.00600 31.04000
H  36.60500 49.32000 30.72000
H  36.07100 50.40800 33.28200
H  35.87400 48.72400 32.83800
H  33.57700 55.19500 27.33600
H  31.96400 55.14000 26.49300
H  33.42400 56.00700 25.80200
H  32.08200 55.86500 24.12600
H  32.04300 56.07200 22.42300
H  33.44000 56.77600 23.38400
H  36.78300 50.95000 21.24400
H  36.43100 47.93200 20.98900
H  34.69200 49.07000 20.11800
H  35.84100 50.11400 19.25700
H  34.47300 50.83700 20.11000
H  38.53600 49.14000 20.41900
H  38.69200 47.75700 21.32500
H  39.35500 48.74900 23.16200
H  38.73400 50.39600 22.88300
H  40.14000 49.66100 22.03800
H  38.06300 45.13200 24.58200
H  36.69500 44.05900 24.46200
H  37.66500 44.09300 25.92900
H  36.85300 46.95100 30.15600
H  34.85700 44.62400 33.04800
H  33.53300 45.23400 32.13600
H  34.46200 46.25400 33.27300

