158

Mg -2.42700 33.81600 27.39400
C  -4.35100 31.87100 29.58200
C  -1.24500 35.60300 30.22400
C  -1.24500 36.15000 25.40600
C  -4.22600 32.47500 24.66400
N  -2.91400 33.84500 29.61600
C  -3.59600 32.85000 30.30500
C  -3.52200 33.02100 31.83700
C  -2.69800 34.34900 31.96100
C  -2.34000 34.69300 30.51200
C  -3.36100 35.64800 32.65600
C  -2.95000 31.84900 32.68500
C  -3.53100 31.64100 34.09500
H  -2.70500 31.40400 35.40000
N  -1.09400 35.42900 27.75100
C  -0.76300 36.00900 28.92500
C  0.25000 37.08000 28.59300
C  0.25400 37.24600 27.18800
C  -0.63600 36.25300 26.65700
C  0.99500 37.84400 29.56700
C  1.21400 38.13900 26.34100
O  1.10600 38.08400 25.09500
C  2.20400 39.14900 26.96200
N  -2.67200 34.21500 25.42100
C  -2.12500 35.30300 24.84400
C  -2.35000 35.37800 23.36200
C  -3.16000 34.09000 23.03800
C  -3.37400 33.54200 24.46400
C  -3.08600 36.67500 23.00800
C  -2.51400 33.06700 22.08500
C  -1.24600 32.26500 22.61000
N  -3.89400 32.42000 27.07500
C  -4.48900 31.89100 25.97300
C  -5.35200 30.77300 26.33500
C  -5.29400 30.72400 27.70100
C  -4.50000 31.81200 28.16600
C  -6.21000 29.98200 25.36900
C  -5.78000 30.03500 28.87700
O  -6.57200 29.09100 29.00900
C  -5.04500 30.72900 30.17600
C  -6.14600 31.19900 31.15200
O  -6.93500 32.04200 30.94200
O  -6.01000 30.49400 32.37200
C  -7.13400 30.70400 33.36500
H  -0.79700 36.12100 31.07500
H  -0.84500 36.95400 24.78400
H  -4.78300 31.98200 23.86400
H  -4.53600 33.25000 32.16600
H  -1.77300 34.22200 32.52300
H  -2.83300 35.90900 33.57300
H  -4.38200 35.42300 32.96300
H  -3.38100 36.50400 31.98200
H  -1.96800 32.14600 33.05500
H  -2.76300 30.94200 32.11000
H  -4.09600 30.71100 34.16100
H  -4.29300 32.40900 34.22800
H  2.05100 37.57200 29.56100
H  0.59900 37.60000 30.55300
H  0.76600 38.89900 29.41500
H  1.74800 39.84600 27.66500
H  2.52900 39.80200 26.15200
H  2.92800 38.51700 27.47400
H  -1.42100 35.30200 22.79700
H  -4.09000 34.43700 22.58700
H  -2.40800 37.43800 22.62500
H  -3.64400 37.04900 23.86500
H  -3.92700 36.56700 22.32300
H  -2.24700 33.53400 21.13700
H  -3.28400 32.35000 21.80200
H  -0.45600 32.29600 21.86000
H  -1.57500 31.23300 22.73600
H  -0.96300 32.50300 23.63500
H  -5.99500 28.91600 25.43100
H  -6.15200 30.33600 24.33900
H  -7.25300 30.10900 25.65800
H  -4.54100 29.92700 30.71500
H  -6.89500 31.58500 33.96100
H  -7.21000 29.78900 33.95300
H  -8.10100 30.87100 32.89100
Mg -12.80600 16.78500 42.64300
C  -9.64400 15.39700 41.76400
C  -11.65600 19.67300 41.07000
C  -15.89900 17.89600 42.56100
C  -13.84300 13.38600 43.12200
N  -10.91400 17.38600 41.40000
C  -9.73800 16.77400 41.50100
C  -8.63200 17.66800 40.90000
C  -9.14600 19.03800 41.05700
C  -10.63700 18.75500 41.24800
C  -8.52000 19.86300 42.23800
C  -8.12900 17.37900 39.49500
C  -6.59100 16.99200 39.29800
H  -6.43000 15.91900 38.24400
N  -13.63600 18.56900 42.08700
C  -13.01300 19.59300 41.38900
C  -13.94700 20.66400 41.15600
C  -15.23600 20.24200 41.64300
C  -14.98600 18.87900 42.15500
C  -13.47100 21.98500 40.67100
C  -16.57500 21.05400 41.49800
O  -16.63300 22.19000 40.99600
C  -17.87400 20.48400 41.85400
N  -14.62000 15.72500 42.64500
C  -15.80200 16.47600 42.72600
C  -17.00400 15.62000 42.95200
C  -16.36400 14.20500 43.18400
C  -14.86400 14.39500 42.96600
C  -17.92700 16.12600 44.12500
C  -16.95100 13.11100 42.22000
C  -16.25800 12.69900 40.86900
N  -11.86800 14.78400 42.80400
C  -12.47400 13.53300 43.03700
C  -11.49100 12.53500 43.00700
C  -10.34400 13.22000 42.57800
C  -10.63600 14.55600 42.33800
C  -11.60700 11.11200 43.29100
C  -8.92000 13.08400 42.23400
O  -8.15600 12.14800 42.32800
C  -8.47200 14.42000 41.56200
C  -7.27300 14.82800 42.25300
O  -7.24100 15.30800 43.39900
O  -6.13100 14.46400 41.61000
C  -4.98600 14.21200 42.51300
H  -11.36100 20.64000 40.65700
H  -16.92700 18.20600 42.76100
H  -14.18600 12.41400 43.48300
H  -7.84700 17.48300 41.63400
H  -9.07700 19.73100 40.21800
H  -8.11500 20.77800 41.80700
H  -7.72400 19.34400 42.77300
H  -9.21700 20.09400 43.04300
H  -8.13800 18.33000 38.96300
H  -8.77500 16.68600 38.95500
H  -6.20000 16.56600 40.22200
H  -6.16000 17.93400 38.95800
H  -13.28700 22.09400 39.60200
H  -12.58800 22.30200 41.22400
H  -14.13600 22.82700 40.86400
H  -18.60500 21.22900 41.54100
H  -18.10400 20.31900 42.90700
H  -18.01600 19.61100 41.21800
H  -17.56300 15.77500 42.02900
H  -16.59000 13.82400 44.18000
H  -18.16800 15.21300 44.67000
H  -18.82600 16.55400 43.68300
H  -17.50200 16.86900 44.80000
H  -18.01700 13.29900 42.09200
H  -16.88400 12.26400 42.90200
H  -15.60200 11.85700 41.09000
H  -15.49400 13.45400 40.68500
H  -16.96000 12.51500 40.05600
H  -11.72100 10.60500 42.33300
H  -12.46500 10.95600 43.94500
H  -10.71700 10.77000 43.81900
H  -8.31700 14.30300 40.49000
H  -5.06300 13.45300 43.29200
H  -4.62800 15.13800 42.96300
H  -4.13200 13.79900 41.97700

