158

Mg 26.32100 1.60800 29.25100
C  28.24400 1.06400 32.19700
C  23.57300 2.13500 31.35500
C  24.37300 1.65600 26.52400
C  29.05000 0.42100 27.44600
N  25.96700 1.54900 31.49500
C  26.92200 1.37800 32.47800
C  26.35500 1.58500 33.92800
C  24.78700 1.72300 33.59500
C  24.74600 1.80800 32.01800
C  23.86900 0.51200 34.14100
C  26.97300 2.82900 34.74600
C  26.38500 3.21200 36.11400
H  27.34900 3.62200 37.20700
N  24.24400 1.97300 28.94300
C  23.31900 2.15200 29.92700
C  22.07800 2.49700 29.25800
C  22.22900 2.17200 27.92200
C  23.67800 1.96200 27.72800
C  20.75900 2.74800 30.00700
C  21.23600 2.07100 26.78800
O  21.56100 1.68900 25.71800
C  19.79400 2.38300 27.05600
N  26.63500 1.14900 27.31200
C  25.72000 1.31800 26.32800
C  26.38800 1.00900 24.95400
C  27.85900 0.82500 25.27800
C  27.83100 0.71100 26.80500
C  25.70100 -0.17400 24.17900
C  28.83500 1.91700 24.75800
C  30.30700 1.57200 24.59300
N  28.24600 0.92800 29.68300
C  29.20900 0.41000 28.84400
C  30.33500 -0.04600 29.57800
C  30.06000 0.21400 30.90600
C  28.76900 0.83700 30.93900
C  31.43600 -0.74600 28.97400
C  30.55700 0.03900 32.24700
O  31.57200 -0.41600 32.62200
C  29.40500 0.63200 33.15000
C  28.97400 -0.49100 34.06700
O  28.29900 -1.47000 33.77800
O  29.53000 -0.25000 35.30100
C  29.30800 -1.27000 36.34900
H  22.61000 2.29200 31.84400
H  23.84000 1.70100 25.57200
H  29.93300 0.08600 26.89700
H  26.65000 0.63700 34.37800
H  24.56500 2.72200 33.97100
H  24.57800 -0.25100 34.46200
H  23.28100 0.20900 33.27500
H  23.15100 0.81500 34.90300
H  26.80800 3.58400 33.97800
H  28.03800 2.68500 34.92900
H  25.90700 2.35600 36.59000
H  25.60800 3.96100 35.96100
H  20.43500 3.72100 29.63700
H  20.88600 2.83000 31.08600
H  19.93300 2.04700 29.89400
H  19.25100 1.62900 27.62500
H  19.30600 2.36500 26.08200
H  19.61500 3.39500 27.41900
H  26.32600 1.93700 24.38700
H  28.18800 -0.09300 24.79000
H  24.82500 -0.61700 24.65200
H  26.47500 -0.91300 23.97400
H  25.23000 0.20300 23.27100
H  28.64200 2.79500 25.37500
H  28.34300 2.19600 23.82700
H  30.64800 1.96900 23.63700
H  30.54900 0.51100 24.64900
H  30.82300 2.04600 25.42800
H  32.14200 0.02900 28.67300
H  31.22100 -1.45700 28.17600
H  31.78500 -1.31500 29.83500
H  29.59200 1.54200 33.72000
H  29.00900 -2.26700 36.02500
H  28.44100 -0.96900 36.93600
H  30.12600 -1.23200 37.06800
Mg 35.96900 2.01900 29.30200
C  33.71300 3.13300 31.82400
C  38.44300 1.92200 31.56600
C  38.04500 1.27900 26.79800
C  33.48200 2.52500 26.99400
N  36.07600 2.62200 31.46000
C  35.03600 2.86600 32.30300
C  35.55000 2.92500 33.68500
C  37.06800 2.59000 33.62300
C  37.19100 2.26900 32.14600
C  38.04100 3.79700 34.01100
C  34.87000 1.75900 34.54100
C  34.71800 1.95600 36.01500
H  35.13400 3.32100 36.61100
N  37.98200 1.56200 29.24600
C  38.81400 1.53300 30.28300
C  40.07600 1.02300 29.77200
C  40.00000 0.84200 28.34100
C  38.64300 1.22000 28.06300
C  41.31200 0.74600 30.66400
C  41.09400 0.43200 27.30000
O  40.78000 0.27000 26.13100
C  42.50000 0.19800 27.71700
N  35.79700 2.17700 27.19100
C  36.83600 1.70500 26.42300
C  36.36300 1.59900 24.97300
C  34.78300 1.53100 25.10000
C  34.67200 2.11400 26.52100
C  36.96400 2.74100 24.10200
C  34.15300 0.07700 25.00900
C  33.43500 -0.25400 23.68300
N  34.01900 2.70700 29.34600
C  33.12000 2.85700 28.32500
C  31.81800 3.32700 28.86600
C  32.04300 3.51600 30.23500
C  33.31600 3.05300 30.49600
C  30.63700 3.70700 28.11700
C  31.42200 3.85700 31.38500
O  30.29900 4.33200 31.50900
C  32.52300 3.70700 32.53500
C  32.81500 5.05300 33.10700
O  33.76800 5.77400 32.80500
O  31.95400 5.30100 34.18100
C  32.14700 6.52600 34.91400
H  39.33900 1.85100 32.18600
H  38.64900 1.11700 25.90200
H  32.66600 2.65700 26.28100
H  35.37100 3.93000 34.06600
H  37.35600 1.74400 34.24600
H  38.23700 4.28100 33.05500
H  38.92600 3.36000 34.47400
H  37.57600 4.59200 34.59400
H  35.37400 0.80400 34.39100
H  33.85400 1.72800 34.14700
H  35.34000 1.14000 36.38400
H  33.70500 1.64800 36.27400
H  42.04900 1.54100 30.55200
H  41.83000 -0.19600 30.48000
H  40.99500 0.67300 31.70500
H  42.78000 0.97900 28.42400
H  43.20200 0.06800 26.89300
H  42.51700 -0.78800 28.18100
H  36.72300 0.69900 24.47400
H  34.38900 2.17500 24.31400
H  37.34700 3.58900 24.66900
H  36.38000 3.04300 23.23200
H  37.86400 2.28400 23.69100
H  33.33800 0.11400 25.73300
H  34.86200 -0.71900 25.23600
H  33.43300 0.65500 23.08000
H  32.43500 -0.68400 23.73500
H  34.08900 -0.95400 23.16400
H  30.99800 4.21500 27.22200
H  30.15800 4.51800 28.66600
H  29.89500 2.92900 27.93900
H  32.16600 2.97800 33.26200
H  33.10200 6.47900 35.43800
H  31.42300 6.63100 35.72200
H  31.98000 7.40700 34.29400

