158

Mg 25.14800 1.44600 30.40800
C  27.27900 1.57500 33.42400
C  22.46800 1.55900 32.50600
C  23.27500 1.53500 27.70400
C  28.07000 1.18300 28.57700
N  24.97900 1.68800 32.73000
C  25.93500 1.75400 33.70100
C  25.27100 1.99900 35.03600
C  23.69100 1.92400 34.75100
C  23.69500 1.73100 33.24600
C  22.81900 1.00500 35.52900
C  25.82500 3.35300 35.72900
C  26.37100 3.12800 37.20000
H  25.90500 4.05900 38.30100
N  23.08900 1.57000 30.07100
C  22.12500 1.55900 31.09600
C  20.86900 1.72100 30.47900
C  21.05200 1.74700 29.06400
C  22.52800 1.65200 28.88100
C  19.54200 1.89500 31.16100
C  20.09000 1.81200 27.87800
O  20.48000 1.83300 26.70000
C  18.61100 1.72700 28.22200
N  25.63200 1.25100 28.48900
C  24.63600 1.49700 27.51700
C  25.25200 1.72100 26.10900
C  26.79400 1.43800 26.34700
C  26.88400 1.28400 27.87600
C  24.51600 0.84200 24.94100
C  27.73500 2.53400 25.71500
C  28.90200 1.95900 24.88700
N  27.29200 1.26900 30.84600
C  28.36700 1.15200 29.97300
C  29.53400 1.13000 30.73200
C  29.14900 1.28600 32.09300
C  27.77600 1.36200 32.09600
C  30.91600 1.08700 30.20200
C  29.72600 1.47800 33.46400
O  30.85700 1.61400 33.84700
C  28.47700 1.65300 34.40400
C  28.43000 0.53200 35.37000
O  27.98400 -0.56600 35.12200
O  28.93900 0.93100 36.54800
C  28.90700 0.17100 37.78700
H  21.66900 1.77500 33.21800
H  22.79400 1.47800 26.72500
H  28.93200 1.15000 27.90700
H  25.50700 1.10400 35.61200
H  23.26900 2.86300 35.10900
H  22.19300 0.35700 34.91600
H  22.14100 1.61400 36.12700
H  23.43700 0.38600 36.18100
H  25.04900 4.11800 35.69700
H  26.70500 3.82900 35.29800
H  27.39600 3.48100 37.08700
H  26.27900 2.05500 37.36800
H  19.04000 2.82900 30.90500
H  19.67100 2.08600 32.22600
H  18.83100 1.07200 31.08200
H  18.45700 0.81700 28.80200
H  17.96000 1.79200 27.35000
H  18.35200 2.58600 28.84000
H  25.09200 2.76300 25.83400
H  27.01500 0.46900 25.89900
H  23.88900 0.06300 25.37600
H  25.28600 0.32200 24.37100
H  23.94400 1.44600 24.23700
H  28.21400 3.15500 26.47200
H  27.11200 3.21500 25.13500
H  28.98500 0.87300 24.90200
H  29.85800 2.38200 25.19600
H  28.79800 2.20100 23.83000
H  31.48800 1.55700 31.00200
H  31.09500 1.59000 29.25100
H  31.13200 0.02200 30.12000
H  28.53800 2.62700 34.88900
H  28.05200 0.47300 38.39100
H  29.78500 0.21400 38.43100
H  28.90000 -0.88200 37.50500
Mg 46.72100 25.25300 28.46900
C  47.75500 27.53500 31.00600
C  45.62500 23.14200 30.84800
C  45.97100 23.21600 25.96000
C  48.30000 27.51200 26.11200
N  46.79500 25.26900 30.71600
C  47.19900 26.32000 31.51600
C  46.96600 25.95600 32.99800
C  46.18800 24.54700 32.90700
C  46.19000 24.26600 31.35100
C  46.67600 23.28800 33.84800
C  46.38400 27.05000 33.93900
C  45.62000 26.63000 35.10200
H  46.37300 26.34700 36.44200
N  45.78800 23.56700 28.39600
C  45.43700 22.77000 29.48600
C  44.79200 21.61400 29.01400
C  44.89300 21.50300 27.59800
C  45.59700 22.81600 27.22400
C  44.24600 20.60200 29.83400
C  44.52100 20.41500 26.61500
O  44.83900 20.42000 25.46300
C  43.76600 19.25000 27.04600
N  46.97800 25.48500 26.38400
C  46.64200 24.40700 25.60800
C  47.03200 24.59800 24.13000
C  47.40000 26.09600 24.13000
C  47.62000 26.39600 25.65000
C  48.20500 23.70800 23.64900
C  46.42400 27.12800 23.48800
C  47.04600 28.35100 22.84400
N  47.84600 27.09200 28.51700
C  48.44100 27.85900 27.48900
C  48.90200 29.17400 27.98900
C  48.66400 29.07500 29.38500
C  47.99400 27.80700 29.63100
C  49.63100 30.14900 27.17500
C  48.82200 29.77100 30.62100
O  49.22300 30.91900 30.84900
C  48.40500 28.75600 31.73800
C  49.65500 28.38200 32.49300
O  50.70500 27.93500 32.05000
O  49.47500 28.56200 33.84000
C  50.45700 28.06800 34.81700
H  45.19200 22.34400 31.45600
H  45.67200 22.56300 25.13800
H  48.69600 28.30400 25.47200
H  48.00500 25.76500 33.26900
H  45.15900 24.69300 33.23500
H  47.30800 23.67500 34.64700
H  47.26500 22.65900 33.18100
H  45.85900 22.74400 34.32100
H  45.81300 27.78500 33.37100
H  47.28300 27.41100 34.43900
H  44.95400 25.80000 34.86600
H  45.04200 27.53500 35.28700
H  44.80500 19.66600 29.82800
H  43.23100 20.31000 29.56200
H  44.19100 20.98500 30.85300
H  42.88600 19.69100 27.51400
H  44.44600 18.59100 27.58600
H  43.38800 18.77800 26.14000
H  46.12700 24.31500 23.59200
H  48.43900 26.32400 23.88900
H  48.62900 23.05500 24.41200
H  48.94100 24.40300 23.24500
H  47.79800 23.16000 22.80000
H  45.65700 27.38500 24.21900
H  45.72900 26.67800 22.77900
H  46.66600 28.50100 21.83300
H  48.11900 28.19000 22.95000
H  46.84200 29.20100 23.49600
H  49.40300 31.15200 27.53400
H  49.32000 30.20700 26.13200
H  50.67900 30.01300 27.44300
H  47.65900 29.28300 32.33400
H  50.67700 28.92600 35.45200
H  51.43100 27.78700 34.41700
H  49.98400 27.23600 35.33800

