158

Mg 24.52100 -5.48900 46.14700
C  26.58000 -2.96000 44.73300
C  22.19300 -4.48100 43.59900
C  23.02000 -8.22000 46.48400
C  27.36400 -6.59300 47.90800
N  24.45000 -3.76300 44.42000
C  25.34300 -2.80300 44.16200
C  24.85400 -1.96100 43.00900
C  23.25800 -2.14700 43.21200
C  23.31800 -3.53900 43.73000
C  22.47200 -1.23500 44.23500
C  25.50900 -2.44200 41.60900
C  26.12900 -1.33100 40.67000
H  25.57200 -1.36600 39.26800
N  22.76700 -6.18400 45.36700
C  21.92100 -5.63800 44.30400
C  20.78300 -6.44200 44.21200
C  20.96800 -7.56000 45.03800
C  22.31100 -7.37900 45.69600
C  19.55200 -6.11800 43.39500
C  19.96400 -8.78000 45.15800
O  18.88700 -8.88300 44.55000
C  20.12700 -9.90200 46.14400
N  25.10100 -7.12200 47.29300
C  24.28000 -8.22200 47.17500
C  25.02800 -9.49000 47.72400
C  26.22200 -8.83700 48.52800
C  26.24500 -7.44400 47.95600
C  24.25200 -10.64800 48.41400
C  27.64600 -9.58000 48.63400
C  28.38800 -9.54200 50.03300
N  26.50900 -4.85700 46.50300
C  27.50200 -5.36000 47.21500
C  28.71200 -4.51700 47.21500
C  28.37600 -3.57200 46.23200
C  27.05600 -3.87100 45.72500
C  29.96000 -4.79000 47.97700
C  28.89000 -2.47700 45.45300
O  29.93400 -1.88800 45.48700
C  27.80800 -2.06000 44.40900
C  27.62600 -0.57400 44.47500
O  27.29900 0.01700 45.47600
O  27.73600 0.01700 43.27100
C  27.67800 1.52000 43.24500
H  21.39800 -4.15500 42.92500
H  22.52300 -9.17800 46.65100
H  28.18700 -7.00000 48.49900
H  25.23700 -0.98300 43.29800
H  22.75000 -2.07200 42.25100
H  23.21200 -0.60300 44.72600
H  22.06800 -1.83300 45.05200
H  21.74700 -0.59000 43.74000
H  24.74000 -2.89600 40.98400
H  26.27200 -3.20400 41.76900
H  27.20600 -1.50200 40.64900
H  25.93200 -0.32500 41.04000
H  18.70900 -6.31700 44.05600
H  19.55400 -6.74400 42.50200
H  19.50500 -5.04400 43.21500
H  19.18200 -10.41500 46.31900
H  20.38700 -9.51300 47.12900
H  20.78500 -10.66900 45.73600
H  25.32800 -9.97600 46.79600
H  25.88900 -8.62400 49.54400
H  24.66200 -11.51100 47.88800
H  23.18800 -10.78200 48.21900
H  24.39700 -10.61800 49.49400
H  28.36700 -9.21100 47.90400
H  27.47600 -10.63800 48.43400
H  29.46400 -9.69600 49.94200
H  28.02500 -10.39600 50.60500
H  28.06100 -8.67300 50.60300
H  30.66100 -4.96100 47.16000
H  29.95100 -5.61700 48.68700
H  30.10300 -3.83100 48.47600
H  28.16400 -2.26300 43.39900
H  26.86400 1.90300 43.85900
H  27.48500 1.85400 42.22600
H  28.62800 1.90900 43.61200
Mg 26.18300 50.22800 26.83300
C  24.40100 51.79300 29.33000
C  28.58400 49.17300 29.08000
C  28.15900 49.03500 24.25800
C  24.03500 51.73300 24.53000
N  26.44000 50.45200 28.91900
C  25.44900 50.99400 29.78700
C  25.67600 50.62200 31.22300
C  27.20800 50.12300 31.14300
C  27.44800 49.86500 29.60600
C  28.26300 51.15300 31.73500
C  24.67000 49.49300 31.67300
C  24.41300 49.37200 33.19400
H  25.19700 50.11500 34.28000
N  28.11300 49.19900 26.66800
C  28.84200 48.80000 27.75400
C  30.09200 48.19100 27.31000
C  30.02200 48.14800 25.89700
C  28.76300 48.80300 25.54700
C  31.07300 47.63200 28.29600
C  30.90300 47.53000 24.86800
O  30.77800 47.66800 23.65500
C  32.16000 46.73300 25.37400
N  26.14100 50.45100 24.77300
C  27.01200 49.78100 23.88400
C  26.57400 50.04700 22.43200
C  25.18100 50.61200 22.57600
C  25.18600 50.99300 24.03700
C  27.62400 50.84100 21.64400
C  24.03600 49.65700 22.17600
C  22.87600 50.27100 21.43700
N  24.59300 51.54300 26.88300
C  23.77900 52.08200 25.87800
C  22.67300 52.88700 26.44900
C  22.84000 52.75600 27.82400
C  24.06500 52.07100 28.02500
C  21.52500 53.53800 25.73300
C  22.29000 53.04300 29.16300
O  21.15500 53.45600 29.51300
C  23.35700 52.50200 30.20000
C  23.68600 53.58400 31.22100
O  24.60700 54.36300 31.05400
O  22.89900 53.48400 32.35700
C  23.26200 54.51700 33.34700
H  29.22100 48.87900 29.91600
H  28.64500 48.51400 23.43100
H  23.30800 52.11500 23.81000
H  25.61000 51.48100 31.89100
H  27.42500 49.15300 31.59000
H  28.62700 50.74200 32.67700
H  27.82800 52.10600 32.03600
H  29.15700 51.32700 31.13600
H  25.17200 48.57800 31.35900
H  23.74800 49.59300 31.10000
H  24.40500 48.31700 33.47000
H  23.38100 49.72000 33.14800
H  30.80100 47.65600 29.35100
H  32.00800 48.17600 28.16300
H  31.36400 46.60100 28.09500
H  31.78200 45.87200 25.92500
H  32.90000 47.32500 25.91300
H  32.66500 46.25200 24.53500
H  26.54400 49.05100 21.98900
H  25.16100 51.53500 21.99700
H  27.72100 50.67200 20.57200
H  28.63500 50.78500 22.04800
H  27.39000 51.89100 21.46900
H  23.71000 49.10400 23.05700
H  24.39300 48.92100 21.45600
H  23.07900 51.32600 21.25500
H  21.93000 50.19100 21.97300
H  22.87000 49.81000 20.45000
H  20.77900 52.75200 25.85000
H  21.50000 53.53400 24.64300
H  21.28100 54.49000 26.20500
H  22.86300 51.70100 30.75000
H  23.46400 55.45900 32.83700
H  24.10200 54.20300 33.96700
H  22.30500 54.63400 33.85500

