158

Mg 41.23700 40.30200 26.89300
C  40.62200 43.14600 29.02300
C  42.02700 38.44800 29.72300
C  42.17500 37.90700 24.83100
C  40.85300 42.52700 24.14600
N  41.40200 40.76100 29.11600
C  41.00400 41.98500 29.78000
C  41.05000 41.74900 31.22200
C  41.51500 40.31100 31.46500
C  41.64900 39.78000 30.01200
C  42.68200 40.02500 32.46300
C  39.84200 42.27500 31.97300
C  39.59400 41.61500 33.36400
H  38.83800 42.51100 34.33500
N  41.84800 38.42700 27.23500
C  42.09200 37.86000 28.46400
C  42.50500 36.50500 28.25400
C  42.49000 36.33500 26.82400
C  42.24800 37.59300 26.20900
C  42.88900 35.55400 29.35600
C  42.87000 34.99200 26.04600
O  42.98400 34.89200 24.81600
C  43.08000 33.73000 26.81700
N  41.27400 40.19700 24.81900
C  41.83000 39.15400 24.19600
C  41.82600 39.35500 22.67600
C  41.08600 40.71500 22.46700
C  41.03100 41.18600 23.92000
C  43.18600 39.24500 22.00000
C  39.59700 40.64400 22.03300
C  38.59800 39.90200 22.95000
N  40.82300 42.41300 26.60400
C  40.75800 43.17200 25.40400
C  40.37300 44.47200 25.76700
C  40.25100 44.51300 27.13800
C  40.60400 43.27600 27.59300
C  40.08300 45.52100 24.84400
C  39.93300 45.39000 28.31500
O  39.42300 46.51300 28.39800
C  40.31100 44.59300 29.53400
C  41.49600 45.14300 30.22100
O  42.69300 44.97700 29.91000
O  41.10100 45.80700 31.33100
C  42.21000 46.26800 32.20400
H  42.15200 37.78000 30.57800
H  42.36200 37.12500 24.09300
H  40.68100 43.14500 23.26300
H  41.81000 42.43500 31.59500
H  40.69100 39.75600 31.91500
H  43.48000 39.69300 31.79900
H  42.32100 39.33100 33.22200
H  42.92400 40.91600 33.04200
H  38.99500 42.04600 31.32600
H  39.87600 43.36100 32.06600
H  40.46300 41.11600 33.79100
H  39.02900 40.77100 32.96700
H  42.44200 34.56400 29.44400
H  42.57800 35.82700 30.36400
H  43.97200 35.55300 29.48000
H  43.91200 33.83100 27.51400
H  43.33800 32.98200 26.06700
H  42.17700 33.46200 27.36600
H  41.28000 38.55900 22.16900
H  41.63700 41.36700 21.78900
H  44.07500 39.23000 22.63100
H  43.38900 40.08100 21.33100
H  43.24300 38.27600 21.50400
H  39.60100 40.09100 21.09400
H  39.13600 41.63100 22.05500
H  39.10000 39.04700 23.40200
H  37.82900 39.45100 22.32300
H  38.06400 40.62800 23.56300
H  40.96500 45.98800 24.40600
H  39.65900 46.37800 25.36600
H  39.43300 45.17500 24.04100
H  39.49800 44.47400 30.25100
H  42.58200 45.45000 32.82000
H  41.87900 47.05400 32.88400
H  42.91700 46.88700 31.65200
Mg -10.28500 40.90600 42.74100
C  -9.39500 37.61500 41.74600
C  -7.38500 42.06300 41.48100
C  -11.42100 43.92600 43.13900
C  -13.43100 39.56300 43.46000
N  -8.62000 39.96300 41.62400
C  -8.41000 38.59300 41.40400
C  -7.15300 38.40000 40.52300
C  -6.48400 39.83000 40.57100
C  -7.51100 40.68200 41.30600
C  -5.18400 39.86000 41.32700
C  -7.31100 37.83400 39.07400
C  -6.55000 36.49900 38.72600
H  -5.37500 36.59300 37.74300
N  -9.52800 42.67000 42.31200
C  -8.28000 42.99200 41.86500
C  -8.07800 44.42400 41.77700
C  -9.22800 44.96500 42.35700
C  -10.10900 43.89400 42.65600
C  -6.77900 45.02000 41.44800
C  -9.37000 46.45200 42.69700
O  -8.64500 47.28100 42.15100
C  -10.37700 46.93600 43.70200
N  -12.23700 41.61700 42.99500
C  -12.34600 42.90500 43.38700
C  -13.69400 43.14200 44.09800
C  -14.42400 41.78300 43.83600
C  -13.28700 40.92200 43.46200
C  -13.64100 43.60900 45.58100
C  -15.48400 41.81800 42.72500
C  -16.90100 41.66700 43.26100
N  -11.21700 38.95300 42.87600
C  -12.51200 38.60600 43.04500
C  -12.72600 37.22700 42.93600
C  -11.42800 36.73200 42.52900
C  -10.60800 37.86200 42.35400
C  -14.06600 36.43500 43.02200
C  -10.71500 35.52400 42.15700
O  -11.00300 34.32300 42.12200
C  -9.35700 36.12800 41.47900
C  -8.28800 35.38000 42.05400
O  -7.84400 35.39300 43.18200
O  -7.78900 34.55800 41.09400
C  -6.80900 33.56700 41.40700
H  -6.45600 42.48800 41.09600
H  -11.88300 44.91300 43.21500
H  -14.45500 39.19600 43.56300
H  -6.55600 37.66500 41.06300
H  -6.39200 40.20500 39.55200
H  -4.81600 38.83400 41.35400
H  -5.36100 40.28200 42.31700
H  -4.44700 40.49400 40.83400
H  -7.00500 38.63300 38.39800
H  -8.37600 37.60800 39.02600
H  -7.31400 35.88600 38.24800
H  -6.25400 35.99400 39.64500
H  -7.07900 45.89700 40.87500
H  -6.20000 44.38900 40.77400
H  -6.16700 45.27300 42.31400
H  -9.88300 47.79800 44.15100
H  -10.48700 46.19700 44.49500
H  -11.26600 47.13800 43.10400
H  -14.22100 43.90300 43.52400
H  -14.82400 41.37800 44.76500
H  -14.25900 44.48400 45.78300
H  -12.60300 43.90000 45.74200
H  -13.79600 42.90700 46.39900
H  -15.21400 40.96500 42.10300
H  -15.44600 42.67100 42.04700
H  -17.47000 42.39700 42.68500
H  -16.92500 41.90100 44.32500
H  -17.28500 40.66700 43.05700
H  -14.86700 36.83900 42.40300
H  -14.28100 36.26000 44.07600
H  -13.80700 35.45800 42.61200
H  -9.54900 35.95200 40.42100
H  -6.48900 33.72200 42.43800
H  -5.95900 33.66400 40.73200
H  -7.31500 32.60200 41.39000

