158

Mg 47.68500 24.99100 29.16700
C  48.43700 27.41600 31.79500
C  46.23600 23.08800 31.46600
C  47.27000 22.83900 26.71100
C  49.34600 27.30600 27.04200
N  47.55300 25.19900 31.42100
C  47.82500 26.24300 32.21000
C  47.39400 25.94600 33.75100
C  46.83200 24.51500 33.55700
C  46.88000 24.17500 32.09600
C  47.38600 23.42300 34.52600
C  46.52400 27.05600 34.35700
C  46.80800 27.58900 35.78000
H  47.17900 26.57600 36.89300
N  46.86100 23.22700 29.07900
C  46.26100 22.58600 30.14800
C  45.60500 21.35800 29.61700
C  45.75300 21.42600 28.24700
C  46.61100 22.53400 27.93200
C  44.85500 20.41400 30.49900
C  45.21300 20.50700 27.21600
O  45.42200 20.62500 26.02200
C  44.39700 19.18100 27.58200
N  48.35100 25.06400 27.21700
C  48.01200 23.99900 26.37100
C  48.60300 24.20300 24.96700
C  49.05800 25.72400 25.02600
C  48.97500 26.06100 26.49100
C  49.75500 23.14700 24.72400
C  48.29300 26.77500 24.22000
C  49.11500 27.59700 23.22600
N  48.55300 27.10100 29.32500
C  49.28900 27.80700 28.36900
C  49.75200 29.07800 28.89600
C  49.39900 28.96300 30.30100
C  48.73500 27.72700 30.48600
C  50.26700 30.24000 28.10700
C  49.46400 29.63300 31.58000
O  49.98300 30.69000 31.90100
C  48.86000 28.55000 32.65600
C  49.91100 28.25400 33.73700
O  50.70300 27.35700 33.83200
O  49.87400 29.32700 34.57400
C  50.72200 29.32700 35.78000
H  45.77400 22.40600 32.18300
H  47.13700 22.14800 25.87600
H  49.75400 28.04800 26.35200
H  48.40800 25.96000 34.15200
H  45.75300 24.59400 33.69100
H  47.74600 22.60900 33.89700
H  46.61900 23.03500 35.19700
H  48.17500 23.75300 35.20100
H  45.53800 26.60000 34.27200
H  46.44800 27.85700 33.62200
H  45.84800 27.98500 36.11100
H  47.45400 28.45500 35.92200
H  43.78600 20.33100 30.30200
H  44.76900 20.76200 31.52900
H  45.24500 19.40400 30.62800
H  43.48500 19.33500 28.15900
H  45.00800 18.47700 28.14700
H  44.12100 18.79100 26.60300
H  47.84500 24.17000 24.18300
H  50.09000 25.70100 24.67600
H  50.06400 22.75000 25.69100
H  50.72500 23.48900 24.36400
H  49.25700 22.44000 24.06100
H  47.85100 27.45700 24.94700
H  47.44200 26.33700 23.69800
H  48.75100 27.38100 22.22200
H  50.17600 27.39900 23.38100
H  48.98800 28.65600 23.44700
H  50.48500 30.03200 27.06000
H  51.20400 30.57300 28.55200
H  49.59100 31.07400 28.29700
H  47.93500 28.95000 33.07200
H  51.74600 29.01800 35.56600
H  50.30800 28.59400 36.47100
H  50.75600 30.33400 36.19500
Mg -12.02800 37.66800 42.48300
C  -9.49600 35.21700 41.66600
C  -10.06000 39.97400 40.97400
C  -14.52400 39.87200 42.59700
C  -14.11700 35.01000 43.30900
N  -10.16900 37.49500 41.23600
C  -9.26000 36.44500 41.05600
C  -8.21000 36.80600 40.11300
C  -8.25600 38.35100 40.01400
C  -9.57100 38.64100 40.85400
C  -6.99100 39.12000 40.56000
C  -8.38200 35.97100 38.74500
C  -7.21200 35.02700 38.45000
H  -6.12500 35.54900 37.55400
N  -12.21900 39.69000 42.05100
C  -11.29700 40.43300 41.48800
C  -11.79500 41.83900 41.35300
C  -13.05800 41.83200 41.97000
C  -13.33600 40.44600 42.25200
C  -10.90200 43.07600 40.92500
C  -13.96100 43.00300 42.24500
O  -13.54200 44.14200 41.94900
C  -15.07600 42.89400 43.21300
N  -14.00800 37.52900 42.97300
C  -14.83500 38.59400 42.99700
C  -16.26500 38.11600 43.36600
C  -16.13700 36.62200 43.73300
C  -14.67300 36.34400 43.30200
C  -16.97400 38.92300 44.51400
C  -17.17300 35.70900 43.09000
C  -17.86800 34.63200 43.92600
N  -11.82400 35.54100 42.52400
C  -12.75500 34.62800 43.06200
C  -12.01300 33.41500 43.30500
C  -10.74900 33.58400 42.75900
C  -10.70800 34.89900 42.32600
C  -12.60100 32.20300 43.91000
C  -9.43400 32.95900 42.58600
O  -8.93200 31.87500 42.87700
C  -8.57800 34.02000 41.79600
C  -7.28300 34.33800 42.49300
O  -7.24500 34.78800 43.64500
O  -6.22000 33.90200 41.75300
C  -4.91900 34.03800 42.43100
H  -9.34800 40.74000 40.66100
H  -15.38800 40.53700 42.66400
H  -14.71200 34.14700 43.61500
H  -7.27800 36.44700 40.54800
H  -8.35000 38.46100 38.93400
H  -6.62000 39.71400 39.72500
H  -6.23000 38.37100 40.77900
H  -7.26200 39.71800 41.42900
H  -8.33800 36.66600 37.90600
H  -9.31700 35.44500 38.55000
H  -7.64500 34.12500 38.01700
H  -6.84000 34.75400 39.43800
H  -11.13200 43.46100 39.93100
H  -9.82700 42.94000 41.04600
H  -11.05700 43.84500 41.68200
H  -15.97300 42.72500 42.61800
H  -15.13200 43.81200 43.79800
H  -14.87100 42.09500 43.92600
H  -16.93700 38.24700 42.51700
H  -16.15800 36.44300 44.80800
H  -16.27600 39.64000 44.94700
H  -17.61300 38.31500 45.15500
H  -17.73500 39.59300 44.11300
H  -16.59300 35.18300 42.33100
H  -18.07000 36.23500 42.76300
H  -18.89900 34.87700 44.18000
H  -17.37400 34.58000 44.89700
H  -17.95000 33.67700 43.40600
H  -13.38500 32.34800 44.65300
H  -11.74100 31.69000 44.34000
H  -13.10500 31.67900 43.09800
H  -8.49200 33.58900 40.79800
H  -5.04100 33.78500 43.48400
H  -4.59500 35.07600 42.36500
H  -4.22700 33.34000 41.95700

