158

Mg 7.88200 3.45100 27.25700
C  9.34300 1.85200 30.02600
C  6.10100 5.45200 29.37300
C  6.68400 5.02600 24.46300
C  9.06000 0.80200 25.18600
N  7.81100 3.65300 29.46300
C  8.63200 3.02500 30.39500
C  8.44700 3.55300 31.89200
C  7.37300 4.73000 31.62100
C  7.09100 4.66900 30.04800
C  6.10000 4.42200 32.44300
C  9.78200 3.89800 32.54000
C  9.74400 4.83400 33.72500
H  10.56600 4.57400 34.96600
N  6.55600 5.03800 26.98300
C  5.98100 5.72300 27.97100
C  5.18300 6.78200 27.39400
C  5.57500 6.82200 25.97000
C  6.29000 5.58400 25.73200
C  4.35600 7.77400 28.12300
C  5.29600 7.85300 24.93000
O  5.76200 7.78500 23.79400
C  4.67400 9.14500 25.35800
N  7.95500 3.07700 25.13800
C  7.36200 3.82700 24.20800
C  7.39500 3.26900 22.81500
C  7.96600 1.89200 23.03800
C  8.39300 1.93100 24.52700
C  5.93900 3.21500 22.15600
C  9.19800 1.48700 22.13300
C  8.97900 0.16700 21.39600
N  8.94400 1.67300 27.51600
C  9.36200 0.74800 26.59000
C  10.15900 -0.19800 27.31300
C  10.19400 0.12800 28.63000
C  9.45100 1.33500 28.71200
C  10.93000 -1.29600 26.70600
C  10.73500 -0.16700 29.91100
O  11.37300 -1.15400 30.30700
C  10.23800 0.99500 30.84700
C  9.55100 0.29300 31.93300
O  8.50600 -0.33700 31.94000
O  10.39800 0.41400 33.02900
C  9.85600 -0.05900 34.28200
H  5.45200 6.07100 29.99600
H  6.19300 5.50200 23.61100
H  9.27200 -0.07500 24.57200
H  8.04800 2.73700 32.49500
H  7.79100 5.67000 31.98300
H  6.08800 3.43800 32.91300
H  5.22500 4.42400 31.79300
H  5.97100 5.27600 33.10800
H  10.40400 4.37300 31.78000
H  10.18100 2.95400 32.91000
H  8.73500 5.10100 34.04100
H  10.07400 5.75200 33.23900
H  4.10200 7.45400 29.13300
H  3.39500 8.00100 27.66100
H  4.85800 8.74000 28.17100
H  3.71700 9.03000 25.86800
H  4.51600 9.64000 24.40000
H  5.42000 9.69600 25.93200
H  7.95500 3.96500 22.19000
H  7.17300 1.14500 22.99100
H  5.70900 2.23300 21.74200
H  5.78800 4.05800 21.48200
H  5.27100 3.39600 22.99700
H  10.13600 1.49400 22.68900
H  9.22300 2.24700 21.35100
H  8.21500 -0.47400 21.83600
H  9.88700 -0.40100 21.59900
H  8.88700 0.38400 20.33200
H  11.85900 -1.43400 27.25900
H  11.19500 -1.19300 25.65300
H  10.31200 -2.18000 26.86300
H  11.12000 1.55400 31.16000
H  9.70900 0.84000 34.88000
H  10.53500 -0.67900 34.86700
H  8.90400 -0.58900 34.29600
Mg 42.73700 41.39000 26.44800
C  41.60300 43.71300 28.92000
C  43.68800 39.29300 29.02800
C  43.81800 39.30500 24.09800
C  41.95500 43.77900 23.96300
N  42.69600 41.53200 28.76900
C  42.12600 42.53900 29.52900
C  42.13200 42.09500 30.98300
C  42.90200 40.74500 31.01900
C  43.14600 40.47600 29.50100
C  44.24800 40.70300 31.84100
C  40.81000 42.06000 31.77100
C  40.64200 43.08900 32.96500
H  40.23300 42.56400 34.35400
N  43.59000 39.56700 26.56400
C  43.93400 38.85000 27.69300
C  44.65600 37.71000 27.31800
C  44.62400 37.64500 25.94400
C  44.01000 38.89100 25.46300
C  45.30800 36.78600 28.27500
C  44.93100 36.43900 25.04300
O  44.87500 36.42700 23.80800
C  45.36800 35.20400 25.59000
N  42.85700 41.51000 24.38100
C  43.30100 40.49300 23.63000
C  43.07600 40.74600 22.06500
C  42.53500 42.22100 22.09700
C  42.47700 42.55100 23.57200
C  44.32100 40.52800 21.19500
C  41.09800 42.34900 21.46100
C  41.07400 42.71600 19.99000
N  42.00400 43.32900 26.36500
C  41.69000 44.13700 25.30800
C  41.19700 45.42200 25.85200
C  41.16400 45.20300 27.20100
C  41.63600 43.91200 27.52200
C  40.85200 46.71100 24.99500
C  40.76900 45.79400 28.46400
O  40.29300 46.91300 28.68000
C  41.02300 44.87300 29.54400
C  42.11700 45.45700 30.44500
O  43.27200 45.69600 30.16200
O  41.47800 45.81400 31.64500
C  42.42200 46.23800 32.75400
H  43.92800 38.58200 29.82100
H  44.19800 38.70700 23.26700
H  41.71600 44.52100 23.19800
H  42.77600 42.76200 31.55500
H  42.22500 39.99700 31.43000
H  45.10600 40.81400 31.17900
H  44.41600 39.85500 32.50400
H  44.44600 41.61400 32.40600
H  40.59100 41.07400 32.17900
H  39.98900 42.31600 31.10100
H  39.73600 43.63000 32.69200
H  41.51700 43.73900 32.99700
H  45.49400 37.32000 29.20700
H  46.24900 36.35700 27.93100
H  44.64400 35.96700 28.55100
H  45.55900 34.43300 24.84500
H  44.59300 34.90500 26.29600
H  46.34700 35.31000 26.05800
H  42.30800 40.07900 21.67300
H  43.25000 42.84400 21.56000
H  45.18700 40.86000 21.76800
H  44.13600 41.15300 20.32200
H  44.54600 39.51100 20.87200
H  40.50600 43.08700 22.00000
H  40.58700 41.40600 21.65400
H  40.21700 43.33800 19.73300
H  40.96300 41.80600 19.40000
H  41.96500 43.30200 19.76700
H  40.15600 46.43300 24.20400
H  41.74800 47.15400 24.56000
H  40.34600 47.44400 25.62300
H  40.12900 44.57400 30.09100
H  42.01500 45.97800 33.73100
H  42.40600 47.32800 32.77500
H  43.41800 45.80000 32.81700

