158

Mg 23.85200 -4.76400 45.10300
C  26.23900 -2.38400 43.68500
C  21.36400 -3.18100 43.31100
C  21.88900 -7.33900 45.87100
C  26.71500 -6.38300 46.47300
N  23.89600 -3.08800 43.65800
C  24.91700 -2.33100 43.20800
C  24.43100 -1.24000 42.24000
C  22.88300 -1.34800 42.22500
C  22.70200 -2.61600 43.10400
C  22.12100 -0.17200 42.90200
C  25.16100 -1.41200 40.92200
C  25.20200 -0.25100 39.97300
H  24.85400 -0.51000 38.45500
N  21.88800 -5.21300 44.67700
C  21.03700 -4.37300 44.06400
C  19.73000 -5.00100 44.08500
C  19.76700 -6.21800 44.74200
C  21.19300 -6.29000 45.16900
C  18.51100 -4.42800 43.25900
C  18.64300 -7.25200 45.00900
O  17.53400 -7.12500 44.54600
C  18.90500 -8.53200 45.73600
N  24.34100 -6.70400 45.75900
C  23.25900 -7.48500 46.19900
C  23.83900 -8.76700 46.95000
C  25.34300 -8.38400 47.25000
C  25.50200 -7.07500 46.41500
C  23.08800 -9.25800 48.19500
C  26.42100 -9.44200 47.08500
C  27.41900 -9.61200 48.26600
N  26.01000 -4.38100 45.22200
C  26.99300 -5.12600 45.93900
C  28.31600 -4.52300 45.67700
C  28.08500 -3.47500 44.82300
C  26.64100 -3.33400 44.66700
C  29.59000 -4.93600 46.37100
C  28.70800 -2.38900 44.08000
O  29.83400 -2.01500 44.03800
C  27.51100 -1.73500 43.28000
C  27.39700 -0.30300 43.57200
O  26.95100 0.16300 44.60200
O  27.90300 0.46900 42.55500
C  27.73900 1.90700 42.62300
H  20.61300 -2.67900 42.69900
H  21.32000 -8.21000 46.20300
H  27.50900 -6.90500 47.01100
H  24.79600 -0.30800 42.67300
H  22.43500 -1.47000 41.23900
H  21.25400 -0.44900 43.50300
H  21.61500 0.45700 42.17000
H  22.70600 0.43900 43.58900
H  24.75700 -2.33000 40.49500
H  26.19300 -1.75900 40.96600
H  26.17200 0.21700 40.14300
H  24.47400 0.49600 40.28700
H  18.85000 -3.73000 42.49400
H  17.74600 -4.01500 43.91700
H  18.01500 -5.26600 42.77000
H  18.05700 -9.19600 45.90900
H  19.30400 -8.26800 46.71600
H  19.56200 -9.14000 45.11300
H  23.94000 -9.61900 46.27800
H  25.37400 -7.97100 48.25800
H  22.67300 -10.23500 47.94700
H  22.17000 -8.69800 48.37100
H  23.67400 -9.40400 49.10200
H  26.90600 -9.32600 46.11600
H  25.88400 -10.38700 47.01100
H  27.09500 -10.41600 48.92700
H  27.54200 -8.77400 48.95200
H  28.40200 -9.74100 47.81400
H  29.55700 -6.02400 46.32400
H  29.65700 -4.60700 47.40800
H  30.45600 -4.61100 45.79400
H  27.74700 -1.78300 42.21700
H  27.10800 2.26100 43.43800
H  27.22700 2.21500 41.71200
H  28.73200 2.35300 42.68900
Mg 47.67600 16.52900 28.72200
C  45.82900 15.94900 31.60900
C  49.99100 18.39000 30.73000
C  49.37500 17.30700 25.95200
C  45.33900 14.78600 26.93500
N  47.92600 17.09900 30.90600
C  46.98900 16.65700 31.86700
C  47.55800 17.09000 33.21900
C  48.60600 18.17100 32.87200
C  48.93600 17.82800 31.43400
C  48.09000 19.68800 32.93700
C  48.12400 15.87100 33.98400
C  48.01700 15.91200 35.57300
H  47.66000 17.21500 36.25300
N  49.48800 17.72300 28.37700
C  50.23900 18.41400 29.32400
C  51.32700 19.07000 28.54900
C  51.20000 18.68400 27.19000
C  49.97200 17.87100 27.10500
C  52.37400 19.97000 29.27300
C  52.09000 19.04200 25.99300
O  51.97900 18.61100 24.91200
C  53.19900 20.05200 26.05500
N  47.38900 16.23400 26.73500
C  48.15100 16.67200 25.69600
C  47.72000 16.11500 24.34100
C  46.50600 15.18500 24.69800
C  46.42800 15.37900 26.24200
C  47.51200 17.19200 23.27600
C  46.63500 13.66000 24.26600
C  45.62800 13.30400 23.17800
N  45.92400 15.72400 29.08500
C  44.99800 15.14400 28.21000
C  43.87600 14.65700 28.89300
C  44.20700 14.88800 30.18900
C  45.41800 15.60900 30.30500
C  42.65100 13.89600 28.36800
C  43.63000 14.81100 31.55600
O  42.61000 14.26300 31.92400
C  44.71600 15.44900 32.52500
C  44.08600 16.60400 33.26100
O  43.63800 17.67100 32.70100
O  44.15300 16.26900 34.57500
C  43.53200 17.31000 35.46300
H  50.64600 19.11200 31.22000
H  49.88800 17.55400 25.02100
H  44.55900 14.17000 26.48100
H  46.75100 17.54500 33.79300
H  49.50400 18.00800 33.46900
H  48.40700 20.20900 32.03300
H  48.52100 20.29400 33.73300
H  47.00300 19.72600 33.01500
H  49.15600 15.70500 33.67500
H  47.54500 15.01000 33.64900
H  48.94900 15.54500 36.00400
H  47.25300 15.16200 35.77800
H  53.39900 19.62800 29.12900
H  52.27500 20.02500 30.35700
H  52.21600 20.97700 28.88700
H  52.96500 20.94900 26.62800
H  53.46500 20.35200 25.04200
H  54.04500 19.48900 26.45000
H  48.54300 15.60300 23.84200
H  45.55600 15.52300 24.28500
H  46.50800 17.16500 22.85300
H  48.34000 17.09800 22.57300
H  47.59100 18.18200 23.72600
H  46.55200 12.93300 25.07400
H  47.65700 13.55100 23.90300
H  46.14800 13.06500 22.25000
H  44.89000 14.08200 22.98200
H  45.15700 12.35400 23.43200
H  43.01300 12.87000 28.29700
H  42.41000 14.16000 27.33800
H  41.75100 14.01300 28.97100
H  44.98800 14.69300 33.26100
H  43.85100 18.29000 35.11000
H  43.99600 17.17200 36.43900
H  42.45100 17.17000 35.45900

