158

Mg 35.91000 49.92600 25.30500
C  35.54600 48.10100 28.28900
C  34.41800 52.62300 26.81600
C  35.82700 51.39800 22.23000
C  37.12600 46.92400 23.72200
N  35.03000 50.28800 27.30500
C  35.05000 49.43700 28.39600
C  34.76200 50.15100 29.72400
C  34.13000 51.52100 29.18700
C  34.47300 51.49200 27.64600
C  32.65400 51.94800 29.58500
C  35.99400 50.35700 30.62800
C  35.68100 50.60200 32.11500
H  34.24600 50.87100 32.60600
N  35.24100 51.81000 24.57900
C  34.72500 52.76200 25.42700
C  34.54300 54.01500 24.60200
C  34.89100 53.62200 23.26400
C  35.37200 52.19100 23.30100
C  34.02700 55.32300 25.18300
C  34.81800 54.43500 21.97200
O  35.17300 53.99000 20.89000
C  34.35800 55.81400 22.13500
N  36.24500 49.22800 23.23900
C  36.20000 50.03800 22.18000
C  36.75500 49.39100 20.86300
C  37.15000 47.91600 21.42400
C  36.86000 48.00700 22.87800
C  35.72200 49.23700 19.69700
C  38.70600 47.52300 21.09100
C  38.90300 46.10000 20.53400
N  36.34200 47.92300 25.82900
C  36.93700 46.88100 25.09800
C  37.01500 45.75700 26.02300
C  36.51100 46.18900 27.32700
C  36.08000 47.51300 27.15400
C  37.67800 44.44400 25.59000
C  36.29800 45.72500 28.72200
O  36.51800 44.63200 29.29400
C  35.78900 47.03200 29.43600
C  34.55500 46.73500 30.16100
O  33.41800 46.77600 29.64700
O  34.70600 46.46400 31.45500
C  33.53600 46.16400 32.28800
H  34.14400 53.54000 27.34300
H  36.02900 51.90400 21.28400
H  37.55600 46.07700 23.18300
H  34.01300 49.62200 30.31400
H  34.76000 52.34100 29.53200
H  32.06400 52.23100 28.71300
H  32.73000 52.80500 30.25400
H  32.21700 51.07000 30.06000
H  36.50300 51.23000 30.22000
H  36.61100 49.46600 30.51400
H  36.26800 51.41700 32.53900
H  36.05400 49.76500 32.70500
H  34.67600 56.13100 24.84800
H  33.88300 55.40500 26.26100
H  33.02600 55.53700 24.80900
H  33.44000 55.78400 22.72200
H  34.21200 56.31400 21.17700
H  35.03800 56.49100 22.65300
H  37.59000 49.97900 20.48400
H  36.45700 47.18500 21.00700
H  34.71100 49.22700 20.10400
H  35.98900 48.36800 19.09600
H  35.84800 50.12100 19.07100
H  39.32000 47.57200 21.99100
H  39.03000 48.13000 20.24600
H  39.63900 45.66700 21.21200
H  39.29500 46.10100 19.51700
H  37.96400 45.54800 20.49300
H  38.25900 44.63500 24.68800
H  36.82200 43.78200 25.45300
H  38.35700 44.07000 26.35600
H  36.57300 47.27800 30.15200
H  33.67900 45.20700 32.78800
H  32.61900 46.09000 31.70400
H  33.30500 47.02900 32.90900
Mg 25.70300 51.36600 26.50000
C  23.59600 52.15600 29.28300
C  28.14600 50.53900 28.84600
C  27.88000 50.88300 24.00500
C  23.24600 52.43900 24.35200
N  25.81800 51.28000 28.83600
C  24.85900 51.72000 29.74800
C  25.46200 51.81700 31.17700
C  26.89100 51.15300 31.01200
C  26.95300 51.00200 29.44200
C  28.07400 52.05800 31.49900
C  24.60100 51.02400 32.22800
C  25.18600 50.76900 33.69200
H  24.41100 51.43800 34.81700
N  27.72100 50.82000 26.44800
C  28.53900 50.48400 27.48600
C  29.86000 50.09900 26.98300
C  29.85000 50.37600 25.58600
C  28.44200 50.68300 25.28900
C  30.92300 49.46100 27.81400
C  30.98600 50.16300 24.63700
O  30.79700 50.37300 23.44800
C  32.33700 49.97200 25.15800
N  25.66400 51.72800 24.47600
C  26.65000 51.41600 23.66200
C  26.16400 51.43400 22.17600
C  24.68400 51.95500 22.22400
C  24.46700 52.02300 23.77700
C  27.05300 52.19800 21.27200
C  23.75100 50.99200 21.43600
C  23.77700 49.43400 21.69800
N  23.82900 52.12900 26.71400
C  22.90400 52.48600 25.73900
C  21.62300 52.90600 26.47700
C  21.92300 52.75400 27.78900
C  23.22500 52.23500 27.91000
C  20.46000 53.39500 25.80600
C  21.30700 53.01600 29.04100
O  20.22000 53.38700 29.33900
C  22.46000 52.79300 30.07500
C  22.84000 54.12900 30.51400
O  23.65800 54.82900 29.97000
O  22.23500 54.38500 31.70000
C  22.55400 55.62700 32.46800
H  28.87700 50.38400 29.64200
H  28.49900 50.74600 23.11700
H  22.47100 52.74100 23.64500
H  25.48000 52.85100 31.52300
H  27.11000 50.16400 31.41500
H  28.81000 51.48900 32.06600
H  27.52000 52.74400 32.14100
H  28.66400 52.51500 30.70500
H  24.54000 49.99600 31.87000
H  23.62600 51.49700 32.34600
H  26.22500 50.99100 33.93500
H  25.03400 49.71600 33.92500
H  30.67400 49.28800 28.86100
H  31.80600 50.08900 27.68800
H  31.15700 48.56800 27.23500
H  32.37200 48.92100 25.44500
H  32.66100 50.64400 25.95400
H  33.02600 50.10400 24.32300
H  26.15800 50.41100 21.80100
H  24.62300 52.97100 21.83300
H  27.90500 51.53000 21.14800
H  27.22200 52.99900 21.99200
H  26.58500 52.72800 20.44200
H  24.07600 51.10500 20.40100
H  22.76600 51.45700 21.40900
H  22.75400 49.09800 21.86500
H  24.46700 49.15800 22.49500
H  24.17800 48.93500 20.81500
H  20.73000 53.86200 24.85900
H  20.09600 54.20400 26.43900
H  19.77400 52.54800 25.79100
H  22.18100 52.15800 30.91500
H  22.59300 56.47500 31.78500
H  23.47500 55.56200 33.04800
H  21.69400 55.87600 33.09100

