158

Mg 17.41600 -2.36300 27.57900
C  16.38100 -0.58800 30.28400
C  19.55700 -4.03900 29.79000
C  18.64700 -3.96800 24.93400
C  15.59100 -0.23500 25.48300
N  17.94800 -2.17200 29.79800
C  17.34700 -1.46700 30.67600
C  17.65500 -1.80600 32.16500
C  18.93100 -2.72600 31.92700
C  18.84600 -2.98500 30.39100
C  20.27300 -2.19800 32.56000
C  16.49700 -2.47900 32.98200
C  16.32000 -1.92800 34.46900
H  17.62700 -1.49900 35.19800
N  18.93500 -3.78400 27.36600
C  19.62700 -4.36600 28.43400
C  20.36000 -5.49000 27.88500
C  20.10600 -5.50900 26.45200
C  19.15300 -4.44300 26.19500
C  21.30200 -6.43100 28.73800
C  20.71700 -6.43200 25.42300
O  20.37400 -6.35000 24.24400
C  21.78400 -7.37000 25.73100
N  17.20200 -2.10300 25.49300
C  17.75100 -2.94000 24.61800
C  17.40900 -2.55000 23.18500
C  16.21700 -1.49100 23.38100
C  16.32500 -1.22800 24.88800
C  18.64700 -2.05700 22.47100
C  14.74100 -1.95500 23.07500
C  13.78300 -0.89800 22.45100
N  16.25100 -0.77500 27.76200
C  15.54100 -0.02700 26.86400
C  14.76500 0.92800 27.55600
C  15.10000 0.74700 28.87800
C  16.01700 -0.28300 28.98600
C  13.89900 2.00700 26.95700
C  14.73000 1.29400 30.23100
O  14.00800 2.19100 30.58700
C  15.58900 0.44200 31.17300
C  16.34800 1.40900 32.03100
O  17.39200 1.96200 31.76100
O  15.65700 1.65100 33.12700
C  16.01900 2.89400 33.88300
H  20.08700 -4.66400 30.51200
H  18.97000 -4.44500 24.00700
H  14.92000 0.41500 24.91800
H  17.90800 -0.88700 32.69400
H  18.68200 -3.72500 32.28700
H  20.18900 -1.19500 32.97800
H  21.03100 -2.07600 31.78600
H  20.62200 -2.92000 33.29800
H  16.50600 -3.56800 32.96500
H  15.61500 -2.09300 32.47100
H  15.69400 -2.72100 34.87900
H  15.70500 -1.03100 34.40200
H  21.63300 -6.09300 29.72000
H  22.25800 -6.61200 28.24700
H  20.84100 -7.41900 28.76500
H  21.91200 -8.01900 24.86400
H  21.46800 -7.99700 26.56400
H  22.73200 -6.92400 26.03100
H  17.06400 -3.34900 22.53000
H  16.51700 -0.55800 22.90400
H  18.59900 -2.37200 21.42900
H  19.62700 -2.25600 22.90400
H  18.61800 -0.97000 22.38400
H  14.22400 -2.21000 24.00000
H  14.57300 -2.79700 22.40300
H  14.27200 0.06800 22.32700
H  12.83500 -0.73000 22.96100
H  13.49500 -1.27600 21.47000
H  13.14300 1.50200 26.35600
H  14.58600 2.52500 26.28800
H  13.50800 2.63600 27.75700
H  14.91600 -0.13100 31.81100
H  16.85100 2.78600 34.57900
H  15.15300 3.30000 34.40600
H  16.24000 3.54200 33.03400
Mg -10.09900 39.34100 42.59800
C  -8.72000 36.38600 41.52600
C  -7.33100 41.03100 41.28600
C  -11.68700 42.43300 43.14700
C  -13.08000 37.75600 43.42400
N  -8.22400 38.70400 41.36500
C  -7.82800 37.41800 41.24100
C  -6.38200 37.36200 40.68600
C  -5.96800 38.87700 40.85600
C  -7.20600 39.63100 41.21600
C  -4.86600 39.19800 41.93800
C  -6.45400 36.87200 39.15900
C  -5.60400 35.71000 38.89900
H  -4.86500 35.61100 37.57300
N  -9.68600 41.35100 42.23000
C  -8.46700 41.78700 41.72600
C  -8.46700 43.25300 41.64500
C  -9.70700 43.68100 42.20700
C  -10.43600 42.47900 42.56600
C  -7.40400 44.24100 41.03000
C  -10.13100 45.14000 42.22200
O  -9.28700 46.06400 42.06000
C  -11.54200 45.61700 42.34400
N  -12.01900 39.98200 43.30500
C  -12.41700 41.29400 43.45100
C  -13.99100 41.48200 43.77600
C  -14.36400 39.90900 43.98200
C  -13.13400 39.15200 43.46700
C  -14.27000 42.48800 44.95500
C  -15.67600 39.51400 43.35500
C  -16.82800 39.18600 44.33800
N  -10.76600 37.49900 42.60000
C  -11.96100 36.97900 43.06900
C  -11.94600 35.51000 42.85700
C  -10.69700 35.27000 42.23300
C  -10.02400 36.49100 42.13000
C  -13.07600 34.65200 43.13800
C  -9.88000 34.18300 41.77500
O  -10.12000 32.96500 41.73800
C  -8.45700 34.91400 41.36900
C  -7.41600 34.45500 42.31700
O  -7.43000 34.56800 43.54200
O  -6.48800 33.77400 41.60700
C  -5.62100 32.83500 42.36900
H  -6.40600 41.57400 41.07900
H  -12.16300 43.38400 43.39500
H  -13.98000 37.19100 43.67600
H  -5.68000 36.72300 41.22300
H  -5.68900 39.16800 39.84300
H  -4.07800 39.81300 41.50100
H  -4.48100 38.28600 42.39300
H  -5.28400 39.74700 42.78200
H  -5.98200 37.71100 38.64700
H  -7.47700 36.80800 38.78800
H  -6.14900 34.81000 39.18500
H  -4.73500 35.79500 39.55200
H  -6.91200 44.92400 41.72300
H  -7.88900 44.92900 40.33800
H  -6.65200 43.63600 40.52300
H  -11.75400 46.13200 43.28100
H  -12.39900 44.95700 42.20500
H  -11.64700 46.57800 41.84100
H  -14.34000 41.87600 42.82100
H  -14.33200 39.75800 45.06100
H  -13.30900 42.62600 45.44900
H  -15.00800 42.00000 45.59200
H  -14.54300 43.43500 44.49000
H  -15.61900 38.59500 42.77100
H  -15.95400 40.29300 42.64500
H  -17.74800 39.69600 44.05100
H  -16.62300 39.53500 45.35000
H  -17.05700 38.12100 44.28900
H  -13.82100 34.81000 42.35800
H  -13.58000 34.88300 44.07600
H  -12.84400 33.59600 43.00000
H  -8.12700 34.76700 40.34100
H  -5.26100 33.24000 43.31400
H  -4.69500 32.74200 41.80100
H  -6.14100 31.89000 42.52600

