158

Mg 25.54200 1.81500 28.97300
C  27.57700 1.53200 31.78800
C  22.86700 1.87200 31.19200
C  23.52200 1.82900 26.29100
C  28.33300 1.32700 26.95200
N  25.22800 1.65100 31.25100
C  26.28600 1.68700 32.15900
C  25.67700 1.72100 33.61200
C  24.08700 1.67300 33.43100
C  24.04000 1.73200 31.86700
C  23.28000 0.52600 34.18400
C  26.12500 2.96100 34.43200
C  26.72300 2.62700 35.84800
H  26.35400 3.58800 37.01200
N  23.51900 1.91200 28.80700
C  22.57100 1.95000 29.77000
C  21.22200 2.02600 29.16200
C  21.40400 1.91200 27.77300
C  22.84200 1.91000 27.57600
C  19.83500 2.20500 29.92200
C  20.34800 1.82500 26.65300
O  20.69800 1.63500 25.49700
C  18.87600 2.25000 26.97300
N  25.83100 1.31900 26.87600
C  24.81300 1.61600 25.96600
C  25.41100 1.72800 24.54700
C  27.01500 1.61200 24.72400
C  27.08900 1.52500 26.29100
C  24.71500 0.63200 23.67500
C  27.84700 2.83800 24.24800
C  28.98200 2.57900 23.28500
N  27.58100 1.41800 29.22400
C  28.60200 1.24100 28.33400
C  29.82800 0.95800 29.10700
C  29.45400 1.16500 30.47400
C  28.10700 1.41000 30.45900
C  31.17100 0.67900 28.44200
C  29.96200 1.25000 31.76100
O  31.11900 1.05200 32.16100
C  28.85200 1.51700 32.72500
C  28.74900 0.46400 33.69600
O  28.14800 -0.61100 33.60500
O  29.40600 0.94300 34.85400
C  29.24600 0.06600 35.99300
H  22.05700 1.93700 31.92100
H  22.92200 2.00300 25.39500
H  29.21300 1.15900 26.32800
H  25.98800 0.83800 34.17000
H  23.67900 2.57800 33.88200
H  23.55600 0.38100 35.22800
H  23.29200 -0.42400 33.65000
H  22.24000 0.80300 34.35500
H  25.32000 3.69500 34.46400
H  26.95000 3.53700 34.01300
H  27.79100 2.80300 35.72400
H  26.49800 1.58900 36.09200
H  19.99200 2.28500 30.99700
H  19.14200 1.41000 29.64800
H  19.44100 3.18800 29.66300
H  18.28500 1.63100 27.64800
H  18.34600 2.28600 26.02100
H  18.97600 3.23000 27.44100
H  25.22400 2.71800 24.13200
H  27.33000 0.63700 24.35100
H  24.17600 0.03700 24.41200
H  25.39200 -0.03300 23.13800
H  24.04400 1.12800 22.97400
H  28.34500 3.28900 25.10700
H  27.15500 3.53600 23.77600
H  29.86500 3.15900 23.55700
H  28.64800 2.94400 22.31400
H  29.19000 1.52200 23.12300
H  31.16500 1.15300 27.46100
H  31.31300 -0.33100 28.05800
H  31.94400 1.08100 29.09700
H  29.06500 2.48900 33.17000
H  29.15800 -0.99200 35.74600
H  28.38000 0.38000 36.57600
H  30.13600 -0.04100 36.61300
Mg 47.21900 16.87300 27.74200
C  45.37200 16.49200 30.64600
C  49.31400 19.01500 29.44800
C  48.42900 18.05800 24.73300
C  44.51300 15.42900 25.97400
N  47.28100 17.73300 29.76900
C  46.54400 17.25100 30.83300
C  47.08400 17.73000 32.18300
C  48.19300 18.74000 31.78800
C  48.28200 18.53700 30.24200
C  47.97000 20.07600 32.46700
C  47.51400 16.52600 33.06700
C  47.45800 16.67900 34.63100
H  46.67500 17.88300 35.11900
N  48.73400 18.17400 27.18200
C  49.58400 18.91900 28.04500
C  50.62900 19.56600 27.26000
C  50.38900 19.29600 25.85600
C  49.12400 18.52800 25.89900
C  51.70400 20.47500 27.99500
C  51.13300 19.55300 24.54200
O  50.80900 19.23400 23.43600
C  52.48000 20.20300 24.60000
N  46.52800 16.75700 25.64100
C  47.29500 17.27300 24.60900
C  46.60400 16.88200 23.20800
C  45.63900 15.80600 23.70400
C  45.49700 16.02400 25.19500
C  45.91700 18.16800 22.66500
C  45.96400 14.37200 23.32600
C  45.08500 13.61500 22.25900
N  45.44400 15.95400 28.18600
C  44.39900 15.38000 27.39900
C  43.30400 14.99500 28.19700
C  43.63700 15.35800 29.47300
C  44.91500 15.99800 29.44000
C  42.02500 14.43400 27.71100
C  43.20900 15.31200 30.88400
O  42.21300 14.87700 31.36000
C  44.37500 16.07700 31.72800
C  43.66100 17.12600 32.47800
O  43.68000 18.30400 32.06200
O  43.08900 16.61400 33.65200
C  42.18900 17.56500 34.26800
H  49.93200 19.64100 30.09500
H  48.75200 18.31300 23.72200
H  43.72300 14.95300 25.39000
H  46.25600 18.25100 32.66400
H  49.17500 18.37000 32.08400
H  47.20000 20.14200 33.23600
H  47.65100 20.82300 31.74000
H  48.95300 20.40200 32.80600
H  48.59200 16.51300 32.90900
H  47.09900 15.58000 32.72000
H  48.45400 16.86700 35.03300
H  47.00800 15.80400 35.09800
H  52.66900 19.97600 28.08600
H  51.33700 20.68500 28.99900
H  51.93000 21.34800 27.38300
H  53.18800 19.80400 23.87300
H  53.02500 20.13600 25.54200
H  52.39800 21.25900 24.34200
H  47.40900 16.49700 22.58200
H  44.63700 15.92100 23.29100
H  46.67600 18.43900 21.93200
H  45.82000 19.03100 23.32400
H  45.00300 17.88900 22.14100
H  46.06400 13.78100 24.23600
H  46.94100 14.51800 22.86600
H  44.82200 12.64500 22.68100
H  45.71700 13.54000 21.37400
H  44.22000 14.21300 21.97500
H  41.71300 14.92500 26.78900
H  41.21400 14.60200 28.41900
H  42.18600 13.37100 27.53000
H  44.73000 15.36400 32.47200
H  42.72600 18.46500 34.56900
H  41.81400 17.07000 35.16400
H  41.35500 17.88000 33.64100

