158

Mg 26.23900 1.19300 29.71600
C  28.37600 0.72400 32.65400
C  23.59200 1.43000 31.78500
C  24.28400 1.07800 26.99900
C  29.02100 0.52200 27.67600
N  26.08900 1.08300 31.95700
C  27.05000 1.08900 32.98000
C  26.41600 1.10800 34.32000
C  24.85800 1.14400 34.01700
C  24.81900 1.27200 32.47500
C  24.00700 -0.03800 34.53300
C  27.00100 2.24000 35.19000
C  26.34900 2.60800 36.53200
H  26.94800 2.09700 37.87700
N  24.13400 1.27100 29.45800
C  23.18100 1.41900 30.39800
C  21.87300 1.63000 29.78300
C  22.12100 1.47400 28.36700
C  23.56300 1.25700 28.18700
C  20.72000 1.95300 30.69300
C  21.03400 1.40800 27.32700
O  21.27300 1.15600 26.11800
C  19.55000 1.46700 27.75900
N  26.58900 0.69900 27.66800
C  25.62500 0.95600 26.69000
C  26.20000 0.90300 25.24400
C  27.76600 0.80000 25.52500
C  27.84100 0.70100 27.05800
C  25.61900 -0.28600 24.40500
C  28.62200 2.07700 25.04600
C  27.90700 3.41700 25.24800
N  28.30400 0.74500 30.02800
C  29.25000 0.39700 29.07800
C  30.52900 0.08600 29.76500
C  30.24300 0.24200 31.16100
C  28.87000 0.59400 31.29300
C  31.93300 -0.19300 29.24900
C  30.74500 0.07600 32.50700
O  31.87400 -0.27600 32.80700
C  29.67700 0.50000 33.50800
C  29.51000 -0.61400 34.53600
O  28.75700 -1.56900 34.28400
O  30.31400 -0.52400 35.62900
C  30.04300 -1.54200 36.60500
H  22.75900 1.65000 32.45600
H  23.65400 1.09000 26.10700
H  29.89000 0.16800 27.11800
H  26.69300 0.17400 34.80800
H  24.43800 2.06700 34.41600
H  24.42100 -0.48800 35.43500
H  23.85000 -0.77900 33.74900
H  22.99800 0.23200 34.84500
H  27.15600 3.13300 34.58300
H  28.03100 1.92000 35.34800
H  25.30700 2.29000 36.56500
H  26.29700 3.69100 36.63900
H  20.44400 2.96600 30.39900
H  20.85600 2.01500 31.77300
H  19.86800 1.27600 30.63300
H  18.89700 1.27900 26.90700
H  19.40100 2.39700 28.30800
H  19.32100 0.67700 28.47400
H  25.94300 1.86900 24.80900
H  28.15700 -0.14100 25.13900
H  24.78500 0.12800 23.83800
H  25.21300 -1.03700 25.08300
H  26.44100 -0.57100 23.74800
H  28.80400 2.04400 23.97200
H  29.52600 2.16700 25.64800
H  28.55300 4.05900 25.84700
H  27.05500 3.34700 25.92400
H  27.45600 3.79500 24.33000
H  31.95100 -0.91000 28.42800
H  32.60400 -0.61300 30.00000
H  32.37000 0.72500 28.85700
H  30.09700 1.37600 34.00300
H  30.95000 -1.70300 37.18800
H  29.84100 -2.52600 36.18200
H  29.17700 -1.20200 37.17200
Mg 30.43700 57.47400 40.94600
C  27.46900 55.57500 39.84000
C  32.34500 54.90400 39.90000
C  32.87000 59.50800 41.37600
C  28.02500 59.94800 41.73600
N  29.91400 55.52100 39.97900
C  28.71100 54.91000 39.62500
C  28.93000 53.45700 39.12500
C  30.47300 53.28100 39.32300
C  30.96400 54.60100 39.80700
C  30.91600 52.15300 40.25200
C  28.47100 53.13600 37.65300
C  28.88700 54.30100 36.68500
H  27.88000 55.30900 36.10500
N  32.41200 57.21800 40.69800
C  33.01900 56.08900 40.25600
C  34.43000 56.28600 40.46100
C  34.60600 57.64500 40.81700
C  33.25500 58.19800 41.01100
C  35.47100 55.12600 40.30000
C  35.91800 58.36100 41.16900
O  37.00700 57.78400 41.00500
C  36.02400 59.71400 41.83500
N  30.42100 59.42400 41.26800
C  31.65800 60.02200 41.50000
C  31.40100 61.54600 41.82300
C  29.88800 61.58600 42.26900
C  29.40800 60.23800 41.71900
C  32.30700 62.26800 42.87000
C  29.05000 62.81200 41.97100
C  28.02700 63.25700 43.06200
N  28.13100 57.71900 40.98800
C  27.35700 58.82700 41.28200
C  25.95400 58.59100 41.10800
C  25.98400 57.32800 40.54900
C  27.29200 56.83700 40.43800
C  24.81500 59.45200 41.51200
C  25.13200 56.25100 39.99700
O  23.91200 56.23000 39.89600
C  26.05200 55.06300 39.62000
C  25.67900 53.90300 40.42600
O  25.54800 53.88100 41.58500
O  25.58100 52.74200 39.64900
C  25.19500 51.56200 40.44800
H  32.94800 54.00800 39.73800
H  33.71600 60.17100 41.57100
H  27.36000 60.75500 42.05000
H  28.42200 52.85300 39.87600
H  30.91500 53.07200 38.34800
H  30.23200 51.33200 40.47100
H  31.06500 52.57400 41.24600
H  31.91500 51.84500 39.94200
H  27.43000 52.82200 37.72500
H  29.05200 52.25300 37.38700
H  29.32400 53.75800 35.84700
H  29.68600 54.93100 37.07600
H  36.47100 55.55700 40.24300
H  35.33600 54.72600 39.29500
H  35.31700 54.25700 40.93900
H  35.73900 60.54400 41.18900
H  37.06100 59.79500 42.16200
H  35.42700 59.60500 42.74000
H  31.50700 62.05400 40.86400
H  29.80100 61.41500 43.34200
H  33.27700 61.82400 43.09500
H  31.70700 62.33000 43.77700
H  32.55100 63.30600 42.64300
H  28.46700 62.65300 41.06400
H  29.68600 63.67100 41.75800
H  28.33700 64.14200 43.61700
H  27.82600 62.56400 43.88000
H  27.04700 63.40000 42.60700
H  24.37300 59.95400 40.65200
H  25.14500 60.34100 42.05100
H  24.07200 58.90300 42.09000
H  25.89900 54.82700 38.56700
H  24.87700 50.86300 39.67500
H  24.35600 51.76300 41.11300
H  26.13600 51.31900 40.94200

