158

Mg 25.03700 -8.35900 46.61500
C  27.22100 -5.77300 45.53000
C  22.74600 -7.11800 44.47000
C  23.25500 -11.12700 47.09000
C  27.86300 -9.78300 48.38200
N  25.08000 -6.66000 45.13900
C  26.04300 -5.67600 44.83900
C  25.50800 -4.63200 43.82100
C  24.12000 -5.18700 43.44300
C  23.96100 -6.39700 44.42300
C  23.01500 -4.10500 43.58900
C  26.51800 -4.54600 42.61000
C  26.77300 -3.17100 42.01500
H  27.11200 -3.15000 40.53900
N  23.21100 -8.97200 46.04900
C  22.37900 -8.32300 45.16400
C  21.08300 -9.01100 45.04500
C  21.26100 -10.17000 45.83000
C  22.62300 -10.10700 46.37600
C  19.84900 -8.47900 44.23800
C  20.26200 -11.28300 45.89100
O  19.24200 -11.25500 45.20100
C  20.39400 -12.45700 46.84300
N  25.58200 -10.26500 47.39900
C  24.57700 -11.19800 47.61300
C  25.10000 -12.42200 48.40900
C  26.51900 -11.92000 48.89100
C  26.69300 -10.55800 48.21600
C  24.06600 -12.93100 49.54600
C  27.66600 -12.98300 48.82500
C  28.59600 -12.97500 50.05700
N  27.10700 -7.92500 46.91800
C  28.08300 -8.56700 47.64800
C  29.32100 -7.78100 47.60600
C  28.95400 -6.59800 46.93700
C  27.67600 -6.85300 46.37600
C  30.48200 -8.05600 48.44200
C  29.37600 -5.24300 46.52100
O  30.44900 -4.67600 46.69800
C  28.31200 -4.67700 45.55500
C  27.70700 -3.48000 46.09400
O  27.47500 -3.42200 47.28300
O  27.49600 -2.53200 45.15200
C  27.01800 -1.23900 45.62100
H  21.97600 -6.82400 43.75400
H  22.73900 -12.03400 47.41200
H  28.74700 -10.24900 48.82200
H  25.38500 -3.72600 44.41400
H  24.20700 -5.60900 42.44200
H  23.43600 -3.17100 43.21800
H  22.80000 -4.10200 44.65700
H  22.07600 -4.20100 43.04300
H  26.27200 -5.10500 41.70700
H  27.40200 -4.99900 43.05600
H  27.66500 -2.78200 42.50600
H  25.88500 -2.58200 42.24500
H  19.89700 -7.39200 44.16600
H  18.98700 -8.78000 44.83300
H  19.87100 -8.91600 43.24000
H  20.80400 -12.04000 47.76300
H  21.09700 -13.19000 46.45000
H  19.46100 -12.98800 47.03200
H  25.35100 -13.23800 47.73200
H  26.41700 -11.63300 49.93800
H  23.19600 -12.28100 49.64300
H  24.62600 -13.11700 50.46200
H  23.71400 -13.87700 49.13400
H  28.29300 -12.83800 47.94500
H  27.19500 -13.96600 48.81300
H  28.50900 -13.99500 50.43100
H  28.14900 -12.34100 50.82200
H  29.65000 -12.76500 49.87200
H  30.78800 -9.09500 48.32400
H  30.11200 -7.90400 49.45600
H  31.20700 -7.35100 48.03600
H  28.74500 -4.53100 44.56600
H  27.71100 -0.58800 45.08900
H  27.06200 -1.04900 46.69300
H  25.98300 -0.96100 45.42200
Mg 35.79700 1.34100 29.50800
C  33.44700 2.62900 31.81700
C  38.24100 1.74600 32.01600
C  38.04400 0.57000 27.19000
C  33.33700 1.78900 27.07800
N  35.81000 2.32800 31.63500
C  34.68300 2.51700 32.39400
C  35.04100 2.52000 33.86300
C  36.66800 2.46100 33.89900
C  36.98200 2.14900 32.43200
C  37.50900 3.74400 34.27800
C  34.31900 1.35700 34.61200
C  33.92900 1.53700 36.13500
H  34.66300 2.70400 36.82200
N  37.83000 1.10900 29.60000
C  38.62300 1.20100 30.67400
C  39.93400 0.73200 30.26500
C  39.95000 0.49800 28.86600
C  38.56000 0.73800 28.50200
C  41.09500 0.73000 31.26700
C  41.07600 0.09900 27.92200
O  40.90500 0.12900 26.68800
C  42.48500 -0.29600 28.44300
N  35.71200 1.32200 27.46300
C  36.73400 0.92600 26.73600
C  36.42900 0.74400 25.22600
C  34.88800 1.17700 25.20700
C  34.57400 1.45400 26.68700
C  37.26400 1.70800 24.41500
C  33.99200 0.12000 24.56000
C  33.55500 -1.13300 25.32000
N  33.78500 1.95100 29.41300
C  32.91400 2.01400 28.38000
C  31.63100 2.54200 28.81800
C  31.80400 2.69900 30.19400
C  33.11300 2.39700 30.46000
C  30.56500 3.00800 27.94800
C  31.09100 3.13000 31.38400
O  29.94300 3.53100 31.58800
C  32.15200 3.06500 32.47400
C  32.30400 4.39200 33.15600
O  32.93400 5.30600 32.69500
O  31.69400 4.45300 34.36300
C  32.06800 5.58400 35.14600
H  38.92300 1.74800 32.86900
H  38.74200 0.22600 26.42300
H  32.56800 1.82300 26.30300
H  34.58900 3.45700 34.18800
H  36.99400 1.58200 34.45500
H  38.22000 3.52200 35.07300
H  36.70000 4.38000 34.63600
H  37.99100 4.22000 33.42400
H  34.80700 0.39600 34.77300
H  33.36900 1.18300 34.10800
H  34.05200 0.67000 36.78500
H  32.84800 1.52400 36.27300
H  41.91900 1.34200 30.89900
H  41.37100 -0.32300 31.20400
H  40.92000 0.97500 32.31400
H  42.34200 -1.07200 29.19500
H  43.01500 0.59000 28.79400
H  43.07000 -0.61700 27.58200
H  36.63000 -0.28400 24.92600
H  34.79300 2.14400 24.71200
H  38.20800 1.18300 24.27200
H  37.47200 2.64600 24.92900
H  36.72300 1.94300 23.49800
H  34.46200 -0.29000 23.66600
H  33.09300 0.64800 24.24200
H  32.53200 -0.94200 25.64400
H  34.23600 -1.30900 26.15200
H  33.59500 -2.01400 24.67900
H  31.11400 3.59200 27.20900
H  29.83000 3.67100 28.40300
H  30.15700 2.10600 27.49300
H  31.77700 2.41200 33.26200
H  31.31300 6.36300 35.03900
H  33.05700 6.01000 34.98000
H  32.05000 5.27000 36.19000

