158

Mg 26.37600 0.16900 29.40100
C  28.21800 -0.54600 32.32900
C  23.69500 0.69000 31.18900
C  24.84000 0.96800 26.51900
C  29.24100 -0.79400 27.53200
N  26.03500 -0.02800 31.54100
C  26.91800 -0.13000 32.53400
C  26.17500 0.10100 33.87900
C  24.67800 0.36800 33.52900
C  24.76000 0.21800 31.97900
C  23.72800 -0.63300 34.20300
C  26.90100 1.22200 34.77200
C  26.03000 1.60200 35.99000
H  26.79500 2.20700 37.19900
N  24.45300 0.74200 28.98300
C  23.41000 0.81600 29.83200
C  22.20900 1.13300 29.10200
C  22.54600 1.30600 27.74000
C  24.03400 1.05400 27.72000
C  20.90100 1.07900 29.86300
C  21.67700 1.55300 26.49000
O  22.16100 1.71700 25.35900
C  20.20700 1.47400 26.65000
N  26.99500 -0.01700 27.32500
C  26.12500 0.54800 26.38100
C  26.83500 0.62700 25.00600
C  28.28300 0.06000 25.30700
C  28.16000 -0.34500 26.80900
C  26.12700 -0.25500 23.86000
C  29.37200 1.04100 25.01300
C  30.81600 0.51500 24.64700
N  28.33400 -0.67600 29.77100
C  29.29900 -1.00600 28.89500
C  30.47900 -1.51000 29.61900
C  30.15500 -1.30000 31.03000
C  28.80000 -0.76500 31.02900
C  31.81600 -1.91800 29.08700
C  30.59400 -1.36500 32.42700
O  31.69300 -1.58500 32.92600
C  29.35400 -0.87300 33.29300
C  29.01900 -1.84000 34.28800
O  28.32300 -2.83300 34.12900
O  29.67100 -1.49500 35.42800
C  29.84100 -2.55900 36.47900
H  22.83900 0.99100 31.79700
H  24.50400 1.53600 25.65000
H  30.15700 -1.00700 26.97600
H  26.37500 -0.80800 34.44600
H  24.35000 1.38100 33.76100
H  23.97900 -0.67500 35.26300
H  23.76100 -1.65700 33.83300
H  22.70100 -0.29400 34.06900
H  27.19500 2.11200 34.21600
H  27.82400 0.80900 35.18100
H  25.38800 0.78200 36.31200
H  25.41600 2.37900 35.53500
H  20.25200 0.35000 29.37700
H  20.54300 2.10800 29.85000
H  20.97200 0.78700 30.91100
H  19.90600 0.55400 27.15100
H  19.75900 1.51600 25.65800
H  19.80000 2.34400 27.16600
H  26.81900 1.64400 24.61400
H  28.46400 -0.83900 24.71700
H  25.82600 -1.20800 24.29400
H  26.91000 -0.50100 23.14200
H  25.30700 0.30700 23.41200
H  29.40700 1.74800 25.84200
H  28.99500 1.59800 24.15500
H  31.14800 1.23000 23.89400
H  30.79800 -0.54100 24.38100
H  31.46900 0.53700 25.51900
H  32.05700 -1.20000 28.30200
H  31.95500 -2.93000 28.70800
H  32.52900 -1.55200 29.82500
H  29.72900 -0.02900 33.87200
H  30.66500 -3.10600 36.02100
H  28.96100 -3.19500 36.57600
H  30.21800 -2.17100 37.42400
Mg 8.23300 47.70300 26.11800
C  5.93300 47.61000 28.79200
C  10.68200 48.44200 28.37500
C  10.37200 48.45900 23.56800
C  5.51600 47.85100 23.92600
N  8.25800 48.11600 28.39300
C  7.22900 47.96900 29.28700
C  7.77600 48.11600 30.71900
C  9.29800 48.69900 30.53500
C  9.45400 48.47500 29.02500
C  9.52900 50.23600 31.00500
C  7.56300 46.93300 31.74300
C  8.69600 46.66100 32.82300
H  8.18700 45.95200 34.10800
N  10.28900 48.08100 25.98300
C  11.08300 48.29900 27.03100
C  12.50200 48.32500 26.51100
C  12.41300 48.22500 25.05400
C  10.97500 48.29700 24.82000
C  13.71400 48.61500 27.35300
C  13.47100 48.13000 23.98500
O  13.33500 48.20300 22.71400
C  14.89200 48.02400 24.46100
N  7.98300 48.25700 24.07600
C  9.04200 48.46100 23.28400
C  8.59400 48.53200 21.88400
C  7.03900 48.30200 21.93700
C  6.79800 48.04300 23.39000
C  9.08700 49.78200 21.18000
C  6.50900 47.25700 20.93500
C  6.53100 47.64200 19.49600
N  6.07500 47.77200 26.30100
C  5.16700 47.71200 25.29200
C  3.88900 47.51400 25.91200
C  4.14000 47.47200 27.31100
C  5.49900 47.63600 27.47100
C  2.62500 47.45200 25.18500
C  3.48600 47.25700 28.56400
O  2.28900 46.99300 28.91900
C  4.65500 47.47900 29.66700
C  4.69100 46.26900 30.43800
O  5.09100 45.15800 30.12700
O  4.25600 46.66700 31.66200
C  4.22100 45.54100 32.68900
H  11.44100 48.76900 29.08800
H  11.04500 48.79900 22.77800
H  4.72600 47.91100 23.17500
H  7.11300 48.91100 31.05800
H  10.15400 48.11500 30.87300
H  8.64900 50.61400 31.52500
H  9.77200 50.75800 30.07900
H  10.45100 50.23900 31.58600
H  7.38000 46.00000 31.20900
H  6.63900 47.05600 32.30800
H  9.34600 47.52600 32.95400
H  9.30800 45.86400 32.40000
H  14.24400 49.51800 27.05100
H  14.40300 47.77100 27.31500
H  13.53100 48.76300 28.41700
H  15.52100 47.80200 23.59900
H  14.96900 47.21700 25.18900
H  15.18700 49.00800 24.82400
H  9.03500 47.65400 21.41400
H  6.60300 49.25800 21.64600
H  8.24600 50.22800 20.64900
H  9.85600 49.48800 20.46600
H  9.63000 50.47500 21.82400
H  5.54100 46.88300 21.27100
H  7.21100 46.44200 21.11200
H  7.39000 47.21700 18.97700
H  6.62700 48.72300 19.39600
H  5.58900 47.38100 19.01400
H  2.23400 48.46600 25.27100
H  2.01800 46.66500 25.63100
H  2.72000 47.32600 24.10600
H  4.41500 48.38400 30.22300
H  4.76400 45.95700 33.53800
H  4.67500 44.60500 32.36400
H  3.18500 45.31400 32.94100

