158

Mg 41.03200 7.83100 28.92200
C  42.80500 9.44400 31.35700
C  38.85500 6.61800 31.22000
C  39.41500 6.27300 26.38100
C  43.46100 8.85600 26.63300
N  41.02700 7.79000 31.13700
C  41.77000 8.64600 31.84700
C  41.20000 8.62200 33.34200
C  40.02300 7.58300 33.32200
C  39.98900 7.24700 31.81100
C  40.30400 6.27200 34.18000
C  40.80100 10.02000 33.81500
C  40.24200 10.12100 35.19500
H  41.01700 10.69100 36.41100
N  39.40300 6.70100 28.80500
C  38.60400 6.31300 29.81400
C  37.42900 5.65900 29.29200
C  37.53300 5.65500 27.88800
C  38.77400 6.27700 27.61300
C  36.26900 5.11800 30.16900
C  36.59000 5.07100 26.88000
O  36.87200 5.03200 25.66200
C  35.20800 4.64000 27.24200
N  41.50100 7.36600 26.81300
C  40.68400 6.73800 26.05000
C  41.30300 6.61900 24.65500
C  42.27700 7.73700 24.63800
C  42.46900 7.99600 26.15600
C  41.90900 5.19700 24.28500
C  41.79200 9.07300 23.92100
C  40.61000 9.84700 24.67600
N  42.88300 8.86000 28.95200
C  43.71900 9.32700 27.96700
C  44.70600 10.25200 28.52900
C  44.39500 10.30600 29.89700
C  43.27700 9.45600 30.07500
C  45.99700 10.75200 27.83400
C  44.87100 10.77300 31.15300
O  45.91800 11.32000 31.42800
C  43.77200 10.36000 32.15300
C  44.44000 9.59700 33.19100
O  45.13200 8.59500 33.12400
O  44.28700 10.27900 34.44200
C  45.21000 9.81900 35.49200
H  38.02800 6.24800 31.83000
H  39.04200 5.71900 25.51700
H  44.17700 9.23200 25.89900
H  41.97700 8.37300 34.06400
H  39.13500 8.10000 33.68600
H  41.32400 6.30400 34.56400
H  40.15800 5.34700 33.62200
H  39.61100 6.12300 35.00800
H  39.96300 10.41000 33.23700
H  41.62200 10.73500 33.83100
H  40.07300 9.10300 35.54500
H  39.28200 10.63500 35.21900
H  36.40900 5.09300 31.24900
H  35.95200 4.20100 29.67200
H  35.53500 5.90700 30.00300
H  34.72500 5.34100 27.92400
H  35.23300 3.64400 27.68400
H  34.72300 4.59600 26.26700
H  40.49200 6.85400 23.96600
H  43.26400 7.51200 24.23500
H  42.87400 5.30800 23.79100
H  41.35000 4.57100 23.58900
H  42.03300 4.67500 25.23300
H  41.44800 8.79800 22.92400
H  42.67600 9.70000 23.80600
H  40.95100 10.87000 24.83800
H  40.16100 9.30500 25.50800
H  39.77600 10.10600 24.02300
H  46.38600 11.74100 28.07600
H  45.77800 10.73900 26.76600
H  46.81400 10.04400 27.97500
H  43.30900 11.24800 32.58300
H  45.13700 10.45300 36.37600
H  46.25800 9.98300 35.23900
H  44.93100 8.83000 35.85700
Mg 7.32200 57.15200 42.09400
C  5.54000 54.10800 41.73400
C  10.00800 55.62700 40.71800
C  8.57400 60.30000 41.59500
C  4.21400 58.73100 43.06500
N  7.63400 55.10000 41.26400
C  6.79300 54.03600 41.14800
C  7.44500 52.84000 40.51900
C  9.02100 53.23600 40.71000
C  8.87800 54.73100 40.78600
C  9.72500 52.64200 41.99600
C  7.00200 52.74900 39.07100
C  7.38300 51.48900 38.32500
H  6.43000 50.94300 37.32300
N  8.99000 57.82900 41.30700
C  9.98700 57.06500 40.83900
C  11.15200 57.87100 40.43900
C  10.75600 59.26000 40.54600
C  9.38600 59.20700 41.16900
C  12.50700 57.33300 40.06500
C  11.64400 60.42100 40.24900
O  12.71500 60.20900 39.67300
C  11.20600 61.78200 40.55900
N  6.49600 59.27300 42.48600
C  7.25600 60.29700 42.11900
C  6.39100 61.59400 42.27500
C  5.01700 61.09000 42.75100
C  5.24200 59.60700 42.84200
C  7.06900 62.58700 43.20800
C  3.72100 61.44300 41.89800
C  2.80900 62.45700 42.52000
N  5.29000 56.59000 42.40600
C  4.19900 57.28800 42.85800
C  3.04600 56.37000 43.00600
C  3.54600 55.11900 42.61100
C  4.89300 55.29700 42.20400
C  1.64700 56.55900 43.58400
C  3.16300 53.70300 42.51100
O  2.19600 53.05800 42.81700
C  4.50100 53.01100 41.93800
C  3.98600 52.42000 40.65300
O  3.56200 53.06600 39.67000
O  4.01800 51.08900 40.72400
C  3.12900 50.40100 39.81400
H  10.93700 55.09800 40.49400
H  8.91800 61.28200 41.26300
H  3.28000 59.11600 43.47900
H  7.26100 51.90300 41.04500
H  9.61100 52.89800 39.85800
H  8.98300 52.08000 42.56300
H  10.14900 53.37300 42.68600
H  10.45900 51.89100 41.70400
H  7.57300 53.51100 38.54100
H  5.92100 52.87200 38.99600
H  7.64600 50.67700 39.00300
H  8.25400 51.68900 37.70100
H  12.66100 56.36100 40.53400
H  13.22000 58.04100 40.48700
H  12.60400 57.25900 38.98200
H  11.03500 61.78700 41.63600
H  10.32200 62.07600 39.99400
H  12.05700 62.42700 40.34000
H  6.25900 62.14100 41.34100
H  4.99600 61.40400 43.79400
H  8.04000 62.86400 42.79600
H  7.30700 62.05500 44.12900
H  6.49800 63.50700 43.33700
H  3.26100 60.49700 41.61300
H  4.15900 61.92600 41.02500
H  2.18900 61.90900 43.23000
H  2.34400 63.03200 41.71900
H  3.40100 63.16600 43.09800
H  0.86200 56.27100 42.88500
H  1.58000 57.56700 43.99500
H  1.48700 55.94100 44.46700
H  4.83100 52.22600 42.61800
H  2.09400 50.59600 40.09600
H  3.28100 49.32200 39.84800
H  3.27500 50.61000 38.75400

