158

Mg 44.84200 3.72400 46.84400
C  42.90100 6.60500 46.41300
C  42.17300 1.82300 46.00900
C  47.01500 0.99400 46.45400
C  47.71400 5.88000 46.83300
N  42.76700 4.20700 46.34700
C  42.17400 5.46400 46.25100
C  40.70800 5.37900 45.84500
C  40.42100 3.78400 46.02100
C  41.85900 3.21500 46.22200
C  39.44700 3.43200 47.24600
C  40.51000 5.82100 44.35300
C  39.47200 6.87700 44.27600
H  39.63700 7.95200 43.16700
N  44.59300 1.59800 46.35400
C  43.35800 1.03600 46.07500
C  43.60600 -0.36600 45.87400
C  44.98200 -0.63700 46.20600
C  45.60700 0.68400 46.33800
C  42.55200 -1.27600 45.35900
C  45.58400 -2.03300 46.35100
O  44.83700 -3.00700 46.25500
C  46.94900 -2.24300 46.78800
N  47.01400 3.43200 46.66300
C  47.59200 2.21200 46.61600
C  49.12400 2.31200 46.81500
C  49.33700 3.89100 46.81000
C  47.91800 4.47400 46.69200
C  49.68600 1.48900 48.02900
C  50.32600 4.28100 45.69700
C  51.55500 5.15800 46.04100
N  45.23900 5.78900 46.78300
C  46.44000 6.49600 46.80400
C  46.18100 7.94800 46.79300
C  44.76200 8.04800 46.78000
C  44.28400 6.70300 46.72400
C  47.12400 9.00200 46.46900
C  43.62200 8.90500 46.65700
O  43.59500 10.09600 46.69900
C  42.38000 8.02000 46.37000
C  41.39300 8.28700 47.45200
O  41.44600 7.85000 48.60800
O  40.31400 8.94500 46.93500
C  39.17900 9.19300 47.79200
H  41.26700 1.24000 45.83100
H  47.72500 0.16500 46.44400
H  48.46000 6.66500 46.97300
H  39.99400 5.82900 46.53500
H  39.96400 3.30100 45.15700
H  39.86300 2.77900 48.01400
H  38.59900 2.94300 46.76700
H  39.04000 4.35300 47.66200
H  40.07700 4.96200 43.84000
H  41.46100 6.15000 43.93500
H  39.47900 7.38500 45.24100
H  38.50200 6.40600 44.11300
H  42.68500 -1.73300 44.37900
H  41.55700 -0.83700 45.42300
H  42.50800 -2.03900 46.13700
H  46.97700 -3.27300 47.14400
H  47.17100 -1.56000 47.60700
H  47.51100 -2.11700 45.86200
H  49.61500 1.97800 45.90100
H  49.76700 4.21500 47.75800
H  50.09000 0.55400 47.64200
H  48.73200 1.42600 48.55200
H  50.43700 2.13100 48.49100
H  49.74200 4.82000 44.95100
H  50.86300 3.42800 45.28100
H  51.99700 4.95500 47.01700
H  51.39300 6.22000 45.86100
H  52.34400 4.79200 45.38400
H  46.87600 9.89000 47.05100
H  46.91400 9.20400 45.41900
H  48.14000 8.67500 46.69100
H  41.92600 8.40700 45.45700
H  39.13500 10.28100 47.73600
H  39.32000 8.92600 48.83900
H  38.30700 8.66500 47.40500
Mg 35.56100 2.11000 29.31400
C  33.21900 3.41900 31.61700
C  37.85800 2.03400 31.78700
C  37.92800 1.21000 27.03100
C  33.18400 2.43800 26.87300
N  35.55500 2.70600 31.45700
C  34.45100 3.08300 32.18300
C  34.75500 3.01600 33.65200
C  36.33900 2.94900 33.70800
C  36.62500 2.44500 32.25900
C  37.09600 4.26600 34.07900
C  33.97900 1.84500 34.35900
C  33.87800 1.88200 35.86200
H  34.38100 3.20100 36.51100
N  37.56200 1.59200 29.41500
C  38.33500 1.65500 30.50300
C  39.72100 1.33600 30.23400
C  39.64800 0.89200 28.89200
C  38.26700 1.21300 28.38600
C  40.85800 1.50800 31.21500
C  40.79400 0.31000 28.07300
O  40.75600 -0.06000 26.91900
C  42.03800 0.02500 28.80000
N  35.62300 1.85200 27.20000
C  36.65700 1.49800 26.48800
C  36.30300 1.44400 24.97500
C  34.73100 1.64300 24.99400
C  34.46200 1.93200 26.47900
C  37.17700 2.41500 24.10600
C  33.96400 0.43200 24.32400
C  33.41600 -0.69300 25.16700
N  33.58300 2.79700 29.20500
C  32.76800 2.95300 28.10100
C  31.47400 3.48700 28.49000
C  31.58200 3.70600 29.87600
C  32.89500 3.26400 30.25100
C  30.16900 3.65200 27.72300
C  30.92900 4.17000 31.05900
O  29.86000 4.70500 31.17600
C  31.89800 3.84900 32.27800
C  31.99200 5.08300 33.06900
O  32.50100 6.11500 32.65400
O  31.41200 4.98300 34.33300
C  31.36100 6.18700 35.16000
H  38.61000 2.20200 32.56100
H  38.69600 0.88400 26.32600
H  32.35800 2.38400 26.16000
H  34.42300 3.92700 34.15000
H  36.71000 2.21900 34.42700
H  37.82200 4.05000 34.86200
H  36.38800 4.95700 34.53700
H  37.66600 4.66200 33.23800
H  34.52300 0.92500 34.14600
H  33.00000 1.74200 33.89200
H  34.51200 1.08500 36.25000
H  32.87800 1.55600 36.14600
H  41.02400 0.55300 31.71500
H  40.48500 2.15500 32.00900
H  41.70700 2.07300 30.82900
H  42.69300 0.89500 28.84500
H  42.43100 -0.77300 28.16900
H  41.79400 -0.37100 29.78500
H  36.64600 0.47200 24.62200
H  34.38700 2.52900 24.46000
H  36.60800 3.17200 23.56600
H  37.79400 1.78600 23.46400
H  37.85000 2.97700 24.75300
H  34.53200 0.03500 23.48300
H  33.08000 0.92200 23.91700
H  33.62500 -1.62700 24.64700
H  32.32700 -0.65600 25.16700
H  33.80700 -0.64500 26.18400
H  29.84500 2.66500 27.39500
H  30.21900 4.31100 26.85500
H  29.42300 4.14200 28.35000
H  31.52100 3.00300 32.85300
H  31.96200 7.03800 34.84100
H  31.74100 5.77100 36.09200
H  30.30900 6.44600 35.28600

