158

Mg 26.95000 50.42500 26.17800
C  24.96700 51.38100 28.93000
C  29.20500 49.28000 28.43600
C  28.85100 49.90200 23.62200
C  24.38600 51.79900 24.10800
N  26.89200 50.10600 28.41700
C  26.02600 50.65100 29.33600
C  26.50900 50.43800 30.78200
C  27.98100 49.88400 30.56500
C  28.06700 49.64500 29.08100
C  29.16000 50.65000 31.17700
C  25.49000 49.43000 31.56000
C  24.96800 49.85900 32.92200
H  25.88400 50.27500 34.09500
N  28.76200 49.70500 26.04400
C  29.62800 49.32800 27.05300
C  30.91900 48.88200 26.50500
C  30.72600 48.93800 25.11700
C  29.41400 49.53600 24.85900
C  32.14200 48.39100 27.41800
C  31.61700 48.47800 24.00200
O  31.38400 48.48300 22.82000
C  32.99200 48.04800 24.43800
N  26.78400 51.08200 24.24100
C  27.68500 50.59300 23.33900
C  27.23300 50.90700 21.88800
C  25.74400 51.21200 22.09000
C  25.59500 51.30500 23.60000
C  28.04900 52.00500 21.31500
C  24.63900 50.29100 21.45600
C  23.50700 50.99700 20.62400
N  25.06100 51.39500 26.41500
C  24.14800 51.89500 25.46700
C  23.01900 52.45600 26.14600
C  23.26400 52.31200 27.50700
C  24.56300 51.68400 27.62300
C  21.79200 53.10000 25.55900
C  22.79700 52.63700 28.89800
O  21.77700 53.12600 29.30400
C  23.81800 51.95000 29.83100
C  24.22100 53.01400 30.77400
O  25.14800 53.82000 30.56400
O  23.41600 53.06100 31.85000
C  23.74900 54.02100 32.91600
H  30.03100 48.98800 29.08800
H  29.48000 49.73700 22.74500
H  23.52400 51.97400 23.46000
H  26.61100 51.36900 31.33900
H  28.00200 48.93500 31.10100
H  29.76900 51.01500 30.35000
H  29.75600 50.02000 31.83800
H  28.82300 51.50600 31.76200
H  25.76200 48.37400 31.57100
H  24.62100 49.51100 30.90700
H  24.38800 48.97700 33.19300
H  24.20100 50.61900 32.77500
H  31.76800 48.21700 28.42800
H  32.76400 49.28200 27.33600
H  32.71600 47.53600 27.06100
H  32.93300 47.04100 24.85100
H  33.34800 48.79500 25.14700
H  33.63200 47.88200 23.57000
H  27.53200 49.98900 21.38200
H  25.51200 52.24000 21.81200
H  28.76300 52.39200 22.04200
H  27.35100 52.81900 21.11800
H  28.59100 51.60400 20.45900
H  24.21600 49.53200 22.11300
H  25.22400 49.68900 20.76100
H  23.72800 52.05300 20.47000
H  22.51200 50.88700 21.05700
H  23.68800 50.56400 19.64100
H  20.96800 53.09700 26.27300
H  21.53200 52.54800 24.65600
H  21.96400 54.14000 25.28300
H  23.30200 51.11000 30.29500
H  24.15400 53.52100 33.79600
H  22.86300 54.56400 33.24200
H  24.53300 54.69600 32.57500
Mg -4.85700 25.32300 26.17400
C  -3.68500 26.62500 29.03200
C  -6.93000 23.26000 28.17500
C  -5.70100 23.73500 23.43600
C  -2.38700 27.08300 24.27800
N  -5.06500 24.78000 28.37200
C  -4.56700 25.63300 29.35000
C  -5.19500 25.36100 30.69400
C  -5.94200 23.94900 30.44500
C  -5.98100 23.91400 28.93300
C  -5.27200 22.67200 30.98800
C  -6.17800 26.48800 31.24300
C  -6.20400 26.69600 32.78400
H  -5.72800 25.61700 33.75400
N  -6.15000 23.79900 25.84300
C  -7.02500 23.09900 26.74600
C  -7.91900 22.19000 25.99300
C  -7.56300 22.30900 24.61200
C  -6.42300 23.35400 24.60200
C  -8.86300 21.38100 26.68000
C  -8.16000 21.54900 23.42100
O  -7.81700 21.82400 22.21900
C  -9.25700 20.49000 23.69200
N  -4.20700 25.46900 24.15400
C  -4.76400 24.69000 23.20900
C  -4.15900 25.01800 21.77300
C  -3.16700 26.13600 22.07800
C  -3.26000 26.24400 23.58800
C  -3.56900 23.74800 21.04900
C  -3.47200 27.44500 21.28000
C  -2.50000 27.79600 20.16800
N  -3.38100 26.62300 26.49300
C  -2.53000 27.37100 25.66500
C  -1.71500 28.29600 26.47600
C  -2.17000 28.10500 27.72100
C  -3.06800 26.97500 27.77000
C  -0.63400 29.21100 25.98600
C  -2.06300 28.50000 29.06700
O  -1.36200 29.34100 29.53800
C  -2.89600 27.49000 29.95300
C  -1.95900 26.67400 30.77400
O  -1.21500 25.75400 30.30300
O  -1.83700 27.27200 32.04200
C  -0.91900 26.77000 33.04200
H  -7.50900 22.58900 28.81100
H  -6.00800 23.22600 22.52000
H  -1.70200 27.64200 23.63700
H  -4.36400 25.22700 31.38600
H  -6.98400 23.94400 30.76500
H  -4.70600 22.18300 30.19500
H  -6.11100 22.05800 31.31300
H  -4.58800 22.92300 31.79800
H  -7.22300 26.33000 30.97500
H  -5.81700 27.45700 30.89800
H  -7.23800 26.98100 32.97800
H  -5.69800 27.64400 32.96800
H  -8.43900 20.37900 26.73100
H  -9.81700 21.50300 26.16700
H  -8.98200 21.66600 27.72500
H  -9.03600 19.74800 24.46000
H  -9.51500 19.95900 22.77600
H  -10.15600 21.01200 24.02200
H  -4.96100 25.30300 21.09200
H  -2.16700 25.84600 21.75500
H  -2.53700 23.89900 20.73200
H  -4.11300 23.41100 20.16600
H  -3.67200 22.94900 21.78300
H  -3.55700 28.23900 22.02200
H  -4.39600 27.42400 20.70200
H  -1.81700 28.54800 20.56300
H  -3.09000 28.17300 19.33300
H  -1.92600 26.96600 19.75400
H  -0.92100 29.34300 24.94300
H  0.36400 28.77300 26.01500
H  -0.70300 30.11500 26.59000
H  -3.56500 27.94600 30.68200
H  0.09800 27.13300 32.88800
H  -0.96200 25.68700 32.92600
H  -1.24700 27.05000 34.04300

