158

Mg 16.91500 -1.31800 27.47600
C  15.90500 0.79700 30.09900
C  18.93200 -2.93800 29.68200
C  18.12800 -3.13600 24.85600
C  15.13200 0.70400 25.28900
N  17.43200 -1.06300 29.65500
C  16.80200 -0.26500 30.50600
C  17.39300 -0.41700 31.96900
C  18.53900 -1.49400 31.76400
C  18.37900 -1.81300 30.26900
C  19.93900 -1.01200 32.11300
C  16.26100 -0.94100 32.97700
C  16.23200 -0.38500 34.33700
H  17.56400 0.08400 34.97700
N  18.25900 -2.86800 27.26900
C  18.97300 -3.39600 28.32400
C  19.61000 -4.60700 27.87600
C  19.27600 -4.77600 26.49500
C  18.53400 -3.57300 26.17700
C  20.49100 -5.47000 28.82200
C  19.74400 -5.83400 25.49200
O  19.44700 -5.79900 24.31500
C  20.60000 -7.08800 25.96000
N  16.70100 -1.18500 25.36300
C  17.28200 -2.09700 24.50700
C  17.19800 -1.54200 23.04200
C  16.06200 -0.40600 23.23600
C  15.87200 -0.28900 24.71900
C  18.53600 -1.08500 22.37900
C  14.68300 -0.67000 22.50700
C  13.96200 0.55100 21.79500
N  15.72300 0.38600 27.55800
C  15.00700 1.04700 26.63100
C  14.23800 2.16100 27.18100
C  14.52600 2.06300 28.59600
C  15.42500 0.97000 28.76700
C  13.47100 3.14400 26.36400
C  14.35300 2.70300 29.85600
O  13.71400 3.69100 30.23700
C  15.13100 1.84400 30.92900
C  15.92000 2.81000 31.66500
O  16.90300 3.35200 31.20700
O  15.50000 3.00500 32.93000
C  16.22300 3.80400 33.98100
H  19.60400 -3.42300 30.39400
H  18.56200 -3.66200 24.00200
H  14.63000 1.40600 24.62000
H  17.84600 0.53000 32.26300
H  18.34900 -2.34400 32.41900
H  19.98500 0.04200 32.38400
H  20.69200 -1.28000 31.37200
H  20.26900 -1.61400 32.96000
H  16.40900 -2.01300 33.10800
H  15.28700 -0.89900 32.49000
H  15.85800 -1.13600 35.03300
H  15.51100 0.43100 34.29500
H  20.06100 -6.46200 28.96600
H  20.81100 -4.91000 29.70100
H  21.36000 -5.66100 28.19200
H  21.57800 -6.64900 26.15900
H  20.77700 -7.78700 25.14200
H  20.25800 -7.63500 26.83800
H  16.83500 -2.36300 22.42400
H  16.29900 0.57400 22.82100
H  18.46800 -0.09200 21.93300
H  18.82500 -1.77000 21.58200
H  19.26600 -0.95400 23.17800
H  13.94300 -1.14700 23.15000
H  15.08200 -1.38000 21.78300
H  13.40600 0.23700 20.91100
H  14.63100 1.37300 21.54000
H  13.13700 0.91700 22.40500
H  13.69100 3.14100 25.29700
H  13.95500 4.07700 26.65400
H  12.39500 3.16800 26.53500
H  14.24000 1.54800 31.48300
H  17.06500 4.35100 33.55600
H  16.47500 3.16700 34.82900
H  15.55800 4.52000 34.46400
Mg -0.62700 43.86900 26.27500
C  1.85500 43.32200 28.58000
C  -2.91400 43.59000 28.75900
C  -3.07100 43.79600 24.01500
C  1.75300 43.42900 23.74400
N  -0.52500 43.40700 28.32700
C  0.59000 43.30500 29.13200
C  0.25800 43.39000 30.63000
C  -1.18500 42.78300 30.51800
C  -1.59500 43.20700 29.11000
C  -1.22800 41.19300 30.75600
C  0.34400 44.85000 31.21500
C  0.41000 44.93100 32.75000
H  0.13600 43.62900 33.63000
N  -2.74100 44.02300 26.40800
C  -3.50800 43.94600 27.58500
C  -4.86100 44.19000 27.28500
C  -4.95700 44.25600 25.84300
C  -3.57100 44.03200 25.30000
C  -5.79200 44.50900 28.40200
C  -6.14900 44.41700 24.99200
O  -6.03200 44.55000 23.77900
C  -7.61200 44.35100 25.53700
N  -0.72800 43.54300 24.24400
C  -1.85500 43.57500 23.52700
C  -1.60700 43.46000 21.98400
C  -0.05800 43.62500 21.92000
C  0.37700 43.49400 23.36800
C  -2.16800 42.04900 21.35600
C  0.52400 44.94000 21.37800
C  0.08600 46.16000 22.24400
N  1.45000 43.42500 26.11700
C  2.27800 43.37600 25.01700
C  3.61000 43.38100 25.47800
C  3.47800 43.30200 26.91100
C  2.13400 43.35500 27.22400
C  4.84500 43.50400 24.64600
C  4.24700 43.23600 28.11600
O  5.44700 43.09800 28.34600
C  3.25900 43.34400 29.24000
C  3.50800 42.27000 30.20500
O  3.77300 41.12200 29.91400
O  3.30800 42.67100 31.46500
C  3.70600 41.71300 32.51000
H  -3.57800 43.51900 29.62300
H  -3.80500 43.87000 23.20900
H  2.47600 43.44700 22.92600
H  0.88400 42.68400 31.17700
H  -1.78500 43.31500 31.25600
H  -1.64200 40.56100 29.97000
H  -1.66100 41.09500 31.75100
H  -0.22300 40.77200 30.75400
H  -0.55700 45.43700 31.03700
H  1.17200 45.38000 30.74300
H  -0.47600 45.47500 33.07800
H  1.32700 45.38100 33.12800
H  -5.27600 45.17000 29.09800
H  -6.13900 43.65900 28.98900
H  -6.71600 45.00000 28.09700
H  -8.29500 44.16900 24.70700
H  -7.80600 45.18100 26.21700
H  -7.81200 43.43300 26.09000
H  -2.18400 44.22800 21.46900
H  0.29200 42.73600 21.39600
H  -3.10300 42.08400 20.79500
H  -2.15700 41.29900 22.14600
H  -1.43500 41.87100 20.56900
H  0.13500 45.05900 20.36700
H  1.59600 44.86500 21.19500
H  0.92300 46.45700 22.87600
H  -0.79900 45.94600 22.84400
H  -0.23400 46.88900 21.49900
H  4.96200 42.64200 23.98900
H  5.69600 43.64100 25.31200
H  4.85600 44.38800 24.00800
H  3.40400 44.32100 29.70100
H  4.79600 41.70000 32.50800
H  3.29300 40.71800 32.34300
H  3.58400 42.10100 33.52100

