158

Mg 48.92900 34.19100 27.02800
C  46.43800 33.00900 29.27900
C  49.42900 36.88200 28.98000
C  50.80200 35.47300 24.61100
C  47.96800 31.50500 24.92900
N  48.01900 34.83500 28.89100
C  47.14400 34.15900 29.71500
C  47.07400 34.81800 31.04400
C  47.76200 36.21900 30.73400
C  48.46200 35.98300 29.43400
C  46.85800 37.50300 30.63400
C  47.81500 33.91700 32.05400
C  47.48900 33.99300 33.54200
H  46.50900 34.94400 34.15600
N  50.11500 35.98200 26.82900
C  50.22200 36.92600 27.79900
C  51.19400 37.93900 27.42600
C  51.65000 37.53900 26.09000
C  50.82400 36.28700 25.74200
C  51.59500 39.11200 28.28100
C  52.80100 38.19000 25.17400
O  53.14100 37.65400 24.10700
C  53.58800 39.37800 25.72600
N  49.07400 33.65100 24.95000
C  50.13200 34.30800 24.28700
C  50.43000 33.63900 22.97600
C  49.68400 32.20100 23.15400
C  48.86800 32.42800 24.45600
C  49.72600 34.32700 21.69000
C  50.64600 30.94500 23.31100
C  52.14400 31.10400 22.99500
N  47.49500 32.55200 27.04200
C  47.18200 31.59100 26.12500
C  46.14900 30.67900 26.62800
C  45.79100 31.26400 27.80500
C  46.61000 32.35800 28.04300
C  45.53300 29.50500 25.86000
C  44.88200 31.13000 28.84900
O  44.01300 30.30900 29.06200
C  45.18300 32.30100 29.88400
C  45.48700 31.65200 31.14000
O  46.28600 30.74000 31.35100
O  44.60600 32.15100 31.99100
C  44.58200 31.53400 33.31000
H  49.62400 37.71300 29.66200
H  51.28700 35.92700 23.74400
H  47.75400 30.63200 24.30800
H  46.02700 34.77400 31.34500
H  48.48700 36.49400 31.50000
H  47.14700 38.20700 31.41500
H  45.87300 37.08700 30.84500
H  46.78700 37.98300 29.65800
H  48.87200 34.16700 31.95900
H  47.63300 32.86100 31.85400
H  48.40900 34.15400 34.10300
H  47.11000 33.00200 33.79200
H  50.87400 39.28500 29.08000
H  51.64200 40.08400 27.78900
H  52.56000 39.02700 28.78000
H  52.95000 40.25400 25.85000
H  54.24600 39.82200 24.97900
H  54.18800 39.22300 26.62300
H  51.50400 33.72900 22.81800
H  48.96400 32.01300 22.35700
H  49.96300 33.74400 20.80000
H  50.21200 35.29900 21.61300
H  48.65000 34.39100 21.85600
H  50.17600 30.06600 22.87000
H  50.68900 30.71400 24.37600
H  52.74900 31.65100 23.71900
H  52.16400 31.46400 21.96700
H  52.48400 30.07300 23.09600
H  44.88400 28.92800 26.51900
H  46.39700 28.92000 25.54600
H  44.95000 29.88700 25.02200
H  44.42200 33.08100 29.91000
H  45.58000 31.59000 33.74300
H  44.33600 30.47400 33.24300
H  43.92600 32.07800 33.98900
Mg 42.03100 40.91300 26.96300
C  41.28900 43.10700 29.52200
C  43.26800 38.70600 29.33000
C  42.53000 38.55900 24.50000
C  41.10600 43.20400 24.61400
N  42.30100 40.99000 29.23700
C  41.82500 41.96200 30.07700
C  41.90000 41.57000 31.51800
C  42.74300 40.23600 31.51000
C  42.71200 39.91600 29.95400
C  44.15500 40.20900 32.10300
C  40.42500 41.46200 32.16800
C  40.29800 42.31300 33.43500
H  39.71100 41.57800 34.66300
N  42.81900 38.89400 26.87100
C  43.27200 38.17400 27.95000
C  43.51700 36.80800 27.53200
C  43.19000 36.71200 26.14600
C  42.78000 38.08600 25.78600
C  43.95500 35.74600 28.44600
C  43.16100 35.47800 25.07500
O  42.85600 35.60100 23.86100
C  43.68300 34.15900 25.55700
N  41.98900 40.92800 24.83900
C  42.10800 39.90000 23.98700
C  41.73400 40.17100 22.56000
C  41.39600 41.66600 22.63900
C  41.46800 41.98600 24.14700
C  42.73500 39.81100 21.48600
C  39.98700 42.00300 22.16500
C  39.92200 43.30000 21.42000
N  41.40500 42.85400 27.04100
C  41.01300 43.63400 26.00000
C  40.45900 44.88700 26.51500
C  40.51300 44.70500 27.91300
C  41.13900 43.45900 28.17900
C  39.99200 46.06500 25.77700
C  40.15000 45.29500 29.22000
O  39.56000 46.35700 29.47300
C  40.75300 44.31300 30.27400
C  41.75300 45.05000 31.13200
O  42.98600 45.14000 31.00100
O  41.15100 45.51600 32.27500
C  41.96400 46.06500 33.34300
H  43.54800 38.02200 30.13400
H  42.58900 37.94200 23.60100
H  40.63900 43.85100 23.86900
H  42.44600 42.34100 32.06100
H  42.18400 39.49500 32.08000
H  44.40400 41.06700 32.72800
H  44.77600 40.12900 31.21000
H  44.14700 39.23800 32.59700
H  40.26700 40.41100 32.40700
H  39.71000 41.75700 31.39900
H  39.64200 43.18300 33.39500
H  41.24700 42.78300 33.69700
H  44.92300 35.38400 28.10000
H  43.28100 34.89400 28.36500
H  44.02000 35.98800 29.50700
H  44.74100 34.11700 25.81400
H  43.57800 33.39800 24.78400
H  43.06600 33.77400 26.36900
H  40.84600 39.57000 22.36400
H  42.18400 42.16100 22.07200
H  42.94800 40.68700 20.87300
H  42.27600 38.99900 20.92200
H  43.64400 39.37900 21.90400
H  39.32800 41.98700 23.03200
H  39.58100 41.19200 21.56000
H  39.50100 43.03400 20.45100
H  40.93800 43.68700 21.33700
H  39.36800 44.11400 21.88900
H  40.74800 46.83900 25.64200
H  39.20700 46.56500 26.34300
H  39.60700 45.84900 24.78000
H  40.05400 43.76100 30.90300
H  42.56500 45.24300 33.73200
H  41.38000 46.57600 34.10800
H  42.59700 46.87000 32.96800

