158

Mg 23.46100 -5.13200 45.74000
C  25.61300 -2.72200 44.21700
C  20.83600 -3.82700 43.84700
C  21.71500 -7.70900 46.67900
C  26.31400 -6.38800 47.38800
N  23.31800 -3.54700 44.15100
C  24.28600 -2.67400 43.75400
C  23.68300 -1.55400 42.84800
C  22.15200 -1.75000 43.04800
C  22.05700 -3.13800 43.67300
C  21.39800 -0.73700 43.98400
C  24.09000 -1.73500 41.34200
C  24.77900 -0.62500 40.58700
H  25.42000 -0.96300 39.21800
N  21.50800 -5.75500 45.21900
C  20.59400 -5.08100 44.51100
C  19.34300 -5.79800 44.65900
C  19.56100 -6.99600 45.36100
C  20.99300 -6.86000 45.79400
C  18.16700 -5.26700 44.07800
C  18.59900 -8.14100 45.54000
O  17.49000 -8.01300 45.07600
C  18.94400 -9.50100 46.17800
N  24.03600 -6.93500 46.78600
C  23.09000 -7.82500 47.02800
C  23.71200 -8.97100 47.85200
C  25.04500 -8.42300 48.36900
C  25.14400 -7.15500 47.46200
C  22.75900 -9.52600 48.91900
C  26.21600 -9.49600 48.23900
C  27.43600 -9.46300 49.19300
N  25.58900 -4.71800 45.86300
C  26.66000 -5.32200 46.52200
C  27.83700 -4.57100 46.30600
C  27.47900 -3.54100 45.46300
C  26.07200 -3.68700 45.11900
C  29.21800 -4.89800 46.88700
C  28.03100 -2.34800 44.75200
O  29.13500 -1.83200 44.63000
C  26.74500 -1.76100 43.94500
C  26.53000 -0.28400 44.20200
O  25.46400 0.22600 44.67200
O  27.59000 0.41700 43.73600
C  27.57300 1.89200 43.68500
H  19.92700 -3.35200 43.47400
H  21.15400 -8.62400 46.88100
H  27.15300 -6.68100 48.02300
H  24.03500 -0.54100 43.04200
H  21.60200 -1.83200 42.11100
H  22.16100 -0.16100 44.50800
H  20.69800 -1.26600 44.63200
H  20.80400 -0.18300 43.25700
H  23.30100 -2.14000 40.70700
H  24.76200 -2.59000 41.27200
H  25.49000 -0.08800 41.21500
H  23.99300 0.11100 40.41700
H  18.09200 -5.65200 43.06100
H  18.14500 -4.17800 44.03200
H  17.31200 -5.73300 44.56700
H  19.89800 -9.85400 45.78500
H  18.24000 -10.29500 45.92800
H  19.10300 -9.42400 47.25300
H  23.99800 -9.75800 47.15400
H  24.94600 -8.06300 49.39300
H  21.70000 -9.28200 49.00600
H  23.15200 -9.39700 49.92800
H  22.72500 -10.60800 48.79000
H  26.59000 -9.33600 47.22700
H  25.72600 -10.46900 48.23000
H  28.28700 -9.00700 48.68600
H  27.81300 -10.47600 49.33900
H  27.20800 -9.12900 50.20500
H  29.42300 -5.96600 46.96200
H  29.12500 -4.62200 47.93700
H  30.01500 -4.38600 46.34900
H  26.80100 -1.75400 42.85700
H  27.83000 2.23200 44.68800
H  26.61600 2.19600 43.26100
H  28.38600 2.13300 43.00000
Mg -12.26100 15.66900 41.64000
C  -9.17800 13.92600 41.46200
C  -10.70000 18.42700 40.35900
C  -15.35900 17.04700 40.96200
C  -13.81000 12.62000 42.34900
N  -10.16200 16.03600 40.83900
C  -9.09700 15.27600 41.04900
C  -7.87900 15.96400 40.54800
C  -8.40600 17.46500 40.43900
C  -9.80500 17.33400 40.63600
C  -7.75200 18.45900 41.37700
C  -7.24500 15.33200 39.29000
C  -5.71500 15.56800 39.15400
H  -5.17500 16.26800 37.90300
N  -12.96600 17.52500 40.91800
C  -12.07100 18.51900 40.54600
C  -12.86900 19.68300 40.27000
C  -14.24000 19.35800 40.52700
C  -14.27100 17.92200 40.85500
C  -12.29700 21.05600 39.90000
C  -15.40900 20.29300 40.31200
O  -15.16900 21.43300 39.97000
C  -16.83400 19.95300 40.68000
N  -14.30300 14.85900 41.41300
C  -15.39900 15.65000 41.29600
C  -16.70900 14.85700 41.41000
C  -16.17900 13.49400 41.90600
C  -14.66600 13.61200 41.84400
C  -17.84500 15.46100 42.26000
C  -16.73600 12.24300 41.11600
C  -17.19800 11.15100 42.05000
N  -11.69900 13.69500 41.92800
C  -12.40600 12.61600 42.36400
C  -11.53000 11.46300 42.62000
C  -10.24100 12.00800 42.34100
C  -10.42500 13.30900 41.89100
C  -12.00700 10.18200 43.21900
C  -8.83800 11.66700 42.31600
O  -8.21900 10.64900 42.59500
C  -8.11000 12.89700 41.73900
C  -7.06500 13.24100 42.71800
O  -7.24800 13.47800 43.90800
O  -5.89500 13.49300 42.09000
C  -4.91100 14.31000 42.88000
H  -10.26000 19.38100 40.06500
H  -16.30500 17.55900 40.77600
H  -14.27500 11.69300 42.69100
H  -7.07900 16.01500 41.28600
H  -8.20300 17.90600 39.46300
H  -6.75100 18.16500 41.69100
H  -8.31100 18.62100 42.29900
H  -7.55200 19.35200 40.78500
H  -7.75100 15.82600 38.46100
H  -7.41500 14.25500 39.31100
H  -5.23200 14.59400 39.22400
H  -5.48000 16.04500 40.10500
H  -11.35600 21.12600 39.35500
H  -12.19900 21.57100 40.85500
H  -12.94500 21.67100 39.27500
H  -17.23800 19.22100 39.98000
H  -17.54400 20.74900 40.45400
H  -16.84100 19.69100 41.73800
H  -17.15300 14.69100 40.42800
H  -16.36500 13.46200 42.97900
H  -18.51400 16.02700 41.61100
H  -17.40600 16.14100 42.98900
H  -18.32900 14.63400 42.77900
H  -16.07200 11.74200 40.41200
H  -17.64100 12.65100 40.66500
H  -16.48700 10.33000 41.96800
H  -18.21400 10.76200 41.98700
H  -17.21400 11.43800 43.10100
H  -12.89700 9.83400 42.69600
H  -12.17400 10.39500 44.27500
H  -11.23600 9.41200 43.19800
H  -7.48000 12.52500 40.93100
H  -5.36100 15.21400 43.29200
H  -4.17300 14.76400 42.21900
H  -4.42800 13.69000 43.63600

