158

Mg 48.31200 35.56800 28.21400
C  46.31900 34.14100 30.79500
C  48.83100 38.19000 30.08600
C  49.73300 37.05100 25.53200
C  47.44500 32.80400 26.17000
N  47.87200 35.96000 30.21100
C  47.07700 35.31300 31.13900
C  47.09000 35.96600 32.52700
C  47.49300 37.44300 32.15600
C  48.06600 37.17100 30.67100
C  46.33600 38.44100 32.10300
C  48.08700 35.32400 33.52500
C  47.65900 35.20300 34.97900
H  48.53800 35.84000 36.10700
N  49.26900 37.41700 27.85800
C  49.41200 38.37100 28.84300
C  50.11200 39.48400 28.26600
C  50.45100 39.09000 26.89500
C  49.72500 37.83000 26.69900
C  50.38600 40.78400 28.95300
C  51.26600 39.93900 25.82900
O  51.38800 39.63200 24.67300
C  51.91700 41.26700 26.17000
N  48.66700 34.95500 26.10200
C  49.31900 35.73800 25.24700
C  49.50200 35.01600 23.87900
C  48.95900 33.59800 24.25000
C  48.22300 33.79100 25.54900
C  48.79800 35.72200 22.63700
C  50.01500 32.49000 24.38500
C  50.15800 31.29700 23.39100
N  47.09500 33.77900 28.34400
C  46.79700 32.83000 27.45000
C  45.97400 31.74800 28.13400
C  45.71400 32.29400 29.37200
C  46.44800 33.54800 29.48100
C  45.57000 30.36500 27.65800
C  44.96100 32.09500 30.63900
O  44.18000 31.15600 30.90000
C  45.28800 33.34000 31.53100
C  45.72200 32.90100 32.85400
O  46.79200 32.45600 33.13300
O  44.70100 33.11000 33.78400
C  44.92300 32.54300 35.08800
H  48.86900 39.14900 30.60800
H  50.35700 37.39800 24.70500
H  47.25400 31.94000 25.53000
H  46.07900 35.91900 32.93300
H  48.22500 37.94500 32.78800
H  46.45500 39.24100 32.83500
H  45.36600 37.95600 32.21100
H  46.33000 38.84100 31.09000
H  48.99900 35.91700 33.45400
H  48.27700 34.30700 33.18200
H  47.73500 34.14500 35.23000
H  46.69400 35.67100 35.17400
H  49.71800 41.61500 28.72500
H  51.39800 41.10800 28.71100
H  50.42000 40.48400 30.00000
H  52.28500 41.79300 25.28900
H  52.63400 41.11100 26.97700
H  51.10000 41.93900 26.43300
H  50.56500 35.08900 23.65100
H  48.21800 33.26000 23.52500
H  49.42300 36.42200 22.08400
H  47.92200 36.27600 22.97500
H  48.44300 35.05700 21.84900
H  50.12800 32.16800 25.42100
H  51.01300 32.88600 24.19800
H  50.14800 30.40300 24.01400
H  51.08100 31.24900 22.81300
H  49.34100 31.33000 22.67000
H  46.06400 29.61600 28.27800
H  45.83700 30.29100 26.60400
H  44.49300 30.39700 27.82200
H  44.47500 34.04900 31.68600
H  44.02300 32.00800 35.38900
H  45.13800 33.30300 35.83900
H  45.75500 31.83900 35.09300
Mg -1.14200 33.81600 26.69500
C  -2.93600 32.10000 29.44500
C  0.57600 35.46700 28.94200
C  0.24800 35.26700 24.16400
C  -3.60100 32.24600 24.59000
N  -1.45600 33.96300 28.95700
C  -2.08800 33.12900 29.85000
C  -1.73900 33.58900 31.24800
C  -0.67600 34.73600 31.07200
C  -0.54600 34.81700 29.60200
C  -0.91800 36.17800 31.72800
C  -1.13100 32.41000 32.11700
C  -1.59400 32.10400 33.54000
H  -0.73200 32.73700 34.66600
N  0.31600 35.07500 26.54200
C  0.95600 35.61900 27.60500
C  2.05000 36.42000 27.08900
C  1.92100 36.47000 25.67700
C  0.82000 35.58200 25.38300
C  3.05100 37.12500 27.95000
C  2.77400 37.27000 24.66500
O  2.64100 37.06400 23.47100
C  3.73900 38.35800 25.08300
N  -1.66500 33.75800 24.75800
C  -0.92700 34.54000 23.90500
C  -1.66700 34.60200 22.57500
C  -2.85200 33.62900 22.64400
C  -2.70000 33.10100 24.07800
C  -2.12600 36.06700 22.21100
C  -2.91200 32.58700 21.54600
C  -1.78100 31.50800 21.48300
N  -2.90600 32.41400 26.94700
C  -3.66600 31.85000 25.98400
C  -4.45900 30.77400 26.58800
C  -4.24800 30.85500 27.96100
C  -3.29800 31.86400 28.12500
C  -5.47900 29.95000 25.89400
C  -4.57000 30.25400 29.20400
O  -5.12800 29.20300 29.54800
C  -3.83100 31.16800 30.27200
C  -4.88700 31.92200 31.08800
O  -5.53600 32.91000 30.77500
O  -4.97900 31.32500 32.29600
C  -5.93400 31.89100 33.24000
H  1.23600 35.84100 29.72700
H  0.66500 35.66800 23.23800
H  -4.31300 31.75000 23.92700
H  -2.67300 33.80900 31.76500
H  0.33600 34.45000 31.35800
H  -1.62300 35.97100 32.53300
H  -1.28700 36.87500 30.97600
H  0.06900 36.48000 32.07800
H  -0.05300 32.52100 32.23100
H  -1.23200 31.44400 31.62400
H  -1.54200 31.01800 33.62500
H  -2.62200 32.45500 33.61900
H  2.63600 38.11800 28.12400
H  3.99400 37.17700 27.40700
H  3.11400 36.69300 28.94900
H  4.73000 37.90300 25.06700
H  3.42700 38.76500 26.04500
H  3.83500 39.09800 24.28900
H  -1.03200 34.25700 21.75900
H  -3.79600 34.17300 22.59700
H  -3.21300 36.06900 22.12700
H  -1.52500 36.37400 21.35500
H  -1.95900 36.79400 23.00600
H  -2.96500 33.15000 20.61400
H  -3.87600 32.09500 21.67900
H  -2.16800 30.51400 21.71100
H  -0.99500 31.72800 22.20500
H  -1.36200 31.35700 20.48800
H  -5.23500 28.89300 26.00600
H  -5.61800 30.15300 24.83200
H  -6.44500 30.03700 26.39200
H  -3.14500 30.54300 30.84300
H  -5.37400 32.46600 33.97800
H  -6.49900 31.13000 33.77800
H  -6.68900 32.59200 32.88400

