158

Mg 0.88200 7.83400 27.39200
C  1.58500 10.09500 30.11600
C  1.01200 5.35200 29.85200
C  0.60700 5.58600 25.00700
C  1.47000 10.39600 25.33300
N  1.20500 7.79800 29.74900
C  1.29000 8.83000 30.56800
C  1.17400 8.48500 32.03700
C  1.38000 6.92400 31.89500
C  1.19200 6.62800 30.42200
C  2.63700 6.34400 32.47800
C  -0.13900 8.77400 32.83100
C  -0.04400 8.86800 34.37700
H  1.09900 8.13200 35.09100
N  0.75900 5.73500 27.44000
C  0.75800 4.92200 28.48500
C  0.53400 3.53600 28.03500
C  0.36300 3.61700 26.62000
C  0.47300 5.00100 26.31100
C  0.48500 2.30800 29.03600
C  0.21900 2.55200 25.58100
O  0.17900 2.73700 24.37700
C  0.13000 1.15900 26.11700
N  1.52000 7.91300 25.39900
C  1.01800 6.87300 24.57300
C  1.03800 7.28200 23.13100
C  1.05900 8.83800 23.26900
C  1.34800 9.07000 24.79600
C  2.31300 6.77100 22.39600
C  -0.12700 9.62800 22.59200
C  -1.38400 9.79600 23.49500
N  1.44200 9.83100 27.62600
C  1.64200 10.80600 26.68500
C  1.95800 12.09300 27.25200
C  1.98600 11.82100 28.68200
C  1.72200 10.45400 28.79100
C  2.05100 13.42800 26.64000
C  2.19200 12.41500 29.98400
O  2.41300 13.53900 30.33300
C  1.83900 11.28100 30.98000
C  2.92500 11.23800 31.92700
O  4.08500 11.07000 31.64300
O  2.42700 11.46800 33.20000
C  3.40200 11.25700 34.24600
H  1.16700 4.45700 30.45800
H  0.25600 5.04400 24.12600
H  1.38700 11.26300 24.67500
H  2.03700 8.83600 32.60300
H  0.65600 6.39700 32.51700
H  3.34100 7.12200 32.77600
H  3.10000 5.76400 31.68000
H  2.37900 5.65200 33.27900
H  -0.96300 8.09000 32.62900
H  -0.51300 9.76000 32.55500
H  -0.94800 8.41500 34.78500
H  -0.17300 9.91300 34.65600
H  -0.17800 2.59600 29.85200
H  1.42800 2.11600 29.54800
H  0.24300 1.33400 28.61100
H  -0.65400 1.10000 26.87100
H  1.14700 0.91600 26.42400
H  -0.22400 0.53600 25.29600
H  0.04500 6.98000 22.79600
H  1.90600 9.21000 22.69300
H  2.90800 7.51200 21.86300
H  2.21700 6.03900 21.59500
H  2.96500 6.36200 23.16800
H  -0.35400 9.06800 21.68500
H  0.11000 10.62700 22.22700
H  -2.29300 9.74600 22.89500
H  -1.59600 10.80900 23.83800
H  -1.45100 9.20500 24.40800
H  2.92600 13.46200 25.99000
H  2.07000 14.27800 27.32300
H  1.19500 13.70800 26.02700
H  0.89300 11.54600 31.45200
H  4.16600 10.54200 33.94100
H  2.85400 10.97900 35.14500
H  3.92900 12.18600 34.46500
Mg 47.88600 23.87600 28.71200
C  49.00900 26.04800 31.19800
C  47.36900 21.60300 31.15200
C  47.19800 21.79900 26.28800
C  49.06500 26.29900 26.29100
N  48.22000 23.84800 30.87600
C  48.50900 24.93000 31.69400
C  48.26300 24.52900 33.18700
C  48.07100 22.99000 33.10400
C  47.92900 22.78700 31.65900
C  49.11500 22.14800 33.79900
C  47.06700 25.30400 33.92200
C  47.51000 26.29800 35.02500
H  46.46300 26.57400 36.12100
N  47.24500 22.01100 28.72700
C  46.97600 21.24200 29.84800
C  46.40400 19.99500 29.40800
C  46.36800 20.00900 27.98400
C  46.97800 21.29800 27.58100
C  45.97300 18.96400 30.34400
C  45.88500 18.94400 26.99800
O  45.85800 19.15500 25.77800
C  45.51000 17.57300 27.48400
N  48.28800 23.96500 26.62600
C  47.72800 23.00900 25.83300
C  47.72900 23.39000 24.34500
C  48.04600 24.93000 24.42100
C  48.50000 25.10400 25.88600
C  48.82600 22.54900 23.57800
C  46.89200 25.85000 23.96900
C  45.58400 25.79000 24.73900
N  48.82400 25.88400 28.67400
C  49.28400 26.69600 27.64000
C  49.88000 27.88900 28.20500
C  49.73700 27.77100 29.60100
C  49.14200 26.46800 29.83800
C  50.54400 28.99200 27.45100
C  50.11900 28.32300 30.93900
O  50.68200 29.35000 31.29000
C  49.54400 27.29300 31.99100
C  50.60600 26.98900 32.95900
O  51.49700 26.18500 32.83800
O  50.36800 27.72200 34.09200
C  51.21500 27.43800 35.30300
H  46.97300 20.99500 31.96800
H  46.84000 21.21700 25.43700
H  49.40400 26.91000 25.45200
H  49.14700 24.74600 33.78600
H  47.14600 22.58200 33.51400
H  49.95300 22.68200 34.24700
H  49.44400 21.36700 33.11300
H  48.71000 21.64300 34.67600
H  46.30400 24.60400 34.26200
H  46.63700 25.93500 33.14500
H  47.74300 27.25200 34.55300
H  48.43400 25.92500 35.46700
H  46.79000 18.24200 30.33800
H  45.02800 18.64700 29.90400
H  45.82200 19.32300 31.36200
H  46.27100 17.21800 28.17900
H  45.34400 16.78000 26.75400
H  44.66400 17.66900 28.16400
H  46.74600 23.28800 23.88500
H  48.90600 25.09500 23.77200
H  49.81300 23.01100 23.55600
H  48.47700 22.45800 22.54900
H  48.69600 21.53700 23.96300
H  46.65600 25.60500 22.93300
H  47.30400 26.85800 23.91600
H  45.53900 26.79700 25.15500
H  45.67100 24.91100 25.37800
H  44.74100 25.64200 24.06500
H  49.95600 29.34800 26.60500
H  51.47300 28.62000 27.02000
H  50.74300 29.89100 28.03500
H  48.76100 27.79600 32.55900
H  52.19700 27.07600 34.99700
H  50.61700 26.82000 35.97200
H  51.35200 28.42300 35.75000

