158

Mg 16.76500 -2.34100 28.97800
C  15.60300 -0.20600 31.53200
C  19.06100 -3.67600 31.10800
C  17.98800 -4.10900 26.41300
C  14.61700 -0.63900 26.77300
N  17.13600 -2.01400 31.12200
C  16.57100 -1.08800 31.98700
C  17.13700 -1.32500 33.36600
C  18.40100 -2.12400 33.15300
C  18.16100 -2.69800 31.69800
C  19.78000 -1.40500 33.31200
C  15.99300 -2.05200 34.17400
C  15.63000 -1.45500 35.48900
H  16.69900 -0.52600 36.17800
N  18.19700 -3.83700 28.83200
C  19.03700 -4.27000 29.82700
C  19.80100 -5.40600 29.37400
C  19.54000 -5.52900 27.91000
C  18.52300 -4.45500 27.62200
C  20.66900 -6.23100 30.22600
C  20.02300 -6.56000 26.83000
O  19.79000 -6.59700 25.59400
C  20.93400 -7.70800 27.29200
N  16.41600 -2.32200 26.85700
C  16.97100 -3.22200 26.02900
C  16.44100 -3.00200 24.62000
C  15.32700 -1.97700 24.75400
C  15.44100 -1.60800 26.24200
C  17.55000 -2.65400 23.53600
C  13.87000 -2.53500 24.48200
C  13.33700 -2.04200 23.11600
N  15.48800 -0.76100 29.10200
C  14.61500 -0.17200 28.15000
C  13.76700 0.87200 28.72400
C  14.07000 0.80400 30.07700
C  15.10300 -0.18200 30.23600
C  12.86600 1.78000 27.93200
C  13.83500 1.48600 31.38200
O  13.01400 2.36300 31.64400
C  14.81700 0.77400 32.39100
C  15.58500 1.88500 32.99000
O  16.67300 2.28400 32.60500
O  14.93800 2.34500 34.07500
C  15.58900 3.44600 34.88900
H  19.78000 -4.09700 31.81400
H  18.38000 -4.61700 25.52800
H  13.80800 -0.19700 26.18700
H  17.33800 -0.30900 33.70700
H  18.52700 -2.99600 33.79400
H  20.46900 -1.91900 33.98200
H  19.52100 -0.41400 33.68500
H  20.31100 -1.16700 32.39000
H  16.38600 -3.05500 34.34100
H  15.05600 -2.11200 33.62000
H  15.56500 -2.14400 36.33100
H  14.80400 -0.75000 35.39600
H  21.72800 -6.01800 30.07800
H  20.38600 -7.26300 30.01700
H  20.37900 -6.06100 31.26300
H  21.89100 -7.31400 27.63300
H  21.06900 -8.33400 26.41100
H  20.45400 -8.35700 28.02500
H  16.14600 -3.93100 24.13200
H  15.57400 -1.03800 24.25800
H  17.72100 -1.57800 23.54400
H  17.40900 -2.78000 22.46300
H  18.49700 -3.06400 23.88700
H  13.17300 -2.32600 25.29300
H  13.87400 -3.62000 24.38200
H  12.29000 -1.75100 23.20200
H  13.42900 -2.85900 22.40000
H  13.85000 -1.16200 22.73000
H  12.84200 2.73100 28.46500
H  11.92800 1.22600 27.93400
H  13.24300 1.85000 26.91200
H  14.14700 0.30300 33.11000
H  15.92600 3.07900 35.85800
H  14.89500 4.28500 34.94000
H  16.43000 3.92600 34.38900
Mg -0.04700 34.43500 26.85100
C  -2.23700 32.83000 29.17400
C  0.61700 36.78600 29.49000
C  1.47000 36.31700 24.63700
C  -1.48500 32.50200 24.22900
N  -0.71700 34.76000 29.04700
C  -1.52000 33.86600 29.75000
C  -1.54700 34.20700 31.21800
C  -0.70600 35.53400 31.28300
C  -0.27700 35.75300 29.83600
C  -1.51800 36.71900 31.89000
C  -1.04600 33.06800 32.07100
C  -1.88800 32.69000 33.25000
H  -1.44600 33.33900 34.64800
N  1.04300 36.15700 27.06200
C  1.22400 36.99800 28.20400
C  2.14800 38.07400 27.78800
C  2.50000 37.89100 26.41100
C  1.65900 36.75900 25.98500
C  2.58500 39.10300 28.81200
C  3.40800 38.67900 25.52700
O  3.56200 38.45000 24.33300
C  4.30300 39.69700 26.08800
N  -0.04000 34.41100 24.69700
C  0.80000 35.24400 24.07300
C  0.69800 34.99300 22.50200
C  -0.21200 33.67400 22.41500
C  -0.62700 33.51000 23.83900
C  0.06400 36.22400 21.79100
C  0.57300 32.49200 21.81200
C  1.51100 31.79800 22.71200
N  -1.47100 32.94900 26.70500
C  -1.90700 32.22400 25.57100
C  -2.83000 31.16600 26.05300
C  -2.94800 31.36600 27.46500
C  -2.19300 32.52300 27.76900
C  -3.63300 30.11000 25.25800
C  -3.67100 30.87500 28.63600
O  -4.56400 30.03300 28.69800
C  -3.11800 31.72300 29.79900
C  -4.36700 32.23900 30.46200
O  -5.06200 33.17200 30.08800
O  -4.48000 31.64200 31.68200
C  -5.55100 32.01700 32.56600
H  1.00600 37.50300 30.21500
H  1.94900 37.00500 23.93800
H  -1.91100 31.89600 23.42600
H  -2.60800 34.29100 31.45500
H  0.11800 35.39300 31.98100
H  -2.31200 36.43900 32.58200
H  -1.78400 37.35300 31.04400
H  -0.77300 37.14800 32.56000
H  -0.06800 33.35000 32.46200
H  -0.88100 32.21200 31.41600
H  -1.98200 31.60900 33.34800
H  -2.88600 33.07300 33.03500
H  1.73300 39.64000 29.22900
H  3.36300 39.78200 28.46200
H  2.90600 38.52600 29.67900
H  3.61700 40.49600 26.37200
H  4.98400 40.02900 25.30500
H  4.86300 39.41400 26.98000
H  1.63900 34.76000 22.00400
H  -1.06900 33.89500 21.77900
H  -0.52400 36.68900 22.58200
H  -0.61000 36.02400 20.95800
H  0.83900 36.92600 21.48200
H  1.16900 32.84600 20.97100
H  -0.12800 31.77600 21.38200
H  1.75700 32.28400 23.65600
H  2.50500 31.64700 22.29000
H  1.11600 30.79300 22.86500
H  -3.90200 29.32800 25.96800
H  -3.12400 29.80200 24.34500
H  -4.55300 30.59900 24.93600
H  -2.53800 31.12600 30.50300
H  -5.21300 32.73000 33.31800
H  -6.02000 31.14000 33.01200
H  -6.30500 32.48600 31.93300

