158

Mg 25.67200 1.32900 29.27200
C  27.76600 0.80700 32.04200
C  23.04700 1.70700 31.38000
C  23.80400 1.44500 26.58000
C  28.40600 0.30200 27.24200
N  25.47400 1.31000 31.40500
C  26.48500 1.22900 32.32800
C  25.96000 1.58400 33.68200
C  24.38300 1.47500 33.54000
C  24.24100 1.51300 32.03300
C  23.68200 0.19700 34.21600
C  26.42300 2.96100 34.19600
C  27.50500 3.03300 35.31400
H  27.16100 3.80100 36.59200
N  23.61600 1.57500 29.04000
C  22.71700 1.73600 30.00900
C  21.41300 2.02400 29.36800
C  21.71100 2.03700 27.94500
C  23.06500 1.71900 27.76400
C  20.18500 2.37700 30.11600
C  20.70300 2.27300 26.84300
O  20.97200 2.41600 25.62500
C  19.24100 2.35700 27.15000
N  25.92000 0.56700 27.35300
C  25.05000 0.88700 26.43700
C  25.52200 0.64600 24.99300
C  27.09600 0.57300 25.15800
C  27.12000 0.45900 26.71000
C  24.84600 -0.55000 24.43700
C  27.78100 1.90600 24.72800
C  29.04600 1.66400 23.83900
N  27.69900 0.61100 29.46900
C  28.74000 0.32400 28.58700
C  29.95300 0.06300 29.24100
C  29.62300 0.21900 30.64600
C  28.24000 0.53400 30.68100
C  31.26400 -0.24000 28.61100
C  30.20300 0.17400 31.95700
O  31.30700 -0.10100 32.38200
C  28.98300 0.65000 32.95700
C  28.90600 -0.27000 34.16600
O  28.28300 -1.28500 34.21900
O  29.56100 0.29600 35.18700
C  29.38800 -0.41700 36.43700
H  22.22300 1.91400 32.06600
H  23.26700 1.47700 25.63000
H  29.28500 0.20100 26.60200
H  26.28300 0.85000 34.42100
H  24.02000 2.37900 34.02900
H  22.97900 0.61500 34.93800
H  24.37700 -0.44100 34.76200
H  23.29300 -0.48500 33.46000
H  25.61100 3.64900 34.43300
H  26.78000 3.50000 33.31900
H  28.36800 3.55600 34.90300
H  27.78000 2.01100 35.57600
H  19.68100 3.24600 29.69300
H  20.35200 2.65400 31.15700
H  19.41300 1.60900 30.05900
H  18.88600 1.49900 27.72100
H  18.69900 2.49300 26.21400
H  19.17100 3.30100 27.69100
H  25.27800 1.58800 24.50200
H  27.57500 -0.33500 24.79100
H  24.80400 -1.32300 25.20400
H  25.29300 -1.05500 23.58000
H  23.84300 -0.23400 24.15200
H  28.14500 2.57000 25.51300
H  27.14500 2.44300 24.02400
H  29.84700 2.33000 24.16000
H  28.81300 1.76100 22.77900
H  29.45600 0.65700 23.92200
H  31.09000 -0.97500 27.82500
H  31.91200 -0.74200 29.32800
H  31.70900 0.63300 28.13400
H  29.24200 1.61300 33.39700
H  29.69100 -1.46400 36.39600
H  28.33700 -0.35400 36.71700
H  29.92200 0.05000 37.26400
Mg 6.20200 53.75200 40.07900
C  5.83300 50.12500 40.20300
C  9.22200 53.20700 38.67200
C  6.15400 56.94000 39.61300
C  2.73200 53.82000 40.85700
N  7.21000 51.86400 39.31400
C  7.00400 50.52200 39.56100
C  8.22900 49.59000 39.14900
C  9.32300 50.69800 39.07700
C  8.52700 52.08300 39.03800
C  10.45600 50.72000 40.24500
C  7.93100 48.69400 37.88800
C  8.29000 49.22500 36.51600
H  7.26800 48.86500 35.41300
N  7.63200 54.95300 39.44000
C  8.80100 54.55400 38.86900
C  9.53800 55.74500 38.62200
C  8.61400 56.83700 38.67900
C  7.41100 56.26200 39.24700
C  10.97400 55.82500 38.23100
C  8.94500 58.28600 38.34200
O  10.07400 58.57400 37.85500
C  8.02900 59.45300 38.68400
N  4.66300 55.18000 40.15800
C  4.93400 56.49700 39.97000
C  3.66400 57.44900 39.92200
C  2.56700 56.42100 40.23500
C  3.35600 55.01000 40.41200
C  3.69100 58.66600 40.84800
C  1.45900 56.31300 39.10000
C  0.27100 57.34900 39.16200
N  4.48000 52.34900 40.49000
C  3.26400 52.53100 40.93000
C  2.70200 51.27200 41.34300
C  3.68700 50.32400 41.11100
C  4.72900 51.00500 40.55600
C  1.29400 50.95200 41.78500
C  3.94700 48.93900 41.21500
O  3.23200 48.02800 41.66900
C  5.39600 48.71900 40.70000
C  5.21600 47.72400 39.62100
O  4.60000 47.93800 38.61400
O  5.81100 46.55400 40.00300
C  5.33500 45.43300 39.17100
H  10.28600 53.10100 38.44900
H  6.10400 58.02600 39.51700
H  1.65700 54.00700 40.84500
H  8.39500 48.90700 39.98100
H  10.00000 50.63200 38.22600
H  11.34700 50.25100 39.82800
H  10.15100 50.26900 41.18900
H  10.70600 51.75500 40.48000
H  6.86500 48.46600 37.92000
H  8.35600 47.70700 38.06900
H  9.12600 48.62300 36.16200
H  8.39600 50.30100 36.65600
H  11.39700 54.83900 38.42500
H  11.53900 56.57900 38.77800
H  10.92900 55.97400 37.15200
H  8.49400 60.39400 38.39000
H  7.97400 59.28800 39.76100
H  7.05300 59.26200 38.23900
H  3.70600 57.74400 38.87400
H  2.04500 56.67100 41.15800
H  3.82400 59.54300 40.21400
H  4.50800 58.57000 41.56300
H  2.76200 58.75200 41.41200
H  0.94500 55.35200 39.09600
H  1.91700 56.39300 38.11400
H  0.42500 58.05200 39.98000
H  -0.65000 56.83600 39.44100
H  0.07700 57.90700 38.24600
H  0.65300 51.79200 41.51900
H  1.20700 50.95600 42.87100
H  0.86200 50.10100 41.25800
H  6.12600 48.25500 41.36300
H  5.21900 45.59400 38.10000
H  4.42200 45.00600 39.58600
H  6.08100 44.65800 39.34900

