158

Mg 44.23700 4.14500 47.13300
C  42.23100 7.00900 47.44700
C  41.44400 2.13600 47.33100
C  46.20800 1.52600 47.04200
C  46.97100 6.23100 46.44800
N  42.14600 4.58900 47.20900
C  41.57600 5.84200 47.34200
C  40.05200 5.74900 47.54400
C  39.87800 4.21400 47.87000
C  41.21400 3.59300 47.38500
C  39.56300 3.85000 49.35200
C  39.11900 6.36700 46.44000
C  39.32300 6.17700 44.93300
H  39.62100 7.34500 44.00600
N  43.89400 2.08400 46.89300
C  42.69400 1.51200 47.12400
C  42.84500 0.13500 46.97200
C  44.30000 -0.11300 46.91600
C  44.89700 1.18100 46.87800
C  41.72300 -0.90600 46.70300
C  44.97400 -1.44600 46.66900
O  44.28600 -2.47400 46.62400
C  46.43400 -1.60100 46.55000
N  46.25300 3.92400 46.44300
C  46.80200 2.76700 46.76000
C  48.36600 2.86900 46.64500
C  48.58400 4.40300 46.36800
C  47.18000 4.92900 46.43900
C  49.11200 2.27800 47.91900
C  49.25000 4.62900 44.96900
C  50.39600 5.63100 44.92900
N  44.59600 6.12900 46.96600
C  45.77500 6.83200 46.67900
C  45.54000 8.29000 46.83300
C  44.16800 8.36200 47.24300
C  43.61200 7.07000 47.24700
C  46.56300 9.43900 46.55400
C  43.09100 9.34100 47.52300
O  43.19800 10.56600 47.55500
C  41.78700 8.46200 47.66900
C  41.02700 8.76100 48.99400
O  41.10500 8.06200 50.04700
O  40.18800 9.84400 48.91000
C  39.23200 10.11300 50.06200
H  40.64700 1.43800 47.59400
H  46.95900 0.73400 47.06400
H  47.77800 6.88000 46.10200
H  39.80500 6.38300 48.39600
H  39.12800 3.74000 47.23800
H  39.27700 4.71200 49.95500
H  40.42800 3.39900 49.83700
H  38.74700 3.12900 49.30300
H  39.20600 7.42800 46.67600
H  38.12600 5.99200 46.69000
H  38.46600 5.68400 44.47400
H  40.14800 5.46400 44.92800
H  41.77800 -1.19200 45.65300
H  40.73800 -0.54900 47.00300
H  42.02700 -1.71400 47.36900
H  46.88700 -1.47800 47.53400
H  46.84600 -0.91000 45.81400
H  46.47500 -2.62000 46.16500
H  48.67700 2.18700 45.85400
H  49.15500 4.87000 47.17100
H  48.49800 1.79900 48.68200
H  49.50400 3.12900 48.47700
H  49.85400 1.50700 47.71200
H  48.57200 4.99300 44.19600
H  49.69500 3.73700 44.52900
H  50.21600 6.34400 44.12400
H  51.35300 5.11900 44.82800
H  50.42800 6.23800 45.83300
H  47.24000 9.15500 45.74800
H  47.13500 9.40800 47.48100
H  46.06600 10.37600 46.30000
H  41.09300 8.78800 46.89400
H  39.62100 10.93600 50.66200
H  39.09900 9.30000 50.77600
H  38.21800 10.35800 49.74500
Mg 36.41800 50.08800 25.24100
C  36.60300 48.37600 28.18600
C  34.61400 52.61100 26.98200
C  36.20400 51.80400 22.30200
C  37.73600 47.31100 23.55400
N  35.69900 50.40300 27.29600
C  36.05800 49.63500 28.38500
C  35.61800 50.23900 29.79800
C  34.80000 51.49000 29.25000
C  35.09300 51.55600 27.79000
C  33.28600 51.44700 29.53700
C  36.78000 50.51800 30.76200
C  36.72100 49.76700 32.10700
H  35.33100 49.55000 32.73900
N  35.55600 52.02300 24.78900
C  34.86000 52.90100 25.59600
C  34.40800 54.01800 24.78700
C  34.78900 53.72700 23.40700
C  35.57500 52.47800 23.44300
C  33.70600 55.26500 25.49700
C  34.29700 54.38800 22.11900
O  34.65900 53.97300 21.03000
C  33.44000 55.59200 22.09600
N  36.94700 49.69800 23.25100
C  36.86700 50.55100 22.24700
C  37.14600 49.82600 20.93400
C  37.84500 48.51800 21.30100
C  37.45600 48.46800 22.80100
C  35.85300 49.56900 19.97300
C  39.37200 48.71300 21.10000
C  40.17100 47.54600 20.47900
N  37.02400 48.22600 25.70200
C  37.57800 47.18500 24.92400
C  37.78000 46.00300 25.75800
C  37.50900 46.45400 27.03500
C  36.92200 47.77500 26.92500
C  38.19800 44.67300 25.20100
C  37.56900 46.12300 28.44300
O  38.01700 45.16100 29.04700
C  36.93000 47.25200 29.25400
C  35.71000 46.78200 30.00700
O  34.63100 47.24300 29.81700
O  36.01400 45.85900 30.94100
C  34.89600 45.28300 31.77500
H  34.03100 53.40400 27.45400
H  36.12900 52.26900 21.31600
H  38.08100 46.43300 23.00500
H  34.94900 49.47800 30.20100
H  35.17400 52.45600 29.58700
H  33.13200 50.60200 30.20700
H  32.71700 51.19000 28.64300
H  32.89600 52.29200 30.10500
H  36.90700 51.57400 30.99900
H  37.74800 50.19500 30.37700
H  37.33700 50.30000 32.83100
H  37.27700 48.84600 31.93400
H  34.44500 55.96900 25.88000
H  33.02200 55.02400 26.31000
H  33.15200 55.79900 24.72500
H  33.02400 55.90200 21.13700
H  34.05900 56.46200 22.31600
H  32.59100 55.41400 22.75600
H  37.87500 50.53100 20.53200
H  37.37100 47.68200 20.78600
H  34.97100 49.78800 20.57400
H  35.86600 48.52400 19.66400
H  36.06800 50.28100 19.17600
H  39.82800 48.93000 22.06600
H  39.62400 49.59700 20.51400
H  40.92300 47.23100 21.20300
H  40.71800 47.93200 19.61900
H  39.56500 46.68800 20.19000
H  37.51600 44.25900 24.45800
H  38.26400 43.99000 26.04800
H  39.21800 44.78300 24.83100
H  37.59200 47.60700 30.04400
H  34.64600 46.05900 32.49900
H  35.35900 44.44400 32.29500
H  34.04800 44.95300 31.17700

