158

Mg 9.17500 4.42100 28.15500
C  10.46200 2.66200 30.90700
C  7.04600 6.03400 30.13100
C  8.05700 6.02100 25.42900
C  10.83000 2.10700 26.05800
N  8.72400 4.22900 30.26600
C  9.56000 3.69300 31.21500
C  9.13600 4.07100 32.67300
C  7.90300 4.99300 32.40600
C  7.88700 5.10200 30.81300
C  6.48200 4.58700 32.90500
C  10.27700 4.70100 33.45800
C  10.01500 4.99000 34.98300
H  11.29700 4.82800 35.87200
N  7.79300 5.87500 27.84200
C  6.98200 6.39500 28.80800
C  6.22100 7.56300 28.20500
C  6.61900 7.56600 26.85000
C  7.55300 6.47800 26.63000
C  5.36100 8.44900 29.00600
C  6.18800 8.50600 25.79600
O  6.62300 8.44000 24.65400
C  5.13000 9.52600 26.06300
N  9.27400 4.01200 26.00300
C  8.78100 4.86800 25.03300
C  9.21700 4.54900 23.55300
C  9.97900 3.18800 23.79800
C  10.07800 3.10700 25.36600
C  8.03700 4.45900 22.53000
C  11.35200 3.16200 23.02000
C  11.51700 1.98500 22.01700
N  10.44900 2.81300 28.35500
C  11.05200 1.94800 27.42100
C  11.75700 0.95500 28.10100
C  11.65200 1.19200 29.43300
C  10.84500 2.34600 29.54400
C  12.44900 -0.25100 27.43200
C  12.06900 0.83200 30.76200
O  12.83500 -0.03400 31.11500
C  11.46200 1.91200 31.73600
C  10.89100 1.14200 32.86600
O  9.97900 0.30900 32.82700
O  11.62300 1.39700 34.03100
C  11.23000 0.69600 35.25100
H  6.44800 6.70400 30.75300
H  8.00500 6.64600 24.53500
H  11.34700 1.38700 25.42100
H  8.76200 3.18100 33.18000
H  8.09200 6.01800 32.72300
H  5.67600 4.69400 32.17900
H  6.21400 5.18700 33.77400
H  6.50800 3.54200 33.21300
H  10.66900 5.60700 32.99700
H  11.11800 4.01500 33.35600
H  9.41700 4.20700 35.44900
H  9.57600 5.95700 35.23000
H  4.99700 8.09900 29.97200
H  4.43600 8.60200 28.45100
H  5.80200 9.42000 29.23300
H  5.19600 10.16500 26.94300
H  4.21800 8.97200 26.28700
H  4.89000 10.15200 25.20400
H  9.86700 5.39900 23.34500
H  9.38900 2.29500 23.59100
H  7.10200 4.81500 22.96400
H  7.95300 3.44500 22.13900
H  8.17900 5.15400 21.70200
H  12.11900 3.07900 23.79000
H  11.55600 4.06600 22.44700
H  10.62400 1.71000 21.45700
H  11.84100 1.07300 22.51800
H  12.32700 2.21500 21.32500
H  13.46600 -0.04600 27.09700
H  11.90400 -0.66900 26.58600
H  12.41600 -0.98200 28.24000
H  12.22000 2.60400 32.10400
H  12.02000 0.03300 35.60500
H  10.38600 0.00900 35.18000
H  10.96400 1.47200 35.96900
Mg 47.99300 35.22600 26.43800
C  46.54500 33.65200 29.35400
C  48.29600 38.09500 28.53800
C  49.37900 36.82000 23.90300
C  47.41300 32.38000 24.61400
N  47.33900 35.80100 28.71300
C  46.99700 34.93400 29.73100
C  47.19900 35.60600 31.04900
C  47.17200 37.11200 30.65600
C  47.59800 37.03000 29.18600
C  45.85100 37.93500 30.88800
C  48.50300 35.17500 31.82100
C  48.38600 34.93300 33.35800
H  47.20800 35.73800 33.95100
N  48.82800 37.08800 26.24100
C  48.82700 38.07000 27.24100
C  49.48300 39.24100 26.63900
C  49.88300 38.88500 25.29600
C  49.33300 37.55200 25.10600
C  49.67200 40.57200 27.36500
C  50.76900 39.64800 24.24000
O  51.19600 39.25800 23.17000
C  50.98400 41.10500 24.46700
N  48.27900 34.69300 24.58700
C  48.91800 35.52200 23.63100
C  49.05100 34.84300 22.33100
C  48.88700 33.36000 22.79300
C  48.11000 33.46000 24.09800
C  48.02800 35.34600 21.28200
C  50.18800 32.51500 22.94900
C  50.06800 31.09900 22.46700
N  47.04500 33.45600 26.75900
C  46.88000 32.35300 25.87300
C  46.15400 31.32000 26.59800
C  46.10700 31.79500 27.94700
C  46.60100 33.10100 28.01600
C  45.71300 30.00900 25.94700
C  45.72500 31.32200 29.25600
O  45.22200 30.31100 29.65000
C  45.79200 32.62700 30.19300
C  46.19300 32.33400 31.59500
O  47.36500 32.28200 31.93400
O  45.14600 32.13000 32.45200
C  45.41600 31.80600 33.86700
H  48.67100 38.89100 29.18600
H  49.83700 37.28500 23.02800
H  47.21300 31.46300 24.05600
H  46.26400 35.46000 31.58900
H  47.92700 37.69200 31.18800
H  45.20800 37.57700 31.69200
H  45.41600 38.06900 29.89700
H  46.20800 38.93600 31.12700
H  49.31000 35.88800 31.65100
H  48.78100 34.23900 31.33700
H  49.31300 35.39500 33.69500
H  48.46800 33.87000 33.58400
H  50.71300 40.81900 27.57000
H  49.16400 40.67400 28.32500
H  49.37300 41.33900 26.65000
H  50.09500 41.73400 24.40500
H  51.76700 41.50300 23.82200
H  51.53100 41.11100 25.41000
H  50.07600 34.99900 21.99600
H  48.24200 32.79600 22.11900
H  48.60300 35.73700 20.44300
H  47.24100 36.04100 21.57800
H  47.47300 34.51400 20.85000
H  50.67100 32.54500 23.92500
H  50.99600 32.99000 22.39200
H  49.24700 31.06500 21.75100
H  49.84400 30.29900 23.17200
H  51.02500 30.84300 22.01200
H  46.20800 29.76700 25.00700
H  44.63600 30.14000 25.84600
H  45.89300 29.18000 26.63100
H  44.77200 32.99000 30.31700
H  44.67800 31.11700 34.27800
H  45.53000 32.72900 34.43500
H  46.36300 31.35600 34.16400

