158

Mg 0.38300 8.06100 27.24800
C  0.97700 10.14500 30.01800
C  0.67600 5.36400 29.37100
C  0.02400 6.12000 24.62300
C  0.77000 10.89600 25.28200
N  0.86600 7.81900 29.42800
C  0.91700 8.79300 30.38300
C  0.74300 8.25600 31.86000
C  0.83500 6.72800 31.59500
C  0.76600 6.56600 30.05700
C  1.95500 6.01700 32.30100
C  -0.60500 8.80300 32.51600
C  -1.00800 8.15600 33.85900
H  -0.01100 7.87600 35.04600
N  0.29300 5.97600 27.03800
C  0.47200 4.98000 27.97800
C  0.27000 3.68300 27.38100
C  -0.13500 3.97900 26.03100
C  0.03800 5.40100 25.86000
C  0.38700 2.48600 28.26800
C  -0.60400 3.00100 24.99900
O  -0.90400 3.28800 23.87700
C  -0.85800 1.51800 25.35800
N  0.43200 8.46400 25.24000
C  0.29500 7.45300 24.29500
C  0.43300 8.07200 22.87500
C  0.28700 9.57000 23.14200
C  0.53900 9.69700 24.66700
C  1.72400 7.63800 22.05800
C  -1.11800 10.05700 22.83800
C  -1.38000 11.09300 21.77600
N  0.99000 10.04000 27.52800
C  1.06900 11.09200 26.60800
C  1.29100 12.41500 27.34000
C  1.24200 12.04600 28.65000
C  1.05000 10.59700 28.73900
C  1.48100 13.76400 26.64800
C  1.36300 12.61200 29.95900
O  1.60300 13.74200 30.25500
C  1.05100 11.42000 30.95600
C  1.99700 11.30900 32.07300
O  3.06000 10.67400 31.98000
O  1.52500 11.99500 33.20200
C  2.44700 11.93700 34.33800
H  0.59700 4.45100 29.96500
H  -0.07900 5.50000 23.72900
H  0.89000 11.69600 24.54800
H  1.55700 8.58200 32.50700
H  -0.10800 6.25900 31.87800
H  2.65500 5.72800 31.51700
H  1.52100 5.08300 32.65700
H  2.52300 6.63900 32.99300
H  -1.32700 8.38700 31.81400
H  -0.66400 9.89100 32.54000
H  -1.58000 7.26500 33.60200
H  -1.60000 8.95600 34.30200
H  1.38400 2.05100 28.20500
H  -0.42100 1.81200 27.98400
H  0.05400 2.66900 29.29000
H  0.20900 1.32700 25.46600
H  -1.21600 0.86200 24.56400
H  -1.41300 1.43200 26.29200
H  -0.46600 7.67300 22.40500
H  0.99600 10.19000 22.59400
H  2.24000 6.74300 22.40400
H  2.40100 8.45800 21.81600
H  1.41100 7.36200 21.05100
H  -1.50600 10.57500 23.71500
H  -1.76300 9.19100 22.68500
H  -0.69500 10.72900 21.01100
H  -1.14300 12.07500 22.18400
H  -2.43300 11.06200 21.49500
H  0.60700 14.36900 26.89000
H  1.61700 13.59000 25.58100
H  2.39900 14.16500 27.07600
H  0.10800 11.69600 31.42800
H  2.65900 10.89400 34.57200
H  2.00200 12.47900 35.17400
H  3.45700 12.29800 34.14600
Mg 1.12100 42.30500 26.54400
C  2.57000 42.39500 29.64500
C  -1.71900 41.08500 27.89300
C  0.23100 41.48400 23.47200
C  4.36900 42.96900 25.15500
N  0.55000 41.78100 28.60500
C  1.21200 42.14000 29.74700
C  0.37900 42.01100 30.98000
C  -0.94600 41.30900 30.38100
C  -0.76500 41.38800 28.83600
C  -1.04100 39.75400 30.72500
C  0.05800 43.31600 31.76900
C  0.50800 43.38600 33.22500
H  -0.42700 42.85900 34.32600
N  -0.53800 41.56400 25.78900
C  -1.64900 41.11900 26.49000
C  -2.67100 40.77400 25.52200
C  -2.12600 40.85700 24.22300
C  -0.74700 41.36300 24.46200
C  -4.07000 40.35100 26.00100
C  -2.78800 40.62900 22.91300
O  -2.20700 40.91400 21.86200
C  -4.25400 40.21600 22.80300
N  2.09300 42.45700 24.41000
C  1.51400 41.96300 23.33900
C  2.37700 42.10100 22.05200
C  3.64900 42.67900 22.62300
C  3.39100 42.65400 24.20600
C  2.57400 40.78200 21.19200
C  3.80500 44.13700 22.30500
C  4.40000 44.54300 20.92600
N  3.09100 42.72400 27.20500
C  4.32700 42.87200 26.59600
C  5.36500 43.00100 27.59600
C  4.67800 42.88300 28.83700
C  3.31900 42.70600 28.55300
C  6.84900 43.20000 27.32700
C  4.93800 42.91200 30.13300
O  5.98300 43.07400 30.72700
C  3.58700 42.63000 30.76500
C  3.73900 41.38500 31.61700
O  3.63300 40.25200 31.14400
O  3.90300 41.68900 32.95800
C  3.81900 40.52500 33.86900
H  -2.63800 40.74000 28.37100
H  0.05300 41.15600 22.44600
H  5.35800 43.02700 24.69600
H  0.83700 41.20200 31.54900
H  -1.86500 41.76700 30.74400
H  -1.86400 39.60800 31.42500
H  -0.15900 39.26900 31.14300
H  -1.27000 39.22400 29.80100
H  -0.95500 43.71100 31.69300
H  0.61400 44.05100 31.18800
H  0.81500 44.38400 33.54000
H  1.42000 42.79900 33.11600
H  -4.87200 40.62600 25.31600
H  -4.39300 40.87900 26.89700
H  -4.06800 39.27800 26.19600
H  -4.38700 39.83600 21.79000
H  -5.03400 40.89800 23.14000
H  -4.54800 39.30400 23.32300
H  1.86200 42.84800 21.44800
H  4.50600 42.01300 22.52700
H  3.63300 40.62300 20.98500
H  2.02500 40.93500 20.26300
H  2.13300 39.90900 21.67200
H  4.18900 44.75400 23.11800
H  2.81700 44.59800 22.32600
H  3.62300 44.91100 20.25600
H  4.92800 43.71500 20.45300
H  5.12700 45.32300 21.15100
H  7.29700 42.21400 27.45400
H  7.24400 43.90200 28.06200
H  7.13400 43.58900 26.34900
H  3.29800 43.44500 31.42900
H  4.66900 39.86400 33.70200
H  2.85700 40.04600 33.69000
H  3.83000 40.86100 34.90600

