158

Mg 26.79000 49.93300 26.67600
C  24.77700 51.27800 29.23800
C  29.08700 48.87700 29.04000
C  28.86900 49.24800 24.15000
C  24.46900 51.55600 24.37800
N  26.99600 50.15700 28.82100
C  25.95900 50.55100 29.64600
C  26.24600 50.21200 31.12800
C  27.64800 49.60900 31.08600
C  27.96600 49.46600 29.59200
C  28.78200 50.37700 31.90000
C  25.14800 49.28100 31.78100
C  24.39300 49.78800 33.01600
H  24.98600 49.55200 34.38100
N  28.70900 49.07000 26.64400
C  29.46300 48.71600 27.73200
C  30.71700 48.11000 27.23200
C  30.76100 48.33500 25.77500
C  29.39100 48.91800 25.47100
C  31.82100 47.49700 28.02800
C  31.82100 47.92100 24.76800
O  31.61300 48.02800 23.57100
C  33.12200 47.46400 25.25500
N  26.63400 50.29200 24.65300
C  27.64900 49.88200 23.75500
C  27.23200 50.18900 22.20800
C  25.84200 50.93500 22.41700
C  25.62500 50.93000 23.90900
C  28.23100 50.92800 21.34000
C  24.66300 50.27700 21.54100
C  24.29100 48.86700 22.00300
N  25.03300 51.21900 26.71400
C  24.12800 51.64700 25.71100
C  23.01400 52.33100 26.27000
C  23.23100 52.12700 27.67200
C  24.45700 51.50100 27.88900
C  21.87000 53.00500 25.58600
C  22.66300 52.36800 28.97900
O  21.58100 52.97100 29.20500
C  23.62300 51.85800 30.02200
C  24.10200 52.95700 30.93900
O  25.04000 53.80200 30.87700
O  23.31500 52.76500 32.03500
C  23.41800 53.68200 33.13800
H  29.77100 48.30900 29.67400
H  29.53800 49.22800 23.28700
H  23.80400 51.99900 23.63400
H  26.16000 51.16900 31.64300
H  27.69200 48.59600 31.48600
H  28.38400 51.24700 32.42200
H  29.63800 50.65300 31.28400
H  29.23600 49.83600 32.73100
H  25.56700 48.34800 32.15900
H  24.48600 48.98500 30.96700
H  23.31800 49.65100 32.90400
H  24.48500 50.87400 33.01400
H  31.54700 47.43700 29.08100
H  32.84100 47.88000 28.06100
H  31.93000 46.50600 27.59000
H  33.47100 48.25100 25.92400
H  33.71100 47.29100 24.35400
H  33.08900 46.50000 25.76200
H  27.05400 49.25700 21.67200
H  25.83300 51.93700 21.99000
H  29.18300 50.87600 21.86900
H  27.90400 51.91900 21.02600
H  28.26900 50.34000 20.42300
H  25.10300 50.13700 20.55300
H  23.85800 51.01000 21.49500
H  23.25900 48.71000 22.31700
H  24.89000 48.46800 22.82200
H  24.41000 48.11600 21.22200
H  22.18200 53.51500 24.67500
H  21.41500 53.76600 26.22100
H  21.14000 52.26200 25.26400
H  23.09500 51.14500 30.65500
H  24.13100 53.33900 33.88800
H  22.41400 53.71200 33.56300
H  23.60400 54.73200 32.91400
Mg 0.41800 43.39600 25.54000
C  1.75200 43.20600 28.87900
C  -2.58500 42.46200 26.87100
C  -0.69800 43.04500 22.50200
C  3.71800 43.51900 24.36300
N  -0.37000 43.03900 27.64500
C  0.34200 43.01400 28.80200
C  -0.53500 42.88700 30.04600
C  -1.91900 42.37300 29.42300
C  -1.59200 42.49500 27.87600
C  -2.33800 40.95200 29.79000
C  -0.61200 44.23900 30.83400
C  0.02800 44.29700 32.27200
H  -0.85500 44.34000 33.49500
N  -1.45500 42.96700 24.80900
C  -2.59300 42.62300 25.46100
C  -3.73200 42.72000 24.45800
C  -3.18900 42.94700 23.15400
C  -1.70400 42.99500 23.43000
C  -5.19500 42.62400 24.87100
C  -3.84100 42.90300 21.77400
O  -3.24700 43.05100 20.73000
C  -5.22400 42.45200 21.67000
N  1.34400 43.24100 23.74100
C  0.64300 43.20700 22.55600
C  1.60800 43.22700 21.36800
C  2.92200 43.61300 21.94800
C  2.67200 43.43000 23.46600
C  1.51200 41.91500 20.55100
C  3.29400 45.01900 21.60200
C  3.70300 45.39500 20.14000
N  2.41300 43.47200 26.41700
C  3.68500 43.48900 25.78400
C  4.73500 43.69500 26.82200
C  3.96300 43.60000 28.06800
C  2.58000 43.42200 27.74800
C  6.24500 43.75900 26.74400
C  4.16200 43.30500 29.44600
O  5.20400 43.20000 30.12300
C  2.70400 43.20100 30.06700
C  2.66300 41.92200 30.76500
O  2.42000 40.83300 30.26700
O  3.13600 42.24200 32.03600
C  3.21100 41.01800 32.97500
H  -3.59500 42.30600 27.25600
H  -1.04700 42.96900 21.47000
H  4.72400 43.68800 23.97300
H  -0.13200 42.06300 30.63500
H  -2.73200 42.97600 29.82800
H  -1.88000 40.64700 30.73000
H  -1.93600 40.25700 29.05300
H  -3.42700 40.89300 29.80800
H  -1.63800 44.60500 30.86500
H  -0.08400 44.95400 30.20500
H  0.56100 45.24800 32.27800
H  0.87100 43.62500 32.43300
H  -5.88600 43.19100 24.24700
H  -5.21500 43.02600 25.88400
H  -5.48600 41.57700 24.95700
H  -5.46300 42.20400 20.63500
H  -5.81900 43.27700 22.06100
H  -5.26100 41.50100 22.20100
H  1.23500 44.05400 20.76400
H  3.73700 42.98800 21.58200
H  1.42500 41.11700 21.28900
H  2.46100 41.68200 20.06700
H  0.84200 41.98100 19.69300
H  4.15500 45.25000 22.22900
H  2.52200 45.69700 21.96600
H  3.23800 44.66100 19.48200
H  4.77200 45.54700 19.99300
H  3.24400 46.35800 19.91500
H  6.65300 43.35000 25.82000
H  6.64400 43.18400 27.58000
H  6.53500 44.81000 26.75600
H  2.53000 43.97800 30.81100
H  3.39900 40.06200 32.48700
H  2.22400 40.94400 33.42900
H  3.90300 40.95800 33.81500

