158

Mg 41.80300 9.94500 29.65100
C  43.63100 11.13300 32.24900
C  39.41800 8.73800 31.92100
C  39.96700 8.86400 27.09300
C  44.35500 10.84400 27.57100
N  41.70600 9.64700 31.90000
C  42.52500 10.37300 32.78300
C  41.86900 10.34200 34.17000
C  40.58100 9.50300 34.07200
C  40.54000 9.28900 32.55900
C  40.60300 8.14700 34.85300
C  41.40000 11.79300 34.73200
C  40.70900 11.79800 36.06300
H  41.22000 12.79500 37.11800
N  40.01100 8.81900 29.52800
C  39.12100 8.48000 30.56000
C  37.91100 7.93300 30.00900
C  38.04900 7.91000 28.61600
C  39.41000 8.51400 28.37500
C  36.78200 7.34700 30.87700
C  37.13500 7.34000 27.60000
O  37.38400 7.28700 26.42500
C  35.74000 6.86500 27.96700
N  42.16700 9.78400 27.62600
C  41.24500 9.41700 26.72000
C  41.56800 9.63100 25.22600
C  42.85500 10.43000 25.41300
C  43.18800 10.34100 26.98200
C  41.64400 8.29200 24.43700
C  42.76200 11.92300 24.92700
C  42.06600 12.96200 25.79100
N  43.63500 10.70200 29.83200
C  44.53800 11.09600 28.92700
C  45.65500 11.73200 29.56400
C  45.21600 11.93600 30.84300
C  44.12900 11.14900 30.93300
C  46.79200 12.32700 28.89900
C  45.61300 12.53100 32.08800
O  46.54600 13.27700 32.44500
C  44.48600 12.10100 33.05300
C  45.05000 11.50700 34.25900
O  45.53500 10.41200 34.33600
O  44.84800 12.42400 35.27500
C  45.39800 11.87200 36.52100
H  38.63100 8.54500 32.65200
H  39.23900 8.63600 26.31100
H  45.07600 11.23200 26.84800
H  42.58000 9.96800 34.90600
H  39.70600 10.13200 34.23700
H  39.79100 7.97500 35.55900
H  41.53200 8.05200 35.41500
H  40.47300 7.28000 34.20500
H  40.79100 12.19400 33.92200
H  42.34000 12.33200 34.84500
H  40.71200 10.80900 36.52100
H  39.64700 11.95800 35.87600
H  36.66900 6.27000 30.75000
H  35.85500 7.86000 30.62300
H  36.93500 7.51200 31.94400
H  35.25800 6.39200 27.11100
H  35.18500 7.75500 28.26200
H  35.74500 6.06100 28.70400
H  40.85800 10.25800 24.68700
H  43.63500 9.82400 24.95100
H  41.48900 7.44500 25.10600
H  42.54500 8.04800 23.87500
H  40.95400 8.21500 23.59700
H  42.27500 11.95300 23.95200
H  43.73900 12.33900 24.68400
H  42.93700 13.47800 26.19500
H  41.46700 12.52000 26.58700
H  41.50600 13.64000 25.14700
H  46.34600 13.08400 28.25400
H  47.36200 11.59500 28.32600
H  47.48200 12.90200 29.51600
H  43.94900 13.01500 33.30400
H  45.04000 10.85700 36.69400
H  45.12500 12.52000 37.35400
H  46.48000 11.88300 36.39100
Mg -12.93700 16.03400 42.80900
C  -10.13300 14.03000 42.00600
C  -11.48700 18.58900 41.19400
C  -15.94400 17.49200 42.72400
C  -14.43200 12.90900 43.81300
N  -10.99400 16.18700 41.66200
C  -10.00300 15.32100 41.51500
C  -8.77600 16.05900 40.84000
C  -9.19300 17.52800 40.87700
C  -10.65600 17.43500 41.18500
C  -8.32300 18.59100 41.62400
C  -8.35100 15.43000 39.48900
C  -6.88300 15.08200 39.22600
H  -6.16200 15.84600 38.07300
N  -13.58700 17.93300 42.09900
C  -12.84400 18.83000 41.54100
C  -13.61700 20.02600 41.36600
C  -14.92500 19.78600 41.91300
C  -14.88500 18.36400 42.25700
C  -13.12600 21.25000 40.63000
C  -16.05500 20.75900 42.16700
O  -15.82100 21.90000 41.96300
C  -17.41800 20.33700 42.67600
N  -14.91400 15.32600 43.13300
C  -15.99000 16.14600 43.00000
C  -17.22500 15.39400 43.43100
C  -16.73500 13.88700 43.59000
C  -15.21400 14.04800 43.58900
C  -17.93500 15.91200 44.69600
C  -17.26400 12.83100 42.60700
C  -17.55500 11.48300 43.17700
N  -12.31700 13.98100 43.26500
C  -13.03000 12.81100 43.63900
C  -12.11900 11.69200 43.77100
C  -10.98700 12.14200 43.14000
C  -11.18400 13.52000 42.79300
C  -12.37400 10.31400 44.39500
C  -9.66500 11.77800 42.76900
O  -9.01500 10.82200 43.07100
C  -9.05900 12.95600 41.92400
C  -7.88000 13.39800 42.64000
O  -7.88500 13.87000 43.77900
O  -6.77700 13.15400 41.83200
C  -5.45900 13.44600 42.38500
H  -11.06400 19.47300 40.71300
H  -16.93600 17.94900 42.72000
H  -14.99900 11.99600 44.00700
H  -7.99400 15.96000 41.59200
H  -9.09800 17.98800 39.89400
H  -7.93700 19.30300 40.89400
H  -7.47200 18.03600 42.01800
H  -8.85200 19.09300 42.43300
H  -8.67600 16.10500 38.69700
H  -8.92500 14.52700 39.28000
H  -6.88600 14.05000 38.87700
H  -6.23600 15.19100 40.09700
H  -12.23900 21.60200 41.15600
H  -13.88800 22.03000 40.62200
H  -12.86900 20.95300 39.61300
H  -17.99300 19.67900 42.02500
H  -18.02500 21.20900 42.92000
H  -17.29500 19.84200 43.64000
H  -17.90200 15.44000 42.57800
H  -17.01100 13.58000 44.59900
H  -17.11600 16.27700 45.31600
H  -18.54600 15.28600 45.34700
H  -18.52000 16.79100 44.42700
H  -16.48400 12.73900 41.85100
H  -18.15400 13.23600 42.12500
H  -17.62000 11.44300 44.26400
H  -16.76200 10.82000 42.83000
H  -18.45200 11.14700 42.65700
H  -13.07100 10.43100 45.22500
H  -11.37800 10.00500 44.71300
H  -12.84800 9.59800 43.72300
H  -8.76300 12.62000 40.93000
H  -5.30300 14.49500 42.13400
H  -4.66100 12.82500 41.97900
H  -5.46400 13.37900 43.47300

