158

Mg 27.37500 49.01200 26.57800
C  25.27000 50.06300 29.17700
C  29.74200 48.16900 29.04700
C  29.47400 48.19800 24.08700
C  24.86700 50.13400 24.33600
N  27.44100 49.16700 28.83600
C  26.48400 49.51200 29.69500
C  26.80000 49.29500 31.16100
C  28.39200 48.98900 31.09100
C  28.57000 48.80400 29.57500
C  29.24100 50.07800 31.82700
C  25.82300 48.27500 31.69200
C  25.33200 48.21200 33.12800
H  26.13900 48.73800 34.31600
N  29.33200 48.26300 26.63200
C  30.09800 47.92000 27.71100
C  31.33300 47.44000 27.20000
C  31.33400 47.60500 25.77700
C  30.02400 48.07000 25.41400
C  32.39000 47.01100 28.14300
C  32.42400 47.26200 24.77700
O  32.24700 47.42300 23.57100
C  33.69100 46.55700 25.13900
N  27.21600 49.21600 24.57400
C  28.12000 48.66800 23.76000
C  27.62800 48.69400 22.30800
C  26.17400 49.27200 22.41200
C  26.08500 49.60300 23.87400
C  28.58700 49.47900 21.37900
C  25.12900 48.25100 21.80600
C  24.16500 48.95400 20.83500
N  25.47300 50.05100 26.68400
C  24.54800 50.37200 25.69400
C  23.36100 51.02300 26.30100
C  23.55600 50.84700 27.69800
C  24.87500 50.28100 27.83700
C  22.20500 51.66800 25.55900
C  23.00500 50.97700 28.98700
O  21.87200 51.34800 29.39400
C  24.03700 50.45700 30.01400
C  24.26800 51.56400 31.01200
O  25.06500 52.46600 30.77100
O  23.49900 51.37600 32.13800
C  23.65500 52.41700 33.18700
H  30.52400 47.96600 29.78300
H  30.07600 48.06300 23.18600
H  24.07400 50.25200 23.59500
H  26.58300 50.19800 31.73100
H  28.50900 47.98500 31.49800
H  29.39300 49.98800 32.90300
H  28.73700 51.01900 31.61100
H  30.24300 50.03200 31.40000
H  26.43100 47.37200 31.63500
H  25.01100 48.04700 31.00200
H  25.02100 47.20100 33.39300
H  24.38600 48.75000 33.18100
H  32.69300 45.97200 28.01600
H  32.18100 47.20600 29.19500
H  33.36500 47.46800 27.97400
H  34.26500 46.59600 24.21300
H  33.54000 45.50400 25.37900
H  34.30900 47.04900 25.89000
H  27.56500 47.71800 21.82600
H  26.02100 50.20800 21.87400
H  27.97900 50.18800 20.81800
H  29.13100 48.90900 20.62600
H  29.28800 50.01900 22.01600
H  24.43200 47.99500 22.60400
H  25.52100 47.36900 21.30000
H  23.19100 48.58100 21.15300
H  24.46400 48.78500 19.80000
H  23.99400 50.02300 20.96600
H  21.37400 51.59000 26.25900
H  22.11100 51.11000 24.62700
H  22.45900 52.71700 25.40800
H  23.57100 49.59500 30.49200
H  24.54100 52.10900 33.74100
H  22.75000 52.40500 33.79400
H  23.70100 53.35100 32.62600
Mg 10.21900 47.16300 25.45600
C  8.04700 47.50500 28.27000
C  12.73200 48.33000 27.48200
C  12.34700 46.48200 22.98200
C  7.45900 46.50900 23.50900
N  10.33200 48.02700 27.62800
C  9.41000 47.85800 28.59800
C  9.87200 48.38800 29.95700
C  11.29500 48.97300 29.60200
C  11.51300 48.43200 28.13900
C  11.30900 50.46900 29.64100
C  9.95400 47.27000 31.03800
C  10.74500 47.66600 32.25100
H  10.00900 47.88600 33.58400
N  12.32700 47.39200 25.20300
C  13.17900 47.79400 26.18700
C  14.52400 47.54600 25.72400
C  14.40300 46.90800 24.43400
C  13.01500 46.87500 24.13200
C  15.82300 47.78200 26.65700
C  15.49300 46.43900 23.47800
O  15.33900 45.90700 22.41500
C  16.94000 46.64100 23.77400
N  9.87200 46.73100 23.53600
C  10.94100 46.34700 22.71600
C  10.43300 45.89600 21.31900
C  8.86800 45.96600 21.49500
C  8.68900 46.28200 22.93900
C  11.04000 46.79900 20.12300
C  8.08300 44.78600 21.02300
C  7.23400 45.04500 19.76900
N  8.11400 47.17000 25.73100
C  7.09000 46.86100 24.86700
C  5.80900 46.95100 25.55300
C  6.16500 47.05100 26.88100
C  7.57100 47.22900 26.95800
C  4.52600 46.73200 24.99600
C  5.59700 47.05500 28.20000
O  4.43200 46.82200 28.61500
C  6.85000 47.20600 29.17600
C  7.07500 45.91200 29.93500
O  7.88500 45.03100 29.76200
O  6.17100 45.93600 31.00800
C  6.31200 44.86500 32.01000
H  13.49700 48.69600 28.17000
H  12.98900 46.33000 22.11200
H  6.61700 46.27800 22.85300
H  9.17100 49.11100 30.37400
H  12.11200 48.49400 30.14200
H  12.36900 50.72100 29.67600
H  10.76800 50.73200 30.55000
H  10.79600 50.82600 28.74900
H  10.39100 46.40100 30.54700
H  8.94100 47.09300 31.39800
H  11.47900 48.46200 32.11900
H  11.32700 46.77300 32.47700
H  16.43100 46.88200 26.56200
H  15.55200 47.86500 27.70900
H  16.28400 48.73200 26.38600
H  17.48000 46.76800 22.83500
H  17.12300 45.77000 24.40300
H  17.06900 47.52300 24.40200
H  10.69700 44.84100 21.24200
H  8.55000 46.91700 21.06700
H  10.21700 47.17800 19.51700
H  11.59900 46.16900 19.43100
H  11.63600 47.63400 20.49300
H  7.52700 44.30100 21.82500
H  8.82000 44.09400 20.61400
H  7.33900 46.06600 19.40200
H  6.22600 44.74800 20.05800
H  7.59600 44.39400 18.97300
H  4.63200 46.45400 23.94800
H  3.97800 47.67100 25.07300
H  3.93500 46.05200 25.61000
H  6.71400 48.02300 29.88400
H  6.91600 44.01900 31.68000
H  5.35600 44.40900 32.26700
H  6.66000 45.19100 32.99000

