158

Mg 45.46800 5.48200 48.69000
C  43.36100 8.12800 47.79400
C  42.97900 3.32200 47.95200
C  47.88300 3.01600 48.42800
C  48.20400 7.79600 48.66800
N  43.37900 5.76900 48.16500
C  42.70900 6.91500 47.69500
C  41.30200 6.56100 47.18700
C  41.06700 5.12500 47.79600
C  42.55000 4.65800 48.01300
C  40.11800 4.96900 49.17300
C  41.23400 6.78700 45.67600
C  39.90600 7.40400 45.15100
H  39.29700 6.73400 43.92300
N  45.43700 3.45200 48.35000
C  44.24000 2.77000 48.12600
C  44.51900 1.40200 47.93800
C  45.93800 1.24700 47.92000
C  46.49800 2.57800 48.31200
C  43.44300 0.40000 47.56700
C  46.75200 0.00300 47.72300
O  46.18100 -1.02000 47.41400
C  48.26700 -0.02000 47.84800
N  47.76900 5.42500 48.60400
C  48.44400 4.26800 48.56100
C  49.92200 4.44000 48.78600
C  50.06300 5.99300 48.71200
C  48.60500 6.43500 48.73200
C  50.51400 3.74800 50.12500
C  50.98700 6.44200 47.49700
C  52.12400 7.34800 47.94800
N  45.73800 7.56300 48.45600
C  46.87000 8.34500 48.47200
C  46.53300 9.71500 48.30300
C  45.17500 9.70200 48.09500
C  44.71700 8.32600 48.14000
C  47.41900 10.95200 48.22000
C  43.96600 10.54900 47.70400
O  43.81300 11.77200 47.55700
C  42.80600 9.54100 47.55800
C  41.69200 9.99100 48.56700
O  41.52900 9.52400 49.65100
O  40.92100 10.97600 48.00100
C  39.81800 11.50600 48.88200
H  42.08700 2.69500 47.99900
H  48.67000 2.26600 48.52500
H  48.94300 8.58800 48.52400
H  40.54200 7.23300 47.58600
H  40.65600 4.45200 47.04400
H  39.99900 5.95300 49.62500
H  40.54100 4.33900 49.95600
H  39.13900 4.60300 48.86500
H  41.19100 5.82200 45.17200
H  42.08500 7.37800 45.33700
H  40.08900 8.46600 44.99100
H  39.12700 7.36800 45.91300
H  43.70400 -0.21800 46.70800
H  42.50100 0.89600 47.33500
H  43.31900 -0.33200 48.36500
H  48.79600 0.57300 47.10200
H  48.51800 -1.04000 47.55900
H  48.58200 0.18800 48.87100
H  50.38700 4.00200 47.90300
H  50.57800 6.35700 49.60100
H  49.78900 3.72900 50.93900
H  51.38000 4.26200 50.54300
H  50.74000 2.70800 49.89000
H  50.33900 6.96300 46.79300
H  51.47300 5.58700 47.02900
H  52.20800 8.12900 47.19300
H  53.08000 6.83400 48.05100
H  51.85900 7.84800 48.88000
H  48.35800 10.62800 47.77100
H  47.54000 11.45700 49.17900
H  47.10700 11.71300 47.50500
H  42.43600 9.52200 46.53300
H  39.06000 11.92400 48.22000
H  40.32500 12.24700 49.50000
H  39.33900 10.79700 49.55700
Mg 47.45500 24.94900 28.63800
C  48.55600 27.30700 31.14800
C  47.11800 22.58800 31.03700
C  46.89700 22.71500 26.21000
C  48.43500 27.27700 26.19900
N  47.86700 24.98000 30.78900
C  48.25100 26.00500 31.66300
C  48.02100 25.63400 33.19600
C  47.74200 24.10000 33.02700
C  47.50100 23.87500 31.53900
C  48.88800 23.21000 33.58100
C  46.94700 26.46300 33.96300
C  47.46100 27.32800 35.16900
H  46.60700 27.36100 36.42000
N  46.97100 22.95400 28.63900
C  46.84900 22.17000 29.72000
C  46.51000 20.81100 29.34000
C  46.55400 20.81100 27.93100
C  46.78700 22.16900 27.51000
C  46.27700 19.63400 30.35200
C  46.19700 19.69900 26.96500
O  46.21300 19.75200 25.70300
C  45.75300 18.34500 27.48400
N  47.72000 24.99400 26.47200
C  47.20900 23.97100 25.72400
C  47.31900 24.28500 24.24100
C  47.82900 25.80800 24.22300
C  48.05000 26.07200 25.67100
C  48.33300 23.28400 23.51600
C  46.77800 26.74900 23.43500
C  45.44800 26.95200 24.20700
N  48.34400 26.90900 28.59500
C  48.54800 27.70800 27.47800
C  49.06900 28.95900 27.98800
C  49.06700 28.85300 29.40100
C  48.66700 27.57700 29.76000
C  49.61100 30.14400 27.23400
C  49.51200 29.53000 30.70700
O  50.00300 30.67400 30.89300
C  49.08000 28.57600 31.90400
C  50.14200 28.28600 32.81500
O  50.94800 27.35100 32.78400
O  50.13800 29.20000 33.87700
C  50.96700 28.76200 34.98700
H  47.06500 21.89000 31.87600
H  46.53500 21.95400 25.51600
H  48.77000 27.99800 25.45000
H  49.03600 25.76400 33.56900
H  46.83200 23.82000 33.55800
H  49.69900 23.88900 33.84700
H  49.32200 22.56500 32.81700
H  48.64700 22.50200 34.37300
H  46.21700 25.76400 34.37000
H  46.43300 27.04600 33.19800
H  47.61800 28.34600 34.81400
H  48.42700 26.93500 35.48600
H  45.26300 19.23700 30.38500
H  46.63600 20.03700 31.29900
H  46.91400 18.80000 30.05700
H  46.55200 17.72800 27.89400
H  45.42200 17.76700 26.62000
H  44.85800 18.38200 28.10400
H  46.28500 24.33200 23.90100
H  48.78300 25.85700 23.69800
H  47.72900 22.97100 22.66400
H  48.56900 22.41700 24.13300
H  49.23500 23.76600 23.14000
H  46.67100 26.29400 22.45100
H  47.07700 27.76800 23.18700
H  45.31300 27.95700 24.60800
H  45.40500 26.37500 25.13000
H  44.65100 26.67000 23.52000
H  50.51600 29.82200 26.71900
H  49.82200 30.96000 27.92500
H  48.88500 30.42500 26.47100
H  48.23200 29.10300 32.34100
H  51.94100 29.25100 34.97500
H  51.08000 27.68200 35.09100
H  50.47200 29.04800 35.91500

