158

Mg 47.77800 16.80800 27.61500
C  45.60400 16.86700 30.51900
C  49.96600 18.71300 29.16000
C  49.41700 16.81700 24.82000
C  44.91400 15.28800 25.95700
N  47.66200 17.81000 29.55800
C  46.82400 17.53200 30.64600
C  47.49400 18.05000 31.96300
C  48.78000 18.84300 31.44400
C  48.83700 18.46100 29.94500
C  48.77200 20.36300 31.64400
C  47.91500 16.87000 32.85800
C  47.90100 17.18000 34.42300
H  47.60700 18.61500 35.05500
N  49.42800 17.68700 27.10600
C  50.29400 18.38400 27.87500
C  51.44900 18.86200 27.18500
C  51.32400 18.30000 25.87700
C  50.05700 17.52500 25.89000
C  52.52200 19.80900 27.74700
C  52.23400 18.49800 24.69200
O  51.96000 17.97400 23.60900
C  53.46200 19.32700 24.71500
N  47.28200 15.98200 25.65000
C  48.24000 16.06800 24.70100
C  47.62000 15.61200 23.27400
C  46.14200 15.22600 23.60000
C  46.06800 15.55300 25.15500
C  47.85500 16.60300 22.10500
C  45.74500 13.69100 23.23900
C  45.98800 13.20400 21.84600
N  45.70100 16.28800 28.06600
C  44.72700 15.60700 27.32900
C  43.52800 15.26100 28.16000
C  43.83000 15.76800 29.42500
C  45.13800 16.37800 29.32700
C  42.26200 14.47600 27.72500
C  43.31300 15.95800 30.76500
O  42.22300 15.80000 31.24100
C  44.49800 16.60100 31.54600
C  44.01500 17.76600 32.33600
O  43.77300 18.87500 31.92100
O  43.67700 17.32600 33.57300
C  43.04700 18.21800 34.57100
H  50.65800 19.30800 29.76000
H  49.90700 16.92000 23.85000
H  44.06100 14.78200 25.50000
H  46.83500 18.75000 32.47700
H  49.72700 18.55300 31.89900
H  49.70900 20.62500 32.13500
H  47.92500 20.71400 32.23300
H  48.58900 20.91100 30.72000
H  48.93600 16.55600 32.64200
H  47.30100 16.00200 32.61700
H  48.89100 16.84300 34.72700
H  47.20400 16.52400 34.94400
H  52.47100 19.82200 28.83600
H  52.21900 20.77800 27.35200
H  53.54700 19.48100 27.57300
H  53.20900 20.33600 25.04100
H  53.83100 19.47900 23.70100
H  54.18100 18.93400 25.43400
H  48.19800 14.74800 22.94500
H  45.40900 15.86300 23.10600
H  48.18400 17.55600 22.52100
H  46.92800 16.71100 21.54300
H  48.59400 16.23100 21.39500
H  44.67500 13.63800 23.44200
H  46.26600 13.07100 23.96900
H  46.56200 13.95800 21.30600
H  45.02700 13.17500 21.33400
H  46.58200 12.29100 21.81000
H  41.55200 15.19200 27.31000
H  41.83700 14.00300 28.61000
H  42.47000 13.71400 26.97400
H  44.90600 15.88400 32.25900
H  42.27300 17.81400 35.22300
H  42.60600 19.04800 34.01900
H  43.93500 18.62200 35.05700
Mg -11.93600 39.47400 41.29700
C  -9.94600 36.49300 40.73100
C  -9.44000 41.14000 39.68100
C  -13.91500 42.00800 41.14800
C  -14.42600 37.40800 42.63800
N  -9.99200 38.75700 40.17400
C  -9.36400 37.54800 40.12200
C  -8.17500 37.60400 39.13600
C  -7.95400 39.17900 39.09100
C  -9.23400 39.77000 39.64300
C  -6.60600 39.65700 39.79600
C  -8.50600 36.87000 37.79300
C  -7.59500 35.68900 37.34700
H  -6.41500 35.96300 36.29500
N  -11.63400 41.34100 40.48300
C  -10.60800 41.89100 39.90900
C  -10.81200 43.23400 39.64000
C  -12.12800 43.53900 40.09100
C  -12.62300 42.27300 40.60400
C  -9.72600 44.08900 38.93200
C  -12.85100 44.88300 39.92200
O  -12.27800 45.79100 39.36600
C  -14.23000 45.17600 40.36000
N  -13.82800 39.59700 41.70600
C  -14.49500 40.81900 41.61100
C  -15.91200 40.81400 42.18900
C  -16.08700 39.34400 42.51600
C  -14.72700 38.69500 42.22400
C  -16.21800 41.82400 43.35500
C  -17.33700 38.70200 41.86600
C  -17.36600 38.56300 40.33000
N  -12.16700 37.41800 41.68500
C  -13.16400 36.74800 42.39900
C  -12.79200 35.31900 42.47900
C  -11.49900 35.24500 41.92900
C  -11.18800 36.51800 41.39500
C  -13.54300 34.28800 43.30200
C  -10.39100 34.31700 41.71000
O  -10.19100 33.15800 42.02000
C  -9.37900 35.10700 40.82100
C  -8.13100 34.89600 41.50100
O  -7.36500 33.94200 41.33900
O  -7.81900 35.91500 42.41100
C  -6.91100 35.53900 43.51000
H  -8.58500 41.72200 39.32900
H  -14.48800 42.90500 41.39400
H  -15.18900 36.85900 43.19200
H  -7.34100 37.06500 39.58700
H  -7.87300 39.41700 38.03000
H  -6.01200 38.83900 40.20200
H  -6.82500 40.40300 40.56000
H  -6.13900 40.17200 38.95600
H  -8.47500 37.60500 36.98800
H  -9.53800 36.51900 37.81600
H  -8.22400 34.90700 36.92200
H  -7.13700 35.28700 38.25100
H  -10.07700 44.24100 37.91200
H  -8.67600 43.84500 39.09300
H  -9.71000 45.11000 39.31300
H  -14.13800 45.34900 41.43200
H  -14.94500 44.38700 40.12500
H  -14.49100 46.07500 39.80300
H  -16.52800 41.15100 41.35600
H  -16.20300 39.26800 43.59800
H  -15.23800 42.19900 43.65300
H  -16.77700 41.42000 44.19800
H  -16.79800 42.64200 42.92800
H  -18.12900 39.42000 42.07800
H  -17.57800 37.77400 42.38500
H  -16.48800 39.05500 39.91200
H  -18.14600 39.04000 39.73700
H  -17.42600 37.48600 40.17700
H  -13.11200 34.41700 44.29500
H  -13.24100 33.26900 43.05900
H  -14.60300 34.48200 43.46300
H  -9.40500 34.62700 39.84300
H  -7.04100 34.47400 43.70300
H  -6.97200 36.16000 44.40400
H  -5.86600 35.65800 43.22400

