158

Mg 29.98600 58.31500 41.03100
C  27.23800 56.67600 39.89400
C  31.94700 55.73700 39.69800
C  32.66400 60.32700 41.16900
C  27.93600 61.31800 41.66000
N  29.61900 56.50600 39.72800
C  28.39800 55.92500 39.61000
C  28.43700 54.52300 39.15600
C  29.97700 54.20400 39.18300
C  30.57300 55.55800 39.51300
C  30.32500 53.07400 40.24200
C  27.71100 54.26800 37.82600
C  27.08500 55.34000 36.86300
H  27.33200 55.18000 35.40600
N  32.02300 58.03700 40.63100
C  32.59600 56.90300 40.09000
C  34.02800 57.19800 39.90800
C  34.28200 58.51500 40.33800
C  32.94300 59.03300 40.74100
C  34.98600 56.33100 39.15800
C  35.61200 59.19500 40.24600
O  36.65400 58.58600 39.84900
C  35.81100 60.63800 40.54300
N  30.20400 60.56100 41.34000
C  31.48500 60.99000 41.51400
C  31.49100 62.48100 41.93800
C  30.02300 62.76100 42.24100
C  29.29100 61.49400 41.67000
C  32.46000 62.92000 43.03500
C  29.34600 64.08600 41.63200
C  28.59700 65.04400 42.61300
N  27.99600 58.94500 40.97100
C  27.26500 60.15300 41.18800
C  25.83300 59.81500 41.20100
C  25.81200 58.48700 40.63800
C  27.16100 57.98500 40.49300
C  24.62600 60.78300 41.36800
C  24.92000 57.40100 40.29300
O  23.72000 57.38100 40.34000
C  25.78900 56.23700 39.77100
C  25.46400 54.92800 40.51900
O  25.87900 54.51400 41.62700
O  24.69700 54.22200 39.67800
C  24.09700 53.08500 40.31200
H  32.51200 54.81800 39.52700
H  33.39000 61.13900 41.25300
H  27.30300 62.07800 42.12300
H  27.93400 53.93800 39.92600
H  30.41600 53.94400 38.22000
H  29.53600 52.93800 40.98100
H  31.25000 53.20300 40.80300
H  30.38600 52.05800 39.85300
H  26.85500 53.67400 38.14500
H  28.34200 53.55700 37.29300
H  27.39800 56.35300 37.11600
H  26.04300 55.10900 37.08400
H  35.21700 56.69300 38.15600
H  34.58100 55.32400 39.05600
H  35.88100 56.20400 39.76800
H  35.07500 61.25600 40.02900
H  36.71400 60.99400 40.04700
H  35.82300 60.93600 41.59100
H  31.81700 62.97000 41.02000
H  29.73000 62.77700 43.29100
H  31.93000 63.39300 43.86300
H  33.08100 63.66300 42.53400
H  32.97500 62.03000 43.39600
H  28.64100 63.75400 40.87000
H  30.20000 64.63300 41.23100
H  27.92300 64.58000 43.33200
H  28.11600 65.67100 41.86100
H  29.30600 65.63700 43.19100
H  23.69900 60.21100 41.41900
H  24.45100 61.58900 40.65500
H  24.71400 61.25400 42.34700
H  25.37400 56.13900 38.76800
H  23.62300 53.30100 41.26900
H  24.75600 52.22000 40.39000
H  23.25200 52.73800 39.71700
Mg 7.03500 53.09100 41.00700
C  6.50100 49.58100 40.99500
C  10.22600 52.66600 40.03000
C  7.05100 56.37600 40.27600
C  3.51600 53.37200 41.72600
N  8.12100 51.33600 40.24100
C  7.80300 49.98600 40.49500
C  9.09100 49.14300 40.37900
C  10.21900 50.23600 40.33300
C  9.48000 51.52800 40.14800
C  11.06000 50.17700 41.63500
C  9.12900 48.00200 39.27700
C  9.26300 48.57600 37.83200
H  8.22100 47.97900 36.77900
N  8.45700 54.39700 40.23700
C  9.75800 54.06800 39.93200
C  10.47000 55.22100 39.46800
C  9.57900 56.32600 39.57200
C  8.28000 55.77700 40.03100
C  11.92100 55.13700 39.08000
C  9.92600 57.73800 39.22900
O  11.07300 58.03400 38.96900
C  8.94500 58.84100 39.13300
N  5.51400 54.52600 40.87400
C  5.80000 55.82400 40.70900
C  4.57400 56.78100 41.01200
C  3.46500 55.72900 41.34600
C  4.23600 54.42200 41.38600
C  4.93400 57.75800 42.17100
C  2.34200 55.74700 40.29200
C  0.99600 56.20900 40.79200
N  5.25100 51.79800 41.31800
C  3.96900 52.04600 41.67900
C  3.25700 50.84900 41.92300
C  4.20100 49.80500 41.79000
C  5.40100 50.42700 41.31600
C  1.80500 50.68500 42.22400
C  4.45200 48.36500 41.83900
O  3.61700 47.51800 42.08100
C  5.96500 48.20400 41.27800
C  5.85500 47.37900 39.99600
O  5.71900 47.80000 38.85000
O  6.08900 46.06600 40.27000
C  6.09400 45.06200 39.13700
H  11.29200 52.46200 39.90800
H  7.01700 57.46500 40.20400
H  2.49000 53.59200 42.02800
H  9.14100 48.58800 41.31600
H  10.80800 49.96200 39.45700
H  10.72500 49.37500 42.29300
H  10.92300 51.09800 42.20100
H  12.12900 50.13000 41.42900
H  8.20600 47.42200 39.30100
H  10.06400 47.44300 39.31900
H  10.20800 48.39800 37.31900
H  9.27100 49.65700 37.97700
H  12.24600 54.10900 38.92100
H  12.52900 55.48200 39.91600
H  12.23900 55.74300 38.23100
H  8.87200 59.42000 40.05300
H  7.96500 58.58100 38.73400
H  9.35100 59.61500 38.48200
H  4.21400 57.37900 40.17500
H  2.93400 55.81500 42.29400
H  5.90500 57.70500 42.66300
H  4.02200 57.72900 42.76700
H  5.01500 58.78000 41.80000
H  2.08700 54.74500 39.94800
H  2.49900 56.42800 39.45600
H  1.04500 56.59000 41.81200
H  0.34600 55.33400 40.78800
H  0.42000 56.93200 40.21500
H  1.40900 51.59700 42.67100
H  1.77800 49.83700 42.90900
H  1.13400 50.37800 41.42300
H  6.47000 47.52700 41.96700
H  7.14000 44.76400 39.06300
H  6.01800 45.56300 38.17200
H  5.53600 44.12800 39.07800

