158

Mg 2.18200 -2.09900 44.92200
C  5.45200 -0.78400 44.83300
C  1.19000 0.80300 43.39800
C  -0.79300 -3.50600 44.59700
C  3.58700 -5.19500 45.97300
N  3.28800 -0.22100 44.00500
C  4.56900 0.08500 44.17200
C  4.92400 1.49600 43.69800
C  3.42200 2.09300 43.57700
C  2.55200 0.85000 43.64100
C  3.08500 3.03600 44.73300
C  5.76400 1.55300 42.35900
C  5.29700 0.73000 41.16100
H  5.06000 1.48400 39.85200
N  0.39200 -1.47600 44.12300
C  0.20800 -0.23000 43.47800
C  -1.17700 -0.08800 43.16800
C  -1.79000 -1.36400 43.50000
C  -0.70600 -2.16300 44.09900
C  -1.74900 1.19600 42.47900
C  -3.21700 -1.64200 43.37300
O  -3.90300 -0.74400 42.83900
C  -3.77600 -2.92800 43.69600
N  1.54900 -4.16700 45.20000
C  0.17600 -4.42900 45.07500
C  -0.07800 -5.87200 45.55400
C  1.34800 -6.41100 45.91100
C  2.21700 -5.20800 45.65300
C  -1.07000 -5.92400 46.72800
C  1.77100 -7.62000 44.98200
C  2.26300 -8.98200 45.66400
N  4.10100 -2.92900 45.39400
C  4.54400 -4.13400 45.77900
C  5.98400 -4.13900 46.07800
C  6.37500 -2.76900 45.69000
C  5.21200 -2.09900 45.30600
C  6.80100 -5.34200 46.56900
C  7.45100 -1.88300 45.48500
O  8.65200 -2.00100 45.68500
C  6.93700 -0.57600 45.05500
C  7.23900 0.28800 46.24100
O  6.73500 0.18900 47.33900
O  8.05200 1.29200 45.88500
C  8.48800 2.27200 46.85700
H  0.85700 1.79800 43.09800
H  -1.74800 -4.02400 44.70000
H  3.98700 -6.08900 46.45600
H  5.58700 1.92700 44.44800
H  3.24300 2.56300 42.61000
H  3.13100 4.09800 44.49300
H  3.86400 2.85600 45.47400
H  2.12000 2.79800 45.18000
H  6.69900 1.07900 42.65500
H  5.96500 2.58400 42.06800
H  4.47100 0.09500 41.48200
H  6.14800 0.06600 41.01400
H  -2.27600 1.89300 43.13100
H  -2.34300 0.83000 41.64200
H  -0.91300 1.75700 42.06100
H  -4.75100 -2.98900 43.21400
H  -3.68400 -3.16700 44.75600
H  -3.18500 -3.63000 43.10800
H  -0.40800 -6.47000 44.70400
H  1.30800 -6.63100 46.97800
H  -1.57300 -6.88500 46.62000
H  -1.81800 -5.13200 46.70900
H  -0.62200 -5.97400 47.72000
H  2.58100 -7.30800 44.32300
H  1.03100 -7.76200 44.19400
H  2.63100 -8.87800 46.68500
H  3.08500 -9.25000 45.00000
H  1.43200 -9.68700 45.64300
H  7.22600 -5.77200 45.66100
H  6.11800 -6.09400 46.96300
H  7.47300 -4.89300 47.30000
H  7.52500 -0.27000 44.19000
H  9.56300 2.40100 46.73200
H  8.31700 2.11700 47.92200
H  8.12100 3.24400 46.52800
Mg 47.44100 17.31500 28.73200
C  45.38300 17.31700 31.62200
C  49.74300 19.08500 30.42800
C  49.04700 17.59400 25.80400
C  44.65400 15.75500 27.02600
N  47.42000 18.36200 30.78900
C  46.56800 18.00200 31.81600
C  47.10800 18.47400 33.17400
C  48.48800 19.12000 32.71500
C  48.63400 18.80400 31.25200
C  48.61400 20.60700 33.16900
C  47.36200 17.39200 34.21300
C  46.92700 17.72500 35.62500
H  46.97600 19.19800 36.10900
N  49.15200 18.19300 28.22100
C  50.02800 18.84200 29.07000
C  51.20000 19.34700 28.33700
C  50.97600 18.85600 27.01400
C  49.73100 18.12300 26.96800
C  52.32200 20.24100 28.95300
C  51.90500 18.97500 25.78900
O  51.64700 18.49700 24.68700
C  53.20400 19.75100 25.90300
N  47.05100 16.48800 26.78000
C  47.86300 16.89200 25.71600
C  47.22500 16.52100 24.34400
C  45.90400 15.67600 24.81400
C  45.82300 16.03100 26.30100
C  46.81300 17.71500 23.50300
C  46.14200 14.16100 24.62100
C  45.14500 13.49300 23.61300
N  45.41900 16.70400 29.15400
C  44.38900 16.15200 28.37100
C  43.10700 16.14500 29.09700
C  43.50600 16.38100 30.38600
C  44.86800 16.73000 30.40300
C  41.76900 15.70300 28.47900
C  43.02600 16.51800 31.65500
O  41.88700 16.42200 32.09500
C  44.28200 16.99500 32.53200
C  43.84700 18.07400 33.44700
O  43.73000 19.27900 33.22500
O  43.35000 17.44100 34.53700
C  42.61400 18.35200 35.50900
H  50.57500 19.45300 31.03100
H  49.41900 17.82700 24.80400
H  43.80100 15.32600 26.49600
H  46.42900 19.25800 33.51100
H  49.34300 18.60500 33.15400
H  49.61700 20.67500 33.58800
H  47.91600 20.96500 33.92600
H  48.78900 21.30900 32.35400
H  48.42500 17.18500 34.33000
H  46.79800 16.52800 33.86200
H  47.43200 17.07700 36.34100
H  45.87700 17.43300 35.59800
H  52.07900 20.37200 30.00800
H  52.53500 21.13300 28.36400
H  53.22400 19.63900 29.05900
H  53.70100 19.59700 24.94500
H  53.83200 19.41400 26.72700
H  52.74400 20.73500 25.99900
H  47.83100 15.77700 23.82700
H  44.98600 15.95300 24.29600
H  47.60000 18.43100 23.73900
H  45.82600 18.11400 23.73900
H  47.03800 17.40600 22.48300
H  45.93100 13.71500 25.59300
H  47.12500 13.88400 24.24000
H  44.45500 14.18500 23.12900
H  44.55000 12.78100 24.18600
H  45.64200 12.82500 22.90900
H  41.65100 15.96300 27.42700
H  41.01200 16.27600 29.01300
H  41.66200 14.62700 28.61800
H  44.49000 16.12800 33.15900
H  42.51700 19.40400 35.23800
H  43.25900 18.34500 36.38700
H  41.59400 18.03100 35.71900

