158

Mg 1.47700 -1.89400 42.58600
C  5.02000 -1.75000 42.10100
C  1.30500 1.20700 40.93800
C  -1.71400 -2.57600 41.91200
C  1.89100 -5.17200 43.83400
N  2.99000 -0.45900 41.60600
C  4.37800 -0.64300 41.61200
C  5.07900 0.58100 40.83500
C  3.85700 1.59600 40.60400
C  2.65100 0.78500 41.10200
C  4.09000 2.90800 41.42400
C  5.78300 0.16500 39.45200
C  6.55800 1.31300 38.78200
H  6.25500 1.65600 37.29800
N  -0.01500 -0.82300 41.71200
C  0.11100 0.44200 41.11700
C  -1.23600 0.90600 40.80000
C  -2.07900 -0.24100 40.95900
C  -1.28200 -1.30600 41.50800
C  -1.59900 2.27100 40.30200
C  -3.59400 -0.29900 40.62700
O  -4.08200 0.76200 40.30300
C  -4.53500 -1.49800 40.74100
N  0.32300 -3.66600 42.75800
C  -0.98800 -3.63800 42.49300
C  -1.59900 -5.01300 42.84700
C  -0.51200 -5.86400 43.57400
C  0.67400 -4.86200 43.33700
C  -2.94000 -5.07200 43.62000
C  -0.39400 -7.35000 43.05800
C  -0.91800 -8.50700 43.94700
N  3.13700 -3.09000 43.14400
C  3.12400 -4.42200 43.56100
C  4.50900 -4.82300 43.68000
C  5.26000 -3.72800 43.22600
C  4.38400 -2.80200 42.80100
C  4.99300 -6.17700 44.14200
C  6.65700 -3.27800 42.98400
O  7.73600 -3.76700 43.27000
C  6.52300 -2.03700 42.13400
C  7.30900 -0.93100 42.61000
O  8.05300 -0.31800 41.85200
O  7.06000 -0.57100 43.89600
C  7.67000 0.67700 44.35500
H  1.22200 2.20600 40.50600
H  -2.76000 -2.84000 41.74100
H  1.97900 -6.14500 44.32300
H  5.81900 1.03900 41.49200
H  3.78600 1.67500 39.51900
H  3.14200 3.42500 41.57600
H  4.66900 3.66200 40.89200
H  4.59200 2.58600 42.33600
H  5.05200 -0.25500 38.76100
H  6.45300 -0.65200 39.71600
H  7.63700 1.21700 38.90400
H  6.23500 2.15400 39.39600
H  -1.00900 3.05000 40.78500
H  -2.60500 2.65800 40.46000
H  -1.47000 2.27300 39.22000
H  -5.50600 -1.19500 40.35000
H  -4.67700 -1.87200 41.75400
H  -4.20300 -2.27000 40.04600
H  -1.89600 -5.55800 41.95100
H  -0.79700 -5.79200 44.62400
H  -3.32500 -4.07400 43.83400
H  -2.85400 -5.68800 44.51600
H  -3.59600 -5.63300 42.95600
H  0.65500 -7.45600 42.78400
H  -0.99000 -7.47000 42.15400
H  -1.51300 -8.01400 44.71500
H  -0.04900 -8.96700 44.41800
H  -1.44800 -9.22600 43.32200
H  5.26100 -6.77000 43.26800
H  4.12000 -6.64000 44.60300
H  5.80000 -6.01300 44.85500
H  7.04700 -2.28400 41.21100
H  7.22200 1.58000 43.93700
H  8.74600 0.65400 44.18500
H  7.52100 0.70700 45.43400
Mg 48.36100 35.21400 27.44100
C  46.39900 33.50000 29.78900
C  48.86400 37.72100 29.50800
C  49.67100 36.92100 24.78400
C  47.60100 32.57700 25.12300
N  47.83400 35.36400 29.45700
C  47.09300 34.59200 30.29600
C  46.92400 35.27600 31.66300
C  47.36000 36.83400 31.44400
C  48.15100 36.58100 30.08000
C  46.22000 37.88600 31.30500
C  47.69700 34.56000 32.81000
C  48.38900 35.36000 34.03600
H  47.53600 36.50600 34.62800
N  49.29900 37.07800 27.23100
C  49.51900 37.96200 28.25400
C  50.28800 39.07100 27.74100
C  50.48400 38.85300 26.35000
C  49.79800 37.59300 26.05100
C  50.77700 40.23000 28.59200
C  51.16300 39.73700 25.33100
O  51.20500 39.42100 24.20500
C  51.76900 41.04200 25.76900
N  48.59700 34.82300 25.32300
C  49.17600 35.67400 24.42000
C  49.24700 35.12500 22.95900
C  48.71900 33.67300 23.15900
C  48.27000 33.64600 24.63500
C  48.41000 36.00900 22.12400
C  49.68800 32.51100 22.72700
C  49.07700 31.29800 21.91800
N  47.33900 33.36200 27.43600
C  47.02900 32.46000 26.44200
C  46.15800 31.34300 26.86300
C  45.91900 31.77500 28.22200
C  46.63000 32.96400 28.48000
C  45.70800 30.08900 26.09300
C  45.18300 31.48600 29.42900
O  44.42400 30.52000 29.62600
C  45.37800 32.63000 30.44600
C  45.94400 32.11900 31.65800
O  47.07400 31.72400 31.90400
O  44.93800 32.12200 32.57600
C  45.18200 31.46400 33.87300
H  48.84600 38.59500 30.16200
H  49.95400 37.46100 23.87800
H  47.38000 31.70500 24.50400
H  45.86000 35.19800 31.88600
H  47.98200 37.37300 32.15800
H  45.37400 37.40000 31.79000
H  45.92900 38.05100 30.26800
H  46.50500 38.83400 31.76200
H  48.55500 33.96100 32.50500
H  46.88900 33.99700 33.27700
H  49.32900 35.68400 33.59000
H  48.71300 34.74700 34.87700
H  50.54600 41.20100 28.15400
H  51.84600 40.12900 28.78000
H  50.38200 40.20200 29.60800
H  50.95400 41.73400 25.98200
H  52.30700 41.36200 24.87700
H  52.44900 41.07300 26.62000
H  50.32200 35.15500 22.78000
H  47.76600 33.64000 22.63100
H  49.11900 36.61600 21.56200
H  47.70900 36.66700 22.63700
H  47.96100 35.40900 21.33300
H  50.22200 32.11100 23.58900
H  50.45300 32.96500 22.09700
H  47.99000 31.30800 21.84200
H  49.46100 30.36300 22.32600
H  49.32900 31.38200 20.86100
H  46.46100 29.41200 25.69000
H  45.19400 30.46200 25.20600
H  44.88700 29.54700 26.56200
H  44.44700 33.16300 30.64200
H  45.97600 32.10400 34.25800
H  45.62500 30.47600 33.74800
H  44.28900 31.41900 34.49700

