158

Mg 26.12700 50.39000 27.39400
C  24.20500 51.48400 30.10500
C  28.57100 49.41500 29.69800
C  28.13000 49.48900 24.90500
C  23.98800 51.97200 25.23100
N  26.40900 50.59900 29.65200
C  25.39200 50.86100 30.56300
C  25.76100 50.48200 31.96200
C  27.31700 50.22000 31.83300
C  27.44700 50.02300 30.26600
C  28.25000 51.47800 32.06200
C  24.99800 49.26100 32.56500
C  24.34700 49.27700 34.01800
H  25.12300 50.08700 35.11800
N  28.04100 49.43300 27.29500
C  28.82900 49.06300 28.39000
C  30.01400 48.32900 27.89200
C  29.93800 48.47400 26.44600
C  28.67900 49.14600 26.13300
C  31.13400 47.80300 28.77000
C  30.94900 48.00000 25.37800
O  30.77900 48.20900 24.15600
C  32.21400 47.25700 25.71100
N  26.17500 50.91000 25.33300
C  26.96900 50.24100 24.48000
C  26.41700 50.25400 23.07600
C  25.13400 51.09500 23.14800
C  25.03900 51.31200 24.65100
C  27.57700 50.77100 22.12300
C  23.88200 50.42100 22.48700
C  23.13700 51.20400 21.39800
N  24.43900 51.51000 27.54300
C  23.63700 52.13600 26.58200
C  22.46400 52.69200 27.16200
C  22.64600 52.49200 28.55800
C  23.87400 51.75500 28.73000
C  21.39600 53.44600 26.63300
C  21.98500 52.71300 29.84300
O  20.91500 53.27100 30.14600
C  23.04500 52.04500 30.93300
C  23.45600 53.07500 31.93600
O  24.35600 53.87200 31.65100
O  22.75200 53.05800 33.07700
C  22.88300 54.25300 33.96400
H  29.21800 49.00100 30.47400
H  28.72500 49.00400 24.12700
H  23.22700 52.33900 24.54100
H  25.55800 51.33800 32.60600
H  27.74400 49.34600 32.32400
H  27.63200 52.31400 32.38800
H  28.72500 51.80400 31.13700
H  28.91400 51.32500 32.91300
H  25.66900 48.42300 32.37500
H  24.18300 49.11000 31.85800
H  24.26500 48.24800 34.36700
H  23.35700 49.71500 33.89000
H  32.03700 48.13800 28.26000
H  31.23000 46.74900 28.50600
H  30.98700 48.03000 29.82600
H  32.84700 47.03500 24.85200
H  32.00500 46.29600 26.18200
H  32.88600 47.86900 26.31200
H  26.32500 49.20900 22.78000
H  25.35600 52.09600 22.77800
H  28.34800 51.17200 22.78000
H  27.22500 51.57900 21.48200
H  27.98300 49.93700 21.55100
H  23.21900 50.02300 23.25600
H  24.25200 49.51100 22.01600
H  23.17200 50.69700 20.43400
H  23.68300 52.13100 21.22400
H  22.09500 51.38800 21.65800
H  21.88200 53.98600 25.82100
H  21.00500 54.13000 27.38600
H  20.49900 52.91200 26.31700
H  22.51100 51.28200 31.50000
H  23.15000 55.17800 33.45300
H  23.63300 54.15200 34.74900
H  21.87700 54.33400 34.37500
Mg 8.87900 48.60200 26.32100
C  6.50600 48.47700 28.90800
C  11.28200 49.55500 28.53700
C  11.07100 49.01600 23.72800
C  6.20800 48.50400 23.98200
N  8.78400 49.08600 28.51600
C  7.75000 48.89300 29.40600
C  8.23200 49.21800 30.82300
C  9.68200 49.73500 30.60100
C  9.97700 49.48200 29.10700
C  10.08800 51.04700 31.20500
C  8.09900 48.03300 31.83000
C  8.99500 48.00800 33.14000
H  8.68600 47.05900 34.34800
N  10.92500 49.04000 26.19800
C  11.75300 49.23800 27.24900
C  13.11100 49.14200 26.76900
C  13.01600 49.04800 25.41400
C  11.58500 49.07300 25.07000
C  14.35900 49.31700 27.74900
C  14.08400 48.87900 24.37000
O  13.98300 49.05300 23.17000
C  15.47700 48.41400 24.89600
N  8.62900 48.75500 24.24900
C  9.69100 49.06700 23.39600
C  9.20300 49.40400 21.97700
C  7.67500 48.95200 22.05200
C  7.47200 48.62100 23.52900
C  9.47100 50.95500 21.66900
C  7.14800 47.89600 21.08500
C  7.15100 48.31000 19.60400
N  6.83000 48.38600 26.37500
C  5.84600 48.31500 25.37500
C  4.66000 47.94700 25.97200
C  4.85800 48.02300 27.32700
C  6.21000 48.28400 27.57900
C  3.41500 47.77100 25.18900
C  4.12000 47.93200 28.53400
O  2.94700 47.64900 28.77300
C  5.15300 48.37300 29.58300
C  5.03200 47.29600 30.62300
O  5.49500 46.19200 30.50400
O  4.42100 47.81600 31.72100
C  4.20700 46.90200 32.81800
H  12.08600 49.92600 29.17600
H  11.78900 49.14500 22.91500
H  5.35700 48.46000 23.29900
H  7.54100 49.97600 31.19100
H  10.36500 48.99800 31.02400
H  10.99100 50.96800 31.81100
H  9.35300 51.43400 31.91100
H  10.32900 51.72600 30.38700
H  8.34000 47.23700 31.12500
H  7.06600 48.00700 32.17400
H  8.93000 48.97700 33.63600
H  10.04500 47.85600 32.89200
H  15.02400 50.12100 27.43500
H  14.99000 48.43400 27.65100
H  13.96900 49.38200 28.76500
H  15.35500 47.44600 25.38300
H  15.94200 49.16400 25.53700
H  16.22100 48.30800 24.10700
H  9.77400 48.77400 21.29400
H  7.01300 49.79000 21.83400
H  10.27600 51.02500 20.93800
H  9.76800 51.51300 22.55700
H  8.53300 51.36700 21.29700
H  6.15400 47.49200 21.27500
H  7.75700 46.99200 21.10000
H  6.19300 48.03900 19.15900
H  7.81900 47.62900 19.07900
H  7.39600 49.35500 19.41100
H  3.74900 47.18000 24.33700
H  3.08700 48.70600 24.73500
H  2.60000 47.32200 25.75600
H  4.81700 49.32500 29.99400
H  3.53300 47.34100 33.55300
H  5.18200 46.85100 33.30400
H  3.84300 45.89300 32.62200

