158

Mg 29.94900 58.58900 38.96900
C  27.06500 57.17200 38.05300
C  31.66000 55.72100 38.22200
C  32.83500 60.37300 38.81700
C  28.25200 61.63300 39.64200
N  29.47000 56.68000 38.20000
C  28.18300 56.33600 37.81000
C  28.21300 54.84700 37.28500
C  29.59200 54.36300 37.73200
C  30.31600 55.63600 38.00200
C  29.59800 53.37300 38.99500
C  28.04500 54.73100 35.68900
C  26.67600 54.10100 35.36900
H  25.81500 54.92900 34.33500
N  31.96800 58.08300 38.57200
C  32.45100 56.81700 38.36500
C  33.86400 56.78900 38.23600
C  34.33900 58.10900 38.42300
C  33.08900 58.90600 38.58100
C  34.63000 55.44800 38.08500
C  35.71300 58.59600 38.44000
O  36.63700 57.77400 38.42800
C  36.09700 60.03400 38.48400
N  30.42000 60.68400 39.08400
C  31.73200 61.09300 39.05200
C  31.78100 62.57400 39.21600
C  30.31400 63.02800 39.46900
C  29.61600 61.71900 39.38800
C  32.77600 63.19100 40.22100
C  29.87300 64.16000 38.59400
C  29.65500 65.47200 39.41200
N  28.04300 59.25500 38.98300
C  27.48600 60.43700 39.34100
C  26.07300 60.29200 39.34600
C  25.86400 59.03900 38.79600
C  27.08600 58.45400 38.61600
C  25.10100 61.39800 39.60700
C  24.79900 58.05000 38.37200
O  23.56700 58.21200 38.39900
C  25.57600 56.76200 37.93700
C  25.21900 55.65500 38.86900
O  25.69400 55.56800 39.97800
O  24.41900 54.60200 38.37900
C  24.29800 53.41300 39.34200
H  32.05700 54.70500 38.17100
H  33.64300 61.10400 38.74600
H  27.67300 62.53000 39.87300
H  27.48200 54.20000 37.76800
H  30.14100 53.86600 36.93200
H  30.02300 54.05200 39.73400
H  30.15900 52.45500 38.82200
H  28.56900 53.05000 39.15400
H  28.86400 54.11900 35.31100
H  28.01000 55.73100 35.25700
H  26.11900 53.94100 36.29200
H  26.82700 53.13700 34.88300
H  34.20700 54.70100 38.75700
H  35.60300 55.61800 38.54700
H  34.76600 54.98600 37.10700
H  37.17300 60.05600 38.30900
H  35.78100 60.36400 39.47400
H  35.48000 60.55600 37.75300
H  32.07500 62.85200 38.20400
H  30.26600 63.29500 40.52400
H  32.45100 63.68700 41.13600
H  33.28800 64.07400 39.84000
H  33.56100 62.47800 40.47400
H  28.90400 63.95800 38.13800
H  30.60400 64.33400 37.80400
H  28.98100 66.09100 38.81900
H  30.61600 65.96300 39.56300
H  29.12600 65.23200 40.33400
H  24.80900 61.98200 38.73400
H  25.62700 62.08700 40.26800
H  24.27800 60.97700 40.18500
H  25.32000 56.46300 36.92100
H  23.81700 52.54800 38.88500
H  23.66700 53.71300 40.17900
H  25.18900 53.13600 39.90500
Mg 26.20600 51.28700 25.83900
C  23.97700 52.32800 28.27900
C  28.40900 50.38300 28.42300
C  28.40700 50.33900 23.56200
C  24.01100 52.28400 23.36200
N  26.19600 51.42700 28.15200
C  25.14600 51.89600 28.93000
C  25.60100 51.87200 30.42700
C  27.12800 51.46400 30.36100
C  27.22600 50.97700 28.94200
C  28.03100 52.65900 30.70100
C  24.75700 50.87700 31.26500
C  23.93400 51.47000 32.35700
H  23.79200 50.63000 33.60300
N  28.04500 50.32300 25.95300
C  28.76300 50.04100 27.09800
C  30.01800 49.44900 26.81800
C  30.06600 49.40200 25.37000
C  28.75300 50.01300 24.86300
C  31.06700 48.84700 27.83800
C  31.21600 48.86800 24.47600
O  31.15800 48.87400 23.18200
C  32.53200 48.32000 25.10400
N  26.21900 51.27200 23.70800
C  27.26900 50.88800 22.99600
C  27.06200 51.08400 21.47300
C  25.59700 51.67800 21.47100
C  25.17200 51.63200 22.92400
C  28.23000 51.94600 20.82000
C  24.59000 50.96200 20.53600
C  24.72700 51.32500 19.03800
N  24.32100 52.12800 25.74700
C  23.53800 52.43600 24.68500
C  22.28900 52.99300 25.20500
C  22.38700 52.95400 26.61100
C  23.67600 52.40500 26.88300
C  21.18100 53.63300 24.37700
C  21.69900 53.34000 27.90600
O  20.52800 53.76900 28.16900
C  22.72700 52.82000 28.99300
C  23.07900 54.05500 29.73000
O  24.11400 54.71400 29.55700
O  22.22100 54.20000 30.80500
C  22.73000 55.25800 31.64300
H  29.08800 50.06800 29.21800
H  29.06000 50.08200 22.72500
H  23.48200 52.86300 22.60200
H  25.53000 52.89800 30.79000
H  27.33300 50.60600 31.00200
H  28.95300 52.65800 30.11900
H  28.23000 52.38800 31.73800
H  27.52800 53.62300 30.62600
H  25.20900 49.95600 31.63300
H  24.01300 50.44400 30.59700
H  22.93200 51.73500 32.02000
H  24.45300 52.36200 32.70800
H  31.50700 47.88300 27.58200
H  30.70400 48.79800 28.86500
H  31.92000 49.52500 27.87700
H  33.20900 47.99100 24.31500
H  32.30600 47.48800 25.77000
H  33.00600 49.16500 25.60400
H  27.03100 50.09500 21.01500
H  25.68400 52.72500 21.18200
H  28.80700 52.32500 21.66400
H  27.87900 52.63500 20.05200
H  28.92300 51.19500 20.44200
H  23.54500 51.12500 20.80000
H  24.72700 49.88900 20.67400
H  23.91600 52.02100 18.82500
H  24.66200 50.40200 18.46100
H  25.71200 51.74500 18.83200
H  21.35800 54.67700 24.11900
H  20.26000 53.51300 24.94800
H  21.08200 52.99600 23.49800
H  22.36600 52.13100 29.75700
H  23.43700 54.81600 32.34600
H  21.96000 55.62600 32.32200
H  23.19100 56.14000 31.20000

