158

Mg 36.43200 49.14800 25.59700
C  36.93300 47.30800 28.27600
C  34.98800 51.52200 27.52400
C  35.54900 50.84700 22.73300
C  37.67400 46.60800 23.45000
N  35.93000 49.30600 27.65800
C  36.23700 48.49300 28.66100
C  35.79800 48.93400 29.96000
C  35.03100 50.26400 29.72600
C  35.33100 50.36100 28.22900
C  33.52800 50.30700 30.09800
C  37.03700 49.06400 30.90600
C  36.69700 48.64400 32.34700
H  35.21100 48.80100 32.83000
N  35.40000 50.94000 25.21200
C  34.93700 51.80600 26.12000
C  34.31400 52.96100 25.50100
C  34.47200 52.78800 24.08800
C  35.12500 51.43500 23.91700
C  33.79100 54.13200 26.38200
C  34.08100 53.78300 22.99100
O  34.29100 53.45400 21.84700
C  33.51000 55.10700 23.27700
N  36.48900 48.74400 23.36900
C  36.13800 49.62200 22.46100
C  36.47800 49.17100 21.06900
C  37.22900 47.79100 21.28100
C  37.11400 47.67500 22.76800
C  35.31000 49.20700 20.03300
C  38.62000 47.76400 20.67900
C  39.73800 48.57400 21.41000
N  37.05500 47.17000 25.71900
C  37.61100 46.27900 24.81800
C  38.08700 45.10400 25.55500
C  37.81800 45.45300 26.96000
C  37.20100 46.68700 26.99200
C  38.74000 43.92800 25.03100
C  37.87700 45.05400 28.32600
O  38.30700 43.98500 28.73800
C  37.26300 46.17000 29.24500
C  36.07700 45.56400 29.93300
O  34.98100 45.53800 29.48600
O  36.48700 45.02700 31.15100
C  35.43200 44.70500 32.11400
H  34.51600 52.22500 28.21300
H  35.28200 51.33400 21.79300
H  38.09200 45.82000 22.82000
H  35.15700 48.21500 30.47000
H  35.62100 51.02700 30.23300
H  33.09000 49.46000 30.62600
H  32.87700 50.52000 29.25000
H  33.48800 51.17000 30.76300
H  37.41500 50.08500 30.87500
H  37.84900 48.45200 30.51300
H  37.33500 49.29100 32.94900
H  37.09100 47.62800 32.35700
H  32.74600 54.34100 26.15200
H  34.36600 55.01400 26.10000
H  33.87500 54.14600 27.46900
H  32.53100 54.86800 23.69400
H  33.38600 55.61500 22.32100
H  34.13700 55.70500 23.93800
H  37.18200 49.89900 20.66600
H  36.61900 47.03700 20.78400
H  34.45100 49.47300 20.64900
H  35.13000 48.30600 19.44600
H  35.55600 49.98900 19.31400
H  38.62600 48.29200 19.72500
H  39.09100 46.78100 20.67600
H  39.82300 48.44500 22.48900
H  39.70800 49.63200 21.15000
H  40.67500 48.21400 20.98400
H  39.67400 43.88300 25.59100
H  38.93100 44.07500 23.96800
H  38.07400 43.09000 25.23800
H  37.93700 46.36500 30.07900
H  35.98600 44.45800 33.02000
H  34.95600 43.75900 31.85700
H  34.65300 45.42000 32.38000
Mg -13.31300 15.96800 40.56200
C  -10.52900 13.67600 40.48000
C  -11.19300 18.32500 39.19100
C  -16.01100 18.04200 40.03100
C  -15.33800 13.37400 41.40800
N  -11.11500 15.88000 39.77600
C  -10.20400 14.88800 39.91100
C  -8.77800 15.38300 39.61900
C  -8.98600 16.92700 39.56900
C  -10.57400 17.07900 39.45900
C  -8.50300 17.69200 40.86500
C  -8.20700 14.66100 38.34900
C  -6.77800 15.19800 38.09600
H  -6.43700 15.97300 36.82900
N  -13.53600 17.91200 39.85800
C  -12.54000 18.73000 39.35900
C  -13.14300 20.01200 39.00600
C  -14.51000 19.98100 39.34600
C  -14.72600 18.61600 39.74100
C  -12.32600 21.12900 38.37100
C  -15.44300 21.17300 39.24100
O  -15.00900 22.26300 38.93000
C  -16.88400 21.11500 39.71100
N  -15.34700 15.65700 40.56500
C  -16.27100 16.72300 40.35700
C  -17.69600 16.18900 40.64300
C  -17.44500 14.75200 41.03900
C  -15.95700 14.56600 41.03600
C  -18.63600 17.07700 41.60900
C  -18.29100 13.79200 40.18700
C  -19.62200 13.19600 40.75800
N  -13.09900 13.90500 40.88400
C  -13.95300 12.99400 41.34400
C  -13.40800 11.73200 41.57700
C  -12.01500 12.00800 41.33400
C  -11.88100 13.30500 40.86600
C  -14.00300 10.39100 41.96100
C  -10.72000 11.45800 41.43300
O  -10.40400 10.31800 41.89600
C  -9.70900 12.45000 40.82200
C  -8.74200 12.61700 41.87200
O  -8.99200 12.80200 43.09300
O  -7.52100 12.73900 41.31700
C  -6.43400 13.12700 42.21700
H  -10.51200 19.11800 38.87700
H  -16.85600 18.68600 39.77900
H  -16.12400 12.71900 41.79100
H  -8.25300 15.02500 40.50500
H  -8.50400 17.45200 38.74400
H  -7.70300 17.04000 41.21700
H  -9.21400 17.81600 41.68200
H  -8.09700 18.67400 40.62100
H  -8.81300 14.86500 37.46700
H  -8.26800 13.57500 38.41700
H  -6.08300 14.36300 38.00700
H  -6.42200 15.69400 39.00000
H  -11.31400 20.74700 38.24000
H  -12.20200 21.92000 39.11100
H  -12.80900 21.47500 37.45700
H  -16.88200 20.66600 40.70400
H  -17.51300 20.48400 39.08100
H  -17.32100 22.10300 39.85300
H  -18.28800 16.33300 39.73900
H  -17.77900 14.59700 42.06500
H  -18.14400 17.97400 41.98500
H  -19.03000 16.57500 42.49300
H  -19.46000 17.43700 40.99400
H  -17.50300 13.12400 39.84100
H  -18.49500 14.25500 39.22200
H  -19.52500 12.21400 41.22300
H  -20.23900 13.02800 39.87600
H  -20.11100 13.76400 41.54900
H  -15.08000 10.54800 41.89000
H  -13.72400 10.12800 42.98200
H  -13.73100 9.68500 41.17700
H  -9.18500 12.10900 39.92900
H  -6.51500 14.20100 42.38300
H  -5.48500 12.82000 41.77800
H  -6.50100 12.74500 43.23600

