158

Mg 2.04000 -0.43000 44.15900
C  5.42900 0.13400 43.29000
C  1.26000 2.47800 42.52800
C  -1.12100 -1.47000 44.40700
C  3.11000 -3.70500 45.23800
N  3.18600 1.12600 43.03900
C  4.51700 1.11300 42.81700
C  4.87700 2.26900 41.88000
C  3.67300 3.26500 42.09800
C  2.59600 2.28500 42.58600
C  4.08200 4.36600 43.15300
C  5.05500 1.83500 40.42400
C  6.19800 2.48500 39.65300
H  5.74600 3.18400 38.36900
N  0.27900 0.55200 43.76300
C  0.11400 1.67800 43.03000
C  -1.27300 2.07000 42.85100
C  -1.91700 0.96800 43.51200
C  -0.92200 -0.07800 43.94700
C  -1.78200 3.31400 42.10400
C  -3.35200 0.84400 43.54400
O  -4.11900 1.68000 43.04600
C  -4.05100 -0.24600 44.28300
N  1.12600 -2.30700 44.78200
C  -0.22600 -2.41500 44.79700
C  -0.54800 -3.88900 44.96300
C  0.75200 -4.52100 45.54800
C  1.72400 -3.53400 45.06100
C  -1.89900 -4.26900 45.67900
C  0.93300 -5.97000 45.13300
C  1.66500 -6.91700 46.07500
N  3.87500 -1.58700 44.32200
C  4.13100 -2.83800 44.85100
C  5.62000 -3.00100 44.81600
C  6.13600 -1.84600 44.22000
C  5.03200 -1.02900 43.95800
C  6.39400 -4.19900 45.28000
C  7.35800 -1.14600 43.78500
O  8.52400 -1.32900 43.94600
C  6.95200 0.13400 43.10900
C  7.48400 1.28600 43.90500
O  6.88300 1.74500 44.90500
O  8.57400 1.85300 43.34000
C  9.13500 3.04200 43.92300
H  0.99900 3.33600 41.90600
H  -2.07800 -1.93400 44.16200
H  3.34000 -4.71900 45.57100
H  5.83300 2.62800 42.26300
H  3.48700 3.69100 41.11200
H  3.15800 4.64400 43.65900
H  4.57900 5.22800 42.70700
H  4.67400 3.88800 43.93400
H  4.20000 1.96000 39.76000
H  5.15200 0.75200 40.50400
H  6.94300 1.72900 39.40600
H  6.77300 3.11800 40.32900
H  -2.39300 2.79200 41.36800
H  -0.93100 3.76100 41.59000
H  -2.31700 4.04500 42.71000
H  -4.98500 0.05000 44.76100
H  -3.42100 -0.71700 45.03700
H  -4.22200 -0.94900 43.46700
H  -0.69500 -4.43200 44.02900
H  0.72100 -4.39800 46.63000
H  -2.65900 -4.50600 44.93500
H  -2.15300 -3.42600 46.32000
H  -1.70100 -5.19100 46.22600
H  1.56500 -5.93200 44.24600
H  0.01400 -6.44800 44.79200
H  2.40800 -7.42200 45.45800
H  0.89100 -7.56200 46.49100
H  2.09100 -6.47600 46.97600
H  6.30900 -4.31700 46.36100
H  7.44900 -4.04800 45.04800
H  6.06900 -5.09400 44.74900
H  7.37200 0.31900 42.12100
H  9.96200 3.39600 43.30700
H  9.48500 2.85700 44.93800
H  8.35100 3.80000 43.88900
Mg 16.39600 -2.84200 27.29400
C  15.75900 -0.92900 30.17000
C  18.13600 -5.16300 29.20900
C  17.71100 -4.10900 24.46200
C  14.79800 -0.29900 25.36000
N  16.91700 -2.97800 29.37100
C  16.44600 -2.14200 30.35700
C  17.01700 -2.61000 31.73500
C  17.71800 -4.00700 31.41300
C  17.58900 -4.09500 29.89100
C  19.22400 -4.06300 31.94900
C  15.87500 -2.56400 32.87700
C  16.20100 -1.82300 34.18400
H  17.60000 -1.49600 34.63700
N  17.72600 -4.44900 26.92000
C  18.18800 -5.39700 27.77500
C  18.80200 -6.50100 27.03400
C  18.66100 -6.18400 25.62000
C  17.99900 -4.80500 25.61700
C  19.44300 -7.71900 27.62400
C  19.03700 -7.04300 24.38800
O  18.73800 -6.78800 23.23000
C  19.77100 -8.36200 24.43300
N  16.35900 -2.22500 25.17800
C  17.01300 -2.91800 24.26100
C  16.76900 -2.32300 22.81600
C  15.66300 -1.20300 23.14300
C  15.53500 -1.21800 24.62400
C  18.11100 -1.60500 22.30900
C  14.20600 -1.38800 22.49100
C  12.99600 -1.69800 23.31500
N  15.38600 -0.93600 27.66200
C  14.74600 -0.08300 26.75000
C  14.14100 1.01200 27.53100
C  14.58600 0.81000 28.83400
C  15.29300 -0.45100 28.89300
C  13.32500 2.12500 26.93400
C  14.37300 1.18900 30.26700
O  13.76300 2.15100 30.74600
C  15.25800 0.16500 31.09600
C  16.39100 1.07400 31.49100
O  17.24300 1.49600 30.70700
O  16.31900 1.41800 32.79500
C  17.19700 2.43500 33.28000
H  18.50500 -6.03700 29.75100
H  18.00900 -4.45300 23.46900
H  14.35600 0.48500 24.74200
H  17.79400 -1.93400 32.09100
H  17.10600 -4.81900 31.80600
H  19.26700 -4.73200 32.80900
H  19.64100 -3.09100 32.21100
H  19.84600 -4.37200 31.10900
H  15.48900 -3.52800 33.20900
H  14.94900 -2.14600 32.48100
H  15.80700 -2.48100 34.95800
H  15.55900 -0.94400 34.24200
H  19.68700 -7.62600 28.68200
H  20.39600 -7.74100 27.09600
H  18.80500 -8.58700 27.45900
H  20.75600 -8.24800 24.88700
H  19.90700 -8.67800 23.39900
H  19.10200 -9.02000 24.98700
H  16.40800 -3.09400 22.13500
H  16.03000 -0.23000 22.81700
H  18.14400 -0.57600 22.66600
H  18.11800 -1.40900 21.23700
H  19.02800 -2.15100 22.53000
H  14.33300 -2.18500 21.75800
H  14.02500 -0.44100 21.98300
H  12.52300 -0.72200 23.42700
H  13.08500 -2.29200 24.22500
H  12.32100 -2.23500 22.64900
H  13.94100 2.80600 26.34700
H  12.87100 2.68600 27.75100
H  12.49200 1.67100 26.39700
H  14.73800 -0.17300 31.99300
H  16.97600 3.36000 32.74800
H  18.26300 2.23200 33.17500
H  16.85200 2.58500 34.30300

