158

Mg 47.14400 16.18800 28.12200
C  44.95400 15.65800 30.86200
C  48.97100 18.34900 29.91800
C  49.25600 16.37500 25.40600
C  45.03000 14.11900 26.19200
N  46.89700 17.08000 30.13800
C  46.03900 16.59600 31.15400
C  46.36700 17.30200 32.45400
C  47.53800 18.26400 32.03800
C  47.89400 17.85000 30.55600
C  47.20500 19.80600 32.08800
C  46.80400 16.29200 33.52600
C  46.56000 16.51700 35.06300
H  47.73900 16.26500 36.05900
N  48.82600 17.28700 27.72400
C  49.49000 18.14500 28.59500
C  50.50100 18.84400 27.83600
C  50.42200 18.32400 26.48700
C  49.49300 17.26900 26.50400
C  51.34500 19.92200 28.36800
C  51.23900 18.77400 25.31500
O  50.94600 18.35500 24.20200
C  52.39300 19.79900 25.44000
N  47.04500 15.47100 26.11900
C  48.09000 15.63100 25.24700
C  47.75500 14.96400 23.99200
C  46.69200 13.93600 24.36100
C  46.22800 14.53200 25.63800
C  47.32700 15.99800 22.87100
C  47.10100 12.46000 24.59300
C  46.11500 11.33700 24.01200
N  45.32200 15.18300 28.39400
C  44.56700 14.43200 27.50100
C  43.36200 13.85200 28.21500
C  43.49900 14.29100 29.47000
C  44.71000 15.11600 29.57200
C  42.31400 13.03900 27.55900
C  42.84700 14.22500 30.77800
O  41.84000 13.63700 31.10500
C  43.85600 15.01900 31.79900
C  43.06800 16.06200 32.48600
O  42.43800 16.98400 32.00900
O  43.08100 15.83900 33.83500
C  42.34400 16.62100 34.83900
H  49.56200 19.09800 30.45000
H  49.93000 16.11200 24.58800
H  44.37300 13.41400 25.67800
H  45.56200 17.92400 32.84700
H  48.42900 18.08900 32.64100
H  46.34500 20.11600 32.68300
H  47.03200 20.13900 31.06500
H  48.03900 20.43800 32.39200
H  47.85700 16.03100 33.42100
H  46.20500 15.42100 33.26200
H  45.77300 15.80800 35.31800
H  46.21200 17.50500 35.36600
H  50.93000 20.79100 27.85800
H  52.41500 19.80800 28.19200
H  51.19500 20.00000 29.44500
H  53.08400 19.50300 26.22900
H  51.99400 20.73300 25.83800
H  52.82700 20.01200 24.46300
H  48.63200 14.34300 23.80700
H  45.77500 14.08100 23.78900
H  46.33300 15.69100 22.54500
H  48.01400 16.13400 22.03600
H  47.24400 16.99500 23.30300
H  47.19800 12.32200 25.67000
H  48.01000 12.18100 24.06100
H  45.27100 11.84100 23.54200
H  45.75000 10.65600 24.78100
H  46.62000 10.66600 23.31700
H  42.48500 11.98600 27.78400
H  42.31600 13.10000 26.47100
H  41.38200 13.51400 27.86500
H  44.30500 14.40500 32.57900
H  43.12800 17.07000 35.44800
H  41.73500 16.05200 35.54100
H  41.82700 17.43000 34.32300
Mg 46.58000 45.65400 44.42900
C  43.25900 45.05800 43.30700
C  47.41700 42.61100 42.98300
C  49.73400 46.48600 44.88200
C  45.58900 49.00500 44.88700
N  45.46500 44.06200 43.25700
C  44.14700 44.08900 42.91900
C  43.78400 42.86600 42.10700
C  45.04700 41.97900 42.21700
C  46.05200 42.94600 42.80400
C  44.85100 40.65500 43.00200
C  43.35400 43.13100 40.64900
C  42.14500 42.30500 40.08900
H  42.51400 41.28200 38.98600
N  48.36800 44.56300 44.17700
C  48.53900 43.36600 43.59800
C  49.88800 42.96800 43.75900
C  50.59300 44.14600 44.28900
C  49.55600 45.14800 44.51600
C  50.47200 41.54900 43.28400
C  52.07700 44.17000 44.43100
O  52.74100 43.16900 44.22900
C  52.89600 45.35900 44.81300
N  47.52100 47.46900 44.62100
C  48.84700 47.53100 44.93700
C  49.23700 49.00200 45.13100
C  47.98200 49.79300 45.17900
C  46.91800 48.72400 44.88200
C  50.16000 49.34300 46.39600
C  47.94600 51.10300 44.31500
C  47.98700 50.86100 42.70400
N  44.75900 46.78000 44.31900
C  44.52400 48.13100 44.56500
C  43.07400 48.37300 44.53500
C  42.57000 47.11100 44.12800
C  43.64800 46.17800 43.98200
C  42.31000 49.56200 44.96900
C  41.35300 46.37400 43.84800
O  40.15800 46.71800 44.01700
C  41.75900 45.01100 43.26700
C  41.12400 43.97000 44.13500
O  40.21900 43.24600 43.81600
O  41.61800 43.95400 45.43500
C  41.04500 42.92700 46.36600
H  47.62200 41.63900 42.53000
H  50.71700 46.75700 45.27100
H  45.19300 50.02100 44.95200
H  42.93500 42.45000 42.64900
H  45.37500 41.62600 41.23900
H  45.64800 40.56200 43.73900
H  44.87600 39.74900 42.39700
H  43.89500 40.49500 43.50000
H  44.26400 42.98200 40.06900
H  43.06700 44.18200 40.60800
H  41.44500 42.94000 39.54600
H  41.47200 41.88800 40.83900
H  51.39200 41.69700 42.72000
H  49.75500 40.96000 42.71100
H  50.65800 40.81900 44.07100
H  52.72900 46.24100 44.19400
H  53.96400 45.14400 44.84300
H  52.66400 45.74300 45.80600
H  49.78800 49.39300 44.27600
H  47.82000 50.13000 46.20300
H  51.20100 49.42800 46.08400
H  50.03700 48.44800 47.00600
H  49.81100 50.28300 46.82300
H  48.89900 51.56800 44.56800
H  47.09800 51.70300 44.64400
H  48.87700 51.38800 42.36200
H  47.07200 51.26600 42.27200
H  48.04700 49.79600 42.47600
H  42.54500 49.86000 45.99100
H  41.24500 49.33100 44.94800
H  42.48900 50.32500 44.21200
H  41.31900 44.89800 42.27700
H  41.63800 43.04300 47.27400
H  41.22900 41.88400 46.10900
H  40.05200 43.30000 46.62000

