158

Mg 40.79500 40.98900 26.69900
C  40.38500 43.38000 29.18100
C  41.58000 38.71900 29.09400
C  41.58000 38.78200 24.32800
C  40.28600 43.43100 24.32900
N  41.09700 41.13400 28.90200
C  40.58300 42.09100 29.74800
C  40.57400 41.70000 31.27600
C  41.06800 40.23700 31.10300
C  41.25100 40.01300 29.56500
C  42.34500 39.96200 31.94100
C  39.11500 41.89600 31.93300
C  39.00000 41.26200 33.31300
H  39.19100 42.22600 34.48900
N  41.59700 39.02000 26.73200
C  41.83100 38.24700 27.80100
C  42.26700 36.95800 27.40200
C  42.35900 36.90700 26.01100
C  41.87100 38.30400 25.62700
C  42.58900 35.89900 28.48500
C  42.86200 35.87400 25.05500
O  42.75900 35.92600 23.77200
C  43.46500 34.66700 25.71200
N  40.85200 41.08500 24.64100
C  41.23200 40.00500 23.82600
C  41.07400 40.34700 22.30100
C  40.47100 41.85100 22.36000
C  40.49500 42.14700 23.83800
C  42.29500 40.17400 21.37400
C  39.12300 42.06100 21.58000
C  39.26400 42.15400 20.04700
N  40.37600 42.98900 26.67600
C  40.19600 43.86700 25.64000
C  40.00400 45.17800 26.12500
C  40.08000 45.03500 27.46400
C  40.28500 43.67800 27.79600
C  40.04300 46.38000 25.29700
C  39.92300 45.76100 28.70900
O  39.65900 46.91200 29.01400
C  40.06100 44.68100 29.87700
C  41.15900 45.19400 30.80800
O  42.32200 45.34400 30.47400
O  40.76600 45.45400 32.10400
C  41.76200 45.98300 33.06400
H  41.55200 38.00900 29.92400
H  41.63300 37.98600 23.58300
H  40.06000 44.15800 23.54600
H  41.26300 42.35900 31.80400
H  40.33100 39.51800 31.46100
H  42.45900 40.64300 32.78400
H  43.24300 40.11800 31.34300
H  42.24700 38.96700 32.37500
H  38.29500 41.54000 31.30900
H  38.99300 42.97200 32.06100
H  39.65100 40.41100 33.51500
H  38.02000 40.80600 33.17700
H  42.05000 35.05700 28.05200
H  42.10900 36.01700 29.45600
H  43.65700 35.68100 28.48600
H  42.69900 34.04400 26.17300
H  44.29900 35.02400 26.31700
H  43.92000 34.03400 24.95100
H  40.25900 39.74700 21.89800
H  41.16700 42.57500 21.93600
H  41.99600 39.48100 20.58800
H  43.02900 39.53800 21.86900
H  42.74400 40.99200 20.81100
H  38.58200 42.95100 21.90400
H  38.57400 41.14200 21.78700
H  38.63000 42.97300 19.70800
H  38.93300 41.23200 19.56900
H  40.25800 42.24900 19.60900
H  40.58000 47.08500 25.93300
H  39.10200 46.84100 24.99800
H  40.68400 46.28900 24.42000
H  39.15600 44.40900 30.42000
H  41.46100 45.44900 33.96500
H  41.71000 47.03800 33.33500
H  42.79600 45.75900 32.80500
Mg -8.35700 40.26400 42.87700
C  -7.35700 36.88700 41.62500
C  -5.92700 41.55700 40.83300
C  -9.70500 43.29900 43.31700
C  -11.22500 38.75100 44.05000
N  -6.94600 39.29400 41.34700
C  -6.61700 37.93300 41.04600
C  -5.36500 37.79900 40.17500
C  -5.09100 39.32100 39.79600
C  -6.01400 40.14200 40.76500
C  -3.58200 39.79300 39.74400
C  -5.68300 36.82000 39.04700
C  -4.75200 35.60800 38.83700
H  -3.82000 35.59800 37.64400
N  -7.63800 42.21500 42.46100
C  -6.64500 42.46300 41.58400
C  -6.44300 43.93700 41.46700
C  -7.49400 44.47900 42.33500
C  -8.33900 43.31500 42.82500
C  -5.27400 44.56200 40.73900
C  -7.71900 45.91900 42.68900
O  -6.95800 46.69500 42.16000
C  -8.67700 46.41100 43.61800
N  -10.16000 40.99200 43.72800
C  -10.50200 42.28100 43.80800
C  -11.91400 42.53700 44.41100
C  -12.45200 41.03300 44.61900
C  -11.25200 40.22000 44.05500
C  -12.09100 43.58500 45.57500
C  -13.76200 40.57700 43.92300
C  -14.66700 39.72400 44.80300
N  -9.16300 38.20700 42.93500
C  -10.29900 37.76600 43.54200
C  -10.30400 36.42600 43.64100
C  -9.15000 36.07200 42.95500
C  -8.52400 37.16800 42.46800
C  -11.45000 35.51700 44.17700
C  -8.35100 34.92300 42.61800
O  -8.50300 33.74200 42.85500
C  -7.23000 35.39500 41.63800
C  -5.94800 34.94500 42.24800
O  -5.32300 35.47200 43.17300
O  -5.50300 33.79200 41.53000
C  -4.23200 33.22400 42.06600
H  -5.14700 41.98500 40.19900
H  -10.16200 44.29000 43.33000
H  -12.03500 38.23800 44.57200
H  -4.60100 37.52700 40.90400
H  -5.43800 39.49700 38.77800
H  -2.88200 38.98200 39.54300
H  -3.29400 40.26400 40.68400
H  -3.50800 40.43800 38.86800
H  -5.48000 37.46900 38.19500
H  -6.74400 36.58100 39.12000
H  -5.41900 34.75200 38.73100
H  -4.18300 35.49000 39.76000
H  -5.59400 44.72600 39.71000
H  -4.48400 43.82500 40.59000
H  -4.74400 45.40900 41.17400
H  -8.41700 47.43200 43.89900
H  -8.70100 45.72500 44.46400
H  -9.67900 46.54600 43.21200
H  -12.50300 42.94700 43.59100
H  -12.49100 40.84300 45.69200
H  -11.11700 44.07500 45.56700
H  -12.36100 43.08000 46.50200
H  -12.75700 44.41800 45.35400
H  -13.41800 40.00900 43.05800
H  -14.28400 41.49200 43.64300
H  -15.64700 40.19500 44.87900
H  -14.30800 39.93700 45.81000
H  -14.54200 38.67100 44.55000
H  -12.18400 35.41400 43.37800
H  -11.99700 35.80700 45.07400
H  -10.87500 34.59200 44.23400
H  -7.41100 34.94200 40.66400
H  -3.73100 32.76300 41.21500
H  -4.33600 32.45300 42.83000
H  -3.52700 33.95900 42.45300

