158

Mg 24.04000 -4.50700 46.10900
C  26.51100 -2.23600 44.70400
C  21.71300 -3.04800 44.24100
C  22.31400 -7.28900 46.50800
C  26.87100 -6.01300 47.85000
N  24.13600 -2.83100 44.73200
C  25.19600 -2.07800 44.25800
C  24.62900 -0.98700 43.35400
C  23.09000 -0.95400 43.68400
C  22.92300 -2.35800 44.29900
C  22.65500 0.15900 44.64200
C  24.93900 -1.27600 41.87300
C  25.48600 -0.00600 41.12000
H  26.48500 -0.20800 40.00200
N  22.22700 -5.08100 45.46600
C  21.35600 -4.32200 44.67900
C  20.14700 -5.02700 44.56700
C  20.25900 -6.30100 45.24100
C  21.66600 -6.33200 45.74800
C  18.94100 -4.38900 43.84800
C  19.12400 -7.32400 45.32400
O  18.00900 -7.01900 44.93100
C  19.27400 -8.67800 45.92400
N  24.51200 -6.35600 47.03700
C  23.60800 -7.31600 47.12100
C  24.13500 -8.52200 47.93000
C  25.48100 -8.03900 48.53500
C  25.66400 -6.67700 47.83400
C  23.19200 -9.10500 49.02200
C  26.60700 -9.17500 48.29700
C  27.61400 -9.36500 49.48400
N  26.28700 -4.22500 46.30600
C  27.18700 -4.94100 47.04500
C  28.49700 -4.28200 46.90300
C  28.31000 -3.23700 45.99200
C  26.97900 -3.22100 45.62700
C  29.80400 -4.74600 47.49000
C  28.94100 -2.13800 45.29000
O  30.09200 -1.75500 45.29300
C  27.75900 -1.45500 44.39000
C  27.54200 -0.07500 44.90700
O  26.63200 0.22100 45.73800
O  28.35400 0.80700 44.19300
C  28.04800 2.22800 44.29700
H  20.87500 -2.42300 43.92300
H  21.75700 -8.21700 46.65800
H  27.54300 -6.43800 48.59800
H  24.96000 0.04100 43.49800
H  22.54600 -0.93100 42.74000
H  23.46100 0.77200 45.04600
H  22.08200 -0.33600 45.42600
H  21.90900 0.77700 44.14100
H  24.03400 -1.70400 41.44200
H  25.61000 -2.11500 41.68800
H  25.85400 0.81900 41.72900
H  24.61700 0.33100 40.55500
H  19.23100 -3.58400 43.17300
H  18.37300 -3.89000 44.63400
H  18.36000 -5.19400 43.39900
H  20.16000 -9.09600 45.44500
H  18.43900 -9.30300 45.61100
H  19.47500 -8.61000 46.99400
H  24.39800 -9.24100 47.15400
H  25.33400 -7.72600 49.56800
H  22.17100 -8.75400 48.87400
H  23.53200 -8.70400 49.97600
H  23.28000 -10.19100 49.04600
H  27.19200 -8.96700 47.40100
H  26.09300 -10.12400 48.14700
H  28.65400 -9.22300 49.19000
H  27.45200 -10.37300 49.86600
H  27.32100 -8.58900 50.19200
H  29.63500 -5.22700 48.45400
H  30.28300 -3.79300 47.71500
H  30.42000 -5.22700 46.73100
H  27.77800 -1.52100 43.30200
H  28.56800 2.56700 45.19300
H  26.98300 2.35500 44.49500
H  28.32400 2.80300 43.41300
Mg 36.49300 49.19000 24.45400
C  36.42300 47.22000 27.56200
C  34.95800 51.71800 26.30600
C  36.17700 50.82600 21.68900
C  37.37200 46.26600 22.85300
N  35.83200 49.41600 26.73600
C  36.10500 48.57000 27.79900
C  35.59400 49.18300 29.10400
C  34.81300 50.47200 28.59200
C  35.22900 50.59300 27.14800
C  33.27100 50.68900 28.90100
C  36.72900 49.46300 30.20100
C  36.50000 48.85700 31.56900
H  35.01600 48.90200 32.24700
N  35.89800 51.12800 24.07500
C  35.28800 52.00900 25.00200
C  34.97800 53.22300 24.20400
C  35.42500 53.09500 22.83400
C  35.84600 51.68100 22.81500
C  34.34100 54.50400 24.83300
C  35.48900 54.00000 21.71700
O  35.88000 53.66900 20.61900
C  35.05500 55.45000 21.88900
N  36.87000 48.61200 22.55700
C  36.65500 49.51700 21.57900
C  36.88600 48.85100 20.21500
C  37.30100 47.45400 20.58600
C  37.04600 47.41200 22.06200
C  35.82800 48.88600 19.05200
C  38.82600 47.07300 20.22400
C  39.97200 47.61000 21.03000
N  36.85600 47.20200 25.02600
C  37.30200 46.10800 24.23300
C  37.53400 44.92900 24.99700
C  37.20200 45.40000 26.29800
C  36.75700 46.70900 26.26100
C  38.03000 43.62500 24.46600
C  37.17800 44.94600 27.70500
O  37.45400 43.89200 28.21800
C  36.68900 46.09900 28.47600
C  35.50300 45.62300 29.24900
O  34.34800 45.54500 28.84300
O  35.90200 45.17000 30.50000
C  34.87500 44.58400 31.36900
H  34.47400 52.59400 26.74200
H  35.97600 51.30700 20.72900
H  37.68500 45.38500 22.29000
H  34.96100 48.35100 29.41200
H  35.18900 51.26400 29.23900
H  32.72500 50.88600 27.97800
H  33.09400 51.42500 29.68500
H  32.89500 49.84100 29.47300
H  36.97300 50.52300 30.26500
H  37.66100 49.03500 29.83300
H  37.20400 49.42600 32.17500
H  36.87800 47.83500 31.59400
H  35.00000 55.36400 24.70500
H  34.15400 54.53600 25.90600
H  33.40800 54.70600 24.30700
H  33.97200 55.43000 22.00400
H  35.36400 55.98400 20.99000
H  35.63000 55.84200 22.72800
H  37.76600 49.34400 19.80000
H  36.56000 46.76000 20.18900
H  35.62100 49.94600 18.90100
H  34.94500 48.43900 19.50800
H  36.22700 48.40800 18.15700
H  39.07300 47.22000 19.17200
H  38.92900 45.98800 20.24600
H  39.68400 48.61100 21.35000
H  40.93700 47.71800 20.53600
H  40.29500 46.95900 21.84200
H  38.78800 43.84600 23.71400
H  37.20400 42.98400 24.15600
H  38.50500 43.05600 25.26500
H  37.48900 46.54900 29.06500
H  35.27600 44.13100 32.27600
H  34.24900 43.86400 30.84200
H  34.15300 45.33200 31.69600

