158

Mg 56.36600 24.77200 44.79100
C  53.56200 26.36200 43.56300
C  55.24200 21.75100 43.69000
C  59.36200 23.54200 45.14000
C  57.64900 28.01100 45.51700
N  54.70800 24.14500 43.73900
C  53.69200 24.96600 43.35700
C  52.64200 24.14600 42.49600
C  52.95300 22.75300 43.00700
C  54.40400 22.85800 43.44300
C  52.03200 22.22000 44.07100
C  52.99000 24.18300 40.95500
C  51.76500 24.16000 39.99800
H  51.82100 24.64400 38.55300
N  57.15600 22.81100 44.58100
C  56.52200 21.70400 44.19200
C  57.47300 20.65600 44.35000
C  58.69500 21.11100 44.73900
C  58.44600 22.56200 44.79000
C  57.05000 19.26300 44.01200
C  59.98900 20.26600 44.99500
O  59.93700 19.04700 44.89000
C  61.32600 20.80300 45.40500
N  58.21800 25.63700 45.19600
C  59.35700 24.90400 45.26900
C  60.62600 25.75000 45.55700
C  59.99900 27.15400 45.73800
C  58.48100 26.92700 45.50800
C  61.61600 25.29400 46.52100
C  60.59700 28.35500 44.87100
C  60.38900 28.19900 43.36200
N  55.64400 26.80500 44.88300
C  56.25600 27.99500 45.25300
C  55.24500 29.06800 45.13200
C  54.12700 28.39600 44.45600
C  54.49300 27.07400 44.28700
C  55.44500 30.51900 45.54000
C  52.93500 28.68500 43.80800
O  52.37800 29.73100 43.51300
C  52.36300 27.32300 43.40300
C  51.98500 27.55500 41.95800
O  52.72200 27.57800 41.01800
O  50.61700 27.79100 41.92100
C  49.85200 28.05300 40.67500
H  54.74800 20.79800 43.49200
H  60.38500 23.17400 45.24700
H  58.12300 28.97100 45.73200
H  51.66000 24.55500 42.73200
H  52.99800 21.96900 42.25100
H  51.22600 22.92200 44.28400
H  52.44300 21.90600 45.03100
H  51.44400 21.32200 43.87900
H  53.61400 23.33700 40.66500
H  53.55700 25.07200 40.67700
H  51.03000 24.68200 40.61000
H  51.32500 23.16900 40.11200
H  57.86200 18.95400 43.35400
H  56.12100 19.17500 43.44900
H  56.96100 18.64300 44.90400
H  61.15200 21.19200 46.40800
H  61.50700 21.50200 44.58800
H  62.16300 20.10800 45.45700
H  61.11600 25.73500 44.58400
H  59.98500 27.45900 46.78400
H  61.19900 24.57400 47.22500
H  61.98500 26.20100 46.99900
H  62.39500 24.75300 45.98300
H  61.66100 28.36100 45.10800
H  60.15600 29.30100 45.18200
H  59.76900 27.31400 43.21500
H  61.35500 28.16300 42.85900
H  59.78800 29.05300 43.05200
H  54.84600 31.00100 44.76700
H  56.47300 30.87700 45.59600
H  55.04800 30.77100 46.52300
H  51.43000 26.98400 43.85300
H  49.01000 27.36000 40.66000
H  50.49900 27.65400 39.89500
H  49.42100 29.03700 40.49100
Mg -11.72600 15.98000 41.64900
C  -8.56900 14.88600 40.89200
C  -11.15700 18.99900 40.15500
C  -15.01700 16.65200 41.83600
C  -12.41200 12.63600 42.67100
N  -10.04100 16.68300 40.37100
C  -8.79100 16.19300 40.50400
C  -7.78100 17.21800 39.94200
C  -8.62500 18.48900 39.68100
C  -10.07300 18.08400 40.25700
C  -8.05800 19.80200 40.38200
C  -7.01100 16.70500 38.68000
C  -5.62000 17.23500 38.69200
H  -5.34000 18.33600 37.70700
N  -12.91100 17.64700 41.00700
C  -12.48600 18.81500 40.57200
C  -13.59600 19.66300 40.31200
C  -14.77800 19.00000 40.76900
C  -14.24600 17.71300 41.27800
C  -13.44600 20.99600 39.57700
C  -16.24600 19.53800 40.57800
O  -16.43000 20.68500 40.15800
C  -17.44000 18.66800 40.88900
N  -13.44200 14.74400 42.24600
C  -14.69600 15.37900 42.26600
C  -15.78200 14.34400 42.62100
C  -14.98000 13.00400 42.70500
C  -13.50400 13.47700 42.64100
C  -16.50800 14.71400 43.93800
C  -15.17200 11.98400 41.45400
C  -15.45600 10.55000 41.95500
N  -10.73600 14.14300 41.82600
C  -11.05500 12.90800 42.26400
C  -9.93700 11.99900 42.23900
C  -8.80400 12.75500 41.79900
C  -9.43000 14.01200 41.45100
C  -9.90900 10.55200 42.57400
C  -7.44600 12.79500 41.63400
O  -6.53300 11.97900 41.92100
C  -7.17100 14.11700 40.88500
C  -6.16000 14.85100 41.70100
O  -6.22400 15.22600 42.84400
O  -4.98600 14.93200 40.90200
C  -3.79500 15.17900 41.77800
H  -10.92700 19.97500 39.72400
H  -16.10500 16.73500 41.86600
H  -12.67400 11.64200 43.04200
H  -7.14300 17.37000 40.81300
H  -8.66600 18.73100 38.61900
H  -8.10800 20.64700 39.69500
H  -7.07800 19.67200 40.84300
H  -8.83600 20.07400 41.09500
H  -7.48600 17.04400 37.75900
H  -7.10300 15.62000 38.64000
H  -5.05200 16.32700 38.48800
H  -5.37200 17.55900 39.70300
H  -12.57000 21.04900 38.93100
H  -13.24100 21.73800 40.34900
H  -14.34400 21.28500 39.03000
H  -18.30100 19.15800 40.43300
H  -17.46800 18.46600 41.96000
H  -17.33100 17.68300 40.43600
H  -16.48900 14.33300 41.79200
H  -15.37400 12.59300 43.63500
H  -16.90500 15.72700 43.87300
H  -15.91200 14.59800 44.84400
H  -17.24600 13.91600 44.00600
H  -14.25500 11.96000 40.86500
H  -15.94200 12.45700 40.84500
H  -16.28000 10.24300 41.31200
H  -15.56600 10.49800 43.03900
H  -14.52800 10.05300 41.67300
H  -10.71000 10.34900 43.28500
H  -8.94800 10.38500 43.06000
H  -10.13500 9.98000 41.67400
H  -6.84100 14.07900 39.84600
H  -2.90500 15.31000 41.16200
H  -3.63200 14.42400 42.54600
H  -3.98900 16.06300 42.38600

