158

Mg 29.75300 58.10300 40.92200
C  26.99600 56.11000 39.76400
C  31.84300 55.54800 39.66900
C  32.30600 60.27500 41.12100
C  27.43700 60.81900 41.20200
N  29.48000 56.02800 39.82600
C  28.26100 55.43200 39.56800
C  28.42300 53.97700 39.06300
C  30.00600 53.76300 39.25700
C  30.49800 55.16400 39.64000
C  30.40900 52.81200 40.38800
C  28.00300 53.84000 37.56100
C  28.33100 54.97600 36.47300
H  27.13400 55.64800 35.69800
N  31.76200 57.88500 40.55900
C  32.46300 56.82300 40.06600
C  33.87100 57.12200 39.89000
C  34.00600 58.44100 40.36200
C  32.68000 59.00300 40.69500
C  34.97100 56.21600 39.23000
C  35.33900 59.21300 40.31300
O  36.31600 58.61800 39.86700
C  35.56500 60.61800 40.91900
N  29.79800 60.24200 40.98400
C  31.03900 60.80600 41.30000
C  30.84300 62.26900 41.72400
C  29.31100 62.43300 41.75500
C  28.79800 61.08000 41.27600
C  31.45900 62.63500 43.11400
C  28.67500 63.59100 41.03000
C  28.16400 64.73400 42.02200
N  27.60400 58.43700 40.69700
C  26.86300 59.56100 40.86200
C  25.47200 59.19300 40.78600
C  25.45900 57.87100 40.29300
C  26.83000 57.45100 40.23200
C  24.26400 60.16300 41.04000
C  24.58900 56.78800 39.80500
O  23.39100 56.63100 39.69500
C  25.58900 55.67000 39.35000
C  25.08500 54.42500 39.98400
O  25.12700 54.25200 41.19400
O  24.60500 53.55500 39.04400
C  23.90900 52.31800 39.61900
H  32.51200 54.73800 39.36900
H  32.96400 61.13700 41.24900
H  26.75100 61.63500 41.43900
H  27.84600 53.25900 39.64400
H  30.43400 53.47000 38.29900
H  29.48600 52.39000 40.78600
H  30.95700 53.28100 41.20600
H  30.89900 51.94400 39.94600
H  26.92300 53.69900 37.51900
H  28.36000 52.93800 37.06500
H  29.01000 54.51500 35.75600
H  28.89900 55.72300 37.02700
H  35.57300 56.66500 38.44100
H  34.50900 55.33000 38.79300
H  35.68900 55.91900 39.99500
H  35.13000 61.37100 40.26100
H  36.61100 60.89700 41.04300
H  35.11200 60.54700 41.90800
H  31.20800 62.98100 40.98400
H  28.99200 62.38200 42.79600
H  32.07000 61.78200 43.41000
H  30.76500 62.84600 43.92800
H  32.18100 63.45100 43.09400
H  27.76100 63.23500 40.55600
H  29.33000 63.95200 40.23700
H  28.82500 65.01800 42.84100
H  27.15300 64.55100 42.38400
H  28.05500 65.59000 41.35500
H  24.42300 61.17500 41.41200
H  23.59000 59.67600 41.74500
H  23.82200 60.38100 40.06800
H  25.49600 55.52100 38.27400
H  22.84100 52.50100 39.73400
H  24.40800 51.96900 40.52300
H  23.90600 51.63400 38.77000
Mg 5.93800 55.14100 40.29800
C  5.58100 51.58400 40.38500
C  9.27700 54.62700 39.55300
C  6.10000 58.23500 39.35300
C  2.43400 55.39700 40.73800
N  7.19800 53.28000 39.99800
C  6.88700 51.97400 40.09000
C  8.04900 51.09900 39.81600
C  9.28100 52.09000 39.94000
C  8.54400 53.47600 39.79000
C  10.06000 52.08100 41.25100
C  7.99700 50.44600 38.40600
C  7.55600 51.36100 37.19300
H  6.26900 51.13700 36.39300
N  7.48700 56.26200 39.72000
C  8.80800 55.93100 39.46000
C  9.66800 57.04900 39.31000
C  8.72500 58.12800 39.15900
C  7.34600 57.61200 39.47400
C  11.20400 57.01800 39.07700
C  9.12200 59.57400 38.82100
O  10.29300 59.82100 38.58500
C  8.17600 60.74300 38.94400
N  4.46000 56.53800 39.87000
C  4.80300 57.82400 39.65300
C  3.58400 58.77600 39.65600
C  2.43900 57.86700 40.21600
C  3.15600 56.49800 40.37500
C  3.71000 60.16200 40.27700
C  1.25400 57.70700 39.28200
C  -0.10000 58.26900 39.78600
N  4.29200 53.82400 40.56600
C  2.95100 54.07800 40.81000
C  2.25900 52.79100 40.97900
C  3.21700 51.76500 40.98800
C  4.42200 52.43200 40.55000
C  0.79900 52.58400 41.09500
C  3.41300 50.33400 41.01900
O  2.61900 49.43500 41.27800
C  4.99400 50.22000 40.72500
C  5.05800 49.31300 39.57400
O  4.78000 49.51000 38.38900
O  5.62300 48.12900 40.06600
C  5.50800 46.93800 39.20100
H  10.35000 54.59300 39.35300
H  6.02500 59.30500 39.15100
H  1.38900 55.59600 40.98600
H  8.16800 50.41000 40.65200
H  10.01400 51.95500 39.14500
H  9.96500 52.99700 41.83300
H  11.09800 51.83600 41.02300
H  9.64500 51.38200 41.97700
H  7.28700 49.62100 38.46200
H  9.00700 50.05800 38.28200
H  8.37300 51.25600 36.47900
H  7.70900 52.43600 37.28800
H  11.28000 56.62800 38.06200
H  11.70000 56.32400 39.75600
H  11.69700 57.98300 39.19000
H  8.86600 61.57900 38.83100
H  7.57800 60.75900 39.85500
H  7.60400 60.67800 38.01800
H  3.41400 58.97900 38.59800
H  2.06800 58.20500 41.18300
H  2.77200 60.35500 40.79800
H  3.79500 60.95200 39.53000
H  4.56100 60.24600 40.95300
H  1.00500 56.69100 38.97700
H  1.38800 58.29400 38.37300
H  -0.16200 58.70700 40.78300
H  -0.82000 57.45200 39.80600
H  -0.47100 59.01400 39.08200
H  0.47400 52.75300 40.06900
H  0.34200 53.34900 41.72300
H  0.42700 51.62200 41.44700
H  5.39600 49.76700 41.63200
H  6.07900 46.08700 39.57000
H  5.83000 47.25300 38.20900
H  4.48200 46.57000 39.19000

