158

Mg 17.51600 -1.21300 28.21100
C  16.53700 0.67400 31.02100
C  19.70300 -3.03400 30.24500
C  19.03700 -2.60500 25.54700
C  15.83000 1.00500 26.17300
N  18.17200 -1.01300 30.31900
C  17.45200 -0.34900 31.31400
C  17.96100 -0.64900 32.74800
C  19.10100 -1.70300 32.39600
C  18.92500 -2.00200 30.90800
C  20.55900 -1.30100 32.61000
C  16.90000 -1.18200 33.76000
C  16.68900 -0.19800 34.94200
H  17.86700 0.45300 35.51400
N  18.90100 -2.88500 27.95300
C  19.64500 -3.46700 28.90400
C  20.55900 -4.35800 28.23100
C  20.19500 -4.34000 26.83000
C  19.32200 -3.28000 26.74600
C  21.43700 -5.35400 29.06300
C  20.71100 -5.19500 25.70500
O  20.59600 -4.96600 24.54200
C  21.53900 -6.50400 25.90800
N  17.54700 -0.74200 26.11100
C  18.23700 -1.53700 25.25600
C  18.15500 -1.01400 23.86000
C  17.06400 0.05100 24.04200
C  16.78100 0.16800 25.54600
C  19.56600 -0.67300 23.28600
C  15.82300 -0.26400 23.12100
C  14.64100 -0.86300 23.84200
N  16.36900 0.51500 28.48900
C  15.63100 1.24800 27.59500
C  14.88000 2.28700 28.30200
C  15.22200 2.00700 29.64600
C  16.15000 0.99700 29.75100
C  14.05100 3.33600 27.67400
C  14.89900 2.47100 30.96300
O  14.16200 3.32100 31.40400
C  15.78000 1.63700 31.90000
C  16.68600 2.64000 32.57000
O  17.82800 2.80600 32.17500
O  16.01000 3.17700 33.63000
C  16.82100 4.11700 34.44400
H  20.35300 -3.62200 30.89600
H  19.46300 -2.87400 24.57800
H  15.31500 1.71600 25.52300
H  18.43600 0.27400 33.08000
H  18.85000 -2.63000 32.91300
H  21.02200 -0.92400 31.69800
H  21.19700 -2.04200 33.09300
H  20.61700 -0.48600 33.33100
H  17.09500 -2.18100 34.15200
H  15.94900 -1.37000 33.26100
H  16.17100 -0.72400 35.74300
H  15.99800 0.56100 34.57700
H  22.15300 -4.81000 29.67900
H  22.07100 -5.89800 28.36300
H  20.76100 -6.02600 29.59100
H  21.16100 -7.15700 26.69500
H  22.55400 -6.22200 26.18600
H  21.60000 -7.05300 24.96800
H  17.77700 -1.87100 23.30300
H  17.41800 1.04500 23.76900
H  20.47800 -1.00400 23.78200
H  19.68200 0.41100 23.26600
H  19.68200 -1.09600 22.28800
H  16.04900 -1.03200 22.38100
H  15.47500 0.68000 22.70300
H  14.05500 -0.00800 24.18000
H  15.00500 -1.39000 24.72400
H  14.08000 -1.55400 23.21300
H  14.50000 3.70500 26.75200
H  14.03500 4.13500 28.41500
H  13.03200 3.07500 27.38800
H  15.15600 1.27100 32.71500
H  17.85800 4.36300 34.21600
H  16.76700 3.79900 35.48500
H  16.28600 5.06600 34.49300
Mg 47.62200 16.47000 28.73600
C  45.88300 15.74800 31.73000
C  49.91900 18.21600 30.57900
C  49.31700 16.98700 25.96500
C  44.98400 14.79200 27.00500
N  47.80700 16.92500 30.86600
C  47.04100 16.50600 31.89500
C  47.67800 16.83400 33.23300
C  48.63800 18.09700 32.81400
C  48.80500 17.71500 31.29300
C  47.86400 19.48200 33.01800
C  48.36000 15.64500 33.96400
C  48.28000 15.74200 35.51900
H  47.90300 17.16700 36.20900
N  49.43500 17.25800 28.36200
C  50.28900 17.96800 29.20900
C  51.52000 18.32600 28.47400
C  51.23100 18.10800 27.15900
C  49.93500 17.46000 27.12600
C  52.81800 18.97700 29.18500
C  52.12600 18.53700 25.95900
O  51.89600 18.31100 24.79100
C  53.39700 19.37200 26.14800
N  47.08100 16.13900 26.74600
C  48.01200 16.40400 25.77200
C  47.54600 15.82800 24.46800
C  46.34200 14.96000 24.76900
C  46.10900 15.26700 26.26800
C  47.28000 16.96800 23.38500
C  46.55700 13.55700 24.35400
C  45.32500 12.69400 24.19800
N  45.71300 15.52300 29.24600
C  44.81300 14.85900 28.47000
C  43.77100 14.25700 29.26600
C  44.19600 14.54900 30.58200
C  45.31100 15.32400 30.50200
C  42.53100 13.69200 28.82900
C  43.90500 14.34600 31.97400
O  43.14100 13.63100 32.54100
C  44.94300 15.19100 32.75500
C  44.22300 16.33500 33.47600
O  44.13300 17.48900 33.14300
O  43.80600 15.85900 34.67400
C  43.29400 16.81400 35.66400
H  50.66500 18.70700 31.20700
H  49.70100 17.17600 24.96000
H  44.35400 14.17200 26.36300
H  46.84400 17.07000 33.89300
H  49.60600 18.18000 33.30800
H  47.91900 19.95600 33.99800
H  46.81800 19.25400 32.81300
H  48.14900 20.22900 32.27700
H  49.41800 15.64500 33.70300
H  47.81800 14.75200 33.65400
H  49.27400 15.48800 35.88600
H  47.69800 14.90000 35.89400
H  53.68500 18.31900 29.12200
H  52.57200 18.88800 30.24300
H  52.93800 20.03400 28.94500
H  53.24900 20.27300 26.74400
H  53.77300 19.74300 25.19500
H  54.17900 18.79900 26.64600
H  48.31800 15.23100 23.98200
H  45.52000 15.32900 24.15400
H  47.55800 17.99400 23.62600
H  46.22800 16.99900 23.10100
H  47.84400 16.76400 22.47500
H  47.16800 13.05800 25.10600
H  47.18400 13.42900 23.47200
H  45.46800 11.82000 24.83300
H  45.23700 12.48800 23.13100
H  44.40100 13.15600 24.54500
H  42.71200 12.64200 28.60100
H  42.15400 14.24000 27.96500
H  41.78900 13.88200 29.60400
H  45.42300 14.48500 33.43300
H  42.25600 16.61200 35.93000
H  43.42200 17.87600 35.45400
H  43.82500 16.68600 36.60700

