158

Mg 2.40300 -2.12100 44.73700
C  5.83100 -1.57500 44.28900
C  1.77500 0.43700 42.52800
C  -0.80300 -3.00100 44.80300
C  3.21600 -5.02000 46.51300
N  3.67000 -0.77400 43.50400
C  5.09200 -0.68300 43.48200
C  5.52700 0.30600 42.39300
C  4.24000 1.15600 42.07800
C  3.14900 0.16800 42.74100
C  4.03000 2.56300 42.72200
C  6.22800 -0.25700 41.09300
C  7.68000 0.18600 40.86800
H  8.06200 0.70400 39.42800
N  0.68100 -1.19900 43.98800
C  0.64000 -0.19900 43.10100
C  -0.71600 0.20400 42.94100
C  -1.54400 -0.75200 43.63900
C  -0.56200 -1.70800 44.22300
C  -1.13900 1.39000 42.05300
C  -3.05900 -0.84900 43.63900
O  -3.73900 -0.13400 42.97000
C  -3.82800 -1.84300 44.54700
N  1.41700 -3.92800 45.35800
C  0.05200 -3.96400 45.39900
C  -0.39200 -5.36200 45.75100
C  0.78300 -5.89500 46.53000
C  1.92300 -4.83000 46.10300
C  -1.78700 -5.37100 46.52800
C  1.13600 -7.37900 46.08000
C  1.49400 -8.31900 47.24300
N  4.07100 -2.97000 45.44300
C  4.28500 -4.13400 46.16800
C  5.69400 -4.39500 46.41700
C  6.32600 -3.35100 45.72300
C  5.31600 -2.61100 45.10600
C  6.31400 -5.54400 47.28000
C  7.62800 -2.79500 45.38600
O  8.77000 -3.27300 45.50400
C  7.36200 -1.65500 44.31500
C  8.05100 -0.37400 44.76700
O  9.13000 -0.02900 44.37600
O  7.18700 0.29300 45.58900
C  7.52900 1.69300 45.87900
H  1.63500 1.27600 41.84400
H  -1.84900 -3.26200 44.63000
H  3.60400 -5.84900 47.10900
H  6.26700 0.96100 42.85400
H  3.97400 1.28800 41.02900
H  5.03300 2.97100 42.84900
H  3.47600 2.60000 43.66000
H  3.63900 3.27700 41.99700
H  5.73900 0.06100 40.17300
H  6.21800 -1.34500 41.02500
H  8.30800 -0.70100 40.95100
H  8.01500 0.79900 41.70500
H  -0.38700 1.57500 41.28600
H  -1.12700 2.30200 42.65000
H  -2.06600 1.20700 41.50800
H  -4.88300 -1.57100 44.50100
H  -3.53900 -1.66000 45.58200
H  -3.73900 -2.92000 44.40100
H  -0.53900 -5.94800 44.84400
H  0.62300 -5.81600 47.60600
H  -1.65400 -5.84100 47.50200
H  -2.58100 -5.84000 45.94600
H  -2.09500 -4.37100 46.83200
H  2.00400 -7.38200 45.42000
H  0.27500 -7.69400 45.49000
H  0.76300 -9.10600 47.05800
H  1.31600 -7.79400 48.18200
H  2.52400 -8.67300 47.24000
H  5.81900 -6.46800 46.98300
H  6.18200 -5.28700 48.33100
H  7.38900 -5.54400 47.09800
H  7.88800 -1.94300 43.40500
H  7.40000 1.72000 46.96100
H  6.73900 2.38200 45.58300
H  8.49800 2.06000 45.53800
Mg 48.23500 16.36700 28.64800
C  46.16600 15.91500 31.37100
C  50.40600 18.00000 30.76400
C  49.97400 17.17700 25.97000
C  45.65700 15.07900 26.53500
N  48.23800 16.94700 30.82300
C  47.35000 16.55600 31.76600
C  47.76900 16.98800 33.16700
C  48.99100 17.91500 32.90500
C  49.25500 17.68900 31.39200
C  48.78100 19.49200 33.15300
C  48.12300 15.61800 33.80600
C  48.59300 15.64700 35.27900
H  48.59500 16.93800 36.21900
N  50.05700 17.39200 28.44100
C  50.82400 17.85700 29.43700
C  52.03100 18.40600 28.79200
C  51.97100 18.15200 27.36100
C  50.58400 17.59500 27.15000
C  53.07000 19.13100 29.55500
C  52.95800 18.35800 26.24500
O  52.70100 18.25100 25.06800
C  54.41600 18.69800 26.47300
N  47.82000 16.13000 26.48500
C  48.78500 16.45700 25.62800
C  48.34500 16.18200 24.17200
C  47.12300 15.26300 24.38200
C  46.82200 15.47600 25.90000
C  48.09700 17.43600 23.20800
C  47.32400 13.72100 24.10500
C  47.68300 12.75300 25.29100
N  46.33700 15.58900 28.85800
C  45.37000 15.07400 27.95100
C  44.24900 14.67600 28.61900
C  44.49100 15.03100 29.96100
C  45.76300 15.54500 30.05600
C  43.09100 14.09600 27.99600
C  43.89800 14.89800 31.27000
O  42.86100 14.35800 31.69300
C  44.96300 15.57800 32.19300
C  44.34200 16.71100 32.87900
O  43.93200 17.76000 32.45300
O  44.21200 16.39600 34.21500
C  43.60400 17.38100 35.09700
H  51.17100 18.39700 31.43500
H  50.54700 17.31000 25.05000
H  44.81600 14.61800 26.01300
H  46.98300 17.45000 33.76400
H  49.82700 17.47100 33.44600
H  47.79100 19.73800 33.53800
H  48.84300 20.00300 32.19300
H  49.57300 19.83900 33.81600
H  48.98800 15.20400 33.28800
H  47.41600 14.82300 33.56700
H  49.62700 15.33100 35.14200
H  48.07600 14.85800 35.82400
H  52.51400 19.84100 30.16600
H  53.73000 19.77000 28.96700
H  53.58300 18.39400 30.17200
H  55.02300 17.88800 26.87800
H  54.48100 19.52800 27.17600
H  54.84900 19.10000 25.55700
H  49.07100 15.51100 23.71300
H  46.25200 15.64100 23.84700
H  48.59000 18.28200 23.68700
H  47.06100 17.72800 23.03100
H  48.60300 17.08500 22.30800
H  48.15600 13.67500 23.40300
H  46.50000 13.29300 23.53500
H  47.81900 13.20900 26.27200
H  48.47500 12.03200 25.08500
H  46.85800 12.07400 25.50500
H  42.77600 14.85100 27.27600
H  42.33100 14.05200 28.77700
H  43.23100 13.09600 27.58600
H  45.22000 14.80200 32.91500
H  43.50000 18.40100 34.72600
H  44.08700 17.32900 36.07300
H  42.61200 16.95100 35.23500

