158

Mg 24.72000 -6.06900 45.67900
C  26.80600 -3.70700 44.39200
C  22.18200 -4.91400 43.73300
C  22.96700 -8.95000 46.33600
C  27.45800 -7.30100 47.54900
N  24.57500 -4.44700 44.17000
C  25.58800 -3.67300 43.75100
C  25.12400 -2.74200 42.52500
C  23.56300 -2.96100 42.63200
C  23.40300 -4.15700 43.53900
C  22.70000 -1.78800 43.08900
C  25.72300 -3.29000 41.19200
C  26.44700 -2.24500 40.27800
H  25.94100 -2.22200 38.76100
N  22.75200 -6.82000 45.18000
C  21.91700 -6.16700 44.38200
C  20.71800 -7.00000 44.30400
C  20.88800 -8.15100 44.98200
C  22.25600 -8.00900 45.57400
C  19.59600 -6.62300 43.30800
C  19.86900 -9.29600 45.10000
O  18.72600 -9.11400 44.62400
C  20.13600 -10.50900 45.86000
N  25.12600 -7.82900 46.78900
C  24.25700 -8.84000 46.93600
C  24.84100 -10.04000 47.75300
C  26.19000 -9.46800 48.22800
C  26.29900 -8.11900 47.47100
C  23.87800 -10.59500 48.84000
C  27.34100 -10.51000 48.09200
C  28.32200 -10.54900 49.29600
N  26.67400 -5.47100 46.19600
C  27.70200 -6.14900 46.83500
C  28.94400 -5.46500 46.61900
C  28.61800 -4.41700 45.69300
C  27.30300 -4.54500 45.45600
C  30.30400 -5.73900 47.22600
C  29.15600 -3.29500 44.99200
O  30.31100 -2.88600 44.96500
C  28.01400 -2.91600 43.96900
C  27.69300 -1.46600 44.02900
O  26.96400 -0.98000 44.84900
O  28.30100 -0.90000 42.95700
C  28.28500 0.55900 42.99900
H  21.42200 -4.41400 43.12800
H  22.41600 -9.87900 46.49900
H  28.32800 -7.80200 47.98100
H  25.41200 -1.72700 42.79900
H  23.23900 -3.43100 41.70300
H  22.18200 -2.10800 43.99300
H  22.05000 -1.43000 42.29000
H  23.27700 -0.95500 43.49100
H  24.95200 -3.80400 40.61900
H  26.47700 -4.02200 41.48300
H  27.40300 -2.76900 40.27000
H  26.50500 -1.26500 40.75100
H  20.00000 -6.05500 42.47000
H  18.70800 -6.19000 43.76800
H  19.35500 -7.55400 42.79500
H  19.23100 -11.11100 45.78800
H  20.34300 -10.27900 46.90500
H  20.95400 -11.02000 45.35200
H  24.95200 -10.74800 46.93200
H  26.07300 -9.27500 49.29400
H  23.60100 -11.59200 48.49800
H  23.02500 -9.92900 48.97100
H  24.38500 -10.63700 49.80400
H  27.87200 -10.27000 47.17100
H  26.86900 -11.48800 47.99600
H  29.34900 -10.87700 49.13800
H  27.93100 -11.16300 50.10700
H  28.34800 -9.49800 49.58400
H  30.39400 -5.27500 48.20800
H  31.05700 -5.37300 46.52800
H  30.63300 -6.76300 47.40200
H  28.27500 -3.28400 42.97700
H  28.45000 0.82400 41.95500
H  29.12500 1.03400 43.50600
H  27.34300 1.00600 43.31500
Mg -4.52300 26.00600 25.92700
C  -2.96000 27.18300 28.90500
C  -6.45800 24.07400 27.82700
C  -5.46300 24.30400 23.16900
C  -2.12200 27.73600 24.09600
N  -4.60300 25.67300 28.10800
C  -4.02600 26.36200 29.16100
C  -4.69700 25.92700 30.51300
C  -5.59400 24.70300 30.14300
C  -5.58000 24.82900 28.60300
C  -5.01700 23.37600 30.70500
C  -5.52200 27.16200 31.06200
C  -5.34800 27.34900 32.60300
H  -4.81600 26.24800 33.50800
N  -5.93200 24.48200 25.49000
C  -6.61000 23.84900 26.44500
C  -7.55900 22.97300 25.79500
C  -7.15000 22.91600 24.40800
C  -6.16900 23.90100 24.24600
C  -8.52100 22.09500 26.59600
C  -7.71800 22.07800 23.27500
O  -7.20400 22.04100 22.11000
C  -8.81800 21.11800 23.47700
N  -3.84300 25.97100 23.91000
C  -4.37300 25.18300 22.92400
C  -3.52100 25.29400 21.66900
C  -2.63900 26.55900 21.88500
C  -2.86600 26.84600 23.38000
C  -2.89800 23.96000 21.23500
C  -3.11600 27.76100 20.98200
C  -2.08300 28.59500 20.10800
N  -2.96500 27.40200 26.34100
C  -2.12900 28.08500 25.47900
C  -1.29400 28.97200 26.24700
C  -1.54000 28.54500 27.59300
C  -2.61600 27.60800 27.58700
C  -0.41800 30.10700 25.67900
C  -1.17200 28.86100 28.94200
O  -0.33400 29.68900 29.34000
C  -2.08500 27.95900 29.86500
C  -1.22600 27.17700 30.77200
O  -0.36700 26.32400 30.50500
O  -1.52700 27.53400 32.01800
C  -0.76400 26.97300 33.12400
H  -7.14100 23.45200 28.41000
H  -5.69100 23.64300 22.33000
H  -1.38300 28.15300 23.40900
H  -3.91000 25.78600 31.25500
H  -6.60300 24.85700 30.52600
H  -3.97000 23.46500 30.99500
H  -5.06300 22.63500 29.90600
H  -5.66100 23.03300 31.51500
H  -6.52000 27.00100 30.65400
H  -5.09100 28.04300 30.58700
H  -6.26200 27.67400 33.10000
H  -4.63200 28.16300 32.71300
H  -8.05100 21.14100 26.83700
H  -9.38300 21.77100 26.01300
H  -8.81100 22.58000 27.52800
H  -9.09200 20.48600 22.63200
H  -9.65600 21.72100 23.82600
H  -8.52900 20.45400 24.29100
H  -4.20000 25.52400 20.84800
H  -1.62600 26.33500 21.55200
H  -1.82200 23.98800 21.40200
H  -3.15800 23.66200 20.21900
H  -3.20400 23.20100 21.95500
H  -3.64300 28.36900 21.71800
H  -3.84400 27.32900 20.29400
H  -1.25800 27.96700 19.76900
H  -1.83000 29.52600 20.61500
H  -2.49700 28.88000 19.14100
H  -0.33100 30.68300 26.60000
H  -1.01400 30.58600 24.90100
H  0.57200 29.76200 25.38000
H  -2.72400 28.67100 30.38800
H  -0.97800 25.91300 33.26200
H  -1.00400 27.47600 34.06100
H  0.28100 27.07600 32.83200

