158

Mg 53.50600 23.99700 45.24700
C  50.87700 26.36900 44.73000
C  51.32700 21.56800 44.61900
C  56.18300 22.20500 44.54100
C  55.64000 26.96400 45.39700
N  51.39300 23.99800 44.69200
C  50.52800 25.04800 44.45200
C  49.16100 24.56000 43.96900
C  49.18300 23.16700 44.65700
C  50.72100 22.82400 44.59800
C  48.64000 23.03400 46.15200
C  49.04800 24.52300 42.37900
C  47.67800 24.09300 41.79000
H  47.51600 24.06600 40.24800
N  53.78200 22.09700 44.70000
C  52.72200 21.21500 44.63500
C  53.25800 19.90900 44.40000
C  54.73400 19.99000 44.39000
C  54.99100 21.43700 44.53900
C  52.43300 18.64800 44.25000
C  55.68300 18.86800 44.36400
O  55.28100 17.74400 44.31900
C  57.13900 19.04000 44.30400
N  55.56600 24.54600 44.91200
C  56.47300 23.53300 44.71300
C  57.89200 24.12000 44.88700
C  57.68500 25.65800 44.72600
C  56.17800 25.76300 45.05000
C  58.58000 23.72900 46.21800
C  58.00800 26.33200 43.32300
C  56.78500 26.64600 42.40200
N  53.28200 26.21700 45.40600
C  54.23400 27.18000 45.58000
C  53.52600 28.47100 45.58800
C  52.22000 28.20700 45.25000
C  52.12500 26.80500 45.12600
C  54.24800 29.76600 45.70600
C  50.95600 28.77500 44.85800
O  50.57800 29.93300 44.82300
C  50.04800 27.61400 44.57100
C  49.39800 27.79000 43.18800
O  50.01900 27.76500 42.13200
O  48.03200 27.94500 43.36200
C  47.36300 28.04500 42.08400
H  50.68300 20.69100 44.70600
H  57.07900 21.60600 44.36600
H  56.25200 27.86300 45.48900
H  48.39000 25.22400 44.36100
H  48.73700 22.37200 44.05700
H  49.26000 22.45400 46.83600
H  47.59400 22.72900 46.12900
H  48.62500 24.00600 46.64600
H  49.72900 23.74200 42.04100
H  49.45900 25.41800 41.91000
H  46.87800 24.74000 42.14800
H  47.40600 23.10300 42.15900
H  51.41500 18.76000 44.62300
H  52.86600 17.80100 44.78300
H  52.35400 18.42900 43.18500
H  57.67600 18.19400 44.73400
H  57.25300 19.81800 45.05800
H  57.54600 19.24300 43.31300
H  58.56100 23.85600 44.06900
H  58.34800 26.08900 45.47600
H  59.03700 24.59200 46.70300
H  59.44300 23.09100 46.02900
H  57.86800 23.23900 46.88100
H  58.72800 25.72000 42.78100
H  58.65400 27.20000 43.45000
H  55.82000 26.14800 42.49300
H  56.95500 26.71600 41.32800
H  56.54400 27.67600 42.66500
H  54.51400 30.14400 44.71900
H  55.16200 29.71500 46.29700
H  53.51600 30.40800 46.19600
H  49.33000 27.56100 45.38900
H  46.39500 28.41000 42.42800
H  47.17800 27.11900 41.54000
H  47.73800 28.73200 41.32600
Mg 49.19600 45.79100 42.01500
C  45.83000 46.69600 41.62300
C  48.43400 42.66900 40.73200
C  52.44600 44.97900 42.13100
C  49.86600 49.07600 42.92900
N  47.36800 44.84000 41.20700
C  46.15300 45.40400 41.12500
C  45.09900 44.53400 40.41500
C  45.87400 43.13500 40.49100
C  47.31300 43.52100 40.82200
C  45.30900 41.96700 41.31600
C  44.61400 45.12000 39.10700
C  43.24000 44.66500 38.66900
H  43.28800 44.11300 37.21600
N  50.30800 44.01900 41.54500
C  49.80400 42.79000 41.07500
C  50.88200 41.80600 41.05600
C  52.08100 42.48200 41.46400
C  51.67700 43.86900 41.75700
C  50.71900 40.34500 40.54300
C  53.47300 41.84800 41.32900
O  53.61500 40.60800 41.00700
C  54.73500 42.56500 41.58400
N  50.99600 46.91700 42.34200
C  52.15500 46.31800 42.28500
C  53.24700 47.39100 42.56400
C  52.40000 48.68700 42.84400
C  50.99500 48.23100 42.65400
C  54.39700 47.06700 43.61300
C  52.77500 49.88600 41.93400
C  53.50000 51.00400 42.73900
N  48.11100 47.56800 42.34100
C  48.51600 48.79200 42.73500
C  47.36500 49.71100 42.62400
C  46.27300 48.89700 42.34900
C  46.76900 47.60600 42.08500
C  47.47400 51.19700 43.11000
C  44.87700 48.91600 42.27000
O  44.09600 49.86900 42.45300
C  44.52300 47.48600 41.61700
C  43.36200 46.89600 42.26000
O  43.44900 46.35400 43.35300
O  42.16700 47.10500 41.53000
C  41.08100 46.23200 42.12900
H  48.16800 41.66100 40.40600
H  53.51300 44.75900 42.20300
H  50.16000 50.10600 43.13900
H  44.21400 44.45100 41.04500
H  45.88800 42.72300 39.48200
H  45.96100 41.51500 42.06400
H  44.96000 41.25600 40.56800
H  44.45700 42.45500 41.79000
H  45.43700 44.87700 38.43400
H  44.55800 46.18000 39.35100
H  42.57600 45.52800 38.63200
H  42.85100 43.90600 39.34800
H  51.25200 40.31900 39.59300
H  49.67100 40.11000 40.35900
H  50.97700 39.71600 41.39600
H  54.69600 43.42900 40.92100
H  55.51200 41.84200 41.33700
H  54.82300 42.87700 42.62500
H  53.79000 47.48900 41.62400
H  52.33800 48.93800 43.90300
H  55.36200 47.04400 43.10500
H  54.15800 46.19500 44.22100
H  54.38800 47.83800 44.38300
H  52.00200 50.27400 41.27000
H  53.50900 49.52300 41.21500
H  54.13400 50.60400 43.53000
H  52.75100 51.64200 43.20900
H  54.18200 51.51800 42.06200
H  46.52500 51.28600 43.63900
H  47.67300 51.92300 42.32100
H  48.30700 51.18500 43.81400
H  44.27700 47.80800 40.60500
H  40.62700 46.78800 42.95000
H  41.59100 45.31900 42.43800
H  40.27700 45.87500 41.48500

