158

Mg 45.69200 4.36300 47.48300
C  43.38400 6.99300 46.73800
C  42.98200 2.16300 46.96100
C  47.80900 1.82800 47.65600
C  48.18200 6.66200 47.27000
N  43.35700 4.59100 46.69200
C  42.67400 5.74600 46.61700
C  41.19600 5.45700 46.46200
C  41.06000 3.93700 46.73200
C  42.57200 3.55300 46.82500
C  40.13900 3.52200 47.86200
C  40.69200 6.05100 45.13000
C  39.25000 6.53600 45.21300
H  38.55400 6.68600 43.88400
N  45.43100 2.27300 47.30600
C  44.26700 1.59700 47.16200
C  44.54800 0.21000 47.18600
C  45.97800 0.04600 47.41200
C  46.46000 1.40900 47.56400
C  43.45800 -0.83500 47.05100
C  46.64200 -1.24100 47.56100
O  46.08600 -2.28600 47.27200
C  48.07500 -1.31600 48.01500
N  47.70700 4.22500 47.30600
C  48.36300 3.11100 47.61900
C  49.82800 3.37700 48.01800
C  49.98900 4.88000 47.62100
C  48.49800 5.32500 47.42100
C  50.04100 2.94200 49.49800
C  50.89000 5.15400 46.40600
C  51.83200 6.39600 46.43300
N  45.85400 6.45300 47.15100
C  46.96300 7.25000 47.14000
C  46.52600 8.62000 46.99900
C  45.13300 8.50300 46.95200
C  44.77800 7.21300 46.90500
C  47.41800 9.84400 46.98200
C  43.92700 9.27000 46.87000
O  43.78700 10.47100 46.87600
C  42.80500 8.32100 46.73000
C  41.84300 8.54700 47.85700
O  41.92200 7.93400 48.90300
O  40.88600 9.56100 47.53800
C  39.92100 9.95900 48.65800
H  42.20200 1.43900 46.71700
H  48.62800 1.12000 47.79800
H  49.11500 7.19600 47.45700
H  40.57300 5.95300 47.20600
H  40.68200 3.46200 45.82700
H  39.72600 4.33500 48.45900
H  40.74400 2.85600 48.47800
H  39.32100 2.95500 47.41900
H  41.00200 5.32900 44.37500
H  41.35000 6.88800 44.90000
H  39.25600 7.56000 45.58800
H  38.69100 5.87100 45.87100
H  43.02200 -0.78300 46.05300
H  42.62600 -0.56200 47.70000
H  43.67800 -1.86800 47.31800
H  48.76100 -0.91900 47.26700
H  48.30500 -2.33200 48.33500
H  48.10200 -0.69600 48.91100
H  50.47300 2.73300 47.42100
H  50.45600 5.42200 48.44300
H  50.87400 2.24800 49.61000
H  49.10300 2.52700 49.86500
H  50.32400 3.81800 50.08400
H  50.25600 5.16600 45.52000
H  51.58700 4.33200 46.24400
H  52.79600 6.07500 46.82700
H  51.51800 7.22100 47.07300
H  51.75800 6.66300 45.37900
H  47.82500 9.99700 45.98300
H  48.15700 9.63700 47.75700
H  46.96600 10.79600 47.26100
H  42.27100 8.52900 45.80200
H  39.53900 10.92700 48.33500
H  40.32200 10.09000 49.66300
H  39.02500 9.34500 48.75600
Mg -2.19100 35.05000 26.95200
C  -3.59900 33.18200 29.66200
C  -1.12700 37.32400 29.49000
C  -1.07200 37.06500 24.59200
C  -3.77500 33.07600 24.67500
N  -2.31700 35.18300 29.32300
C  -2.88500 34.29400 30.19000
C  -2.74400 34.80600 31.69000
C  -2.05900 36.22900 31.52200
C  -1.85700 36.30900 30.04100
C  -2.79100 37.49800 32.17500
C  -2.01500 33.77600 32.61500
C  -2.85200 33.37900 33.81200
H  -2.10600 32.78400 35.02400
N  -1.09800 36.86200 27.08000
C  -0.78000 37.59200 28.15100
C  0.17200 38.60200 27.71700
C  0.19100 38.59800 26.26700
C  -0.71200 37.55300 25.89000
C  0.94500 39.45500 28.64900
C  0.92500 39.41900 25.22600
O  0.65600 39.38800 24.03600
C  2.08800 40.37900 25.65300
N  -2.41500 35.03900 24.90700
C  -1.89200 35.99500 24.15400
C  -2.01200 35.61800 22.65000
C  -2.83700 34.38300 22.68300
C  -2.97500 34.08100 24.19800
C  -2.51600 36.69500 21.65000
C  -2.42000 33.22000 21.79900
C  -1.68700 32.04600 22.40000
N  -3.54000 33.52400 27.09200
C  -4.03400 32.73300 26.03300
C  -4.94800 31.75700 26.50800
C  -4.70600 31.89100 27.93100
C  -3.85900 32.90200 28.24600
C  -5.76400 30.87000 25.69200
C  -5.05000 31.23600 29.25900
O  -5.68800 30.24900 29.55900
C  -4.33900 32.14800 30.33800
C  -5.35300 32.64300 31.28500
O  -6.00000 33.69400 31.14400
O  -5.58500 31.76400 32.30400
C  -6.63400 32.15700 33.25700
H  -0.87800 38.11000 30.20600
H  -0.68700 37.67100 23.76900
H  -4.27100 32.39200 23.98400
H  -3.74600 34.84000 32.11900
H  -1.03400 36.35300 31.87400
H  -3.25500 38.06000 31.36500
H  -2.00300 38.16700 32.52200
H  -3.47900 37.26700 32.98900
H  -1.04800 34.18500 32.90800
H  -1.88500 32.90100 31.97700
H  -3.57200 32.62200 33.50300
H  -3.43900 34.22200 34.17800
H  0.84800 39.32400 29.72700
H  0.50700 40.44200 28.50400
H  2.00400 39.55200 28.41300
H  3.01400 39.88200 25.94300
H  1.75800 41.12200 26.37900
H  2.40500 40.88900 24.74400
H  -0.99600 35.34800 22.36300
H  -3.79000 34.65500 22.22900
H  -2.75100 37.57500 22.25000
H  -3.36700 36.32800 21.07700
H  -1.72700 36.87500 20.92100
H  -1.81400 33.44100 20.92000
H  -3.38200 32.87100 21.42100
H  -0.90300 31.79000 21.68600
H  -2.36800 31.21600 22.58500
H  -1.15200 32.26200 23.32500
H  -6.41300 31.33300 24.94900
H  -6.49100 30.34500 26.31200
H  -5.15900 30.02700 25.35900
H  -3.58700 31.59700 30.90100
H  -7.62400 32.45400 32.90900
H  -6.38200 33.08000 33.77900
H  -6.67200 31.38600 34.02600

