158

Mg -2.01000 17.17800 26.34500
C  -2.58400 14.71100 28.63600
C  -2.58900 19.71600 28.56500
C  -1.69200 19.48900 23.70100
C  -2.36000 14.65100 23.84300
N  -2.68900 17.20000 28.37500
C  -2.76300 16.01400 29.20600
C  -2.92100 16.48200 30.72100
C  -2.97400 18.07100 30.55300
C  -2.73300 18.36800 29.07300
C  -4.25700 18.75900 31.17300
C  -1.81000 15.89500 31.61200
C  -1.61500 16.69100 32.98100
H  -1.06100 15.92300 34.22200
N  -2.11600 19.30800 26.22000
C  -2.28500 20.13100 27.30100
C  -2.19000 21.51600 26.83300
C  -1.88300 21.47100 25.40200
C  -1.86700 20.02500 25.05600
C  -2.39200 22.81200 27.68100
C  -1.75000 22.60500 24.40300
O  -1.36500 22.43300 23.19600
C  -1.89100 24.08200 24.83100
N  -2.00700 17.06600 24.04500
C  -1.84500 18.15800 23.25700
C  -1.93300 17.75400 21.79500
C  -2.37900 16.24400 21.85000
C  -2.20600 15.95000 23.34000
C  -2.83900 18.78700 20.99700
C  -1.61600 15.27300 20.89700
C  -2.48200 14.42200 19.97600
N  -2.13100 15.09400 26.18400
C  -2.23700 14.17800 25.18600
C  -2.40200 12.86400 25.72400
C  -2.49800 13.01400 27.09800
C  -2.37800 14.35500 27.30300
C  -2.44500 11.63700 24.91400
C  -2.59700 12.25800 28.35600
O  -2.62500 11.06400 28.45500
C  -2.59300 13.34800 29.41000
C  -1.36500 13.07700 30.17900
O  -0.20900 13.40900 29.85100
O  -1.63700 12.32900 31.29500
C  -0.64300 12.14600 32.36300
H  -2.76300 20.56900 29.22400
H  -1.56200 20.15300 22.84400
H  -2.69400 14.01900 23.01800
H  -3.86700 16.04500 31.04000
H  -2.05600 18.48000 30.97300
H  -3.76600 19.53100 31.76600
H  -4.67100 18.08100 31.91900
H  -5.02300 18.99200 30.43400
H  -0.86100 15.86900 31.07700
H  -2.08800 14.86800 31.85000
H  -2.58100 17.07200 33.31100
H  -1.00200 17.57900 32.82800
H  -1.45500 23.36700 27.71900
H  -2.74700 22.71100 28.70700
H  -3.05600 23.40700 27.05400
H  -2.87300 24.28400 25.25800
H  -1.77600 24.74900 23.97700
H  -1.13100 24.34400 25.56800
H  -0.92700 17.69600 21.37900
H  -3.42200 16.19900 21.53600
H  -3.29900 19.56300 21.60900
H  -3.50700 18.29400 20.29200
H  -2.05500 19.28400 20.42500
H  -0.86600 14.63500 21.36600
H  -1.08000 15.99300 20.27800
H  -2.77400 15.05500 19.13800
H  -3.36600 14.01700 20.46700
H  -1.95500 13.59300 19.50300
H  -3.25100 11.83700 24.20800
H  -2.66700 10.81300 25.59200
H  -1.47100 11.43300 24.47000
H  -3.37900 13.26800 30.16000
H  0.14500 12.89800 32.34300
H  -0.18200 11.16700 32.49600
H  -1.27100 12.33700 33.23300
Mg 40.02900 9.47200 29.45900
C  41.91600 10.76800 32.00600
C  37.85300 8.12500 31.68600
C  38.30200 8.17200 26.86500
C  42.69500 10.37200 27.14200
N  40.05000 9.32300 31.66600
C  40.75000 10.14600 32.48200
C  40.17400 10.16100 33.92000
C  38.98600 9.16200 33.83400
C  38.94900 8.84100 32.30500
C  39.08500 7.83100 34.67000
C  39.92300 11.63600 34.46500
C  40.50400 11.91600 35.81000
H  39.56700 12.44100 36.89900
N  38.35400 8.31100 29.26500
C  37.54700 7.97300 30.32800
C  36.35000 7.30500 29.83300
C  36.40800 7.43000 28.43100
C  37.73200 8.03100 28.08900
C  35.23600 6.69000 30.76800
C  35.33500 7.01000 27.37100
O  35.51800 7.04500 26.15400
C  34.04300 6.51700 27.77500
N  40.45200 9.33800 27.30000
C  39.54100 8.82300 26.47100
C  39.98500 8.85000 24.96000
C  41.32300 9.58100 25.15000
C  41.52500 9.76600 26.62900
C  40.20100 7.34500 24.46200
C  41.54500 10.87800 24.27100
C  40.94500 12.13700 24.82700
N  41.92900 10.37700 29.50200
C  42.93200 10.61200 28.52100
C  44.09200 11.19300 29.19000
C  43.69200 11.26900 30.60000
C  42.39400 10.72200 30.69400
C  45.48000 11.44700 28.55900
C  44.16000 11.66800 31.88100
O  45.24200 12.10200 32.31800
C  43.01500 11.35400 32.84600
C  43.53100 10.47200 33.92900
O  43.40800 9.24500 34.00800
O  44.19000 11.21500 34.87000
C  44.71800 10.60400 36.06100
H  37.12000 7.97700 32.48200
H  37.79400 7.67200 26.03800
H  43.47600 10.60000 26.41300
H  40.95300 9.76800 34.57400
H  38.05900 9.68100 34.07700
H  38.23500 7.84800 35.35200
H  39.97600 7.72300 35.28900
H  39.12300 6.96900 34.00400
H  38.83800 11.70600 34.53200
H  40.22100 12.18000 33.56900
H  41.22800 12.72300 35.70200
H  41.10200 11.04900 36.09000
H  35.40100 7.00700 31.79800
H  35.28900 5.60800 30.64800
H  34.27200 7.03500 30.39600
H  33.51200 7.32600 28.27600
H  34.37200 5.65700 28.35800
H  33.62000 6.03900 26.89200
H  39.28900 9.35200 24.28700
H  42.17900 8.98900 24.82500
H  39.98800 6.68800 25.30600
H  41.25900 7.22200 24.23100
H  39.55300 7.06200 23.63200
H  41.14300 10.58200 23.30200
H  42.56500 11.15000 23.99900
H  40.10400 12.36600 24.17200
H  41.66200 12.95700 24.88000
H  40.53000 11.99300 25.82400
H  45.89900 10.62800 27.97300
H  46.26500 11.70800 29.26900
H  45.30800 12.27300 27.86900
H  42.66100 12.23400 33.38200
H  43.90300 10.01100 36.47500
H  44.86800 11.42100 36.76700
H  45.56900 10.05900 35.65000

