158

Mg 17.19800 -1.04500 28.23400
C  15.84700 0.83500 30.86000
C  18.96900 -2.83400 30.45800
C  18.89700 -2.27800 25.73300
C  15.56100 1.22800 25.94900
N  17.55000 -0.77300 30.37500
C  16.79600 -0.09500 31.30100
C  17.06100 -0.57600 32.70700
C  18.26500 -1.48200 32.54200
C  18.25700 -1.73600 31.04500
C  19.56200 -0.94100 33.14000
C  15.85800 -1.25400 33.39200
C  15.53400 -1.09700 34.86700
H  16.51400 -0.28800 35.73700
N  18.63600 -2.49000 28.06900
C  19.21600 -3.21100 29.08000
C  20.04400 -4.26900 28.56400
C  19.95900 -4.23600 27.11000
C  19.08000 -3.00700 26.90700
C  20.71000 -5.27900 29.47400
C  20.42400 -5.12100 26.05900
O  20.12500 -5.06200 24.85500
C  21.31600 -6.28900 26.50700
N  17.42100 -0.35300 26.15000
C  18.17200 -1.13800 25.37300
C  18.04900 -0.65700 23.92000
C  16.85400 0.33100 23.90500
C  16.51800 0.36700 25.38800
C  19.37900 -0.19100 23.22100
C  15.55800 -0.06300 23.05200
C  15.46400 0.32000 21.60100
N  15.95400 0.61500 28.34600
C  15.47500 1.44300 27.35300
C  14.54900 2.38900 27.98900
C  14.67000 2.16000 29.33000
C  15.57800 1.16300 29.50000
C  13.62800 3.33100 27.25800
C  14.20900 2.55100 30.59400
O  13.56400 3.54300 30.85100
C  14.86000 1.63300 31.65100
C  15.55100 2.48400 32.64700
O  16.59900 3.11700 32.45000
O  14.67600 2.53300 33.72800
C  15.07600 3.55700 34.71800
H  19.62400 -3.37000 31.14900
H  19.44500 -2.78500 24.93500
H  14.93000 1.87600 25.33700
H  17.38300 0.32600 33.22800
H  18.09600 -2.47800 32.95000
H  20.37800 -0.95500 32.41800
H  19.84000 -1.61000 33.95400
H  19.53100 0.08200 33.51400
H  15.58900 -2.28800 33.17900
H  14.96200 -0.81700 32.95300
H  15.25400 -2.09600 35.20300
H  14.59100 -0.55400 34.92800
H  21.77100 -5.04500 29.56300
H  20.63800 -6.29000 29.07200
H  20.19100 -5.29100 30.43200
H  21.89900 -6.67800 25.67200
H  20.74600 -7.13600 26.89000
H  22.14000 -5.92100 27.11800
H  17.73300 -1.47100 23.26900
H  17.22600 1.28000 23.52000
H  20.22800 -0.42200 23.86500
H  19.32900 0.88900 23.08500
H  19.56400 -0.69300 22.27200
H  14.63500 0.32300 23.48400
H  15.48300 -1.12700 23.27500
H  15.76400 -0.57300 21.05300
H  16.10600 1.13900 21.27500
H  14.43700 0.60100 21.36400
H  13.51800 3.25200 26.17600
H  14.04800 4.33100 27.37300
H  12.64800 3.38300 27.73200
H  14.06000 1.03000 32.08100
H  15.69100 3.00200 35.42700
H  14.16100 3.89600 35.20400
H  15.54500 4.41800 34.24100
Mg 6.07200 54.63300 41.02400
C  5.84900 51.05400 40.66800
C  9.17900 54.36700 39.43700
C  5.89300 57.90700 40.54100
C  2.70000 54.55900 41.97900
N  7.29700 52.86800 39.92200
C  7.01000 51.52400 39.95200
C  8.16700 50.70500 39.38400
C  9.35900 51.77500 39.19700
C  8.64900 53.09500 39.59300
C  10.72700 51.41600 39.82600
C  7.89700 49.94100 38.01900
C  7.03600 50.77000 37.05700
H  6.53800 50.00700 35.81000
N  7.37600 56.01400 40.29200
C  8.61100 55.66600 39.73900
C  9.39200 56.90600 39.68700
C  8.45100 57.96900 39.78700
C  7.16500 57.35300 40.22400
C  10.89400 56.98700 39.39600
C  8.74400 59.40800 39.53000
O  9.85600 59.69800 39.13700
C  7.76700 60.47400 39.72600
N  4.51800 56.00300 41.12400
C  4.70800 57.31500 40.93700
C  3.51900 58.17800 41.32700
C  2.44100 57.10500 41.69000
C  3.28300 55.78700 41.60600
C  3.86500 59.07900 42.54000
C  1.17800 56.99400 40.85000
C  0.08200 57.99100 41.37400
N  4.57700 53.19900 41.35200
C  3.27800 53.32500 41.77200
C  2.83300 52.05500 42.19800
C  3.82600 51.16300 41.81900
C  4.82500 51.88800 41.23700
C  1.58500 51.68800 42.95500
C  4.07700 49.75500 41.72300
O  3.55800 48.73400 42.17300
C  5.44700 49.64200 40.98800
C  5.25400 48.64300 39.91300
O  4.66500 48.75800 38.85100
O  5.98000 47.51600 40.30000
C  5.79100 46.37600 39.32700
H  10.14800 54.36800 38.93400
H  5.76100 58.99100 40.53200
H  1.76500 54.62800 42.53800
H  8.41500 49.88100 40.05300
H  9.62000 51.88200 38.14400
H  10.47300 50.62700 40.53500
H  11.18800 52.31600 40.23200
H  11.43700 51.06700 39.07700
H  7.46700 48.95500 38.19600
H  8.80800 49.70800 37.46800
H  7.72700 51.57600 36.80900
H  6.20600 51.23000 37.59300
H  11.25100 57.77300 40.06300
H  11.16200 57.34100 38.40100
H  11.41200 56.08500 39.72100
H  6.91100 60.23000 39.09600
H  8.27500 61.38100 39.39900
H  7.34300 60.58600 40.72300
H  3.33100 58.86200 40.50000
H  2.09800 57.19900 42.72000
H  3.21300 58.97100 43.40700
H  3.68500 60.09500 42.18900
H  4.88400 58.83500 42.84200
H  0.80000 56.01300 41.13600
H  1.31700 57.02200 39.76900
H  -0.80300 57.49200 41.76900
H  -0.17300 58.65500 40.54800
H  0.39500 58.57800 42.23800
H  0.91700 52.54700 42.89800
H  1.69300 51.41000 44.00300
H  1.02900 50.89800 42.45000
H  6.16500 49.20300 41.68000
H  6.06100 46.72400 38.33000
H  4.75900 46.03200 39.39400
H  6.53100 45.62000 39.59000

