158

Mg 44.23400 4.53600 48.70800
C  41.96800 7.05300 47.82200
C  41.48300 2.24500 48.23400
C  46.35100 2.01600 48.76800
C  46.81800 6.83700 48.41500
N  41.92500 4.63400 48.00600
C  41.31400 5.80100 47.81500
C  39.84100 5.56700 47.40800
C  39.64200 4.07900 47.92400
C  41.12200 3.58900 48.12200
C  38.81800 3.89500 49.27000
C  39.65900 5.69200 45.87400
C  38.52500 6.58700 45.36300
H  37.80200 6.14900 44.14700
N  43.98800 2.41400 48.60100
C  42.78200 1.69600 48.44700
C  43.08600 0.26500 48.43900
C  44.52200 0.19000 48.63600
C  45.02600 1.55600 48.67400
C  41.93400 -0.71300 48.30400
C  45.22200 -1.11400 48.73400
O  44.69400 -2.22800 48.57200
C  46.67600 -1.09200 49.27200
N  46.29800 4.49800 48.59900
C  46.94900 3.25300 48.79900
C  48.43700 3.46300 49.07800
C  48.60900 5.01500 49.17000
C  47.21800 5.50200 48.70400
C  48.98400 2.76800 50.32400
C  49.82700 5.58100 48.41500
C  50.61000 6.68800 49.16600
N  44.40000 6.56400 48.27400
C  45.53000 7.41700 48.13800
C  45.20400 8.76200 47.88200
C  43.77800 8.69300 47.81500
C  43.39700 7.30800 47.93100
C  46.24000 9.88500 47.74600
C  42.53500 9.49800 47.68300
O  42.37800 10.71000 47.59800
C  41.38500 8.38300 47.55800
C  40.35100 8.70400 48.64000
O  40.34100 8.21500 49.77200
O  39.47600 9.63100 48.14800
C  38.58200 10.06500 49.17100
H  40.56700 1.65100 48.23800
H  47.07200 1.19700 48.79900
H  47.45400 7.72300 48.46300
H  39.12100 6.23300 47.88200
H  39.06600 3.43600 47.25800
H  39.48900 3.60300 50.07800
H  38.05400 3.12400 49.16400
H  38.31800 4.83300 49.51300
H  39.45200 4.70100 45.47000
H  40.56600 6.01800 45.36600
H  39.02700 7.54500 45.23100
H  37.67900 6.74800 46.03100
H  41.40200 -0.82900 49.24800
H  42.28500 -1.64700 47.86500
H  41.16100 -0.31100 47.64900
H  47.45100 -0.74200 48.59100
H  46.95600 -2.04700 49.71700
H  46.63500 -0.37700 50.09400
H  48.94900 3.18500 48.15600
H  48.71600 5.32000 50.21100
H  48.12500 2.26100 50.76300
H  49.48400 3.44500 51.01700
H  49.68100 2.00100 49.98600
H  49.36800 6.10800 47.57800
H  50.49000 4.82100 48.00000
H  49.99900 6.93000 50.03600
H  50.56200 7.59800 48.56900
H  51.64400 6.45500 49.41900
H  45.64400 10.79700 47.74500
H  46.74600 9.75300 46.79000
H  46.98800 9.87000 48.53900
H  40.95200 8.43500 46.55900
H  38.84600 9.83300 50.20300
H  37.54200 9.79400 48.98600
H  38.69500 11.13900 49.03000
Mg 48.15300 44.46500 42.39500
C  44.71500 43.97200 42.15700
C  48.50900 41.06000 41.86000
C  51.47200 44.91900 42.09700
C  47.66100 47.81900 41.76900
N  46.75000 42.72800 42.10000
C  45.41200 42.75900 42.22400
C  44.73900 41.36500 42.20600
C  46.05600 40.42500 42.12400
C  47.17900 41.46600 42.00500
C  46.40900 39.45800 43.36800
C  43.75000 41.15800 41.01800
C  43.92600 41.92700 39.70100
H  44.45500 41.06000 38.48100
N  49.72600 43.17500 42.16200
C  49.65800 41.78600 41.93200
C  50.98500 41.33000 41.84200
C  51.90800 42.41400 42.01900
C  51.04500 43.59000 42.15800
C  51.29100 39.91700 41.43000
C  53.41500 42.37300 42.01200
O  53.95500 41.34700 41.72100
C  54.35000 43.59300 42.25500
N  49.32100 46.17000 42.17800
C  50.71300 46.04400 42.20600
C  51.44100 47.42100 41.97000
C  50.18100 48.33700 41.87400
C  48.98500 47.39700 41.94800
C  52.48000 47.75400 42.96700
C  50.20200 49.20600 40.55800
C  49.44900 50.50400 40.68200
N  46.53000 45.74900 42.12000
C  46.47100 47.13700 41.84300
C  45.08500 47.54400 41.67200
C  44.32500 46.31200 41.87000
C  45.26100 45.24600 42.11300
C  44.52900 48.96900 41.51200
C  42.96800 45.70400 41.73400
O  41.86700 46.18500 41.46200
C  43.20700 44.19900 41.96600
C  42.46100 43.80300 43.12500
O  41.31500 43.43300 43.06300
O  43.11400 44.17700 44.25100
C  42.50000 43.51900 45.44100
H  48.57600 39.97800 41.72700
H  52.53700 45.12600 41.97100
H  47.38000 48.86500 41.62400
H  44.31000 41.30600 43.20700
H  46.07500 39.89200 41.17300
H  45.54000 39.44900 44.02500
H  47.20900 39.84100 44.00000
H  46.49200 38.39700 43.13000
H  42.78100 41.36300 41.47500
H  43.74200 40.11700 40.69400
H  44.71400 42.66400 39.85600
H  43.03300 42.45700 39.36900
H  51.36400 39.80400 40.34800
H  50.48700 39.32700 41.87000
H  52.24400 39.55200 41.81200
H  54.43000 44.29200 41.42300
H  55.31100 43.09400 42.38200
H  54.02800 44.11000 43.15900
H  51.85700 47.43200 40.96300
H  50.08100 49.03900 42.70100
H  52.20300 47.16300 43.84000
H  52.52000 48.82100 43.18800
H  53.49100 47.45700 42.68600
H  49.68700 48.69700 39.74300
H  51.20100 49.45200 40.19800
H  48.99600 50.58600 41.67000
H  48.64200 50.49400 39.95000
H  50.14300 51.32400 40.49200
H  43.61600 49.05200 40.92300
H  45.15600 49.73700 41.06000
H  44.24900 49.37500 42.48400
H  42.70400 43.69100 41.14300
H  41.97000 44.26100 46.03900
H  43.32900 43.20400 46.07500
H  41.85600 42.67600 45.19400

