158

Mg 1.73000 8.16000 25.70800
C  1.79300 10.13800 28.67000
C  1.93700 5.46400 27.65000
C  1.67200 6.37500 22.90100
C  2.11900 11.09600 23.78800
N  1.57900 7.82300 27.97700
C  1.66500 8.73500 28.92300
C  1.57100 8.06100 30.27700
C  1.88200 6.54800 29.95700
C  1.87000 6.63800 28.41700
C  3.21700 5.91400 30.55900
C  0.25100 8.40300 31.07900
C  0.27400 8.49200 32.66000
H  1.60400 7.95700 33.39800
N  1.72300 6.19600 25.38900
C  1.85800 5.20300 26.29000
C  1.98500 3.92200 25.55300
C  1.80100 4.16800 24.14400
C  1.77200 5.65100 24.09100
C  2.16300 2.62400 26.30300
C  1.81200 3.18400 22.97100
O  1.70100 3.59000 21.84000
C  1.91600 1.81900 23.20700
N  1.85300 8.74100 23.59700
C  1.71400 7.78000 22.59700
C  1.71600 8.43500 21.16900
C  1.70100 10.00000 21.50500
C  1.88200 9.98000 23.00300
C  2.96300 7.99700 20.28100
C  0.32000 10.70700 21.05100
C  0.20600 11.08800 19.58400
N  1.84600 10.18300 26.10000
C  2.04400 11.25300 25.22800
C  2.04200 12.50100 26.05200
C  1.93700 12.10100 27.40800
C  1.84700 10.69000 27.35000
C  2.25400 13.87400 25.52900
C  2.00300 12.64000 28.77400
O  2.20900 13.74900 29.17300
C  1.83300 11.30800 29.68800
C  3.06600 11.14800 30.52500
O  4.13800 10.90000 30.13600
O  2.82300 11.53200 31.78300
C  3.80600 11.37200 32.87300
H  1.99600 4.59400 28.30800
H  1.69500 5.92800 21.90500
H  2.04500 11.97700 23.14800
H  2.43400 8.27100 30.90800
H  1.02600 5.97800 30.31900
H  2.96000 4.92200 30.93100
H  3.55800 6.57700 31.35400
H  4.04500 5.83900 29.85400
H  -0.50200 7.64000 30.88800
H  -0.23400 9.31500 30.73100
H  -0.63300 7.96500 32.95600
H  0.27800 9.55800 32.88400
H  2.86100 1.91900 25.85100
H  1.18500 2.27100 26.62700
H  2.65000 2.73100 27.27200
H  2.91100 1.50400 23.52200
H  1.67400 1.25000 22.30900
H  1.10100 1.65500 23.91200
H  0.75600 8.18700 20.71700
H  2.50500 10.52400 20.99000
H  2.56300 7.63900 19.33200
H  3.47100 7.18400 20.79900
H  3.56300 8.86200 19.99700
H  0.20200 11.67700 21.53300
H  -0.53700 10.04400 21.16700
H  -0.18600 12.09900 19.46800
H  -0.50400 10.39900 19.12600
H  1.20000 10.96600 19.15500
H  2.49000 13.87700 24.46500
H  3.10200 14.30500 26.06000
H  1.43200 14.50900 25.86100
H  0.93700 11.29200 30.30800
H  4.55500 10.61600 32.63600
H  3.14800 11.03000 33.67200
H  4.22400 12.32800 33.19100
Mg -1.94000 34.15700 26.81600
C  -3.27500 32.55000 29.65200
C  -0.42200 36.46400 28.89100
C  -1.40600 36.21700 24.16000
C  -4.00400 32.15500 24.83900
N  -1.86300 34.44400 28.96400
C  -2.45600 33.64600 29.94700
C  -1.97200 33.98900 31.33100
C  -1.18200 35.35400 31.02500
C  -1.18900 35.47100 29.53500
C  -1.44800 36.66200 31.87000
C  -1.06600 32.88100 31.92900
C  -0.43400 33.33200 33.27500
H  -0.85200 32.40000 34.41600
N  -0.85800 35.99800 26.56000
C  -0.27300 36.72400 27.51300
C  0.43100 37.85700 26.85100
C  0.16300 37.77500 25.44300
C  -0.69600 36.58600 25.31100
C  1.04300 38.95200 27.64300
C  0.79800 38.56700 24.29000
O  0.65100 38.21400 23.13200
C  1.54300 39.84200 24.54200
N  -2.66800 34.22900 24.83300
C  -2.26500 35.09900 23.94900
C  -2.79200 34.77900 22.55700
C  -3.43500 33.39300 22.71800
C  -3.36500 33.20200 24.22900
C  -3.69400 35.96700 22.05600
C  -2.67700 32.22100 22.01600
C  -1.22700 31.82900 22.47100
N  -3.31200 32.60900 27.15400
C  -4.06900 31.91600 26.22700
C  -4.81100 30.84300 26.93000
C  -4.53000 31.07500 28.28800
C  -3.63900 32.14700 28.31900
C  -5.61600 29.75200 26.36900
C  -4.81100 30.59900 29.62800
O  -5.43900 29.58200 30.07900
C  -4.06800 31.63200 30.57600
C  -4.97400 32.36400 31.46300
O  -5.89400 33.13700 31.11500
O  -4.82200 31.80600 32.74700
C  -5.79500 32.31300 33.80200
H  0.13200 37.16700 29.51600
H  -1.17600 36.62200 23.17200
H  -4.63900 31.51200 24.22600
H  -2.77800 34.32000 31.98500
H  -0.11900 35.15600 31.16100
H  -2.05400 36.71400 32.77500
H  -1.64600 37.43200 31.12500
H  -0.44200 36.88800 32.22200
H  -0.30400 32.61400 31.19700
H  -1.56700 31.92500 32.07700
H  -0.65600 34.33700 33.63400
H  0.65000 33.26300 33.18900
H  0.44300 39.85100 27.50000
H  2.00200 39.17300 27.17400
H  1.06900 38.67900 28.69800
H  1.55500 40.36000 23.58400
H  2.50500 39.60100 24.99500
H  0.97800 40.38800 25.29800
H  -1.91700 34.64200 21.92200
H  -4.46200 33.51400 22.37400
H  -3.61600 36.79400 22.76000
H  -4.72900 35.68800 21.85900
H  -3.27300 36.28300 21.10100
H  -2.67300 32.44700 20.94900
H  -3.28000 31.31300 21.98400
H  -1.10300 30.77900 22.20300
H  -1.05200 32.03300 23.52700
H  -0.47600 32.36800 21.89400
H  -5.92200 29.07800 27.16900
H  -5.03900 29.21900 25.61400
H  -6.44200 30.33000 25.95400
H  -3.31100 31.11600 31.16600
H  -6.17000 31.40200 34.26800
H  -6.66200 32.86900 33.44500
H  -5.18600 32.88200 34.50500

