158

Mg 3.63500 0.41800 44.38500
C  6.38200 2.41600 44.15700
C  1.85600 2.91600 42.76500
C  1.03400 -1.70200 44.27100
C  5.65900 -2.27700 45.39800
N  4.15300 2.34100 43.32400
C  5.35700 2.93700 43.43600
C  5.44100 4.20100 42.66100
C  3.82600 4.53100 42.53700
C  3.19500 3.17000 42.89900
C  3.38200 5.72400 43.43400
C  6.08500 3.93300 41.31000
C  5.45900 2.81500 40.35400
H  5.36900 3.04800 38.85100
N  1.72200 0.57100 43.63100
C  1.11700 1.74400 43.11300
C  -0.27500 1.47100 42.97900
C  -0.55500 0.16000 43.34400
C  0.72000 -0.40500 43.81700
C  -1.17200 2.58100 42.47000
C  -1.87000 -0.57100 43.21500
O  -2.81800 0.09700 42.73200
C  -2.07300 -1.97000 43.39000
N  3.45400 -1.75300 44.57800
C  2.23500 -2.36400 44.54600
C  2.35900 -3.87900 44.83600
C  3.87500 -4.03200 45.19700
C  4.39100 -2.62000 44.97700
C  1.41200 -4.36800 45.91100
C  4.59000 -5.14900 44.26500
C  5.56000 -6.06500 45.02000
N  5.66900 0.04500 44.75000
C  6.32000 -0.99300 45.33600
C  7.63200 -0.52000 45.68500
C  7.75100 0.85800 45.29200
C  6.52700 1.13100 44.70400
C  8.77000 -1.38000 46.11700
C  8.57600 2.01500 45.15500
O  9.73800 2.10000 45.57200
C  7.71800 3.05600 44.46000
C  7.61900 4.24800 45.33700
O  8.63700 4.80700 45.69500
O  6.34700 4.66100 45.59200
C  6.23700 5.85100 46.43800
H  1.24500 3.78600 42.51600
H  0.13600 -2.29700 44.44900
H  6.31200 -3.00800 45.88000
H  6.00100 5.03200 43.09000
H  3.58600 4.93100 41.55100
H  2.93500 6.50500 42.82000
H  4.28700 6.13300 43.88400
H  2.70200 5.45700 44.24400
H  7.14700 3.76700 41.49200
H  6.12500 4.93200 40.87600
H  4.43400 2.52000 40.57900
H  6.17000 1.99900 40.48000
H  -1.10900 2.52700 41.38300
H  -0.76100 3.53900 42.78600
H  -2.21500 2.54500 42.78600
H  -2.88500 -2.34300 42.76500
H  -2.15000 -2.27300 44.43500
H  -1.20000 -2.43300 42.93200
H  2.14200 -4.33200 43.86800
H  3.97500 -4.21900 46.26600
H  0.70500 -3.61400 46.25600
H  1.77700 -4.91000 46.78300
H  0.73700 -5.01500 45.35000
H  5.15900 -4.73200 43.43400
H  3.86400 -5.76700 43.73700
H  5.09600 -7.04700 45.10800
H  5.65500 -5.69200 46.04000
H  6.52700 -6.16100 44.52600
H  8.71100 -1.83500 47.10500
H  9.65100 -0.74100 46.04600
H  8.91100 -2.23600 45.45700
H  8.25000 3.32500 43.54700
H  6.78900 6.65600 45.95200
H  6.55900 5.68400 47.46600
H  5.19100 6.09800 46.61900
Mg 1.27700 7.97600 26.81300
C  1.70500 10.25900 29.27500
C  1.82700 5.41400 29.09300
C  0.85500 5.69300 24.34900
C  1.21800 10.51800 24.46400
N  1.59300 7.92000 28.89400
C  1.77500 8.96200 29.74400
C  1.81600 8.52800 31.18600
C  2.13100 6.98700 31.08800
C  1.79700 6.74800 29.57900
C  3.53500 6.42400 31.56400
C  0.41400 8.75400 31.91200
C  0.55800 8.89600 33.45600
H  1.71800 8.24400 34.22700
N  1.40400 5.81900 26.67300
C  1.63700 4.96400 27.78200
C  1.59900 3.60000 27.34800
C  1.32800 3.64600 25.93400
C  1.17100 5.11200 25.62400
C  1.72200 2.42000 28.24700
C  1.18400 2.49900 24.94000
O  1.05900 2.62000 23.68600
C  1.20700 1.06700 25.44700
N  1.13600 8.07200 24.71300
C  0.77100 6.99400 23.90500
C  0.28500 7.38700 22.48000
C  0.38900 9.00800 22.61900
C  0.90800 9.24400 23.99000
C  1.23400 6.77600 21.44100
C  -0.88200 9.73900 22.30100
C  -0.72400 10.77600 21.22600
N  1.52400 9.91600 26.73700
C  1.45400 10.87900 25.73800
C  1.65900 12.16800 26.28700
C  1.81400 12.01500 27.69100
C  1.62000 10.64100 27.94600
C  1.67300 13.48200 25.60500
C  2.15100 12.69400 28.92300
O  2.45500 13.83200 29.22300
C  2.00700 11.52600 30.01000
C  3.06400 11.59000 31.05300
O  4.23800 11.79300 30.87600
O  2.59100 11.43200 32.29900
C  3.63300 11.47700 33.36400
H  2.18200 4.70500 29.84400
H  0.85400 4.95200 23.54700
H  1.09900 11.38200 23.80700
H  2.67100 8.94100 31.72100
H  1.35600 6.44600 31.63000
H  4.07900 7.25400 32.01500
H  4.16900 5.94900 30.81700
H  3.32200 5.63000 32.28000
H  -0.18400 7.89400 31.61000
H  -0.01700 9.66700 31.50100
H  -0.39200 8.49700 33.81200
H  0.49500 9.96300 33.66800
H  0.81200 2.12400 28.76900
H  2.52200 2.67200 28.94200
H  2.18600 1.56000 27.76500
H  2.26000 0.80200 25.54100
H  0.75700 0.48100 24.64600
H  0.71900 0.92900 26.41200
H  -0.69500 6.92500 22.36000
H  1.13100 9.36700 21.90500
H  2.13800 6.31200 21.83600
H  1.41900 7.51100 20.65800
H  0.69100 5.93800 21.00300
H  -1.27500 10.30600 23.14500
H  -1.71400 9.09900 22.00700
H  -1.48700 10.70900 20.45100
H  0.24000 10.68600 20.72600
H  -0.68400 11.71900 21.77200
H  2.02800 13.48300 24.57400
H  2.51200 13.99500 26.07600
H  0.69500 13.95600 25.68900
H  1.08300 11.88900 30.46100
H  3.95200 12.49700 33.58300
H  4.44500 10.77600 33.17000
H  3.18800 11.10700 34.28800

