158

Mg 0.79200 7.25400 26.90600
C  1.45400 9.14200 29.68600
C  1.19100 4.38300 28.69500
C  0.99100 5.57600 24.01300
C  1.23700 10.33500 25.06800
N  1.34500 6.87700 28.90400
C  1.29300 7.75900 29.93100
C  1.21700 7.07500 31.25400
C  1.46200 5.58800 30.93700
C  1.34500 5.60000 29.41400
C  2.80200 4.89800 31.43500
C  -0.09200 7.38400 32.03800
C  0.05300 7.70800 33.50400
H  1.26600 7.10300 34.24400
N  0.88400 5.21000 26.41800
C  1.01800 4.13500 27.30000
C  0.96800 2.87300 26.54700
C  1.00700 3.23000 25.10400
C  0.96200 4.71100 25.12600
C  0.91000 1.57900 27.35400
C  1.04900 2.36600 23.98600
O  0.91700 2.78500 22.81400
C  1.18100 0.88300 24.15100
N  0.98800 7.88500 24.79800
C  0.98100 6.97200 23.79300
C  0.89300 7.60800 22.38300
C  0.93800 9.14100 22.78800
C  0.99900 9.12200 24.33600
C  1.97300 7.22900 21.38300
C  -0.30000 10.01800 22.33500
C  -0.04900 11.12000 21.32200
N  1.09700 9.30700 27.24100
C  1.31900 10.39500 26.39200
C  1.55600 11.62000 27.22400
C  1.66500 11.15300 28.50700
C  1.40300 9.74200 28.44000
C  1.59900 13.00500 26.75200
C  1.93100 11.49900 29.90600
O  2.28300 12.59300 30.36200
C  1.62400 10.27700 30.74500
C  2.66900 10.19300 31.73000
O  3.71400 9.68100 31.63000
O  2.29200 11.06300 32.69000
C  3.33700 11.35100 33.75300
H  1.33400 3.53700 29.37000
H  1.11600 5.09100 23.04200
H  1.45200 11.21600 24.46000
H  2.10100 7.42300 31.78800
H  0.69000 4.92400 31.32600
H  3.38300 5.58100 32.05500
H  3.45800 4.66400 30.59600
H  2.54000 4.02000 32.02500
H  -0.82300 6.58500 31.91700
H  -0.63700 8.15600 31.49600
H  -0.79700 7.31800 34.06200
H  0.06500 8.78600 33.66600
H  1.10700 1.76400 28.41000
H  1.84000 1.06900 27.10600
H  0.00100 0.99500 27.20900
H  0.32300 0.48700 24.69300
H  2.16900 0.63000 24.53500
H  1.14100 0.47600 23.14000
H  -0.08000 7.33200 21.97700
H  1.87100 9.59600 22.45600
H  2.80000 6.98500 22.05000
H  2.05800 8.14200 20.79400
H  1.58100 6.39300 20.80400
H  -0.85300 10.28200 23.23600
H  -1.01800 9.31700 21.91000
H  -0.51400 10.84900 20.37400
H  1.03000 11.14400 21.16600
H  -0.49800 12.06100 21.63900
H  1.70100 12.97600 25.66700
H  2.41500 13.55100 27.22700
H  0.63800 13.47100 26.97200
H  0.68500 10.56600 31.21700
H  2.90500 11.80700 34.64400
H  3.96100 12.10200 33.27000
H  3.80500 10.41500 34.06000
Mg -11.08700 16.05100 42.30200
C  -8.00100 14.74500 41.57900
C  -10.13300 18.90700 40.20800
C  -14.31100 17.05100 41.82200
C  -12.12500 13.16000 43.65000
N  -9.31800 16.64900 40.87500
C  -8.08800 15.97500 40.88300
C  -6.99300 16.82500 40.13700
C  -7.67400 18.22000 40.03000
C  -9.14100 17.92700 40.44800
C  -6.88700 19.33400 40.78300
C  -6.54600 16.26400 38.73500
C  -5.08400 16.45000 38.20600
H  -5.00000 17.16300 36.78300
N  -12.02400 17.88700 41.41700
C  -11.45200 18.88600 40.64200
C  -12.46500 19.81700 40.24100
C  -13.68500 19.29700 40.82100
C  -13.40000 17.99300 41.38600
C  -12.32700 21.07200 39.46900
C  -15.02000 20.01900 40.88400
O  -15.13700 21.10400 40.29300
C  -16.26600 19.63300 41.73000
N  -12.99200 15.18900 42.72000
C  -14.18600 15.81400 42.54200
C  -15.37700 15.01700 43.01200
C  -14.57300 13.86800 43.80800
C  -13.13400 14.03000 43.35200
C  -16.36000 15.81900 43.91300
C  -15.18900 12.47600 43.52200
C  -15.27700 11.60100 44.72200
N  -10.24900 14.34500 42.74000
C  -10.80600 13.21700 43.35000
C  -9.67100 12.22700 43.61500
C  -8.55800 12.86500 43.00600
C  -8.96100 14.10800 42.43400
C  -9.69200 10.85600 44.21000
C  -7.19400 12.62200 42.63900
O  -6.41900 11.72800 42.91300
C  -6.73700 13.91600 41.73600
C  -5.69700 14.70700 42.42400
O  -5.78500 15.40800 43.40500
O  -4.57100 14.43400 41.63200
C  -3.29900 15.04200 42.16500
H  -9.96500 19.88100 39.74400
H  -15.34700 17.12100 41.48200
H  -12.43100 12.23900 44.15000
H  -6.15900 16.98600 40.82000
H  -7.83800 18.60400 39.02400
H  -6.05300 19.00700 41.40300
H  -7.60500 19.84700 41.42300
H  -6.53200 20.14100 40.14200
H  -7.12300 16.84500 38.01600
H  -6.68200 15.18300 38.74100
H  -4.60400 15.47300 38.16500
H  -4.54300 17.08300 38.91000
H  -12.02300 21.86200 40.15600
H  -13.24900 21.43400 39.01500
H  -11.62400 20.99900 38.63900
H  -16.78800 20.55700 41.97600
H  -15.72000 19.32800 42.62300
H  -16.96400 18.95800 41.23500
H  -15.96400 14.68100 42.15700
H  -14.65500 14.03800 44.88200
H  -16.06300 16.86200 44.02000
H  -16.51600 15.48600 44.94000
H  -17.29600 15.72000 43.36300
H  -14.47700 11.98900 42.85600
H  -16.11400 12.61500 42.96300
H  -14.60600 10.77400 44.49100
H  -16.27500 11.16400 44.69300
H  -15.02400 12.00400 45.70300
H  -10.41600 10.72400 45.01400
H  -8.74300 10.71500 44.72700
H  -9.85300 10.13800 43.40600
H  -6.45900 13.61000 40.72800
H  -2.45600 14.38000 41.96800
H  -3.34900 15.12700 43.25000
H  -3.20500 16.01500 41.68300

