158

Mg 35.78300 2.32400 31.01800
C  33.00400 3.32300 33.00800
C  37.70900 2.66700 33.83100
C  38.34700 1.72800 29.07000
C  33.58600 2.33700 28.17800
N  35.34100 2.87100 33.13900
C  34.18000 3.11600 33.78100
C  34.24500 3.30500 35.34200
C  35.77700 3.39300 35.48800
C  36.32900 2.99900 34.02100
C  36.28200 4.80900 35.80300
C  33.66900 2.13600 36.15200
C  33.02000 2.59300 37.48300
H  33.58200 3.74200 38.29400
N  37.76500 2.15900 31.37700
C  38.37000 2.29700 32.58500
C  39.79000 2.04900 32.41600
C  39.98200 1.70900 31.05500
C  38.69200 1.91100 30.41900
C  40.80200 2.22700 33.57400
C  41.24700 1.28300 30.33700
O  41.35900 1.13100 29.08900
C  42.52000 1.00800 31.18600
N  35.91400 2.20300 28.87900
C  37.13100 1.77900 28.37600
C  36.95800 1.26800 26.94800
C  35.42800 1.41400 26.65300
C  34.93000 1.95700 27.95000
C  37.80200 2.02100 25.90200
C  34.68800 0.07100 26.20100
C  33.59300 0.37200 25.05400
N  33.69400 2.70000 30.60800
C  32.95600 2.75100 29.44200
C  31.62700 3.25300 29.70500
C  31.60700 3.58300 31.13600
C  32.86700 3.22600 31.57600
C  30.43800 3.41800 28.81800
C  30.84400 4.18200 32.20700
O  29.70100 4.62200 32.21200
C  31.68900 3.95000 33.54400
C  31.97700 5.33600 34.03600
O  32.63800 6.14200 33.43800
O  31.20600 5.58600 35.15900
C  31.15500 6.99500 35.59400
H  38.30600 2.72500 34.74400
H  39.16800 1.35200 28.45500
H  32.80500 2.22700 27.42300
H  33.78500 4.26300 35.58300
H  36.30200 2.66300 36.10300
H  36.13200 5.46600 34.94700
H  37.33500 4.61200 36.00300
H  35.74400 5.26200 36.63600
H  34.42400 1.37400 36.34700
H  32.87900 1.64300 35.58500
H  32.91500 1.67900 38.06700
H  31.97100 2.80300 37.27100
H  40.98700 1.28300 34.08700
H  40.35700 2.89200 34.31400
H  41.72200 2.73200 33.28100
H  43.29300 0.70600 30.48000
H  42.30200 0.29900 31.98400
H  42.92500 1.98400 31.45400
H  37.13300 0.19200 26.96400
H  35.34200 2.21800 25.92200
H  37.30300 2.29200 24.97100
H  38.77800 1.60800 25.64700
H  38.11500 2.94100 26.39500
H  34.19800 -0.29600 27.10200
H  35.47200 -0.61100 25.87200
H  33.96400 0.12900 24.05800
H  33.33200 1.42800 25.12900
H  32.71600 -0.24200 25.25800
H  30.57100 3.16200 27.76700
H  30.07500 4.44400 28.76900
H  29.66700 2.77600 29.24300
H  31.03100 3.37000 34.19200
H  30.11800 7.32400 35.51600
H  31.69700 7.67900 34.94200
H  31.58800 7.01200 36.59400
Mg 41.48500 40.57300 26.54400
C  40.75700 42.95700 29.07400
C  42.46200 38.35200 28.90900
C  42.19400 38.44800 24.08000
C  40.60500 43.08600 24.26600
N  41.57300 40.65500 28.80100
C  41.15000 41.65500 29.62800
C  41.23900 41.11500 31.09100
C  42.00000 39.75600 30.97400
C  41.91600 39.52700 29.43500
C  43.50700 39.93700 31.35700
C  39.76100 40.99900 31.64900
C  39.44100 41.90700 32.80100
H  38.95500 41.26200 34.08300
N  42.29300 38.69900 26.45600
C  42.59500 37.94000 27.58300
C  43.15100 36.68000 27.15500
C  43.12400 36.70700 25.73700
C  42.57800 37.97700 25.37500
C  43.44500 35.54000 27.99200
C  43.50000 35.51900 24.78200
O  43.33600 35.60000 23.60800
C  43.93700 34.15400 25.21200
N  41.52700 40.81100 24.40100
C  41.70500 39.70600 23.65100
C  41.47600 39.94800 22.15700
C  40.78600 41.34100 22.22900
C  40.94100 41.84100 23.73100
C  42.76100 39.98000 21.34600
C  39.23600 41.29000 21.86100
C  38.26800 40.44800 22.76100
N  41.01300 42.56100 26.60700
C  40.71800 43.50400 25.58900
C  40.33200 44.75200 26.04000
C  40.31300 44.59800 27.38100
C  40.73800 43.24100 27.65700
C  39.99600 45.98700 25.30200
C  40.03700 45.22900 28.66800
O  39.60700 46.33400 28.97300
C  40.32100 44.14900 29.79300
C  41.33600 44.67700 30.83900
O  42.55500 44.70600 30.76300
O  40.61300 45.35300 31.82700
C  41.37200 45.89900 32.95500
H  42.76800 37.61100 29.65000
H  42.23600 37.70200 23.28300
H  40.28600 43.84100 23.54500
H  41.78600 41.91700 31.58700
H  41.47700 39.06000 31.63000
H  43.59900 39.81600 32.43700
H  43.77400 40.98000 31.19000
H  44.10800 39.22400 30.79300
H  39.49600 39.97600 31.91500
H  38.99500 41.35300 30.95800
H  38.61600 42.52500 32.44500
H  40.25500 42.62400 32.90300
H  43.12400 35.72500 29.01700
H  44.50200 35.27200 27.97700
H  42.81000 34.70900 27.68500
H  44.70600 34.33300 25.96400
H  44.28600 33.46800 24.44100
H  43.02200 33.67100 25.55700
H  40.77700 39.34300 21.57900
H  41.30300 42.09000 21.62900
H  43.25900 40.94900 21.35300
H  42.61100 39.58700 20.34000
H  43.51500 39.34200 21.80600
H  39.35500 40.75300 20.92000
H  38.95000 42.33800 21.77100
H  37.67600 39.77600 22.14100
H  37.64800 41.16000 23.30600
H  38.76500 39.80900 23.49100
H  40.73500 46.77200 25.46200
H  39.10500 46.41300 25.76300
H  39.77800 45.76700 24.25700
H  39.43300 43.75900 30.29100
H  41.18600 45.24700 33.80800
H  40.94400 46.85200 33.26900
H  42.42300 46.10800 32.75800

