158

Mg 41.92200 7.95100 28.96800
C  43.96500 9.23500 31.68600
C  39.80300 6.56700 31.43400
C  40.47200 5.90600 26.68700
C  44.65300 8.51700 26.91500
N  41.87000 8.06800 31.30200
C  42.79400 8.58500 32.15300
C  42.42000 8.45800 33.69300
C  41.16800 7.51200 33.49600
C  40.85300 7.34800 31.95700
C  40.96600 6.23500 34.38300
C  42.19700 9.83400 34.46900
C  41.32700 9.76600 35.78200
H  41.96100 10.27900 37.13700
N  40.18600 6.68300 29.03800
C  39.44000 6.28900 30.09300
C  38.32400 5.53100 29.68200
C  38.48200 5.34400 28.29200
C  39.74500 6.00300 27.93700
C  37.15600 5.13300 30.54800
C  37.60900 4.63200 27.31600
O  37.87700 4.45600 26.12900
C  36.41300 3.77400 27.84800
N  42.46800 7.29400 27.08100
C  41.75900 6.34700 26.38000
C  42.44800 6.21700 24.96600
C  43.65900 7.15600 24.97600
C  43.65300 7.66900 26.36600
C  42.78800 4.78600 24.49100
C  43.61100 8.31300 23.92900
C  44.73500 8.25100 22.83500
N  43.88000 8.66000 29.23800
C  44.79400 8.98200 28.24600
C  45.82300 9.81900 28.80800
C  45.56500 9.98000 30.17000
C  44.30800 9.29100 30.37300
C  47.02100 10.23400 28.06700
C  46.06100 10.53800 31.42800
O  47.08700 11.07700 31.73900
C  44.92100 10.13400 32.43800
C  45.47600 9.51200 33.60700
O  45.78700 8.34200 33.79400
O  45.72800 10.49300 34.56100
C  46.47100 10.03900 35.77700
H  39.09600 6.23400 32.19700
H  40.11700 5.27900 25.86700
H  45.38300 8.85700 26.17800
H  43.25500 7.98600 34.21100
H  40.29000 8.11800 33.71900
H  40.89900 5.37400 33.71700
H  40.10700 6.35600 35.04300
H  41.84300 6.13900 35.02400
H  41.76400 10.61700 33.84700
H  43.15200 10.26000 34.77500
H  40.94000 8.75100 35.87200
H  40.46700 10.39300 35.54600
H  36.92200 4.07400 30.65500
H  36.17300 5.56300 30.36000
H  37.40700 5.34500 31.58700
H  35.94400 3.27900 26.99700
H  35.60600 4.34200 28.31000
H  36.87700 3.05600 28.52400
H  41.58700 6.47200 24.34800
H  44.57200 6.62100 24.71800
H  43.66500 4.70000 23.85100
H  41.91500 4.38800 23.97200
H  42.96000 4.19600 25.39200
H  43.72600 9.27900 24.42000
H  42.64100 8.43800 23.44900
H  45.66500 8.38400 23.38600
H  44.61100 9.02800 22.08100
H  44.72800 7.23600 22.43600
H  46.69700 10.65500 27.11500
H  47.69400 9.39900 27.87000
H  47.48600 11.06300 28.59900
H  44.24000 10.94100 32.71000
H  47.24900 9.29600 35.60500
H  45.82300 9.49800 36.46600
H  46.82800 10.91100 36.32500
Mg 6.65300 54.22200 41.36000
C  6.04100 50.75800 41.39700
C  9.63900 53.52200 39.62800
C  6.89200 57.46800 40.44400
C  3.47300 54.73800 42.64300
N  7.75900 52.34900 40.56600
C  7.27600 51.04600 40.72400
C  8.22100 50.05700 40.09600
C  9.55200 50.89300 40.00100
C  8.92200 52.32800 39.95900
C  10.58000 50.79500 41.13800
C  7.64200 49.40300 38.76100
C  6.82600 50.27400 37.80900
H  6.09400 49.58400 36.70600
N  8.08400 55.27700 40.38300
C  9.20000 54.83500 39.77200
C  10.00600 55.91000 39.28500
C  9.37900 57.11500 39.68900
C  8.05200 56.69600 40.17400
C  11.29700 55.76500 38.59500
C  10.05800 58.48900 39.56600
O  11.24500 58.60000 39.18500
C  9.40200 59.70100 40.11600
N  5.26900 55.87800 41.32400
C  5.70500 57.14500 41.07800
C  4.67800 58.16400 41.49400
C  3.55800 57.32100 42.17000
C  4.17000 55.87300 42.16300
C  5.26200 59.30900 42.47400
C  2.09500 57.28400 41.44300
C  1.05900 58.20700 42.22300
N  5.09400 53.01400 41.94500
C  3.92800 53.45100 42.57800
C  3.27900 52.24200 42.91500
C  4.01100 51.13800 42.51500
C  5.09900 51.69400 41.86800
C  1.95400 52.14400 43.62700
C  4.12500 49.70200 42.49800
O  3.42300 48.85200 42.97100
C  5.41700 49.39800 41.70500
C  5.04800 48.53800 40.56500
O  4.57300 48.89900 39.48300
O  5.38000 47.23300 40.81800
C  5.13200 46.27100 39.74400
H  10.56800 53.36800 39.07500
H  7.05800 58.51500 40.18500
H  2.52100 54.87400 43.16000
H  8.42700 49.23200 40.77800
H  9.97900 50.73700 39.01000
H  10.52200 49.74700 41.43000
H  10.28200 51.40600 41.99000
H  11.58900 51.08300 40.84500
H  7.09800 48.47000 38.90900
H  8.56900 49.10900 38.26900
H  7.38000 51.00900 37.22500
H  6.22800 50.99900 38.36100
H  11.35300 56.58100 37.87500
H  11.39200 54.82700 38.04700
H  12.15300 55.77800 39.26900
H  9.04700 59.33700 41.08000
H  8.51400 59.99800 39.55800
H  10.08300 60.55100 40.16200
H  4.26700 58.52600 40.55200
H  3.30500 57.55300 43.20500
H  5.28400 60.30700 42.03600
H  6.28700 58.99100 42.66600
H  4.76000 59.35700 43.44000
H  1.86300 56.22800 41.30600
H  2.13500 57.51000 40.37700
H  1.54100 59.17600 42.34800
H  0.80700 57.70700 43.15800
H  0.09100 58.31600 41.73200
H  1.68900 51.09300 43.51100
H  1.28000 52.87600 43.18200
H  2.03600 52.42000 44.67800
H  6.06100 48.87400 42.41200
H  4.14000 45.91300 40.02000
H  5.81100 45.43200 39.89100
H  5.16600 46.63500 38.71700

