158

Mg 41.08300 9.02700 28.92200
C  42.74600 10.34500 31.75600
C  38.95000 7.31200 31.04500
C  39.32100 8.01900 26.34600
C  43.64500 10.34600 26.95600
N  40.91100 8.71400 31.21400
C  41.62100 9.50200 32.14500
C  41.02100 9.27600 33.54600
C  39.80100 8.30700 33.24000
C  39.89500 8.08200 31.77300
C  39.80000 6.90900 34.01300
C  40.56500 10.66700 34.22400
C  40.16100 10.62500 35.71700
H  41.12500 11.19400 36.72800
N  39.42800 7.79800 28.67800
C  38.69700 7.18200 29.67000
C  37.54400 6.51400 29.16600
C  37.57100 6.75900 27.77800
C  38.77500 7.51400 27.55800
C  36.63600 5.61300 30.08300
C  36.55400 6.33000 26.72700
O  36.79200 6.63400 25.54500
C  35.32200 5.59800 27.09100
N  41.57300 9.00700 26.92900
C  40.61800 8.60200 26.02300
C  41.10500 8.90100 24.58200
C  42.41700 9.77000 24.76700
C  42.57000 9.68800 26.28500
C  41.24800 7.77900 23.54300
C  42.47100 11.17300 24.15900
C  41.84100 12.36300 24.86200
N  42.84700 10.13700 29.19100
C  43.76800 10.56900 28.33800
C  44.75500 11.39900 29.06800
C  44.35700 11.39000 30.40100
C  43.26300 10.55100 30.45600
C  45.96100 12.16100 28.48000
C  44.67800 11.84800 31.69800
O  45.59200 12.50100 32.16100
C  43.56500 11.36600 32.64100
C  44.19200 10.62500 33.84200
O  44.31000 9.39800 34.03900
O  44.75300 11.54900 34.66800
C  45.43000 10.95200 35.88500
H  38.16900 6.92900 31.70400
H  38.66000 7.91300 25.48400
H  44.41800 10.83800 26.36300
H  41.83200 8.87200 34.15300
H  38.88500 8.84100 33.49300
H  39.19500 7.03700 34.91000
H  40.77500 6.56500 34.36100
H  39.42100 6.14200 33.33800
H  39.72400 11.09600 33.67900
H  41.46800 11.27600 34.25600
H  39.89900 9.62100 36.04900
H  39.27300 11.25700 35.73500
H  36.29400 6.37200 30.78700
H  37.44900 5.02000 30.50100
H  35.87500 4.95700 29.65800
H  35.60700 4.60600 27.44100
H  34.72500 5.58500 26.17900
H  34.61800 6.17000 27.69600
H  40.47100 9.68100 24.16100
H  43.32700 9.26600 24.43900
H  42.29900 7.51900 23.41500
H  40.75900 8.15200 22.64300
H  40.57600 6.98500 23.86900
H  42.11200 11.02700 23.14000
H  43.51700 11.36300 23.91400
H  41.45900 12.10300 25.84900
H  41.00700 12.74400 24.27300
H  42.64300 13.09000 24.98700
H  45.66500 12.80300 27.65000
H  46.69300 11.47800 28.04800
H  46.49000 12.77100 29.21200
H  42.96000 12.22000 32.94400
H  44.64500 10.53800 36.51800
H  45.96600 11.75500 36.39200
H  46.16100 10.18400 35.63200
Mg -2.30900 34.95800 27.12000
C  -4.01800 33.27200 29.76400
C  -0.77600 36.88500 29.49500
C  -0.70000 36.65100 24.64700
C  -4.18700 33.20600 24.85300
N  -2.40000 35.09700 29.48800
C  -3.13600 34.22700 30.32300
C  -2.86900 34.54000 31.80900
C  -2.03100 35.93000 31.68600
C  -1.67500 35.97400 30.15700
C  -2.73600 37.23600 32.06400
C  -1.99400 33.37200 32.48400
C  -2.68300 32.79000 33.78900
H  -1.79900 32.66800 35.07700
N  -0.84300 36.47800 27.06300
C  -0.41600 37.18200 28.13600
C  0.54800 38.15400 27.68900
C  0.66000 38.06700 26.31900
C  -0.26400 37.00100 25.96800
C  1.23000 39.10500 28.65100
C  1.56500 38.80200 25.33000
O  1.73800 38.36200 24.22500
C  2.40400 39.99000 25.82400
N  -2.48100 35.00100 25.02700
C  -1.64600 35.73400 24.20100
C  -1.92900 35.49300 22.75900
C  -2.99100 34.34100 22.77900
C  -3.34000 34.15200 24.28600
C  -2.44100 36.76600 21.95000
C  -2.63200 32.98500 22.10300
C  -1.44300 32.22200 22.74500
N  -3.84400 33.63000 27.23100
C  -4.51200 32.94700 26.18100
C  -5.29500 31.88600 26.67300
C  -5.04500 32.02500 28.07300
C  -4.24100 33.08300 28.36600
C  -6.16800 30.87800 25.98900
C  -5.45700 31.35600 29.29600
O  -6.27200 30.45900 29.43600
C  -4.88000 32.17600 30.45600
C  -5.97200 32.49700 31.42700
O  -6.84100 33.28900 31.14700
O  -5.96400 31.67400 32.52500
C  -7.02300 31.71200 33.50200
H  -0.13600 37.40100 30.21300
H  -0.23900 37.19600 23.82100
H  -4.67600 32.52600 24.15400
H  -3.84900 34.73300 32.24500
H  -1.14200 35.85300 32.31200
H  -3.16700 37.75500 31.20700
H  -2.07100 37.90300 32.61300
H  -3.54200 36.99900 32.75900
H  -1.02800 33.68700 32.87900
H  -1.90600 32.56000 31.76200
H  -2.97000 31.76400 33.56000
H  -3.61300 33.34200 33.92600
H  0.83000 40.07500 28.35600
H  2.31500 39.06800 28.54700
H  0.95200 38.90800 29.68600
H  1.80000 40.66200 26.43300
H  2.86500 40.49200 24.97300
H  3.23300 39.52800 26.36000
H  -1.09100 35.12400 22.16800
H  -3.86100 34.74400 22.26100
H  -3.45500 36.58500 21.59400
H  -1.71000 37.03200 21.18700
H  -2.35200 37.63700 22.59900
H  -2.41900 33.22800 21.06200
H  -3.56100 32.41600 22.12500
H  -0.75800 32.00300 21.92700
H  -1.90800 31.28400 23.05100
H  -0.92400 32.65900 23.59900
H  -7.08100 30.60900 26.52000
H  -5.63800 30.02800 25.55700
H  -6.55200 31.45200 25.14700
H  -4.08000 31.60000 30.92200
H  -6.75500 32.42700 34.28000
H  -7.26500 30.75700 33.96800
H  -7.89400 32.18700 33.05000

