158

Mg 5.70700 54.10800 39.54100
C  5.91200 50.49400 39.47800
C  9.07200 54.22000 39.28100
C  5.48300 57.31500 38.52700
C  2.26900 53.68800 39.46800
N  7.23500 52.51100 39.28800
C  7.10400 51.12600 39.24100
C  8.49200 50.49100 39.26400
C  9.32800 51.68900 39.78200
C  8.51400 52.88500 39.44800
C  9.75200 51.69400 41.25600
C  9.03600 49.92400 37.92300
C  8.72800 50.78600 36.61900
H  8.02800 50.10500 35.45700
N  7.13100 55.65100 38.98400
C  8.45600 55.47200 39.03200
C  9.07400 56.72400 38.66300
C  8.05700 57.59300 38.39800
C  6.80000 56.86600 38.67500
C  10.64700 56.98600 38.68400
C  8.21800 59.03700 38.12100
O  9.33400 59.51700 37.82600
C  7.11000 60.05500 38.20300
N  4.06100 55.28300 38.97900
C  4.24300 56.69700 38.81700
C  2.94300 57.35100 38.87500
C  1.90400 56.19400 38.92800
C  2.76500 54.97000 39.23600
C  2.83700 58.41200 40.05100
C  1.09400 55.99600 37.56000
C  -0.32600 55.36700 37.64100
N  4.36600 52.44000 39.70800
C  3.01300 52.44300 39.66200
C  2.48000 51.07900 39.92800
C  3.59400 50.29400 39.93400
C  4.68100 51.14500 39.71300
C  1.04800 50.74200 40.13700
C  4.08000 49.00400 39.86500
O  3.43700 47.96900 39.93200
C  5.59700 49.02300 39.66800
C  5.89000 48.14200 38.46300
O  5.23400 48.15900 37.44100
O  6.84800 47.19800 38.81500
C  6.97400 46.18500 37.75900
H  10.13400 54.41400 39.44400
H  5.28100 58.19600 37.91400
H  1.18800 53.61300 39.60800
H  8.40100 49.68600 39.99400
H  10.17100 51.86900 39.11500
H  9.37300 52.65500 41.60300
H  10.82000 51.50300 41.36500
H  9.13900 50.90100 41.68400
H  8.70400 48.90900 37.70600
H  10.11400 49.86000 38.07400
H  9.67700 51.14300 36.21900
H  8.08800 51.64900 36.80000
H  10.91500 57.53100 37.77900
H  11.27600 56.09600 38.67200
H  10.88800 57.49000 39.62000
H  7.48300 61.07300 38.31200
H  6.53300 59.85100 39.10500
H  6.52600 59.94100 37.29000
H  2.93800 57.81900 37.89100
H  1.25600 56.15600 39.80300
H  3.84200 58.59000 40.43300
H  2.17300 58.05200 40.83700
H  2.37900 59.31400 39.64600
H  1.72500 55.29800 37.01100
H  1.09400 56.94200 37.01900
H  -1.05100 55.84800 36.98500
H  -0.71400 55.66000 38.61700
H  -0.32800 54.28200 37.53700
H  0.80600 50.81700 41.19700
H  0.89900 49.69200 39.88200
H  0.38100 51.40300 39.58400
H  6.11300 48.55800 40.50800
H  7.14700 46.72600 36.82900
H  6.06100 45.60100 37.63900
H  7.87700 45.59000 37.89600
Mg 0.86600 43.18000 26.12600
C  2.75500 43.10600 29.08900
C  -1.67900 41.67000 27.79300
C  -0.49400 42.68000 23.11300
C  3.90800 44.27200 24.45600
N  0.54700 42.50300 28.22000
C  1.38100 42.73900 29.26000
C  0.57300 42.65000 30.61400
C  -0.79900 41.98300 30.26600
C  -0.62500 42.05200 28.69700
C  -1.08900 40.60100 30.89300
C  0.43400 44.03200 31.49400
C  1.17700 44.11100 32.78600
H  1.21400 42.92200 33.79100
N  -0.87100 42.50900 25.57000
C  -1.79300 41.87700 26.37500
C  -2.90900 41.45700 25.57800
C  -2.64900 41.83600 24.24500
C  -1.28000 42.33900 24.24600
C  -4.00800 40.58900 26.14400
C  -3.43100 41.55700 23.03400
O  -2.98900 41.70900 21.88600
C  -4.82900 40.96500 22.97100
N  1.53700 43.56400 24.09200
C  0.75100 43.21600 23.04700
C  1.54000 43.40000 21.79400
C  2.88900 44.14800 22.19200
C  2.78900 44.00600 23.70600
C  1.68600 42.05300 20.89400
C  3.11300 45.59800 21.75900
C  2.00900 46.61500 22.11900
N  2.92800 43.48600 26.66200
C  4.02800 43.94700 25.83800
C  5.19900 44.10600 26.62100
C  4.76300 43.78700 27.91700
C  3.34300 43.44600 27.89400
C  6.50400 44.59900 26.19800
C  5.21600 43.66300 29.26400
O  6.31400 43.73900 29.73900
C  3.91400 43.27000 30.09100
C  4.33300 42.10400 30.94800
O  4.10000 40.87400 30.73500
O  4.94300 42.64700 32.04100
C  5.59100 41.70800 33.00000
H  -2.45600 41.13300 28.34100
H  -0.90900 42.35900 22.15600
H  4.79900 44.57400 23.90200
H  1.00600 41.90200 31.27700
H  -1.57300 42.69300 30.55900
H  -1.86600 40.86000 31.61300
H  -0.25700 40.25700 31.50900
H  -1.42600 39.78700 30.25100
H  -0.58400 44.17500 31.85700
H  0.82100 44.90500 30.96800
H  0.89000 45.02500 33.30500
H  2.23800 44.12900 32.53400
H  -3.64000 39.57700 26.31500
H  -4.89400 40.52500 25.51200
H  -4.24700 40.88700 27.16500
H  -5.55300 41.53000 23.55700
H  -4.78500 39.96000 23.39000
H  -5.29100 40.91700 21.98500
H  0.95500 44.09100 21.18600
H  3.72400 43.50100 21.92200
H  2.67800 41.82700 20.50300
H  1.06200 42.22100 20.01600
H  1.26800 41.18800 21.40800
H  3.26900 45.57600 20.68100
H  4.03100 45.93200 22.24200
H  2.32500 47.51200 22.65200
H  1.28300 46.15200 22.78700
H  1.58500 46.92400 21.16300
H  7.22700 43.78700 26.11800
H  6.94300 45.16100 27.02300
H  6.51500 45.17900 25.27600
H  3.70400 44.10800 30.75500
H  6.65900 41.90400 33.09800
H  5.58300 40.66200 32.69300
H  4.98700 41.80100 33.90300

