158

Mg 15.89600 52.95900 25.07900
C  17.31100 51.72900 28.04600
C  13.10300 53.83000 26.96900
C  14.44500 53.98400 22.25800
C  18.54600 51.72100 23.22700
N  15.44400 52.95500 27.23400
C  16.13500 52.48200 28.26200
C  15.52500 52.79900 29.59900
C  14.11000 53.22000 29.17900
C  14.17400 53.24700 27.68200
C  12.87900 52.33700 29.60500
C  16.29400 53.84800 30.40100
C  16.52100 53.57200 31.94200
H  15.72700 52.46700 32.63400
N  14.08100 53.86800 24.66400
C  13.00900 54.11000 25.58600
C  11.94500 54.71500 24.82600
C  12.32700 54.80700 23.42100
C  13.61100 54.17700 23.41500
C  10.65100 55.07000 25.52400
C  11.59200 55.34100 22.24900
O  12.09300 55.41600 21.12700
C  10.21700 55.85500 22.36700
N  16.43600 52.88300 23.03200
C  15.69500 53.45100 22.00600
C  16.48200 53.34000 20.61300
C  17.83500 52.87700 21.05800
C  17.60700 52.41800 22.45800
C  15.77200 52.45400 19.48100
C  19.00700 53.95100 20.97300
C  20.13000 53.70200 19.89100
N  17.46300 51.74000 25.45000
C  18.47800 51.35600 24.65500
C  19.35800 50.42500 25.40600
C  18.95400 50.57500 26.77700
C  17.82200 51.37700 26.69900
C  20.62400 49.75300 24.81800
C  19.23500 50.25500 28.15000
O  20.16300 49.56800 28.60700
C  18.28000 51.04100 29.05100
C  17.55300 50.18800 30.02900
O  16.49100 49.56400 29.87000
O  18.50300 49.77700 30.93000
C  18.34700 48.72000 31.89000
H  12.30400 54.13900 27.64600
H  14.03000 54.30200 21.29900
H  19.32600 51.32400 22.57400
H  15.37300 51.84500 30.10500
H  13.89700 54.23100 29.52800
H  12.66000 51.73600 28.72300
H  12.04900 52.86000 30.08100
H  13.21800 51.63900 30.37000
H  15.86100 54.84000 30.27700
H  17.25200 53.83800 29.88100
H  16.21900 54.52500 32.37700
H  17.57700 53.37500 32.12800
H  9.88100 54.75700 24.81900
H  10.60200 56.11100 25.84400
H  10.59500 54.41400 26.39200
H  10.08100 56.57200 23.17700
H  9.43300 55.09700 22.38400
H  10.14100 56.42100 21.43900
H  16.72600 54.26300 20.08600
H  18.03600 52.07300 20.35000
H  16.41000 51.88200 18.80800
H  15.18600 53.10200 18.83000
H  15.07400 51.75600 19.94200
H  19.54000 54.07600 21.91500
H  18.57600 54.94500 20.84500
H  21.09800 53.86200 20.36400
H  20.00300 54.36300 19.03400
H  20.01900 52.64200 19.66200
H  21.34000 50.57400 24.82200
H  20.40600 49.48700 23.78300
H  20.89900 48.90200 25.44100
H  18.91400 51.73800 29.59800
H  19.01600 47.89600 31.64100
H  17.36100 48.25500 31.87000
H  18.45800 49.15400 32.88400
Mg -2.01900 34.13800 26.35800
C  -3.31100 32.49300 29.21100
C  -0.78100 36.55200 28.42600
C  -1.43400 36.10700 23.55700
C  -4.02900 32.01700 24.36700
N  -1.94200 34.43700 28.67100
C  -2.50200 33.60200 29.59700
C  -2.14900 34.11300 31.01400
C  -1.46900 35.47400 30.66700
C  -1.34200 35.42300 29.15200
C  -1.99500 36.75700 31.29900
C  -1.26700 32.98100 31.66800
C  -1.89500 32.38100 32.89600
H  -1.17700 32.54300 34.18700
N  -1.11600 36.00200 26.06800
C  -0.65700 36.83300 27.03700
C  -0.08100 38.00200 26.46200
C  -0.14800 37.89800 25.05400
C  -0.89700 36.59800 24.81800
C  0.62500 39.08600 27.30300
C  0.35700 38.83100 23.94500
O  0.14800 38.60400 22.75500
C  1.10300 40.06100 24.24600
N  -2.65800 34.04900 24.27700
C  -2.25300 34.96100 23.34500
C  -2.85200 34.58900 21.94800
C  -3.65300 33.29000 22.22600
C  -3.41800 33.07900 23.72000
C  -3.75200 35.67000 21.31400
C  -3.13900 32.15200 21.30500
C  -2.17400 31.13500 21.84000
N  -3.27000 32.50000 26.64600
C  -3.98300 31.68800 25.78500
C  -4.55100 30.61900 26.50600
C  -4.37300 30.92500 27.84600
C  -3.62100 32.10300 27.87300
C  -5.29100 29.45300 25.99500
C  -4.83100 30.58600 29.19900
O  -5.55700 29.73300 29.65900
C  -4.03500 31.53600 30.13500
C  -5.07000 32.29700 30.97600
O  -5.72500 33.25700 30.66900
O  -5.19000 31.51600 32.10100
C  -5.87500 32.21000 33.17700
H  -0.33700 37.36100 29.00800
H  -1.30700 36.60200 22.59300
H  -4.58900 31.31700 23.74300
H  -3.08500 34.25300 31.55600
H  -0.44800 35.40100 31.04200
H  -2.90900 36.51000 31.84000
H  -2.34200 37.43900 30.52200
H  -1.27100 37.25200 31.94500
H  -0.25300 33.33500 31.85600
H  -1.25000 32.10600 31.01900
H  -1.94100 31.29500 32.81500
H  -2.92300 32.70000 33.06900
H  1.69400 38.92300 27.16200
H  0.29000 39.16400 28.33800
H  0.41400 39.98100 26.71800
H  1.55700 40.43000 23.32600
H  1.95300 39.88300 24.90400
H  0.45600 40.84600 24.63600
H  -1.94600 34.38700 21.37700
H  -4.73500 33.40200 22.17100
H  -3.09200 36.12500 20.57400
H  -3.96400 36.44900 22.04600
H  -4.62900 35.20500 20.86500
H  -2.66600 32.72900 20.51000
H  -4.00100 31.65600 20.85800
H  -2.58300 30.12900 21.94000
H  -1.85700 31.36600 22.85700
H  -1.19900 31.05700 21.36000
H  -4.79000 28.52200 25.73100
H  -5.85300 29.87300 25.16000
H  -6.06800 29.12900 26.68800
H  -3.44300 30.94200 30.83100
H  -6.74400 32.74500 32.79300
H  -5.23700 32.81400 33.82100
H  -6.29300 31.42200 33.80500

