158

Mg 39.89400 8.99800 29.16100
C  41.88900 10.30000 31.84000
C  37.88800 7.57900 31.52100
C  38.47800 7.44100 26.62800
C  42.56700 9.96700 26.96800
N  39.93400 9.00900 31.41800
C  40.73900 9.64500 32.30000
C  40.24400 9.47400 33.74100
C  39.02800 8.52400 33.62700
C  38.97400 8.27000 32.08700
C  38.87800 7.21000 34.42900
C  39.87800 10.86000 34.34600
C  38.74200 11.01200 35.39800
H  39.14300 11.79600 36.60700
N  38.34000 7.79900 29.02400
C  37.57100 7.43800 30.11100
C  36.48300 6.62000 29.61100
C  36.53400 6.69000 28.17200
C  37.86900 7.22500 27.87200
C  35.49100 5.85700 30.47300
C  35.56500 6.11000 27.15300
O  35.93200 5.98700 26.01900
C  34.17000 5.63100 27.46400
N  40.44200 8.67900 27.17700
C  39.63900 8.06000 26.26900
C  40.05300 8.27900 24.80500
C  41.39400 9.10500 24.89600
C  41.54200 9.25300 26.42900
C  40.20900 6.96100 24.03200
C  41.27000 10.50100 24.13000
C  40.09300 11.42500 24.50200
N  41.84800 9.97800 29.31900
C  42.82700 10.22500 28.36300
C  43.95500 10.97700 28.94900
C  43.61300 11.00600 30.31500
C  42.36300 10.41100 30.47100
C  45.22000 11.43400 28.31200
C  44.00000 11.47500 31.66400
O  44.93300 12.14800 32.07400
C  42.95700 11.04400 32.59600
C  43.50400 10.25800 33.70100
O  43.55600 9.03300 33.79500
O  43.64800 11.07400 34.81100
C  43.99100 10.56400 36.17100
H  37.10300 7.21900 32.19000
H  37.83800 7.13500 25.79800
H  43.33500 10.39000 26.31700
H  41.05600 9.01000 34.30100
H  38.13800 9.12100 33.82200
H  39.39900 6.42300 33.88300
H  37.82200 7.00300 34.60000
H  39.39000 7.29900 35.38700
H  39.96000 11.58700 33.53700
H  40.77400 11.00100 34.95000
H  38.39800 10.07100 35.82800
H  37.91000 11.50400 34.89300
H  35.58500 4.90100 29.95800
H  34.47700 6.24900 30.39000
H  35.68000 5.68200 31.53200
H  33.80900 6.45700 28.07700
H  34.26800 4.62800 27.87900
H  33.59800 5.57800 26.53700
H  39.23500 8.84000 24.35300
H  42.31600 8.70300 24.47500
H  39.61300 7.02100 23.12200
H  39.84500 6.17000 24.68800
H  41.22000 6.66600 23.75100
H  41.15000 10.35200 23.05700
H  42.15000 11.08700 24.39600
H  40.37700 12.44400 24.76600
H  39.69100 11.20500 25.49100
H  39.33100 11.34600 23.72700
H  45.25400 11.32000 27.22800
H  46.09200 11.02900 28.82600
H  45.23900 12.49400 28.56400
H  42.43000 11.91600 32.98200
H  43.06600 10.60000 36.74500
H  44.73000 11.16200 36.70500
H  44.23600 9.50300 36.12100
Mg -2.10600 34.80100 26.41300
C  -3.80900 33.11200 29.09100
C  -1.20900 37.14200 28.86900
C  -0.95600 36.74900 23.92800
C  -3.73500 32.78200 24.24900
N  -2.52900 35.10600 28.67800
C  -3.08400 34.20000 29.52200
C  -2.73500 34.42200 30.99700
C  -2.08400 35.86000 30.90800
C  -1.85600 36.03800 29.40200
C  -2.84300 36.96100 31.59700
C  -1.73400 33.35000 31.67700
C  -2.04700 33.05500 33.16100
H  -0.90400 33.18700 34.15200
N  -1.04900 36.63300 26.40200
C  -0.74300 37.37800 27.47300
C  0.02900 38.50200 27.02700
C  0.09900 38.38700 25.56600
C  -0.63400 37.25500 25.21500
C  0.61900 39.58200 27.97900
C  0.94100 39.26900 24.57100
O  1.05200 38.97900 23.37700
C  1.66500 40.50600 24.97200
N  -2.38400 34.79600 24.41400
C  -1.72700 35.65700 23.56000
C  -2.00900 35.40500 22.08800
C  -2.69000 33.96900 22.24400
C  -2.97500 33.82200 23.74000
C  -2.85000 36.48000 21.35200
C  -1.76300 32.79000 21.64400
C  -0.24400 32.62000 22.00400
N  -3.52600 33.24400 26.58800
C  -4.00000 32.46300 25.58500
C  -4.71100 31.34800 26.22000
C  -4.63100 31.58900 27.58500
C  -3.92900 32.72600 27.73100
C  -5.54100 30.30900 25.51100
C  -5.07900 31.07000 28.87700
O  -5.78500 30.09000 29.09800
C  -4.44600 31.97900 29.95700
C  -5.53000 32.45100 30.86900
O  -6.58300 32.86600 30.41900
O  -5.22000 32.37400 32.25400
C  -6.34600 32.63000 33.18800
H  -0.82300 37.81500 29.63800
H  -0.54400 37.27200 23.06200
H  -4.07400 32.10000 23.46700
H  -3.73500 34.44700 31.42900
H  -1.12600 35.87000 31.42700
H  -3.81600 36.70800 32.01700
H  -2.99300 37.70700 30.81600
H  -2.19500 37.38200 32.36600
H  -0.72200 33.74500 31.58600
H  -1.76900 32.43300 31.08800
H  -2.55700 32.09200 33.16900
H  -2.83500 33.73800 33.48000
H  1.65600 39.78500 27.71100
H  0.59700 39.39800 29.05300
H  -0.00200 40.39600 27.60600
H  1.00600 41.07500 25.62700
H  1.90400 41.13900 24.11700
H  2.65000 40.32100 25.40100
H  -1.05400 35.19500 21.60500
H  -3.65300 33.80800 21.76000
H  -3.11300 37.35400 21.94900
H  -3.77100 36.13700 20.88000
H  -2.16600 36.80500 20.56800
H  -1.83600 32.89300 20.56100
H  -2.25500 31.87900 21.98500
H  -0.21200 31.92300 22.84100
H  0.24900 33.52200 22.36400
H  0.28800 32.29400 21.11000
H  -5.35900 30.22700 24.43900
H  -6.56600 30.55700 25.78700
H  -5.27600 29.29500 25.80900
H  -3.64100 31.44700 30.46300
H  -7.08200 33.31200 32.76100
H  -5.89500 32.99000 34.11200
H  -6.92100 31.74200 33.45200

