158

Mg -2.12500 17.14300 27.06900
C  -2.79400 14.94100 29.61700
C  -2.85100 19.73500 29.25500
C  -2.31500 19.18300 24.46600
C  -2.36300 14.34400 24.79900
N  -2.76500 17.27100 29.23100
C  -2.75600 16.22600 30.08900
C  -3.02900 16.74800 31.56300
C  -3.40600 18.25400 31.25200
C  -2.96300 18.44600 29.80000
C  -4.83500 18.74100 31.60300
C  -1.83000 16.45700 32.49400
C  -1.52600 17.45600 33.56700
H  -1.02300 16.99700 34.93100
N  -2.24700 19.19900 26.93300
C  -2.55500 20.06900 27.95500
C  -2.43700 21.41100 27.43200
C  -2.23800 21.29100 25.98200
C  -2.25400 19.81900 25.71700
C  -2.61200 22.82400 28.25200
C  -2.06800 22.35700 24.91100
O  -1.90800 22.06300 23.73100
C  -2.00100 23.73100 25.30700
N  -2.39000 16.79200 24.91000
C  -2.27500 17.85700 24.08100
C  -2.24400 17.37000 22.61700
C  -1.96100 15.88100 22.74400
C  -2.30300 15.61400 24.21700
C  -3.57900 17.69100 21.86600
C  -0.51500 15.41200 22.42600
C  0.62400 16.01600 23.25900
N  -2.37200 15.01400 27.10000
C  -2.52900 14.04600 26.15000
C  -2.88200 12.81600 26.75700
C  -2.94400 13.08700 28.09700
C  -2.73000 14.47900 28.24800
C  -3.21000 11.49300 26.09300
C  -3.15600 12.51700 29.43100
O  -3.28900 11.33200 29.74900
C  -3.19100 13.76300 30.46200
C  -2.28000 13.33300 31.60400
O  -1.04000 13.19900 31.47400
O  -3.04700 13.02300 32.76700
C  -2.30900 12.43500 33.87600
H  -2.93200 20.56600 29.95900
H  -2.31800 19.91000 23.65000
H  -2.41900 13.58200 24.01900
H  -3.84800 16.17600 32.00100
H  -2.77500 18.95000 31.80600
H  -5.57500 17.98900 31.87700
H  -5.09900 19.30600 30.70900
H  -4.76700 19.53700 32.34600
H  -0.93800 16.38000 31.87200
H  -2.15400 15.50200 32.90600
H  -2.44100 17.97100 33.85800
H  -0.80200 18.18800 33.20700
H  -1.97800 23.62200 27.86600
H  -2.49800 22.63400 29.31900
H  -3.59000 23.16300 27.90900
H  -2.90700 24.02500 25.83600
H  -2.07100 24.21900 24.33400
H  -1.13500 24.01600 25.90400
H  -1.43500 17.87800 22.09100
H  -2.51800 15.23100 22.06900
H  -4.18600 18.35300 22.48300
H  -4.27300 16.85800 21.74700
H  -3.37400 18.23000 20.94100
H  -0.35400 15.66300 21.37700
H  -0.57300 14.32400 22.46400
H  0.22900 16.56200 24.11500
H  1.20000 16.74000 22.68300
H  1.30100 15.22300 23.57500
H  -3.21900 11.66300 25.01600
H  -4.23400 11.31000 26.41600
H  -2.46300 10.84400 26.55000
H  -4.23400 13.80400 30.77500
H  -2.20800 13.32500 34.49600
H  -1.39800 11.88900 33.63200
H  -2.94900 11.68000 34.33200
Mg 1.71600 41.58200 25.24500
C  2.75100 41.62400 28.62900
C  -1.40100 40.49300 26.41700
C  1.00700 40.86600 22.09100
C  5.10500 42.34800 24.36400
N  0.82300 40.99500 27.28300
C  1.40000 41.21200 28.55500
C  0.32200 41.19100 29.61300
C  -0.87900 40.59700 28.85500
C  -0.47000 40.72100 27.38800
C  -1.27700 39.12300 29.38200
C  -0.03000 42.52400 30.36800
C  -0.21400 42.36100 31.85000
H  -1.51900 41.67700 32.32600
N  0.03100 40.82700 24.34100
C  -1.17500 40.54000 25.00700
C  -2.06700 40.00300 23.98500
C  -1.36600 40.05800 22.73500
C  -0.04200 40.62200 23.02200
C  -3.54500 39.44800 24.28300
C  -1.85800 39.48100 21.43500
O  -1.05900 39.19400 20.57600
C  -3.22500 39.05800 21.16900
N  2.92700 41.62800 23.60100
C  2.26000 41.44600 22.35500
C  3.13300 41.93200 21.15100
C  4.44100 42.53100 21.92700
C  4.14800 42.13300 23.37100
C  3.31900 40.94200 20.02800
C  4.47600 44.02300 21.76200
C  4.87300 44.45700 20.34800
N  3.58400 42.04700 26.22100
C  4.87300 42.29700 25.76300
C  5.70000 42.63600 26.89300
C  4.90800 42.44900 28.05200
C  3.60100 42.07000 27.57200
C  7.17400 42.93600 26.95400
C  4.91000 42.35800 29.53000
O  5.81700 42.56700 30.30900
C  3.55300 41.88500 29.97500
C  3.85000 40.63700 30.90300
O  4.20500 39.49500 30.53900
O  3.51500 41.01900 32.26100
C  3.64200 39.98200 33.21200
H  -2.42800 40.30400 26.73900
H  0.67900 40.78200 21.05300
H  6.09400 42.65000 24.01400
H  0.73500 40.45800 30.30700
H  -1.83100 41.12500 28.91500
H  -0.85700 38.86600 30.35400
H  -0.88300 38.36200 28.70700
H  -2.35300 38.97300 29.28900
H  -0.92900 42.95100 29.92300
H  0.71400 43.31200 30.25000
H  -0.11000 43.28400 32.42000
H  0.60200 41.72800 32.19800
H  -4.23600 39.66900 23.46900
H  -3.99500 39.77500 25.22000
H  -3.59400 38.36100 24.33700
H  -3.26600 38.34500 20.34500
H  -3.79500 39.96600 20.97000
H  -3.57400 38.43300 21.99000
H  2.42900 42.65100 20.73400
H  5.37700 42.08700 21.58900
H  3.16200 39.90400 20.32200
H  4.33200 40.86700 19.63300
H  2.57800 41.17500 19.26300
H  5.18100 44.52400 22.42500
H  3.49800 44.37700 22.08900
H  4.83700 43.60700 19.66600
H  5.89500 44.83100 20.40700
H  4.14200 45.18100 19.98800
H  7.73100 42.62200 26.07100
H  7.60100 42.55600 27.88200
H  7.25600 44.01200 27.10800
H  3.15700 42.77600 30.46200
H  4.57500 39.43900 33.06000
H  2.81300 39.29100 33.06200
H  3.48600 40.39500 34.20800

