158

Mg 25.31600 1.78000 30.04100
C  27.59200 1.63700 32.94400
C  22.71200 2.18700 32.36500
C  23.33200 1.36300 27.60300
C  28.13600 1.18000 28.07400
N  25.26100 2.00300 32.31900
C  26.25500 1.91900 33.20300
C  25.73800 2.35900 34.65700
C  24.16000 2.39800 34.57600
C  24.02000 2.22000 32.98600
C  23.41400 1.27100 35.40800
C  26.48400 3.71000 35.06000
C  27.02000 3.71300 36.50500
H  26.40700 4.65400 37.55500
N  23.26200 1.94300 29.98000
C  22.33500 2.10500 31.02800
C  21.05700 2.10100 30.54200
C  21.15400 1.80500 29.11900
C  22.59100 1.66200 28.80400
C  19.85900 2.37000 31.38700
C  20.07700 1.58500 28.09800
O  20.24500 1.28300 26.96500
C  18.69300 1.72100 28.46100
N  25.71600 1.50600 28.11800
C  24.66800 1.35800 27.26300
C  25.12400 1.41500 25.67900
C  26.70000 1.59700 25.90500
C  26.89000 1.49600 27.44500
C  24.71400 0.14100 24.90700
C  27.22500 2.98000 25.43700
C  26.66800 3.51800 24.12800
N  27.40600 1.41800 30.37800
C  28.41300 1.14400 29.47600
C  29.63000 0.87600 30.15500
C  29.38000 1.09100 31.50400
C  28.02000 1.41600 31.60000
C  30.92900 0.64500 29.43000
C  29.96600 1.18500 32.82700
O  31.12300 0.99800 33.21800
C  28.82600 1.64200 33.80400
C  28.73200 0.63900 34.88000
O  28.20200 -0.48000 34.92700
O  29.30500 1.18500 36.03700
C  29.15300 0.35700 37.18000
H  22.03300 2.39900 33.19400
H  22.64100 1.33800 26.75800
H  28.93600 1.08700 27.33700
H  25.99000 1.60100 35.39800
H  23.62200 3.30800 34.83800
H  24.14100 0.90100 36.13200
H  23.15700 0.46700 34.71800
H  22.49800 1.60000 35.89800
H  25.74800 4.51100 34.98100
H  27.25400 3.95200 34.32800
H  28.09500 3.88200 36.56500
H  26.81300 2.76600 37.00400
H  19.90600 2.47700 32.47100
H  19.18100 1.52100 31.30100
H  19.30200 3.24800 31.06100
H  18.54700 2.71400 28.88800
H  18.51800 0.92100 29.18000
H  18.11600 1.65100 27.53900
H  24.61500 2.22300 25.15400
H  27.28700 0.83200 25.39700
H  24.13600 0.28900 23.99500
H  23.97200 -0.32500 25.55500
H  25.50200 -0.60200 24.78300
H  28.29400 2.94300 25.23000
H  26.91800 3.63600 26.25100
H  27.36800 4.21900 23.67300
H  25.82500 4.14900 24.40800
H  26.42000 2.75300 23.39200
H  31.52900 0.00600 30.07800
H  31.47100 1.54200 29.13100
H  30.66100 0.04300 28.56200
H  28.90200 2.64300 34.22900
H  30.06800 0.60000 37.72000
H  29.18900 -0.69500 36.89500
H  28.25800 0.61100 37.74800
Mg 1.56600 42.43800 25.82800
C  2.95000 42.36800 29.03800
C  -1.41200 41.23700 27.15300
C  0.40900 41.73600 22.65100
C  4.71700 43.25100 24.62100
N  0.88300 41.79000 27.86400
C  1.59500 41.89400 29.03200
C  0.67800 41.74400 30.28200
C  -0.66900 41.28400 29.64100
C  -0.38100 41.50000 28.10200
C  -1.19000 39.93400 30.02700
C  0.49100 43.05500 31.07200
C  0.48700 42.89700 32.61000
H  -0.80200 42.27100 33.24400
N  -0.17600 41.49600 24.99100
C  -1.29300 41.21200 25.73900
C  -2.34500 40.79700 24.82100
C  -1.79400 40.76100 23.48300
C  -0.41900 41.25200 23.69800
C  -3.78700 40.53400 25.27400
C  -2.40800 40.18400 22.11800
O  -1.73600 40.24200 21.10600
C  -3.86400 39.64000 22.14600
N  2.41600 42.40500 23.98400
C  1.75200 42.17700 22.78900
C  2.69100 42.47100 21.61300
C  3.78800 43.33900 22.26100
C  3.64600 43.01000 23.73100
C  3.20600 41.10900 21.04600
C  3.56800 44.86900 22.10600
C  4.24100 45.64800 20.95000
N  3.47900 42.79900 26.62100
C  4.68100 43.12600 26.05600
C  5.71100 43.35100 27.03900
C  5.05500 43.06100 28.24200
C  3.71100 42.77400 27.91700
C  7.04600 43.83400 26.86900
C  5.29500 42.90400 29.63200
O  6.29000 42.89500 30.30100
C  3.94100 42.43800 30.23100
C  4.03900 41.11100 30.91100
O  4.13600 39.98200 30.45700
O  4.03000 41.36000 32.25000
C  3.99000 40.16500 33.22600
H  -2.42800 41.11900 27.53400
H  0.12800 41.61900 21.60300
H  5.62800 43.64300 24.16400
H  1.20800 41.06300 30.94800
H  -1.41200 42.04000 29.89200
H  -0.44600 39.32200 30.53700
H  -1.44700 39.39500 29.11500
H  -2.12000 40.16400 30.54700
H  -0.32800 43.69900 30.75200
H  1.37500 43.67900 30.94600
H  0.54700 43.92600 32.96300
H  1.33400 42.28200 32.91500
H  -3.91600 39.47800 25.03600
H  -4.47000 41.22600 24.78100
H  -4.02000 40.75800 26.31500
H  -3.81000 38.65800 22.61700
H  -4.13400 39.56600 21.09300
H  -4.55800 40.32600 22.63100
H  2.11000 43.01000 20.86500
H  4.82300 43.12600 21.99300
H  2.50300 40.30200 21.25400
H  4.17700 40.78100 21.41800
H  3.29200 41.22200 19.96600
H  3.87600 45.43300 22.98600
H  2.51600 45.15200 22.05700
H  3.50000 45.99400 20.23000
H  4.94400 45.01800 20.40500
H  4.81800 46.47700 21.35800
H  7.06900 44.89500 27.11700
H  7.49000 43.78100 25.87500
H  7.63600 43.33200 27.63700
H  3.51700 43.10800 30.97900
H  4.27800 39.20600 32.79600
H  2.92700 40.09100 33.45300
H  4.62400 40.26900 34.10600

