158

Mg 25.79100 0.90900 28.81400
C  27.62600 0.38100 31.77800
C  23.03000 1.16600 30.78800
C  24.01800 1.19500 26.02500
C  28.59900 0.12900 26.97700
N  25.40100 0.70100 31.08400
C  26.30300 0.52200 32.11700
C  25.58100 0.57600 33.49600
C  24.09300 0.67100 33.05200
C  24.13500 0.90200 31.57600
C  23.29800 -0.61500 33.45700
C  26.10400 1.85100 34.26700
C  25.39100 2.27800 35.58300
H  26.24000 2.12300 36.85300
N  23.81400 1.14200 28.40900
C  22.77100 1.23200 29.36700
C  21.51700 1.30600 28.57700
C  21.84000 1.52400 27.24300
C  23.25600 1.28100 27.19900
C  20.21300 1.36100 29.28100
C  20.92800 1.74900 26.00300
O  21.38600 1.72100 24.86500
C  19.48800 1.91400 26.18800
N  26.27400 0.67200 26.76900
C  25.34000 0.85700 25.80900
C  25.90600 0.68600 24.39900
C  27.37200 0.29000 24.65100
C  27.41000 0.34600 26.24300
C  25.11400 -0.32000 23.51700
C  28.48900 1.13900 23.98600
C  29.67300 0.40200 23.35100
N  27.76600 0.28700 29.23700
C  28.79300 0.12000 28.38000
C  30.04200 -0.00000 29.11000
C  29.65900 0.14100 30.45900
C  28.25100 0.32300 30.48300
C  31.40000 -0.07700 28.55500
C  30.12400 0.23000 31.89900
O  31.29100 0.12000 32.31600
C  28.81200 0.37500 32.79100
C  28.76900 -0.76200 33.74600
O  28.37600 -1.87600 33.53400
O  29.13200 -0.40900 35.00800
C  28.93900 -1.38700 36.05700
H  22.10800 1.20300 31.37200
H  23.47200 1.04200 25.09100
H  29.46100 0.02400 26.31400
H  25.90500 -0.24100 34.14000
H  23.48500 1.44200 33.52500
H  22.74800 -0.90300 32.56100
H  22.62000 -0.45100 34.29500
H  23.97500 -1.43800 33.68600
H  26.18200 2.73000 33.62800
H  27.13200 1.66000 34.57700
H  24.54800 1.61300 35.77500
H  25.05300 3.30300 35.43300
H  19.85400 2.35500 29.01300
H  20.29800 1.24900 30.36200
H  19.50200 0.60700 28.94300
H  18.98800 0.98000 26.44500
H  18.98400 2.15300 25.25100
H  19.42200 2.73500 26.90200
H  25.91300 1.70700 24.01700
H  27.57800 -0.75400 24.41600
H  24.58100 0.25200 22.75700
H  24.32700 -0.93000 23.96100
H  25.85800 -0.94600 23.02400
H  28.84300 1.89700 24.68400
H  27.90100 1.62500 23.20700
H  29.47000 -0.16400 22.44200
H  30.00700 -0.31300 24.10300
H  30.44800 1.13700 23.13200
H  32.12300 -0.17300 29.36400
H  31.72800 0.78500 27.97400
H  31.58900 -0.92000 27.89000
H  29.00300 1.32100 33.29800
H  27.98500 -1.15300 36.52900
H  29.75900 -1.23100 36.75700
H  29.02300 -2.43700 35.77700
Mg 48.98800 45.98200 44.28100
C  45.85800 46.32800 42.60200
C  49.36000 42.98800 42.40700
C  52.40900 46.30300 44.56700
C  48.68500 49.31100 45.36700
N  47.75600 44.93000 42.65800
C  46.53100 45.13600 42.26100
C  45.89300 44.00500 41.39700
C  46.98600 42.91000 41.55600
C  48.14200 43.58700 42.20000
C  46.48500 41.63900 42.52100
C  45.49900 44.56900 40.01800
C  44.02000 44.41900 39.40700
H  43.88300 43.44800 38.16500
N  50.55900 44.76000 43.62200
C  50.54600 43.57100 42.95900
C  51.79500 42.92200 43.03800
C  52.69100 43.80800 43.75600
C  51.89800 45.05300 43.99900
C  52.04700 41.48900 42.47200
C  54.09500 43.37300 44.19900
O  54.60200 42.30900 43.78400
C  54.85600 44.15200 45.18800
N  50.36400 47.54600 44.84800
C  51.73000 47.48800 44.84700
C  52.41200 48.82300 45.38100
C  51.19900 49.74500 45.73400
C  50.00200 48.87100 45.28600
C  53.28800 48.58600 46.57800
C  51.20600 51.11600 45.03700
C  52.27100 52.08000 45.45800
N  47.43300 47.43300 44.29800
C  47.53900 48.76400 44.73000
C  46.16000 49.36000 44.61400
C  45.48000 48.38800 43.80800
C  46.36700 47.29000 43.57300
C  45.66100 50.73100 44.90700
C  44.23800 48.13900 43.13900
O  43.28000 48.78200 42.95200
C  44.37700 46.74400 42.30200
C  43.47300 45.77400 42.97200
O  43.70100 45.06000 43.96400
O  42.26400 45.85500 42.26700
C  41.22900 44.91200 42.73300
H  49.45300 41.98100 41.99400
H  53.48800 46.36600 44.72400
H  48.49600 50.31700 45.74700
H  44.96300 43.56000 41.75100
H  47.19200 42.48000 40.57600
H  45.47500 41.79700 42.90000
H  46.96500 41.61400 43.49900
H  46.52000 40.67200 42.02000
H  46.06600 44.08200 39.22400
H  45.94400 45.55300 39.86900
H  43.67200 45.43400 39.21700
H  43.46200 43.96500 40.22600
H  53.08400 41.43100 42.14300
H  51.40600 41.36400 41.59900
H  51.78400 40.76000 43.23900
H  54.25800 44.55200 46.00700
H  55.29200 44.97400 44.62100
H  55.58100 43.44700 45.59500
H  53.02900 49.16000 44.54900
H  51.13700 49.78200 46.82200
H  53.11800 47.60500 47.02200
H  53.17400 49.30900 47.38600
H  54.33600 48.65800 46.28600
H  50.27100 51.67000 45.12200
H  51.25900 50.89400 43.97100
H  51.75900 53.02600 45.63600
H  52.99100 52.32500 44.67700
H  52.75900 51.72600 46.36500
H  45.85100 51.10200 45.91400
H  44.62300 50.78400 44.57700
H  46.12700 51.40200 44.18500
H  44.31600 46.90600 41.22500
H  40.32600 45.52000 42.79700
H  41.49700 44.33200 43.61600
H  41.01300 44.12500 42.01100

