158

Mg 35.59800 2.61300 30.31900
C  33.44500 3.86700 32.80700
C  38.12000 2.65800 32.62300
C  37.72000 1.77100 27.88500
C  33.05400 3.19300 27.97800
N  35.77000 3.31500 32.45400
C  34.73700 3.63800 33.34600
C  35.20500 3.75500 34.79200
C  36.77700 3.56000 34.57100
C  36.87200 3.04900 33.11200
C  37.64200 4.87600 34.64800
C  34.59700 2.67500 35.72200
C  34.35100 3.19200 37.12100
H  35.34400 4.28400 37.64800
N  37.58100 2.14400 30.29400
C  38.45000 2.21000 31.36100
C  39.77700 1.78200 30.93800
C  39.74400 1.62200 29.50300
C  38.35800 1.87500 29.16100
C  41.01600 1.68500 31.78600
C  40.82700 1.34200 28.47600
O  40.61600 1.10800 27.31600
C  42.23300 1.15900 28.91500
N  35.50100 2.69300 28.31100
C  36.44300 2.18200 27.52100
C  36.00400 2.16500 26.04200
C  34.45400 2.19300 26.17100
C  34.32700 2.81000 27.59500
C  36.61800 3.37100 25.19200
C  33.75000 0.70600 26.02900
C  32.47500 0.69800 25.18800
N  33.64100 3.29200 30.33300
C  32.72000 3.51400 29.28900
C  31.44000 3.86400 29.89700
C  31.66400 4.10700 31.26000
C  33.04800 3.73100 31.45100
C  30.09800 4.05900 29.17800
C  31.04000 4.51300 32.45500
O  29.90300 4.90600 32.66100
C  32.24600 4.34300 33.56500
C  32.47400 5.65000 34.32400
O  32.91700 6.66000 33.80100
O  32.01100 5.67500 35.59700
C  32.09900 6.95900 36.25700
H  38.97400 2.54800 33.29400
H  38.31200 1.43100 27.03200
H  32.33400 3.19000 27.15700
H  35.10100 4.80100 35.07900
H  37.16000 2.83700 35.29100
H  37.79400 5.23100 33.62900
H  38.61200 4.84800 35.14400
H  37.01700 5.71500 34.95600
H  35.16100 1.74100 35.72600
H  33.64600 2.35700 35.29400
H  34.35100 2.35900 37.82400
H  33.32500 3.55600 37.07500
H  41.52900 0.80700 31.39500
H  40.73100 1.57800 32.83300
H  41.72300 2.51100 31.70500
H  42.30300 0.24800 29.50900
H  42.46800 2.05800 29.48500
H  42.89300 1.06600 28.05200
H  36.36000 1.19200 25.70200
H  34.17200 2.92800 25.41600
H  35.83700 3.98800 24.74900
H  37.21100 3.02000 24.34700
H  37.37900 3.90100 25.76400
H  33.54700 0.25300 27.00000
H  34.56800 0.10200 25.63700
H  32.68900 0.25200 24.21700
H  32.19300 1.74400 25.07200
H  31.75900 0.09200 25.74300
H  30.19200 4.99100 28.62100
H  29.23200 4.32700 29.78200
H  29.94300 3.16400 28.57400
H  31.99300 3.57400 34.29500
H  32.28900 6.73100 37.30600
H  31.15200 7.46800 36.07700
H  33.00100 7.54900 36.09200
Mg 26.80300 49.81000 26.31600
C  24.71400 50.94100 28.93300
C  29.07400 48.78800 28.76100
C  28.85600 49.15800 23.88300
C  24.47700 51.24500 23.98600
N  26.85600 49.66400 28.56100
C  25.85200 50.17400 29.39600
C  26.13500 50.00800 30.80200
C  27.68900 49.55700 30.77400
C  27.88800 49.30600 29.30600
C  28.72100 50.64200 31.43200
C  25.05500 49.02300 31.36400
C  24.62500 49.24800 32.86700
H  25.57400 49.75300 33.94100
N  28.56400 48.90800 26.36100
C  29.35700 48.56600 27.40600
C  30.62500 47.97000 26.91400
C  30.58600 48.05000 25.46900
C  29.30700 48.72600 25.18700
C  31.60800 47.19000 27.78300
C  31.60500 47.52600 24.40000
O  31.46700 47.66200 23.20400
C  32.87600 46.77300 24.89100
N  26.71500 50.22400 24.26300
C  27.67400 49.87100 23.41300
C  27.41500 50.11800 21.97200
C  25.98400 50.50600 21.97100
C  25.62800 50.66800 23.48600
C  28.45400 50.93500 21.21500
C  25.05700 49.59300 21.09600
C  24.57000 48.29900 21.76400
N  25.02400 51.02200 26.41200
C  24.21800 51.46600 25.39200
C  23.06900 52.17400 25.99500
C  23.24200 51.90400 27.38300
C  24.41000 51.23800 27.57600
C  22.06500 52.98400 25.24300
C  22.68100 52.26200 28.64900
O  21.63900 52.92800 29.00600
C  23.57700 51.60800 29.80100
C  24.08400 52.67400 30.73300
O  24.94900 53.50000 30.48200
O  23.33100 52.56800 31.83500
C  23.74700 53.45800 32.94000
H  29.85000 48.61900 29.51000
H  29.48900 49.01200 23.00500
H  23.73300 51.69400 23.32500
H  26.08300 51.01000 31.22900
H  27.89200 48.60500 31.26600
H  28.35200 51.64000 31.66900
H  29.43200 50.83700 30.62900
H  29.30600 50.22800 32.25300
H  25.54300 48.04800 31.33400
H  24.15600 48.81600 30.78400
H  24.46400 48.24700 33.26700
H  23.64100 49.71400 32.82100
H  31.57400 46.15200 27.45500
H  31.33000 47.22100 28.83700
H  32.60400 47.63200 27.77600
H  33.67400 46.97900 24.17800
H  32.76500 45.70300 25.06600
H  33.22900 47.20900 25.82600
H  27.47800 49.16400 21.44800
H  25.92500 51.50200 21.53200
H  29.13800 50.31200 20.63800
H  29.04900 51.69900 21.71400
H  27.85000 51.45600 20.47300
H  25.64800 49.43100 20.19400
H  24.14300 50.06200 20.73100
H  23.48100 48.33900 21.74100
H  24.89400 48.13800 22.79200
H  24.89100 47.47700 21.12300
H  21.58300 53.73800 25.86600
H  21.22400 52.33500 24.99900
H  22.44700 53.37000 24.29800
H  23.00900 50.87800 30.37900
H  23.86600 54.48400 32.59200
H  24.66700 53.10100 33.40200
H  22.99900 53.52400 33.73100

