158

Mg 16.22500 -2.89400 28.32500
C  15.15700 -0.76100 30.86600
C  18.64800 -4.17500 30.33400
C  17.65000 -4.56600 25.72400
C  14.32700 -0.99200 26.02400
N  16.83600 -2.48000 30.33700
C  16.20700 -1.64500 31.26500
C  16.87400 -1.75300 32.64400
C  18.04200 -2.81700 32.38100
C  17.87500 -3.14100 30.89100
C  19.53600 -2.35800 32.77600
C  15.79700 -2.13600 33.73100
C  15.68000 -1.29000 35.04100
H  16.89200 -0.51400 35.60500
N  17.73100 -4.44900 28.11100
C  18.58100 -4.81300 29.06500
C  19.50200 -5.82500 28.58000
C  19.29900 -5.96600 27.17000
C  18.13600 -4.98400 26.92200
C  20.58100 -6.39200 29.42000
C  19.84800 -6.94200 26.15800
O  19.50400 -6.93800 24.93800
C  20.94000 -7.86600 26.59800
N  16.08300 -2.74400 26.14400
C  16.83800 -3.45200 25.37600
C  16.65900 -2.94000 23.91000
C  15.48300 -1.97200 23.99200
C  15.20900 -1.92900 25.45200
C  17.89700 -2.27500 23.26200
C  14.22700 -2.37900 23.09500
C  13.98300 -1.44800 21.89100
N  15.11100 -1.20300 28.32300
C  14.25900 -0.64000 27.34200
C  13.41600 0.31000 27.97500
C  13.76600 0.33400 29.28100
C  14.77500 -0.63100 29.51100
C  12.30200 1.06500 27.28500
C  13.45300 0.94400 30.55200
O  12.69300 1.89200 30.87100
C  14.39000 0.33400 31.61900
C  15.33100 1.39300 32.14500
O  16.48800 1.51400 31.79900
O  14.76300 2.17100 33.16300
C  15.60000 3.20900 33.82200
H  19.52300 -4.46500 30.91900
H  18.13900 -4.97100 24.83500
H  13.69000 -0.42900 25.33800
H  17.35200 -0.84800 33.01800
H  17.91900 -3.71500 32.98700
H  20.15700 -3.24800 32.87500
H  19.46700 -1.73300 33.66600
H  20.06200 -1.88700 31.94500
H  16.07700 -3.13000 34.07800
H  14.81000 -2.17600 33.27200
H  15.55600 -2.00100 35.85800
H  14.71000 -0.79500 34.99900
H  20.92400 -7.35300 29.03700
H  20.31300 -6.52000 30.46900
H  21.34500 -5.62000 29.51200
H  21.77800 -7.22600 26.87700
H  21.24700 -8.54500 25.80300
H  20.70000 -8.42500 27.50200
H  16.35000 -3.74100 23.23800
H  15.76400 -0.96400 23.68700
H  18.12300 -2.61500 22.25100
H  18.73000 -2.54800 23.90900
H  17.78500 -1.19200 23.31900
H  13.30900 -2.43900 23.68100
H  14.29100 -3.36400 22.63200
H  12.91700 -1.57900 21.70800
H  14.57200 -1.82200 21.05300
H  14.23300 -0.40600 22.09000
H  11.91800 0.74300 26.31700
H  12.47000 2.13800 27.19800
H  11.42800 0.95400 27.92700
H  13.80700 -0.03500 32.46200
H  15.87000 3.85500 32.98600
H  16.53500 2.77200 34.17300
H  15.02900 3.59800 34.66500
Mg 52.91700 23.44600 44.91200
C  50.64700 25.57000 43.50700
C  51.34300 20.78700 43.39900
C  55.59600 21.37100 45.48200
C  54.76700 26.21300 45.81200
N  51.28300 23.31300 43.53400
C  50.41900 24.24300 43.15800
C  49.21600 23.70900 42.41700
C  49.30500 22.22500 42.65800
C  50.76000 22.03200 43.23900
C  48.19900 21.73600 43.65600
C  49.10500 23.99500 40.88300
C  50.46700 24.33300 40.22500
H  51.62100 23.30200 40.15400
N  53.37500 21.30400 44.53300
C  52.50300 20.36300 44.04400
C  53.19500 19.06600 44.11200
C  54.43000 19.20200 44.78700
C  54.50900 20.64400 45.01900
C  52.61200 17.84600 43.58000
C  55.42400 18.05900 45.06700
O  55.11300 16.90500 44.81700
C  56.80600 18.21500 45.69600
N  54.93300 23.73100 45.30300
C  55.86100 22.73700 45.52600
C  57.16500 23.31100 46.09000
C  56.87700 24.84100 46.11400
C  55.43300 25.00800 45.75300
C  57.74400 22.83100 47.39400
C  57.77500 25.71500 45.11100
C  57.41600 25.80600 43.64500
N  52.71800 25.42100 44.90800
C  53.46800 26.42600 45.43400
C  52.68700 27.64000 45.46400
C  51.60300 27.34700 44.69800
C  51.66600 26.04400 44.30200
C  53.04900 28.95800 46.19200
C  50.39000 27.95200 44.17100
O  49.86500 29.02000 44.34900
C  49.80600 26.80700 43.29200
C  49.69100 27.38100 41.91700
O  50.62000 28.02600 41.45100
O  48.46900 27.21500 41.31800
C  48.42400 27.78900 39.90400
H  50.78400 19.97700 42.92500
H  56.32600 20.60900 45.76100
H  55.22200 27.13600 46.17700
H  48.33200 24.13200 42.89400
H  49.22500 21.60200 41.76700
H  47.97100 22.37900 44.50600
H  48.47400 20.72600 43.95900
H  47.21600 21.60400 43.20400
H  48.32900 24.72600 40.65700
H  48.80700 23.13800 40.28000
H  50.97000 25.14200 40.75400
H  50.21400 24.85300 39.30100
H  53.42700 17.29500 43.11100
H  51.93800 18.18000 42.79100
H  52.11300 17.29500 44.37700
H  57.35000 17.27700 45.79900
H  56.87000 18.81700 46.60300
H  57.38900 18.66900 44.89400
H  57.86800 23.15700 45.27100
H  56.94800 25.27100 47.11300
H  57.76400 21.74100 47.40400
H  57.23500 23.21500 48.27800
H  58.82900 22.92800 47.43900
H  58.76500 25.25900 45.10100
H  57.76600 26.74400 45.47000
H  58.33600 26.12500 43.15600
H  56.56200 26.42000 43.36000
H  57.14400 24.80200 43.32000
H  53.61800 28.75700 47.09900
H  52.10500 29.50000 46.26100
H  53.61700 29.55400 45.47900
H  48.81400 26.66600 43.72200
H  49.19400 28.43400 39.48200
H  47.48300 28.32700 40.01800
H  48.08000 26.98700 39.25000

