158

Mg 0.80800 7.07800 25.63500
C  1.35000 9.02000 28.40100
C  0.82500 4.28000 27.55100
C  -0.43200 5.27900 23.05800
C  1.16100 9.81800 23.56600
N  1.06900 6.66800 27.71000
C  1.17000 7.66200 28.70000
C  1.16500 6.99900 30.07000
C  1.27500 5.45500 29.75100
C  1.02900 5.46700 28.21900
C  2.62400 4.78700 30.13600
C  -0.12000 7.39000 30.88300
C  0.20100 7.77900 32.38800
H  1.43200 7.31800 33.10200
N  0.37700 5.03200 25.28500
C  0.42500 4.08100 26.26100
C  0.09500 2.82500 25.62000
C  -0.41400 3.12700 24.33800
C  -0.22300 4.54900 24.15600
C  0.35700 1.52400 26.32000
C  -1.12400 2.20900 23.32100
O  -1.45300 2.43500 22.15400
C  -1.62200 0.84900 23.83300
N  0.62600 7.45200 23.59100
C  -0.00900 6.55700 22.75400
C  -0.18600 7.14200 21.39100
C  0.28000 8.62200 21.58200
C  0.82000 8.63900 22.99500
C  0.58800 6.41600 20.23600
C  -0.85400 9.70500 21.34300
C  -0.69400 10.55300 20.07500
N  1.36000 9.00900 25.86600
C  1.34300 10.07900 24.95300
C  1.52900 11.33100 25.67700
C  1.60700 10.90700 26.96800
C  1.43000 9.52900 27.05300
C  1.56700 12.72800 25.08800
C  1.83300 11.44700 28.36800
O  2.19200 12.60200 28.70900
C  1.55800 10.22800 29.29700
C  2.56400 10.07900 30.39600
O  3.63800 9.53000 30.35700
O  2.24700 11.01500 31.31000
C  3.32700 11.33800 32.22000
H  0.82200 3.40300 28.20000
H  -0.97000 4.79800 22.23900
H  1.20700 10.69300 22.91400
H  2.03600 7.30300 30.65000
H  0.46800 4.93200 30.26500
H  2.41400 3.77800 30.49000
H  3.16100 5.26000 30.95800
H  3.37600 4.70500 29.35100
H  -0.86000 6.59800 30.76600
H  -0.45100 8.27500 30.34000
H  -0.73000 7.48500 32.87200
H  0.19900 8.86800 32.42700
H  -0.57600 1.15700 26.74700
H  1.17500 1.56200 27.04000
H  0.74600 0.86000 25.54800
H  -0.81300 0.12600 23.73200
H  -2.32300 0.49000 23.08000
H  -2.15200 0.93500 24.78100
H  -1.27000 7.14100 21.27300
H  1.20100 8.89200 21.06500
H  1.40100 6.06100 20.86800
H  0.79300 7.10900 19.42000
H  0.06100 5.50200 19.96300
H  -0.96700 10.42300 22.15500
H  -1.84300 9.24500 21.35100
H  -1.69700 10.64300 19.65800
H  -0.09800 9.96800 19.37400
H  -0.25100 11.51000 20.34900
H  1.99000 12.72400 24.08400
H  2.13400 13.26100 25.85200
H  0.57900 13.15500 24.91600
H  0.63400 10.40700 29.84600
H  2.90400 11.99400 32.98100
H  4.29800 11.58900 31.79300
H  3.46300 10.35500 32.67200
Mg -11.01600 15.73400 43.56300
C  -7.58700 16.78400 43.51500
C  -11.77100 19.04500 42.85100
C  -14.07400 14.74800 43.14000
C  -9.85800 12.49300 43.41500
N  -9.84200 17.72700 43.20100
C  -8.44800 17.87000 43.20700
C  -8.08500 19.32200 42.78900
C  -9.42900 20.12200 42.89900
C  -10.40000 18.92700 43.03300
C  -9.59300 21.02400 44.16800
C  -7.48500 19.41500 41.41500
C  -6.18000 20.21200 41.27100
H  -4.97900 19.53500 40.54900
N  -12.74700 16.68200 43.04700
C  -12.85100 18.06200 42.89000
C  -14.24700 18.34100 42.60200
C  -14.95100 17.13000 42.62600
C  -13.93900 16.13400 42.90500
C  -14.75600 19.76700 42.21300
C  -16.49200 16.97000 42.32600
O  -17.09200 17.94300 41.92600
C  -17.21700 15.69300 42.49700
N  -11.82400 13.79900 43.27400
C  -13.17400 13.71100 43.27000
C  -13.63400 12.24100 43.40300
C  -12.25400 11.45300 43.42300
C  -11.22500 12.64000 43.41200
C  -14.49000 11.99300 44.62600
C  -12.03900 10.29600 42.28200
C  -11.93000 8.82800 42.64500
N  -9.15700 14.80600 43.54600
C  -8.90000 13.47200 43.55000
C  -7.49600 13.26400 43.69600
C  -6.94900 14.53700 43.78000
C  -7.98300 15.42100 43.61100
C  -6.81300 11.98200 43.65300
C  -5.73600 15.33400 44.03300
O  -4.59500 15.04400 44.26700
C  -6.21700 16.80700 44.02700
C  -6.15100 17.27700 45.46400
O  -6.32900 16.55500 46.44000
O  -5.69900 18.56500 45.44000
C  -5.20800 18.99400 46.72000
H  -12.09900 20.07900 42.73000
H  -15.06500 14.29200 43.18300
H  -9.42200 11.49200 43.39600
H  -7.34400 19.63000 43.52600
H  -9.70500 20.69600 42.01400
H  -8.61500 21.21300 44.60800
H  -10.35700 20.81400 44.91700
H  -9.99100 21.96400 43.78400
H  -8.19600 19.87000 40.72400
H  -7.35400 18.34600 41.24900
H  -5.88600 20.57400 42.25600
H  -6.50600 21.04100 40.64300
H  -15.37000 19.66500 41.31900
H  -14.00200 20.50300 41.93300
H  -15.25700 20.20300 43.07800
H  -18.29300 15.75500 42.33100
H  -17.07800 15.23300 43.47500
H  -16.94800 14.93900 41.75800
H  -14.25400 12.04100 42.52900
H  -12.04100 10.93500 44.35900
H  -15.48200 11.90200 44.18300
H  -14.44600 12.76400 45.39600
H  -14.26900 11.02800 45.08200
H  -11.32500 10.68000 41.55300
H  -12.98200 10.32200 41.73600
H  -11.30400 8.35200 41.89000
H  -12.89500 8.32500 42.58200
H  -11.60600 8.67000 43.67300
H  -5.73000 12.08400 43.58200
H  -7.16200 11.55800 42.71100
H  -7.03800 11.26900 44.44500
H  -5.55200 17.37700 43.38000
H  -4.64900 18.17900 47.17900
H  -6.00700 19.38200 47.35300
H  -4.41500 19.73100 46.59600

