158

Mg 7.32200 57.15200 42.09400
C  5.54000 54.10800 41.73400
C  10.00800 55.62700 40.71800
C  8.57400 60.30000 41.59500
C  4.21400 58.73100 43.06500
N  7.63400 55.10000 41.26400
C  6.79300 54.03600 41.14800
C  7.44500 52.84000 40.51900
C  9.02100 53.23600 40.71000
C  8.87800 54.73100 40.78600
C  9.72500 52.64200 41.99600
C  7.00200 52.74900 39.07100
C  7.38300 51.48900 38.32500
H  6.43000 50.94300 37.32300
N  8.99000 57.82900 41.30700
C  9.98700 57.06500 40.83900
C  11.15200 57.87100 40.43900
C  10.75600 59.26000 40.54600
C  9.38600 59.20700 41.16900
C  12.50700 57.33300 40.06500
C  11.64400 60.42100 40.24900
O  12.71500 60.20900 39.67300
C  11.20600 61.78200 40.55900
N  6.49600 59.27300 42.48600
C  7.25600 60.29700 42.11900
C  6.39100 61.59400 42.27500
C  5.01700 61.09000 42.75100
C  5.24200 59.60700 42.84200
C  7.06900 62.58700 43.20800
C  3.72100 61.44300 41.89800
C  2.80900 62.45700 42.52000
N  5.29000 56.59000 42.40600
C  4.19900 57.28800 42.85800
C  3.04600 56.37000 43.00600
C  3.54600 55.11900 42.61100
C  4.89300 55.29700 42.20400
C  1.64700 56.55900 43.58400
C  3.16300 53.70300 42.51100
O  2.19600 53.05800 42.81700
C  4.50100 53.01100 41.93800
C  3.98600 52.42000 40.65300
O  3.56200 53.06600 39.67000
O  4.01800 51.08900 40.72400
C  3.12900 50.40100 39.81400
H  10.93700 55.09800 40.49400
H  8.91800 61.28200 41.26300
H  3.28000 59.11600 43.47900
H  7.26100 51.90300 41.04500
H  9.61100 52.89800 39.85800
H  8.98300 52.08000 42.56300
H  10.14900 53.37300 42.68600
H  10.45900 51.89100 41.70400
H  7.57300 53.51100 38.54100
H  5.92100 52.87200 38.99600
H  7.64600 50.67700 39.00300
H  8.25400 51.68900 37.70100
H  12.66100 56.36100 40.53400
H  13.22000 58.04100 40.48700
H  12.60400 57.25900 38.98200
H  11.03500 61.78700 41.63600
H  10.32200 62.07600 39.99400
H  12.05700 62.42700 40.34000
H  6.25900 62.14100 41.34100
H  4.99600 61.40400 43.79400
H  8.04000 62.86400 42.79600
H  7.30700 62.05500 44.12900
H  6.49800 63.50700 43.33700
H  3.26100 60.49700 41.61300
H  4.15900 61.92600 41.02500
H  2.18900 61.90900 43.23000
H  2.34400 63.03200 41.71900
H  3.40100 63.16600 43.09800
H  0.86200 56.27100 42.88500
H  1.58000 57.56700 43.99500
H  1.48700 55.94100 44.46700
H  4.83100 52.22600 42.61800
H  2.09400 50.59600 40.09600
H  3.28100 49.32200 39.84800
H  3.27500 50.61000 38.75400
Mg -11.11400 40.40700 42.43700
C  -9.51400 37.65400 41.09600
C  -8.75900 42.43500 40.85100
C  -12.89100 43.11000 43.32200
C  -13.81500 38.37900 43.24400
N  -9.38600 40.06700 40.97200
C  -8.89100 38.81700 40.62100
C  -7.70400 38.91700 39.59200
C  -7.40800 40.43000 39.71600
C  -8.56300 41.06900 40.59600
C  -5.98100 40.79100 40.30800
C  -7.84000 38.20600 38.23600
C  -7.09400 36.84000 38.05400
H  -5.94200 36.75800 37.05900
N  -10.73700 42.56900 42.34800
C  -9.72000 43.10900 41.65500
C  -9.82700 44.51800 41.81300
C  -11.04600 44.77700 42.58800
C  -11.62400 43.50500 42.75300
C  -8.85200 45.45700 41.25500
C  -11.57300 46.18200 43.02600
O  -10.88300 47.17500 42.84900
C  -12.87400 46.26500 43.91300
N  -13.10300 40.69400 43.19500
C  -13.57700 41.89700 43.49400
C  -14.88700 41.77600 44.16800
C  -15.27000 40.27500 44.01600
C  -13.98600 39.73300 43.49800
C  -14.91400 42.20700 45.64100
C  -16.48700 40.04400 43.04500
C  -17.39000 38.80700 43.37200
N  -11.61000 38.46100 42.33900
C  -12.68100 37.73000 42.82600
C  -12.41500 36.33600 42.71600
C  -11.18900 36.28300 42.06100
C  -10.73100 37.61100 41.84100
C  -13.38000 35.21800 43.06500
C  -10.18100 35.36500 41.53900
O  -10.17700 34.12900 41.67800
C  -9.00600 36.23700 40.91300
C  -7.80100 35.89100 41.70200
O  -7.37300 36.49000 42.68800
O  -7.12300 34.92600 41.03600
C  -5.71200 34.83100 41.25500
H  -7.97000 43.04000 40.39900
H  -13.68400 43.82700 43.54200
H  -14.64800 37.69900 43.43100
H  -6.98300 38.38300 40.21100
H  -7.42700 40.89700 38.73100
H  -5.46100 39.88400 40.61600
H  -6.13700 41.52900 41.09400
H  -5.32800 41.27800 39.58400
H  -7.33400 38.78300 37.46200
H  -8.91300 38.10700 38.07100
H  -7.86600 36.11900 37.78800
H  -6.60100 36.55000 38.98200
H  -9.38800 45.95900 40.44900
H  -7.90800 44.96000 41.03200
H  -8.52200 46.21300 41.96700
H  -12.96100 45.48000 44.66400
H  -13.68200 46.11300 43.19800
H  -12.92600 47.26000 44.35600
H  -15.54200 42.42500 43.58700
H  -15.61400 39.71700 44.88800
H  -15.61800 43.02400 45.79900
H  -13.92900 42.55800 45.94800
H  -15.21200 41.37200 46.27500
H  -15.90800 39.83200 42.14600
H  -16.96200 41.02500 43.01300
H  -18.45300 39.04700 43.38200
H  -17.23300 38.40100 44.37100
H  -17.13200 38.01100 42.67300
H  -13.61500 35.15200 44.12700
H  -13.19900 34.22400 42.65600
H  -14.30800 35.55100 42.60000
H  -8.85500 35.91900 39.88200
H  -5.77400 34.31500 42.21300
H  -5.24300 35.81000 41.35400
H  -5.24700 34.14700 40.54500

