158

Mg 0.02700 7.99000 26.73800
C  0.84600 9.79600 29.64900
C  -0.22900 5.18900 28.70000
C  -0.11900 6.12900 23.80100
C  0.59200 10.80600 24.93500
N  0.40300 7.52400 28.95400
C  0.44800 8.43300 29.93900
C  0.15400 7.87500 31.32000
C  0.19900 6.33500 31.04300
C  0.18400 6.29800 29.46800
C  1.42600 5.65300 31.72500
C  -1.22500 8.44800 31.79100
C  -1.29200 9.06700 33.15100
H  -0.23200 8.84500 34.23000
N  -0.25700 5.93500 26.31300
C  -0.27300 4.94100 27.23900
C  -0.59800 3.62600 26.62400
C  -0.50800 3.85300 25.18400
C  -0.28500 5.37600 25.02900
C  -0.93100 2.37900 27.36600
C  -0.47600 2.89600 23.94900
O  -0.28200 3.22800 22.81000
C  -0.77700 1.35600 24.12100
N  0.49200 8.38300 24.62300
C  0.13300 7.48800 23.59200
C  0.10800 8.18200 22.23000
C  0.23400 9.74600 22.70000
C  0.41900 9.67000 24.20500
C  1.23200 7.68200 21.28200
C  -1.03200 10.61000 22.25800
C  -0.66800 11.75100 21.31600
N  0.59900 9.94700 27.12700
C  0.83000 10.99700 26.28300
C  1.23600 12.16000 27.02900
C  1.26500 11.75800 28.38000
C  0.93000 10.40100 28.36700
C  1.45200 13.52800 26.53500
C  1.61400 12.12900 29.71400
O  2.20200 13.10800 30.06300
C  1.24600 10.88200 30.61700
C  2.35700 10.45100 31.50600
O  3.11600 9.51200 31.40700
O  2.43100 11.35000 32.48700
C  3.69200 11.31300 33.19200
H  -0.24900 4.26900 29.28800
H  -0.19900 5.62800 22.83400
H  0.60900 11.74000 24.36900
H  0.92800 8.16400 32.03100
H  -0.74200 5.93700 31.42200
H  2.37800 5.86700 31.23900
H  1.20300 4.58900 31.65000
H  1.50000 5.94900 32.77200
H  -1.99100 7.67300 31.82700
H  -1.54100 9.17700 31.04500
H  -2.27800 8.76700 33.50700
H  -1.35600 10.13500 32.94200
H  -0.03700 1.81200 27.62600
H  -1.57000 1.84700 26.66100
H  -1.52200 2.55800 28.26400
H  -0.88200 0.90000 23.13700
H  -1.62000 1.08600 24.75700
H  0.12700 1.05500 24.65200
H  -0.82000 7.90100 21.73200
H  1.14600 10.21400 22.32800
H  1.93900 7.07800 21.85000
H  1.88100 8.42800 20.82500
H  0.82600 7.15600 20.41800
H  -1.43200 10.99700 23.19500
H  -1.79100 10.05400 21.70800
H  -1.50300 11.91800 20.63500
H  0.30900 11.73700 20.83300
H  -0.71800 12.67100 21.89700
H  2.53000 13.67100 26.46100
H  1.06100 14.27200 27.22800
H  0.92100 13.65800 25.59200
H  0.39700 11.14800 31.24600
H  4.46400 11.15400 32.43900
H  3.88500 10.48400 33.87300
H  3.90600 12.30400 33.59200
Mg 17.06700 51.94500 26.57500
C  19.37000 50.38500 28.86400
C  15.15900 52.56000 29.31900
C  14.96900 53.31700 24.46500
C  19.20900 50.86400 23.93200
N  17.31600 51.57600 28.85200
C  18.33500 51.01600 29.58200
C  18.17500 51.21800 31.15600
C  16.63100 51.63800 31.19400
C  16.30900 51.97300 29.69700
C  15.69100 50.50500 31.67500
C  19.11400 52.33100 31.76900
C  19.44400 52.15300 33.19300
H  18.36500 51.71000 34.17700
N  15.34600 52.80600 26.87500
C  14.63600 52.91400 28.02400
C  13.42600 53.74700 27.83600
C  13.31600 53.90400 26.39100
C  14.53600 53.32800 25.83500
C  12.51400 54.08300 28.93200
C  12.26100 54.64700 25.51800
O  12.29900 54.70700 24.31400
C  11.11500 55.33100 26.16900
N  17.07500 52.03200 24.45200
C  16.09400 52.67500 23.85800
C  16.33200 52.68700 22.29800
C  17.65700 51.95600 22.17500
C  18.06200 51.61100 23.61200
C  15.13400 51.95900 21.51700
C  18.73400 52.80800 21.39500
C  19.23100 54.17800 21.89900
N  18.86500 50.85800 26.35100
C  19.58800 50.54500 25.20600
C  20.67300 49.70200 25.50200
C  20.63300 49.56400 26.94300
C  19.52000 50.35000 27.42100
C  21.52800 48.97700 24.47100
C  21.23000 48.91200 28.09800
O  22.08800 48.06200 28.16700
C  20.63300 49.69300 29.28700
C  20.39900 48.73000 30.37200
O  19.62900 47.83500 30.34900
O  21.15700 49.00100 31.50600
C  20.81400 48.22800 32.63700
H  14.53500 52.76800 30.19100
H  14.50500 53.95000 23.70500
H  19.81100 50.35400 23.17700
H  18.34400 50.25800 31.64400
H  16.40700 52.46700 31.86500
H  14.72400 50.74500 32.11700
H  16.29900 49.75600 32.18400
H  15.30300 49.89900 30.85600
H  18.60000 53.29100 31.71800
H  20.00300 52.37500 31.14000
H  19.90300 53.11600 33.41500
H  20.28900 51.46600 33.14400
H  12.46200 55.11700 29.27200
H  12.69600 53.48100 29.82300
H  11.49200 53.86900 28.62000
H  10.66100 54.64600 26.88500
H  10.36400 55.75100 25.50000
H  11.54100 56.15600 26.74000
H  16.42400 53.69700 21.90000
H  17.50900 51.04400 21.59600
H  15.51300 51.17700 20.86000
H  14.57900 52.65600 20.88900
H  14.32600 51.54400 22.11900
H  18.34100 53.05100 20.40800
H  19.63400 52.19400 21.34400
H  20.29000 54.04300 22.11900
H  18.58900 54.60700 22.66900
H  19.07200 54.83200 21.04200
H  21.31100 48.94900 23.40300
H  21.39600 47.90000 24.57800
H  22.56100 49.29200 24.61300
H  21.33400 50.45100 29.63900
H  20.64500 47.23600 32.21900
H  19.84600 48.41700 33.10100
H  21.58900 48.22100 33.40500

