158

Mg 35.48400 49.26500 26.73900
C  35.61100 47.11700 29.58100
C  34.29200 51.73400 28.75100
C  35.00800 50.94300 24.02200
C  36.25400 46.32700 24.85200
N  35.10200 49.30100 28.86700
C  35.10400 48.38600 29.84500
C  34.94300 48.91600 31.24500
C  34.23200 50.23500 30.86500
C  34.61900 50.49000 29.40500
C  32.71700 50.29800 31.06600
C  36.28200 49.17800 32.08500
C  36.32800 48.59500 33.52900
H  35.05700 48.71700 34.37100
N  34.76700 51.12300 26.39000
C  34.35900 51.99600 27.33800
C  34.19000 53.27300 26.70600
C  34.34900 53.06300 25.29300
C  34.65100 51.65600 25.16700
C  33.91700 54.51500 27.54900
C  34.35600 53.98900 24.14200
O  34.64200 53.71900 22.96700
C  33.79400 55.40200 24.38600
N  35.61600 48.70500 24.76200
C  35.46200 49.62200 23.76000
C  35.79400 49.10300 22.39300
C  36.21800 47.65500 22.67500
C  35.99900 47.54500 24.19600
C  34.73700 49.25600 21.28800
C  37.66600 47.16800 22.22900
C  38.91900 47.73500 22.78100
N  35.86900 47.14300 27.03900
C  36.22300 46.11300 26.21400
C  36.51200 44.92400 26.92000
C  36.28200 45.26600 28.25000
C  35.90000 46.64000 28.29700
C  37.15600 43.62200 26.31400
C  36.47100 44.72300 29.61800
O  36.96200 43.61100 29.97800
C  35.87600 45.89000 30.51700
C  34.58900 45.47700 31.19500
O  33.46600 45.35000 30.62000
O  34.88100 45.11600 32.45100
C  33.86900 44.38100 33.23800
H  33.83000 52.50900 29.36600
H  34.76000 51.51100 23.12300
H  36.51900 45.44200 24.27000
H  34.27100 48.27100 31.81100
H  34.53700 51.06900 31.49600
H  32.52400 51.16300 31.69900
H  32.28000 49.40900 31.52100
H  32.15100 50.53700 30.16600
H  36.51100 50.23300 32.23300
H  36.99700 48.66500 31.44100
H  37.07200 49.08800 34.15500
H  36.73500 47.58400 33.53200
H  33.66500 54.32100 28.59200
H  33.02400 54.93900 27.09200
H  34.64200 55.32800 27.49800
H  32.82000 55.46500 24.87200
H  33.70100 55.87600 23.41000
H  34.54400 55.92300 24.98100
H  36.65500 49.72800 22.15900
H  35.54600 47.01300 22.10600
H  34.55500 48.29000 20.81800
H  35.14100 49.93000 20.53300
H  33.74300 49.50200 21.66300
H  37.69100 47.30900 21.14800
H  37.67200 46.09400 22.41300
H  38.71600 47.84200 23.84600
H  39.24400 48.68400 22.35400
H  39.70800 46.98600 22.70600
H  38.19000 43.56000 26.65300
H  37.08000 43.57700 25.22700
H  36.65600 42.73400 26.70200
H  36.59100 46.08300 31.31700
H  33.90000 43.30800 33.04800
H  32.84300 44.69700 33.05000
H  34.04500 44.50300 34.30700
Mg 26.44800 49.75500 27.14500
C  24.28700 51.22600 29.66000
C  28.53200 48.78200 29.72000
C  28.65600 49.17200 24.78500
C  24.43500 51.49000 24.73800
N  26.47600 50.17400 29.46300
C  25.43800 50.67300 30.23800
C  25.64300 50.21400 31.72800
C  27.05600 49.59800 31.73500
C  27.39500 49.45100 30.18700
C  28.10400 50.41600 32.53900
C  24.50300 49.42500 32.37100
C  23.99500 49.98400 33.66500
H  24.97800 50.68700 34.60900
N  28.25800 48.92500 27.22000
C  28.94600 48.53200 28.36700
C  30.29600 47.92400 28.00400
C  30.39300 48.21300 26.56500
C  29.11200 48.85000 26.10800
C  31.35500 47.34900 28.85800
C  31.62100 48.03400 25.58800
O  31.56100 48.35500 24.38600
C  32.86400 47.48100 26.11500
N  26.64300 50.34100 25.13400
C  27.52000 49.76000 24.29200
C  27.09800 49.94900 22.82400
C  25.67200 50.49000 22.87600
C  25.58700 50.83400 24.36300
C  27.97300 50.90800 22.08100
C  24.62300 49.42600 22.35700
C  23.85600 49.82700 21.08100
N  24.62700 50.99800 27.14500
C  23.97400 51.62000 26.08500
C  22.91100 52.42900 26.64100
C  22.96700 52.24900 28.04200
C  24.06800 51.38100 28.31200
C  21.90200 53.24100 25.96600
C  22.38700 52.72900 29.33200
O  21.39100 53.43100 29.61300
C  23.25100 52.00000 30.43400
C  23.72800 53.01300 31.35800
O  24.83600 53.51200 31.21500
O  22.84900 53.19600 32.38100
C  23.10900 54.29800 33.42800
H  29.19500 48.38500 30.49200
H  29.34600 48.81000 24.02000
H  23.71000 51.92200 24.04500
H  25.68500 51.17000 32.25000
H  27.04100 48.60700 32.18800
H  27.69400 50.90100 33.42500
H  28.47600 51.18900 31.86600
H  28.97400 49.79200 32.74400
H  24.91900 48.44800 32.61600
H  23.73200 49.20200 31.63400
H  23.63900 49.06900 34.13700
H  23.16400 50.67300 33.51400
H  31.60200 46.36000 28.47100
H  30.96200 47.29100 29.87300
H  32.22600 48.00200 28.90300
H  33.40200 48.17700 26.75800
H  33.47300 47.18000 25.26300
H  32.57300 46.56700 26.63300
H  27.09100 48.93400 22.42700
H  25.56000 51.40000 22.28700
H  27.53800 51.88100 21.85300
H  28.35400 50.36500 21.21600
H  28.85400 51.23300 22.63400
H  23.94100 49.26000 23.19100
H  25.09800 48.50800 22.00900
H  24.05200 49.13500 20.26200
H  24.10900 50.84700 20.79000
H  22.84600 49.74300 21.48000
H  22.37900 53.84100 25.19100
H  21.35100 53.92600 26.61000
H  21.12600 52.64300 25.48800
H  22.61200 51.36600 31.04900
H  23.25200 55.18300 32.80900
H  24.05400 54.12400 33.94200
H  22.25300 54.36000 34.10100

