158

Mg 25.99800 -0.38000 28.99100
C  27.82900 -0.75100 31.96500
C  23.26700 0.20400 30.82200
C  24.35800 -0.25300 26.11500
C  28.95100 -1.60400 27.22600
N  25.61800 -0.31400 31.17400
C  26.49800 -0.49500 32.25900
C  25.82400 -0.14900 33.65700
C  24.38200 0.12300 33.17600
C  24.39000 -0.02700 31.62100
C  23.42700 -0.89600 33.82100
C  26.43700 1.08300 34.39600
C  25.93600 1.34000 35.82500
H  26.52600 2.52800 36.68500
N  24.03100 -0.10900 28.54700
C  23.03200 0.11400 29.39700
C  21.82500 0.47400 28.69100
C  22.17700 0.38300 27.30200
C  23.60900 0.07100 27.22500
C  20.45300 0.71400 29.34300
C  21.30700 0.54800 26.14500
O  21.71500 0.59300 24.99600
C  19.74600 0.78400 26.22600
N  26.52600 -1.01900 26.99800
C  25.62300 -0.87200 25.94700
C  26.35100 -0.89300 24.67100
C  27.69700 -1.53900 24.97300
C  27.75300 -1.38600 26.49500
C  25.61600 -1.57000 23.48900
C  28.96000 -1.00200 24.27100
C  29.11900 0.53700 24.19800
N  28.03200 -0.93200 29.45800
C  29.13400 -1.36700 28.64800
C  30.28700 -1.44300 29.45800
C  29.85800 -1.19000 30.78800
C  28.48600 -0.96700 30.76600
C  31.65000 -1.71700 28.89700
C  30.30800 -1.12700 32.15200
O  31.43700 -1.34100 32.61600
C  28.99100 -0.69100 32.92400
C  28.74600 -1.50700 34.10200
O  28.33000 -2.67600 34.16400
O  29.05000 -0.77600 35.18500
C  28.97700 -1.46200 36.49200
H  22.41400 0.45700 31.45500
H  23.90200 0.05400 25.17200
H  29.91200 -1.81700 26.75300
H  25.94000 -1.05700 34.24700
H  24.11100 1.14000 33.45900
H  24.09900 -1.66100 34.21000
H  22.83500 -1.37600 33.04100
H  22.70700 -0.51200 34.54400
H  26.13700 1.97500 33.84600
H  27.52500 1.08700 34.46000
H  26.31900 0.47300 36.36200
H  24.85000 1.41200 35.89200
H  19.71800 1.34900 28.84700
H  20.66800 1.32700 30.21900
H  20.04700 -0.23800 29.68400
H  19.33500 0.95600 25.23100
H  19.47300 1.64100 26.84200
H  19.28300 -0.13400 26.58600
H  26.46800 0.13800 24.33500
H  27.60100 -2.62000 24.87300
H  24.56900 -1.76700 23.71700
H  26.07500 -2.53100 23.25600
H  25.68300 -1.04700 22.53500
H  28.87100 -1.28500 23.22200
H  29.79700 -1.56600 24.68200
H  28.49700 1.16300 24.83800
H  28.99300 0.76200 23.13900
H  30.15000 0.57900 24.54900
H  31.63900 -1.24000 27.91700
H  31.77200 -2.77800 28.68000
H  32.41000 -1.22500 29.50400
H  29.10900 0.35100 33.22100
H  28.51400 -0.67200 37.08400
H  29.95000 -1.62700 36.95400
H  28.30800 -2.32200 36.52000
Mg 44.19500 3.23600 47.64600
C  42.06700 5.83000 46.71500
C  41.58200 1.07000 47.44800
C  46.35000 0.58500 47.86200
C  46.90900 5.43700 47.44000
N  42.01400 3.49000 47.19300
C  41.38300 4.61900 46.77000
C  39.94000 4.30500 46.52700
C  39.79100 2.87000 47.21200
C  41.25400 2.41300 47.23100
C  39.14200 2.78500 48.65700
C  39.65800 4.30900 44.93600
C  38.45300 5.12700 44.47000
H  38.64900 6.22300 43.41500
N  43.90200 1.07300 47.73600
C  42.80800 0.45700 47.58200
C  42.98700 -0.99500 47.68400
C  44.39200 -1.17100 47.73100
C  44.97900 0.23400 47.80100
C  41.87400 -2.01000 47.52800
C  45.10500 -2.56300 47.68100
O  44.49000 -3.59800 47.73300
C  46.53100 -2.65300 47.57500
N  46.32400 3.06800 47.61300
C  46.98200 1.90400 47.85700
C  48.51500 2.02900 48.11300
C  48.64800 3.58700 47.99100
C  47.23300 4.09800 47.65500
C  48.88100 1.34700 49.52000
C  49.68000 4.05500 46.92600
C  50.73400 5.08900 47.21900
N  44.46900 5.15600 47.27000
C  45.64200 5.85000 47.12500
C  45.32900 7.23700 46.81600
C  43.94100 7.33300 46.79600
C  43.42100 6.06500 47.00600
C  46.39800 8.32400 46.76100
C  42.81000 8.20600 46.59400
O  42.74400 9.43100 46.51300
C  41.50100 7.20500 46.49700
C  40.66700 7.61900 47.65800
O  40.42300 6.82700 48.54300
O  40.11400 8.84500 47.55900
C  38.93500 8.95700 48.40400
H  40.77100 0.34200 47.38200
H  47.01500 -0.27200 47.98600
H  47.75700 6.12500 47.46700
H  39.26900 4.98700 47.05000
H  39.26700 2.20300 46.52700
H  39.06100 3.76200 49.13500
H  39.72500 2.15900 49.33200
H  38.16500 2.33200 48.48900
H  39.27700 3.31000 44.72400
H  40.52400 4.47800 44.29500
H  37.96500 5.65200 45.29200
H  37.65200 4.54600 44.01200
H  42.17000 -2.96700 47.09800
H  41.23200 -1.57800 46.76100
H  41.35100 -2.17500 48.47000
H  46.84600 -2.06400 46.71400
H  46.72800 -3.70000 47.34400
H  46.91700 -2.32000 48.53800
H  49.08100 1.54200 47.31900
H  48.92000 4.06600 48.93200
H  49.32600 2.14900 50.11000
H  49.47700 0.43700 49.44300
H  47.97300 1.10100 50.07000
H  49.20900 4.32700 45.98100
H  50.21300 3.14100 46.66600
H  51.73900 4.66600 47.21500
H  50.61900 5.61200 48.16800
H  50.78600 5.78600 46.38200
H  46.97100 8.24800 47.68500
H  45.97800 9.31600 46.93100
H  46.97100 8.22500 45.83900
H  40.99800 7.04300 45.54400
H  38.10500 8.38900 47.98500
H  38.57800 9.98700 48.42700
H  39.17000 8.78400 49.45400

