158

Mg 17.30500 -1.67200 27.27100
C  16.05400 0.24400 29.89700
C  19.08600 -3.50800 29.47700
C  19.02900 -2.90600 24.63800
C  15.59600 0.57800 25.02300
N  17.77400 -1.41700 29.35300
C  17.01600 -0.69200 30.25600
C  17.38700 -1.02100 31.69500
C  18.66400 -1.91300 31.52300
C  18.48100 -2.34500 30.03900
C  20.02700 -1.20100 31.84600
C  16.14700 -1.72900 32.39500
C  15.77600 -1.29200 33.84500
H  16.91700 -0.70200 34.66200
N  18.64500 -3.21800 27.03800
C  19.19500 -3.93200 28.10000
C  19.91900 -5.04700 27.56000
C  19.82500 -4.91300 26.11800
C  19.18200 -3.61000 25.86100
C  20.60300 -6.11300 28.33300
C  20.43100 -5.73600 25.01600
O  20.40700 -5.35200 23.82900
C  21.04800 -7.09100 25.35000
N  17.42500 -1.09200 25.19800
C  18.28100 -1.75500 24.42000
C  18.02000 -1.43700 22.97100
C  16.81700 -0.45000 22.98200
C  16.55600 -0.31600 24.46000
C  19.27700 -0.97200 22.23800
C  15.62900 -0.99800 22.16800
C  15.05800 -0.04700 21.00300
N  16.00400 0.02700 27.41600
C  15.33700 0.72600 26.44300
C  14.44600 1.67000 27.04100
C  14.75900 1.61500 28.39500
C  15.66200 0.57900 28.58900
C  13.61900 2.64100 26.29600
C  14.36600 2.13100 29.66300
O  13.53700 2.90200 30.06000
C  15.26400 1.30400 30.75200
C  16.13400 2.31300 31.49100
O  17.26000 2.68800 31.18500
O  15.50300 2.48900 32.73000
C  16.28400 3.39900 33.63100
H  19.65800 -4.08700 30.20600
H  19.51400 -3.31000 23.74600
H  14.99700 1.23600 24.38900
H  17.62600 -0.04800 32.12500
H  18.61600 -2.83500 32.10400
H  19.93500 -0.17300 32.19800
H  20.52900 -1.17600 30.87900
H  20.65700 -1.82400 32.48100
H  16.31900 -2.80400 32.44700
H  15.26400 -1.69300 31.75700
H  15.35200 -2.18800 34.29800
H  15.07200 -0.46200 33.78500
H  20.25800 -6.05600 29.36500
H  21.69100 -6.15900 28.38800
H  20.26400 -7.09800 28.01100
H  21.83700 -6.98400 26.09500
H  21.55200 -7.45000 24.45200
H  20.32700 -7.85000 25.65300
H  17.54600 -2.32900 22.56100
H  17.09000 0.52900 22.58800
H  19.95300 -0.41900 22.89100
H  18.94400 -0.35600 21.40300
H  19.87700 -1.81000 21.88400
H  14.82800 -1.20300 22.87900
H  15.80000 -1.93600 21.63900
H  14.02700 0.28700 21.11600
H  15.03000 -0.58900 20.05700
H  15.73300 0.74200 20.67100
H  13.06800 2.12000 25.51300
H  14.23500 3.30900 25.69400
H  12.95900 3.15800 26.99400
H  14.64600 0.83700 31.51800
H  17.35400 3.28900 33.45200
H  16.11800 3.07900 34.66000
H  15.99300 4.41400 33.35900
Mg 46.90900 16.46200 28.69600
C  44.89100 16.02000 31.51700
C  48.99700 18.36700 30.55100
C  48.42800 17.32900 25.88600
C  44.21900 15.02100 26.82300
N  46.87500 17.11800 30.74800
C  46.01900 16.79700 31.77700
C  46.49200 17.48600 33.09500
C  47.69300 18.43000 32.69300
C  47.87400 17.96900 31.15800
C  47.42800 20.00000 32.84400
C  46.86600 16.43200 34.22000
C  46.24900 16.74000 35.60300
H  45.94100 18.17900 36.05900
N  48.55800 17.60200 28.25700
C  49.33700 18.21100 29.20100
C  50.52400 18.79600 28.57500
C  50.43800 18.45800 27.17200
C  49.11600 17.75400 27.05900
C  51.53200 19.63000 29.43900
C  51.32500 18.69300 26.01600
O  51.07000 18.30200 24.91300
C  52.63100 19.42900 26.30000
N  46.28800 16.42400 26.67900
C  47.11000 16.82300 25.69300
C  46.48900 16.69900 24.28600
C  45.44800 15.63300 24.58100
C  45.25100 15.73900 26.11400
C  46.09300 17.99400 23.52300
C  45.78700 14.20400 24.06800
C  46.87700 13.56200 24.88900
N  45.11800 15.46100 29.01300
C  44.14300 14.96200 28.19400
C  43.13200 14.29800 28.92600
C  43.43000 14.62400 30.27400
C  44.59100 15.42100 30.26000
C  41.97100 13.43800 28.40100
C  42.92900 14.49700 31.67300
O  41.97600 13.93600 32.15500
C  43.86400 15.46500 32.52700
C  43.05100 16.53300 33.10700
O  42.79600 17.62000 32.61400
O  42.53500 16.04200 34.28700
C  41.58400 17.05900 34.86800
H  49.59000 19.02100 31.19300
H  48.99800 17.53200 24.97700
H  43.42700 14.60400 26.19800
H  45.67700 18.03600 33.56600
H  48.58400 18.17000 33.26400
H  48.25600 20.29900 33.48700
H  46.47100 20.13800 33.34700
H  47.42100 20.61500 31.94400
H  47.95300 16.40200 34.29100
H  46.52600 15.48200 33.80900
H  46.91600 16.33300 36.36300
H  45.29400 16.21500 35.58300
H  51.20100 19.89400 30.44300
H  51.42200 20.58300 28.92200
H  52.53800 19.21600 29.38000
H  53.41200 18.68600 26.46200
H  52.61000 20.11900 27.14300
H  52.87700 20.03200 25.42500
H  47.23200 16.29100 23.60200
H  44.48800 15.96000 24.18200
H  46.87500 18.17200 22.78500
H  46.03400 18.82300 24.22800
H  45.14600 17.87700 22.99600
H  46.19500 14.40600 23.07800
H  44.82400 13.69600 24.11600
H  46.41400 12.89000 25.61100
H  47.57900 14.25700 25.35100
H  47.43400 13.02200 24.12200
H  41.09000 14.00600 28.10300
H  41.71800 12.75100 29.20900
H  42.26600 12.87000 27.51900
H  44.41800 14.82200 33.21200
H  41.10900 17.75400 34.17600
H  42.07400 17.48600 35.74300
H  40.73400 16.42500 35.12100

