158

Mg 25.45000 0.73500 30.56300
C  27.66800 1.08700 33.37500
C  22.78200 1.12800 32.92500
C  23.35700 0.01700 28.06800
C  28.19300 0.03900 28.62800
N  25.30200 1.17800 32.92800
C  26.35200 1.26800 33.84100
C  25.79400 1.56400 35.23800
C  24.25500 1.48000 35.10900
C  24.08100 1.17900 33.58000
C  23.42200 0.43500 36.00800
C  26.28800 2.99100 35.72700
C  26.51100 2.98500 37.27500
H  25.65000 3.86200 38.20200
N  23.45300 0.62000 30.47900
C  22.53800 0.88100 31.48900
C  21.21600 0.83700 30.86900
C  21.37200 0.36300 29.51900
C  22.76800 0.30200 29.33500
C  19.98700 0.95200 31.67600
C  20.26100 -0.06200 28.44500
O  20.48300 -0.35000 27.27700
C  18.80700 -0.03000 28.81700
N  25.74000 -0.06600 28.62900
C  24.72100 -0.11900 27.68700
C  25.20300 -0.11100 26.24700
C  26.69300 0.08400 26.53000
C  26.93400 0.04200 28.01100
C  24.76000 -1.19500 25.29500
C  27.32800 1.46800 25.89500
C  26.95700 2.80500 26.62800
N  27.46800 0.39600 30.86700
C  28.47900 0.19900 29.98400
C  29.72100 0.13700 30.61100
C  29.47300 0.50900 31.90800
C  28.08600 0.77300 31.99400
C  31.01200 -0.35300 30.07500
C  30.06900 0.60600 33.24400
O  31.25300 0.29200 33.57100
C  28.99400 1.16100 34.20400
C  29.00100 0.16000 35.37300
O  28.75900 -1.04800 35.21900
O  29.23600 0.81700 36.60200
C  29.17900 -0.00600 37.84200
H  21.99100 1.33900 33.64800
H  22.72400 -0.02300 27.17900
H  28.88200 -0.10300 27.79300
H  26.16900 0.76900 35.88200
H  23.92400 2.50100 35.29900
H  23.35000 -0.54800 35.54400
H  22.39000 0.71200 36.22500
H  24.04300 0.26200 36.88700
H  25.61100 3.77500 35.38900
H  27.26000 3.17200 35.26700
H  27.52700 3.30600 37.50600
H  26.30400 1.96500 37.60100
H  19.30400 0.15000 31.39700
H  19.46100 1.87300 31.42700
H  20.19200 1.05400 32.74100
H  18.14200 -0.28000 27.99100
H  18.51100 0.94500 29.20400
H  18.53400 -0.74000 29.59700
H  24.86200 0.79600 25.74800
H  27.23100 -0.73500 26.05400
H  25.62200 -1.85500 25.20700
H  24.48200 -0.62500 24.40900
H  23.96600 -1.86300 25.63100
H  26.94100 1.65100 24.89200
H  28.41300 1.36300 25.90700
H  27.09400 2.63000 27.69500
H  25.94000 3.08900 26.35900
H  27.64400 3.55700 26.24000
H  31.13900 -1.25200 30.67800
H  31.76900 0.41000 30.25400
H  30.99300 -0.52700 28.99900
H  29.37900 2.09600 34.61200
H  30.07800 -0.61800 37.91500
H  28.30700 -0.65200 37.74000
H  28.97400 0.60300 38.72200
Mg 45.56000 5.09500 48.24900
C  43.41700 7.75100 47.46600
C  42.96000 2.89900 47.92600
C  47.84500 2.69900 48.49900
C  48.28100 7.44400 47.87000
N  43.41900 5.27400 47.77400
C  42.75700 6.52000 47.52100
C  41.24800 6.22900 47.40600
C  41.07800 4.74200 47.86600
C  42.57300 4.26500 47.85700
C  40.36100 4.50000 49.24900
C  40.51600 6.56900 46.06400
C  39.49300 7.71600 46.13600
H  38.68700 7.86400 44.85400
N  45.43700 3.00900 48.15000
C  44.24800 2.29200 48.05200
C  44.55100 0.91100 48.28300
C  45.95100 0.79200 48.35900
C  46.49100 2.19700 48.35000
C  43.46900 -0.15300 48.33400
C  46.68200 -0.53800 48.49000
O  46.17600 -1.67500 48.56000
C  48.13600 -0.55500 48.58900
N  47.80200 5.12100 48.01300
C  48.43500 3.96000 48.33900
C  49.96200 4.13200 48.40900
C  50.13500 5.64600 48.19700
C  48.67100 6.14100 48.01800
C  50.43700 3.58500 49.80000
C  51.08000 6.04800 46.96500
C  52.41800 6.72500 47.30200
N  45.84400 7.16000 47.89100
C  46.97100 7.93700 47.82700
C  46.57900 9.27800 47.42200
C  45.21000 9.28100 47.40100
C  44.79000 7.93600 47.60700
C  47.53100 10.43400 47.28200
C  44.00800 10.05700 47.13600
O  43.90000 11.26000 46.88900
C  42.78000 9.09100 47.14900
C  41.89700 9.58500 48.25200
O  41.76000 9.10500 49.38600
O  41.05900 10.54800 47.72100
C  39.98100 11.10900 48.66800
H  42.06900 2.27500 47.83100
H  48.60700 1.93400 48.65800
H  49.20600 8.00000 48.04000
H  40.81700 6.78800 48.23700
H  40.49900 4.19900 47.11800
H  39.91100 5.39000 49.68800
H  41.14200 4.20800 49.95000
H  39.64200 3.68900 49.13200
H  40.16500 5.69300 45.51900
H  41.20400 7.06700 45.38000
H  39.90900 8.67800 46.43500
H  38.71700 7.34700 46.80700
H  43.56100 -0.84700 47.49900
H  42.46400 0.26000 48.42100
H  43.63400 -0.70900 49.25700
H  48.45600 -0.13200 47.63700
H  48.34400 -1.62300 48.52200
H  48.58200 -0.06800 49.45600
H  50.37500 3.50300 47.62000
H  50.56700 6.13100 49.07200
H  50.51300 2.49700 49.77900
H  49.74800 3.81900 50.61100
H  51.39900 4.02500 50.06200
H  50.55200 6.78400 46.35800
H  51.22600 5.19500 46.30200
H  52.64000 6.68100 48.36900
H  52.33900 7.76800 46.99600
H  53.23300 6.20500 46.80000
H  48.32400 10.22400 46.56500
H  47.94100 10.55300 48.28500
H  46.79200 11.19600 47.03400
H  42.24000 9.00200 46.20600
H  39.86000 12.17700 48.49000
H  40.28600 11.01500 49.71000
H  39.02800 10.58100 48.63400

