158

Mg 16.22500 -2.89400 28.32500
C  15.15700 -0.76100 30.86600
C  18.64800 -4.17500 30.33400
C  17.65000 -4.56600 25.72400
C  14.32700 -0.99200 26.02400
N  16.83600 -2.48000 30.33700
C  16.20700 -1.64500 31.26500
C  16.87400 -1.75300 32.64400
C  18.04200 -2.81700 32.38100
C  17.87500 -3.14100 30.89100
C  19.53600 -2.35800 32.77600
C  15.79700 -2.13600 33.73100
C  15.68000 -1.29000 35.04100
H  16.89200 -0.51400 35.60500
N  17.73100 -4.44900 28.11100
C  18.58100 -4.81300 29.06500
C  19.50200 -5.82500 28.58000
C  19.29900 -5.96600 27.17000
C  18.13600 -4.98400 26.92200
C  20.58100 -6.39200 29.42000
C  19.84800 -6.94200 26.15800
O  19.50400 -6.93800 24.93800
C  20.94000 -7.86600 26.59800
N  16.08300 -2.74400 26.14400
C  16.83800 -3.45200 25.37600
C  16.65900 -2.94000 23.91000
C  15.48300 -1.97200 23.99200
C  15.20900 -1.92900 25.45200
C  17.89700 -2.27500 23.26200
C  14.22700 -2.37900 23.09500
C  13.98300 -1.44800 21.89100
N  15.11100 -1.20300 28.32300
C  14.25900 -0.64000 27.34200
C  13.41600 0.31000 27.97500
C  13.76600 0.33400 29.28100
C  14.77500 -0.63100 29.51100
C  12.30200 1.06500 27.28500
C  13.45300 0.94400 30.55200
O  12.69300 1.89200 30.87100
C  14.39000 0.33400 31.61900
C  15.33100 1.39300 32.14500
O  16.48800 1.51400 31.79900
O  14.76300 2.17100 33.16300
C  15.60000 3.20900 33.82200
H  19.52300 -4.46500 30.91900
H  18.13900 -4.97100 24.83500
H  13.69000 -0.42900 25.33800
H  17.35200 -0.84800 33.01800
H  17.91900 -3.71500 32.98700
H  20.15700 -3.24800 32.87500
H  19.46700 -1.73300 33.66600
H  20.06200 -1.88700 31.94500
H  16.07700 -3.13000 34.07800
H  14.81000 -2.17600 33.27200
H  15.55600 -2.00100 35.85800
H  14.71000 -0.79500 34.99900
H  20.92400 -7.35300 29.03700
H  20.31300 -6.52000 30.46900
H  21.34500 -5.62000 29.51200
H  21.77800 -7.22600 26.87700
H  21.24700 -8.54500 25.80300
H  20.70000 -8.42500 27.50200
H  16.35000 -3.74100 23.23800
H  15.76400 -0.96400 23.68700
H  18.12300 -2.61500 22.25100
H  18.73000 -2.54800 23.90900
H  17.78500 -1.19200 23.31900
H  13.30900 -2.43900 23.68100
H  14.29100 -3.36400 22.63200
H  12.91700 -1.57900 21.70800
H  14.57200 -1.82200 21.05300
H  14.23300 -0.40600 22.09000
H  11.91800 0.74300 26.31700
H  12.47000 2.13800 27.19800
H  11.42800 0.95400 27.92700
H  13.80700 -0.03500 32.46200
H  15.87000 3.85500 32.98600
H  16.53500 2.77200 34.17300
H  15.02900 3.59800 34.66500
Mg 26.96200 50.86100 26.77100
C  25.04100 51.86300 29.44300
C  29.57600 50.21500 28.95500
C  28.93200 50.04400 24.10900
C  24.54400 52.05500 24.63400
N  27.29900 51.13600 28.89200
C  26.27700 51.37400 29.76700
C  26.73300 51.24400 31.26200
C  28.26200 50.92900 31.08000
C  28.42800 50.75200 29.56500
C  29.26000 51.98900 31.58100
C  25.85600 50.14800 31.97100
C  25.40100 50.41900 33.42900
H  26.50500 50.85100 34.38200
N  29.04900 50.11500 26.57000
C  29.92400 49.97900 27.62200
C  31.13300 49.44000 26.99400
C  31.02900 49.51200 25.60600
C  29.66000 49.85100 25.36200
C  32.28400 48.95400 27.95700
C  32.15200 49.33100 24.55200
O  32.02000 49.53600 23.36500
C  33.47800 48.81900 25.07100
N  26.78800 51.14100 24.64500
C  27.65900 50.62400 23.79000
C  27.12600 50.65500 22.37900
C  25.73700 51.39900 22.45300
C  25.66400 51.49700 23.96900
C  28.01800 51.33400 21.23100
C  24.66300 50.54100 21.69700
C  23.95300 49.41200 22.46300
N  25.14100 51.83100 26.92400
C  24.31200 52.25200 25.95900
C  23.10800 52.78400 26.55400
C  23.33600 52.70400 27.94400
C  24.56300 52.05000 28.13500
C  21.84600 53.36200 25.86600
C  22.73200 52.88200 29.25000
O  21.60700 53.33900 29.46800
C  23.84800 52.42900 30.32300
C  24.22300 53.54500 31.24700
O  25.02600 54.42200 30.92000
O  23.49300 53.45000 32.39800
C  23.78200 54.58400 33.34900
H  30.31800 49.95900 29.71500
H  29.36800 49.76200 23.14800
H  23.71100 52.27400 23.96200
H  26.53600 52.15700 31.82300
H  28.52400 49.95800 31.50100
H  28.75100 52.74900 32.17300
H  29.60300 52.60500 30.74900
H  30.11000 51.57100 32.12200
H  26.27200 49.14100 32.01000
H  24.96500 50.00800 31.36000
H  24.96200 49.55500 33.92800
H  24.57800 51.13300 33.39400
H  33.14000 49.62200 27.86400
H  32.62500 47.93000 27.80600
H  31.90500 48.87200 28.97500
H  34.03900 49.39200 25.80900
H  34.11800 48.76000 24.19100
H  33.14700 47.86000 25.47000
H  26.94000 49.63500 22.04200
H  25.76900 52.46200 22.21500
H  27.48300 51.95400 20.51300
H  28.31900 50.48300 20.62100
H  28.92600 51.84300 21.55300
H  25.18000 50.03500 20.88100
H  24.00800 51.16500 21.08900
H  24.12600 49.15900 23.50900
H  24.22600 48.49600 21.94100
H  22.93900 49.78100 22.31000
H  21.41800 54.14500 26.49200
H  21.13500 52.54700 25.73200
H  22.20300 53.78400 24.92600
H  23.52100 51.63200 30.99000
H  23.92200 55.46200 32.71800
H  24.71100 54.29000 33.83700
H  22.97500 54.73100 34.06800

