158

Mg 49.53100 45.49300 42.90200
C  46.13600 45.24100 42.27700
C  49.88400 42.09800 42.01800
C  52.94500 45.82500 42.96400
C  49.27000 48.96200 43.02300
N  48.12100 43.84900 42.25600
C  46.75100 43.96500 42.14600
C  46.14700 42.59100 41.79100
C  47.37900 41.58400 41.69400
C  48.56600 42.58300 41.99000
C  47.33500 40.28700 42.53700
C  45.21800 42.51500 40.56100
C  45.62800 43.42100 39.40700
H  45.74500 42.68600 38.01900
N  51.14200 44.18200 42.51700
C  51.08400 42.77800 42.24600
C  52.42500 42.23300 42.22200
C  53.29900 43.33900 42.31300
C  52.46300 44.53500 42.56500
C  52.88100 40.77600 41.99400
C  54.78600 43.27200 42.28400
O  55.36600 42.17600 42.22500
C  55.67100 44.51300 42.20600
N  50.92600 47.16800 42.90900
C  52.22700 47.03100 43.19000
C  52.89800 48.35300 43.50700
C  51.72400 49.31500 43.47800
C  50.50400 48.51500 43.02700
C  53.74500 48.49300 44.78400
C  51.92600 50.59500 42.60600
C  52.82300 51.70700 43.33600
N  48.06900 46.87800 42.79000
C  48.06600 48.25000 42.83400
C  46.76200 48.76200 42.65100
C  45.89600 47.63000 42.50100
C  46.76200 46.50400 42.57200
C  46.38100 50.14100 42.43200
C  44.54800 47.22200 42.28400
O  43.47700 47.82800 42.06400
C  44.67900 45.61700 42.16000
C  43.77000 45.10800 43.29000
O  42.94100 44.23400 43.09700
O  44.14400 45.52300 44.54000
C  43.32800 45.15200 45.69000
H  49.92700 41.04100 41.74800
H  53.95700 45.78100 43.37200
H  49.10900 50.03400 43.15200
H  45.61400 42.26800 42.68500
H  47.61900 41.42500 40.64200
H  47.37900 39.46200 41.82600
H  46.46300 40.14500 43.17500
H  48.17800 40.27700 43.22900
H  44.29000 42.92300 40.96300
H  45.15600 41.45400 40.31800
H  46.54600 43.95500 39.65000
H  44.82300 44.15200 39.34000
H  52.09500 40.02100 42.03700
H  53.59200 40.57100 42.79400
H  53.53500 40.59600 41.14100
H  56.02800 44.92700 43.14900
H  55.09800 45.32400 41.75600
H  56.48300 44.45900 41.48100
H  53.54000 48.48400 42.63600
H  51.52800 49.60500 44.51000
H  53.73700 47.51500 45.26500
H  53.46300 49.13400 45.61900
H  54.77700 48.74500 44.53800
H  50.98100 51.09600 42.39600
H  52.35100 50.51000 41.60600
H  53.30900 51.26700 44.20600
H  52.23200 52.57000 43.64400
H  53.64600 52.01500 42.69000
H  45.63200 50.41700 43.17400
H  46.01400 50.26400 41.41300
H  47.28100 50.75400 42.49400
H  44.29000 45.42900 41.16000
H  43.32100 46.00500 46.36800
H  43.90700 44.35900 46.16400
H  42.36500 44.70900 45.43800
Mg 43.28800 42.81400 26.71500
C  42.10500 44.94700 29.29000
C  44.70900 40.64100 29.26100
C  44.73100 40.88800 24.36600
C  42.45500 45.17000 24.37900
N  43.31100 42.87500 29.02900
C  42.74300 43.76000 29.83500
C  43.05700 43.45500 31.27000
C  43.92800 42.11300 31.21800
C  43.91500 41.78600 29.70300
C  45.37000 42.27400 31.79200
C  41.71000 43.27300 31.98600
C  41.80300 43.04000 33.41600
H  40.82600 43.76400 34.37000
N  44.51800 40.99800 26.76800
C  44.95800 40.27000 27.93100
C  45.60500 39.09400 27.57600
C  45.53200 39.10900 26.16400
C  44.90500 40.32200 25.66700
C  46.12300 38.14500 28.62000
C  45.86800 38.04300 25.17000
O  45.73100 38.12200 23.96300
C  46.38400 36.71700 25.66900
N  43.67100 43.05400 24.63000
C  44.20200 42.07700 23.82500
C  44.37500 42.57800 22.39300
C  43.49400 43.88400 22.38600
C  43.12200 44.01600 23.83500
C  45.78300 42.79700 21.84800
C  42.25400 43.73800 21.47900
C  40.88500 43.31100 22.15900
N  42.34400 44.60400 26.79900
C  42.09600 45.50100 25.73100
C  41.52000 46.74300 26.22700
C  41.43800 46.53400 27.59900
C  41.99100 45.26300 27.88400
C  41.26200 47.95000 25.48400
C  41.04000 47.11700 28.88100
O  40.54700 48.20300 29.12200
C  41.42300 46.11400 29.96300
C  42.33800 46.74100 30.94400
O  43.31500 47.45700 30.61400
O  41.99100 46.42400 32.19700
C  42.88300 46.87500 33.24000
H  45.08500 40.08100 30.11900
H  45.12900 40.22000 23.59900
H  42.17300 45.90100 23.61900
H  43.64600 44.32500 31.55800
H  43.50400 41.37800 31.90300
H  45.26000 42.53100 32.84500
H  45.98500 42.97500 31.22600
H  45.87000 41.30700 31.74500
H  41.44000 42.38800 31.40900
H  40.93000 43.97000 31.67800
H  42.85100 43.24700 33.63100
H  41.49100 42.00000 33.52000
H  47.01900 38.46400 29.15300
H  46.49500 37.19200 28.24300
H  45.44100 37.83200 29.41000
H  45.72300 36.31500 26.43700
H  47.37900 36.79300 26.10800
H  46.37200 35.99200 24.85500
H  43.96800 41.75300 21.80900
H  44.16400 44.73300 22.24600
H  46.48200 42.53800 22.64300
H  46.07800 43.81300 21.58800
H  46.00600 42.20800 20.95800
H  42.46700 43.14200 20.59200
H  42.19800 44.70500 20.98000
H  40.41400 42.67600 21.40900
H  40.20200 44.11300 22.43800
H  41.10300 42.85500 23.12500
H  41.58500 47.78500 24.45600
H  41.80600 48.83100 25.82500
H  40.21700 48.25900 25.50400
H  40.53100 45.71100 30.44200
H  42.97600 47.95500 33.12900
H  43.87200 46.42600 33.14500
H  42.40700 46.61100 34.18500

