158

Mg 35.35300 1.39800 29.36000
C  32.89700 2.44900 31.56200
C  37.78200 1.59100 31.67100
C  37.64900 0.82300 26.86500
C  32.84600 1.64600 26.72600
N  35.40500 2.17300 31.37800
C  34.20500 2.40800 32.09700
C  34.58600 2.46000 33.62600
C  36.17400 2.31100 33.59700
C  36.49800 1.99100 32.12400
C  36.85700 3.55800 34.13900
C  33.88100 1.32600 34.43800
C  33.51400 1.55400 35.93300
H  33.74400 2.93400 36.38200
N  37.41000 1.04900 29.34800
C  38.21800 1.07500 30.41800
C  39.52500 0.49700 30.11700
C  39.49800 0.32000 28.64700
C  38.15100 0.76300 28.20400
C  40.53800 0.10000 31.10700
C  40.59700 -0.31700 27.68600
O  40.45900 -0.43100 26.48100
C  41.84200 -0.87000 28.35600
N  35.30600 1.33000 27.12700
C  36.38500 0.95500 26.38600
C  36.05500 0.70800 24.93300
C  34.46500 0.92300 24.87100
C  34.14000 1.34200 26.28300
C  36.83500 1.59300 24.00100
C  33.53500 -0.22000 24.33500
C  32.74600 0.18900 23.08100
N  33.26500 1.83500 29.16800
C  32.39300 1.88600 28.05700
C  31.04500 2.33800 28.57500
C  31.16800 2.39500 29.99600
C  32.58600 2.26300 30.23900
C  29.82300 2.42000 27.80800
C  30.44400 2.79800 31.19600
O  29.29500 3.14100 31.35700
C  31.56200 2.75300 32.29600
C  31.70500 3.97500 33.07500
O  32.32500 4.94600 32.65400
O  30.93400 3.94300 34.28700
C  30.77500 5.30200 34.89100
H  38.53400 1.45600 32.45100
H  38.34600 0.59000 26.05700
H  32.22300 1.89800 25.86500
H  34.25000 3.46900 33.86500
H  36.39700 1.42800 34.19500
H  37.86600 3.56000 33.72800
H  36.92400 3.44300 35.22100
H  36.30000 4.48000 33.97100
H  34.56300 0.47700 34.48900
H  33.03900 0.86400 33.92200
H  34.12800 0.95000 36.60100
H  32.44800 1.33800 36.01300
H  40.77300 -0.92800 30.83100
H  40.20600 0.01200 32.14200
H  41.35100 0.82500 31.11800
H  42.62400 -1.18200 27.66300
H  41.57600 -1.69100 29.02100
H  42.26600 -0.08400 28.98100
H  36.25400 -0.33300 24.67800
H  34.18300 1.80000 24.28900
H  37.26500 0.94700 23.23600
H  37.57700 2.12900 24.59300
H  36.12800 2.26400 23.51300
H  32.83500 -0.53700 25.10800
H  34.13200 -1.11200 24.14200
H  31.77900 -0.31300 23.07700
H  33.27900 -0.13500 22.18800
H  32.54500 1.24900 22.92800
H  29.69800 3.41300 27.37700
H  29.06400 2.21300 28.56200
H  29.88500 1.63000 27.05900
H  31.45600 1.91700 32.98800
H  30.30000 5.14900 35.86000
H  30.10500 5.84000 34.22000
H  31.68800 5.89100 34.97500
Mg 52.81000 23.57200 44.73400
C  50.22500 25.84000 43.78600
C  50.94700 21.12500 43.68900
C  55.60500 21.62600 44.79200
C  54.80600 26.37800 45.52500
N  50.79000 23.61300 43.79500
C  49.95700 24.57900 43.37600
C  48.75000 23.95800 42.66300
C  48.84800 22.43800 43.09200
C  50.26600 22.35500 43.54000
C  47.94500 22.09000 44.36500
C  48.59600 24.14900 41.12000
C  49.97700 24.26200 40.40500
H  49.89800 24.48200 38.88300
N  53.15400 21.63500 44.42800
C  52.22700 20.75400 43.99300
C  52.81600 19.45700 43.90300
C  54.16300 19.52900 44.33200
C  54.35700 21.01700 44.49100
C  52.00400 18.26200 43.54700
C  55.11100 18.36300 44.62800
O  54.87800 17.27600 44.12000
C  56.43700 18.50500 45.32000
N  55.03400 24.00400 44.81000
C  55.90100 23.03300 44.95200
C  57.29100 23.61200 45.36200
C  56.92500 24.99200 45.88300
C  55.52700 25.17500 45.36600
C  58.05200 22.75400 46.36000
C  57.95900 26.04300 45.44400
C  58.46600 27.08000 46.51800
N  52.62400 25.68600 44.68000
C  53.42300 26.66700 45.21400
C  52.62300 27.91700 45.41500
C  51.37800 27.62300 44.86000
C  51.39400 26.24700 44.44800
C  53.05400 29.14900 46.09800
C  50.03600 28.15600 44.56000
O  49.67300 29.30600 44.66500
C  49.25500 27.03000 43.81400
C  48.89000 27.48000 42.53400
O  49.65400 27.41900 41.59400
O  47.55300 27.94900 42.48200
C  47.20100 28.32800 41.20500
H  50.30000 20.31500 43.34600
H  56.41800 20.91500 44.95700
H  55.27100 27.16100 46.12700
H  47.88700 24.47600 43.08100
H  48.58500 21.85700 42.20800
H  48.53700 21.63500 45.15900
H  47.19300 21.37000 44.04300
H  47.50100 23.01300 44.73700
H  47.89900 24.98300 41.04000
H  48.00800 23.29500 40.78400
H  50.69000 23.46700 40.62400
H  50.41300 25.19400 40.76400
H  52.32800 18.03700 42.53100
H  50.95200 18.44200 43.77100
H  52.31900 17.37900 44.10300
H  56.38500 19.22200 46.14000
H  57.31600 18.85600 44.77900
H  56.72200 17.50000 45.63200
H  57.90900 23.78200 44.48000
H  56.75000 25.02300 46.95900
H  58.75500 23.27800 47.00800
H  58.71300 22.03000 45.88300
H  57.31400 22.24500 46.98000
H  57.62300 26.45700 44.49300
H  58.78100 25.37400 45.18900
H  59.43300 26.74800 46.89500
H  57.67600 27.03600 47.26700
H  58.65800 28.08100 46.13000
H  54.04400 29.44400 45.74900
H  53.05500 28.98800 47.17600
H  52.32800 29.92400 45.85600
H  48.28400 26.88400 44.28700
H  47.32700 29.41100 41.23200
H  46.19100 27.91900 41.20500
H  47.81000 27.86000 40.43200

