158

Mg 43.23900 4.22100 47.38600
C  40.70000 6.61000 46.98800
C  40.74900 1.72600 47.23800
C  45.65800 1.95600 47.25800
C  45.59000 6.88800 47.53200
N  41.02100 4.19000 47.05100
C  40.18900 5.26400 46.86800
C  38.69300 4.94400 46.65200
C  38.77700 3.43300 47.03300
C  40.27400 3.01700 47.12500
C  38.12700 3.02700 48.35400
C  38.29200 5.30200 45.19500
C  37.12500 6.32500 44.96500
H  37.25900 7.41500 43.84300
N  43.17600 2.14100 47.18300
C  42.07500 1.28700 47.09100
C  42.55900 -0.05800 46.84900
C  43.98200 -0.03200 46.76400
C  44.32300 1.39000 47.08800
C  41.70000 -1.22300 46.63500
C  44.84400 -1.20600 46.58100
O  44.43400 -2.32000 46.48100
C  46.29100 -0.96500 46.41000
N  45.37400 4.43500 47.31500
C  46.10400 3.29600 47.44400
C  47.58700 3.65200 47.66200
C  47.53300 5.19400 47.93600
C  46.08100 5.55000 47.60900
C  48.19100 2.88200 48.85600
C  48.56800 6.09300 47.20300
C  49.96800 5.40100 46.93600
N  43.22800 6.36200 47.24700
C  44.24700 7.26000 47.32800
C  43.70500 8.64000 47.15200
C  42.27300 8.42700 47.04800
C  42.04100 6.97900 47.08500
C  44.63200 9.86200 47.14900
C  41.03500 9.08300 46.99000
O  40.78200 10.30000 47.05900
C  39.99000 7.93000 46.92900
C  39.05300 8.04700 48.15700
O  39.20900 7.43800 49.23700
O  37.91500 8.71900 47.77800
C  36.78200 8.34200 48.62200
H  39.99800 0.94800 47.39100
H  46.52600 1.29300 47.27400
H  46.41000 7.60500 47.61900
H  38.20200 5.64400 47.32800
H  38.28200 2.84100 46.26300
H  37.75100 3.88800 48.90700
H  38.75500 2.42600 49.01200
H  37.17500 2.49600 48.30800
H  38.01400 4.36600 44.71200
H  39.15700 5.71900 44.68000
H  36.70300 6.84800 45.82300
H  36.39400 5.63100 44.55100
H  41.64100 -1.69900 47.61400
H  41.96600 -1.93800 45.85700
H  40.65900 -0.97600 46.42800
H  46.41200 -0.14400 45.70400
H  46.78100 -1.86100 46.03000
H  46.63400 -0.78800 47.42900
H  48.13700 3.37600 46.76200
H  47.63500 5.48400 48.98200
H  47.50600 2.17100 49.31700
H  48.69500 3.55400 49.55200
H  48.96700 2.21100 48.48800
H  48.73200 6.91500 47.90000
H  48.18000 6.52400 46.28000
H  49.81600 4.78100 46.05300
H  50.32100 4.79300 47.76900
H  50.74700 6.15500 46.82500
H  44.37700 10.49000 46.29500
H  45.70100 9.71900 46.98800
H  44.35700 10.44300 48.02900
H  39.44800 8.13300 46.00500
H  36.57900 7.27700 48.50600
H  35.86400 8.77200 48.22400
H  36.88800 8.61100 49.67300
Mg 47.11800 15.05500 28.07100
C  44.85500 15.28300 30.87100
C  49.33800 16.95700 29.65100
C  48.75400 15.25100 25.23100
C  44.38100 13.40600 26.33900
N  47.10500 15.92200 30.05000
C  46.17400 15.88200 31.02100
C  46.72200 16.30400 32.38000
C  48.11200 17.05600 31.92300
C  48.23300 16.64000 30.43900
C  48.14500 18.56600 32.18100
C  46.90700 15.04300 33.28900
C  46.71200 15.30600 34.78500
H  46.43600 16.76100 35.24200
N  48.93800 15.83100 27.57700
C  49.74300 16.55900 28.38000
C  50.99000 16.80200 27.70500
C  50.82300 16.30800 26.35100
C  49.46600 15.79100 26.29900
C  52.12300 17.49200 28.40800
C  51.77600 16.34000 25.17600
O  51.44400 15.95600 24.06400
C  53.10500 17.06600 25.45000
N  46.57400 14.43000 26.04000
C  47.47400 14.61300 25.08800
C  47.14900 13.79000 23.85000
C  45.80800 13.05500 24.22400
C  45.52300 13.65700 25.65100
C  46.99100 14.57700 22.59400
C  45.87600 11.47500 24.18100
C  47.06800 10.88700 24.88900
N  44.97500 14.45500 28.44600
C  44.10200 13.82700 27.62600
C  42.92900 13.55400 28.34600
C  43.11000 14.11100 29.61400
C  44.46400 14.63500 29.65100
C  41.68400 12.91500 27.77600
C  42.57800 14.33300 30.91200
O  41.51200 13.99700 31.42400
C  43.71500 15.05400 31.80400
C  43.13000 16.22500 32.55700
O  42.80700 17.31700 32.10700
O  42.90500 15.85000 33.85400
C  42.14300 16.79000 34.70700
H  50.05800 17.50100 30.26600
H  49.20700 15.32300 24.24000
H  43.67200 12.81900 25.75100
H  46.01900 17.02300 32.80100
H  49.01400 16.64600 32.37600
H  48.28600 19.09500 31.23800
H  48.94800 18.86600 32.85500
H  47.23000 18.96900 32.61500
H  47.97500 14.84000 33.20900
H  46.37700 14.14100 32.98300
H  47.64900 15.02000 35.26200
H  46.00500 14.65900 35.30300
H  51.95800 17.43100 29.48400
H  52.19600 18.48200 27.95700
H  53.05100 16.92600 28.33600
H  53.75700 16.60200 26.19000
H  52.74700 18.02400 25.82800
H  53.67700 17.20100 24.53200
H  47.88800 12.99800 23.72900
H  44.96400 13.33800 23.59400
H  47.50700 14.00100 21.82600
H  47.30500 15.60000 22.80000
H  46.01600 14.77900 22.15000
H  45.91200 11.17700 23.13400
H  44.92700 11.12600 24.58600
H  46.74600 10.22200 25.69000
H  47.66900 11.66700 25.35700
H  47.66600 10.25000 24.23700
H  41.02900 13.74200 27.50400
H  41.12800 12.23600 28.42200
H  42.01400 12.38000 26.88600
H  43.92700 14.36700 32.62300
H  42.65700 17.69900 35.02100
H  41.78800 16.38600 35.65400
H  41.31700 17.21400 34.13600

