158

Mg 45.75100 3.91200 47.08500
C  43.41800 6.63300 46.54600
C  43.17100 1.79400 46.54000
C  48.01000 1.63700 46.80200
C  48.37700 6.40700 47.13500
N  43.58300 4.23100 46.51600
C  42.81900 5.42300 46.41300
C  41.33900 5.04500 46.00200
C  41.26900 3.51500 46.19600
C  42.71400 3.11800 46.42400
C  40.23400 2.98800 47.23800
C  41.05500 5.48000 44.51400
C  40.34500 6.78000 44.21500
H  40.86900 7.61900 43.02200
N  45.59900 1.96400 46.87100
C  44.41100 1.23800 46.65500
C  44.74400 -0.12300 46.70700
C  46.18600 -0.20100 46.66200
C  46.67700 1.16000 46.82500
C  43.68400 -1.19300 46.55500
C  47.01500 -1.53900 46.60800
O  46.47800 -2.61300 46.56200
C  48.58700 -1.58100 46.70300
N  47.91200 4.03700 46.78300
C  48.61100 2.89000 46.74400
C  50.15500 3.12200 46.75300
C  50.29500 4.63200 46.92500
C  48.76100 5.08600 46.93200
C  50.94400 2.21500 47.68600
C  51.22700 5.36000 45.91400
C  52.52500 5.99400 46.35300
N  45.89800 6.05600 46.94000
C  47.06000 6.86800 47.00900
C  46.64700 8.32300 47.01000
C  45.18600 8.23600 46.91800
C  44.79100 6.88100 46.75700
C  47.46500 9.60500 46.82600
C  43.94300 9.02400 46.88800
O  43.75100 10.22600 47.00400
C  42.76200 8.00400 46.73500
C  41.92800 8.09100 47.99300
O  42.19800 7.58600 49.06300
O  40.86000 8.95400 47.78200
C  40.07300 9.34300 48.97800
H  42.33000 1.10700 46.42900
H  48.80900 0.92300 46.59300
H  49.20800 7.09700 47.29500
H  40.71200 5.67500 46.63400
H  40.87700 2.97300 45.33600
H  39.39400 2.71000 46.60200
H  39.96900 3.82800 47.88000
H  40.66100 2.13000 47.75800
H  40.59700 4.65900 43.96200
H  41.98800 5.52400 43.95200
H  40.31600 7.41400 45.10200
H  39.28600 6.64300 43.99600
H  43.78300 -1.62300 45.55800
H  42.62900 -0.92300 46.60900
H  43.82100 -1.93500 47.34100
H  48.84900 -0.95800 47.55900
H  48.97300 -1.19400 45.76000
H  48.87300 -2.61800 46.87500
H  50.50100 2.88000 45.74800
H  50.73400 4.83200 47.90200
H  50.37600 2.07600 48.60600
H  51.92000 2.67400 47.84300
H  51.13300 1.25400 47.20700
H  50.65100 6.18400 45.49300
H  51.40200 4.69700 45.06600
H  52.28400 7.04100 46.53500
H  53.32300 6.09300 45.61700
H  52.97700 5.49200 47.20800
H  48.33800 9.50300 47.47000
H  46.84100 10.37600 47.27800
H  47.72900 9.76200 45.78000
H  42.18400 8.25700 45.84600
H  40.68500 9.89000 49.69500
H  39.81800 8.44400 49.54100
H  39.19400 9.91200 48.67500
Mg 48.92900 34.97200 27.62400
C  46.78500 33.43800 29.93800
C  49.36600 37.64500 29.97300
C  50.88700 36.50400 25.42800
C  48.22300 32.40900 25.39300
N  48.18600 35.48900 29.64600
C  47.42500 34.58700 30.45400
C  47.50600 35.08600 31.84700
C  47.73500 36.61300 31.67300
C  48.49500 36.60600 30.37000
C  46.47300 37.46200 31.59900
C  48.59800 34.35300 32.68700
C  48.25000 33.91300 34.10200
H  47.08100 34.68900 34.80800
N  49.92900 36.77400 27.67900
C  50.04600 37.69700 28.74200
C  50.98100 38.75100 28.39500
C  51.53600 38.37500 27.13900
C  50.79600 37.15900 26.71600
C  51.34700 40.00300 29.16400
C  52.74900 38.98300 26.28700
O  53.14800 38.56500 25.21700
C  53.58800 40.15000 26.78200
N  49.22600 34.67500 25.57700
C  50.20800 35.42300 24.92500
C  50.57400 34.77600 23.58400
C  49.87400 33.35900 23.62900
C  49.07000 33.41600 24.96800
C  50.18700 35.76800 22.35900
C  50.92800 32.25000 23.56600
C  50.45100 31.00200 22.79800
N  47.66300 33.32000 27.56500
C  47.54100 32.35300 26.61700
C  46.58100 31.32200 27.11400
C  46.24000 31.76100 28.37600
C  46.90900 32.90200 28.63500
C  46.09400 30.11900 26.37700
C  45.39600 31.49900 29.45600
O  44.50700 30.71500 29.66300
C  45.73200 32.52300 30.54700
C  46.10700 31.79100 31.76200
O  46.99200 30.97000 31.78500
O  45.28500 31.99200 32.79400
C  45.33700 31.02400 33.94800
H  49.38000 38.42100 30.74100
H  51.61900 36.89900 24.72000
H  48.27900 31.58400 24.68000
H  46.50800 34.99400 32.27500
H  48.42300 37.05300 32.39500
H  46.37900 37.92300 30.61600
H  46.38900 38.13000 32.45700
H  45.60000 36.81500 31.68300
H  49.52200 34.92600 32.61300
H  48.88400 33.47100 32.11400
H  49.07000 34.07400 34.80200
H  47.94500 32.87100 34.20500
H  50.72700 39.87600 30.05100
H  51.15000 40.86400 28.52500
H  52.37100 39.88500 29.51600
H  53.09600 40.95800 27.32400
H  54.09200 40.68600 25.97900
H  54.43300 39.80700 27.37900
H  51.65000 34.71200 23.42500
H  49.14700 33.29300 22.82000
H  49.70300 36.63200 22.81300
H  49.64100 35.21000 21.59700
H  51.10200 36.13200 21.89200
H  51.09700 32.05900 24.62600
H  51.86100 32.59100 23.11800
H  50.55100 30.04000 23.29900
H  50.98300 30.99700 21.84600
H  49.38200 31.02600 22.59000
H  46.63400 30.01700 25.43500
H  45.07500 30.15800 25.99100
H  46.37900 29.31000 27.04800
H  44.88400 33.13500 30.85700
H  44.85300 31.57800 34.75300
H  46.30800 30.70500 34.32800
H  44.90700 30.08600 33.59900

