158

Mg 0.46000 8.17200 26.00600
C  1.38300 10.09800 28.97500
C  0.32400 5.43200 27.88900
C  0.20100 6.62800 23.06300
C  1.00400 11.25500 24.31100
N  0.78900 7.82900 28.13200
C  1.06200 8.74600 29.17300
C  0.93200 8.10400 30.55500
C  1.19300 6.59900 30.11600
C  0.67200 6.57800 28.60700
C  2.63100 6.07300 30.53900
C  -0.47000 8.41000 31.27200
C  -0.43400 8.55500 32.86500
H  0.74100 7.89300 33.68000
N  0.10500 6.32100 25.56000
C  0.10700 5.27600 26.47400
C  -0.24000 4.09500 25.78000
C  -0.17300 4.41500 24.34700
C  0.03700 5.87800 24.29100
C  -0.38500 2.73900 26.42600
C  -0.41700 3.46600 23.16000
O  -0.38400 3.76900 21.94200
C  -0.74600 2.00000 23.49600
N  0.50000 8.89000 24.08700
C  0.34100 8.04400 23.04200
C  0.45700 8.77400 21.70300
C  0.16800 10.21000 22.15300
C  0.71600 10.07900 23.56700
C  1.78800 8.69100 21.02900
C  -1.35400 10.68400 22.13600
C  -1.65200 11.71000 21.00900
N  1.22300 10.26500 26.46300
C  1.31300 11.39400 25.66400
C  1.67800 12.52300 26.41000
C  1.63800 12.03600 27.69500
C  1.37600 10.69700 27.70400
C  2.08000 13.91900 25.87100
C  1.75000 12.48000 29.04400
O  2.03100 13.63900 29.40400
C  1.52600 11.23700 29.92600
C  2.62100 11.05500 30.89300
O  3.63500 10.34800 30.85300
O  2.29600 11.87500 31.93000
C  3.11200 11.65500 33.13100
H  0.30500 4.63100 28.63000
H  0.16500 6.12400 22.09500
H  0.89500 12.12300 23.65600
H  1.67400 8.54600 31.22000
H  0.43700 6.05600 30.68500
H  3.09700 6.74400 31.26000
H  3.27700 6.05300 29.66000
H  2.51500 5.14400 31.09600
H  -1.23300 7.81300 30.77100
H  -0.79000 9.40800 30.97100
H  -1.32600 8.07800 33.27000
H  -0.37500 9.60000 33.17200
H  -1.42500 2.42200 26.35000
H  -0.07000 2.78400 27.46900
H  0.44700 2.14800 26.04200
H  -1.00700 1.48400 22.57200
H  -1.60900 2.04800 24.16000
H  0.07400 1.50200 24.01300
H  -0.38400 8.45700 21.08600
H  0.74300 10.93900 21.58300
H  2.53400 9.31700 21.51900
H  1.71500 9.05800 20.00600
H  2.06800 7.63800 20.98400
H  -1.49900 11.23300 23.06600
H  -2.09600 9.88700 22.09600
H  -0.97400 11.68000 20.15600
H  -1.58400 12.68900 21.48200
H  -2.66100 11.57700 20.61900
H  2.47300 13.66300 24.88700
H  2.91400 14.34200 26.43200
H  1.28200 14.64700 25.72600
H  0.59500 11.44500 30.45400
H  2.57800 11.75600 34.07500
H  3.96000 12.34000 33.11500
H  3.63700 10.70800 33.25300
Mg 49.47600 35.64500 27.40800
C  47.58400 34.02400 29.90000
C  49.88700 38.27400 29.52300
C  50.88100 37.35100 24.84100
C  48.47400 33.10500 25.23300
N  48.81000 36.03300 29.48200
C  48.21600 35.21700 30.36700
C  48.26400 35.78500 31.77500
C  48.68600 37.24800 31.47900
C  49.20900 37.19300 30.11100
C  47.61600 38.31100 31.78500
C  49.30800 35.04900 32.66700
C  49.03100 34.97100 34.15900
H  48.01400 35.91100 34.82300
N  50.37400 37.45000 27.23900
C  50.41100 38.46500 28.23000
C  51.04200 39.64300 27.67400
C  51.41800 39.39400 26.36000
C  50.88000 38.03600 26.09900
C  51.15500 40.82900 28.56300
C  52.09400 40.21300 25.37900
O  52.42400 39.90300 24.19800
C  52.42700 41.65000 25.81500
N  49.66400 35.28400 25.37000
C  50.24700 36.14800 24.50100
C  50.17800 35.65400 23.05200
C  49.51300 34.27500 23.18100
C  49.27300 34.15200 24.73600
C  49.35900 36.67400 22.15300
C  50.36800 33.09800 22.63300
C  51.87600 33.05400 23.04000
N  48.38500 33.81500 27.56100
C  48.06500 32.94800 26.57900
C  47.11200 31.94200 27.07900
C  46.80500 32.42400 28.34600
C  47.68800 33.44400 28.61900
C  46.34900 30.95700 26.23000
C  45.93100 32.13400 29.45500
O  45.00300 31.28800 29.62200
C  46.47600 33.23200 30.57000
C  46.92600 32.35100 31.63100
O  48.03200 31.91200 31.75900
O  45.84000 32.12500 32.44300
C  46.10000 31.23000 33.56800
H  50.12800 39.08600 30.21200
H  51.39500 37.73900 23.95900
H  47.99600 32.43800 24.51200
H  47.28600 35.67500 32.24500
H  49.54100 37.53100 32.09200
H  46.68500 37.74500 31.82800
H  47.45000 38.90900 30.88900
H  47.77800 38.94200 32.65900
H  50.27200 35.53200 32.50600
H  49.45600 34.00100 32.40800
H  49.93000 35.17000 34.74300
H  48.87500 33.92800 34.43400
H  52.04400 40.84000 29.19300
H  50.37700 40.90900 29.32300
H  51.02100 41.74300 27.98400
H  53.00700 41.51100 26.72700
H  51.59800 42.34400 25.95500
H  52.95600 42.04800 24.94900
H  51.18000 35.55600 22.63300
H  48.50800 34.24800 22.76000
H  50.09700 36.94000 21.39600
H  49.08900 37.56700 22.71600
H  48.45800 36.29000 21.67600
H  50.36100 33.15800 21.54400
H  49.80100 32.19500 22.85600
H  52.04900 33.54400 23.99800
H  52.53200 33.63900 22.39600
H  52.32600 32.06200 23.01100
H  45.39400 30.63900 26.64700
H  46.96600 30.21200 25.72900
H  45.93000 31.59000 25.44700
H  45.75700 33.97600 30.91300
H  46.48300 30.28700 33.17800
H  45.21700 31.20400 34.20600
H  46.86300 31.65200 34.22200

