158

Mg 7.58700 2.55600 27.08700
C  8.86800 1.20800 30.01700
C  5.47800 4.51000 28.99700
C  6.07300 3.63100 24.21300
C  8.97200 -0.13200 25.34600
N  7.06300 2.70900 29.28700
C  7.88300 2.16700 30.24800
C  7.48200 2.76900 31.60800
C  6.22800 3.71000 31.30700
C  6.28300 3.67000 29.77800
C  4.89000 3.06300 31.69700
C  8.64800 3.52400 32.23500
C  8.38500 3.96100 33.67200
H  9.41200 3.58000 34.79100
N  6.05900 3.93700 26.62400
C  5.30300 4.55700 27.55400
C  4.33300 5.44900 26.87900
C  4.61700 5.38200 25.52100
C  5.61700 4.26200 25.38900
C  3.39600 6.35300 27.63000
C  4.18400 6.21200 24.36500
O  4.43100 5.96500 23.19600
C  3.20400 7.37000 24.63900
N  7.46300 1.86300 25.13500
C  6.92000 2.57100 24.14600
C  7.10200 1.86300 22.83800
C  8.22900 0.72500 23.09700
C  8.17800 0.80800 24.64500
C  5.89200 1.32200 22.03400
C  9.59600 1.16500 22.44600
C  10.46400 2.09000 23.27700
N  8.68300 0.86900 27.48800
C  9.23900 -0.05000 26.71900
C  10.26900 -0.75500 27.43300
C  10.08000 -0.27500 28.75100
C  9.13200 0.71000 28.71800
C  11.24900 -1.77500 26.99600
C  10.51800 -0.54400 30.07600
O  11.30000 -1.37300 30.51700
C  9.82100 0.46400 30.95100
C  9.19000 -0.08400 32.14800
O  8.21700 -0.82200 32.25300
O  9.97800 0.26200 33.23800
C  9.43300 -0.06400 34.56800
H  4.96900 5.29100 29.56500
H  5.74100 3.94200 23.22100
H  9.50300 -0.92000 24.80800
H  7.26400 1.95700 32.30100
H  6.55500 4.65800 31.73500
H  4.44800 3.57400 32.55200
H  4.96200 1.99200 31.89200
H  4.14300 2.94400 30.91200
H  8.68900 4.50600 31.76400
H  9.57100 2.94600 32.17500
H  7.38500 3.68700 34.00800
H  8.42200 5.04800 33.74500
H  3.91800 7.30400 27.73700
H  3.31000 5.95600 28.64100
H  2.48300 6.43500 27.04000
H  2.22800 6.93300 24.84800
H  3.25900 8.02400 23.76900
H  3.52500 7.95300 25.50200
H  7.63700 2.52500 22.15600
H  7.89300 -0.25800 22.76400
H  5.06800 1.23700 22.74300
H  5.98200 0.33500 21.58000
H  5.75400 2.11600 21.30000
H  9.38300 1.64400 21.49000
H  10.03000 0.18600 22.24400
H  10.08800 2.23500 24.29000
H  10.57900 3.13400 22.98500
H  11.44100 1.61000 23.33600
H  11.08700 -1.76200 25.91800
H  10.88800 -2.73800 27.35700
H  12.30100 -1.53400 27.15200
H  10.47800 1.26400 31.29100
H  9.35300 -1.14600 34.67800
H  8.41100 0.30000 34.66700
H  10.05300 0.26000 35.40400
Mg 42.46000 41.90600 26.85000
C  41.32600 44.09300 29.33700
C  43.15400 39.66300 29.25300
C  43.74400 39.92300 24.48600
C  42.09900 44.43000 24.47200
N  42.20000 41.83200 29.04400
C  41.63800 42.82900 29.81300
C  41.57400 42.38000 31.24500
C  42.22300 40.92400 31.22800
C  42.56400 40.81500 29.77900
C  43.37200 40.65200 32.28500
C  40.15100 42.39400 31.84900
C  39.80200 43.15800 33.07600
H  39.33700 42.27400 34.24800
N  43.33700 40.06600 26.85800
C  43.44200 39.20700 27.95000
C  44.10400 37.99400 27.63600
C  44.34900 38.14000 26.25700
C  43.85800 39.43900 25.79800
C  44.52700 36.92200 28.60800
C  44.95200 37.10600 25.27300
O  45.22400 37.24600 24.05700
C  45.30200 35.84700 25.79900
N  42.71100 42.07000 24.72400
C  43.21600 41.10300 23.96200
C  43.20400 41.54700 22.44100
C  42.58200 42.98100 22.51300
C  42.44600 43.15900 23.99300
C  44.56600 41.35800 21.66900
C  41.23100 43.06100 21.74700
C  41.22800 43.60700 20.25800
N  41.81400 43.84300 26.82700
C  41.79400 44.73100 25.79400
C  41.37600 45.98400 26.37900
C  41.12100 45.76500 27.70000
C  41.39500 44.45300 27.99700
C  41.23500 47.24700 25.70400
C  40.66400 46.36800 29.03800
O  40.30300 47.50500 29.34100
C  40.78800 45.31200 30.11900
C  41.82500 45.88600 31.05200
O  43.00600 46.11700 30.67300
O  41.21300 46.33400 32.18700
C  42.17100 46.83600 33.17700
H  43.19100 38.86400 29.99700
H  43.95600 39.21900 23.67700
H  42.08400 45.30900 23.82500
H  42.27500 42.97200 31.83400
H  41.45900 40.14900 31.28300
H  43.51700 41.43900 33.02500
H  44.28800 40.70700 31.69700
H  43.41000 39.67700 32.77000
H  39.76100 41.40000 32.06800
H  39.66400 42.99000 31.07700
H  39.02500 43.87400 32.80700
H  40.72600 43.57200 33.48000
H  43.97800 35.98800 28.48800
H  44.47800 37.33000 29.61700
H  45.57700 36.68300 28.43900
H  45.41100 35.09400 25.01900
H  44.56900 35.33200 26.42000
H  46.23200 35.98300 26.35100
H  42.48300 40.86500 21.98900
H  43.33700 43.67000 22.13400
H  45.14300 42.27500 21.78300
H  44.35400 41.35700 20.60000
H  45.24400 40.56800 21.99100
H  40.54500 43.64700 22.36000
H  40.76600 42.07600 21.74300
H  42.08100 44.25000 20.04100
H  40.28600 44.14500 20.15300
H  41.25700 42.72700 19.61600
H  41.77300 47.34200 24.76100
H  41.35400 48.10500 26.36600
H  40.16900 47.22500 25.47500
H  39.78700 45.28800 30.54900
H  42.89100 47.58500 32.84800
H  42.68400 45.95200 33.55600
H  41.82100 47.38000 34.05400

