158

Mg 40.82900 8.79700 29.51100
C  42.89900 9.85300 31.97500
C  38.73400 7.23600 31.75200
C  39.00500 7.47500 26.91400
C  43.43900 9.47000 27.23700
N  40.75900 8.64500 31.61200
C  41.69600 9.25600 32.40200
C  41.09400 9.32100 33.81400
C  40.01900 8.15000 33.88200
C  39.85300 7.93900 32.30500
C  40.67800 6.90900 34.56000
C  40.56500 10.70600 34.23600
C  40.09300 10.89200 35.63100
H  40.67300 11.95800 36.55700
N  39.10600 7.49600 29.35000
C  38.37500 7.02900 30.39600
C  37.34800 6.20000 29.86800
C  37.29500 6.48800 28.50100
C  38.47800 7.21600 28.19900
C  36.35300 5.39900 30.72900
C  36.10800 6.30200 27.54300
O  36.13800 6.64900 26.33400
C  34.79500 5.75100 28.05000
N  41.29400 8.35600 27.43000
C  40.24100 7.99800 26.55600
C  40.74600 8.04700 25.07200
C  42.17000 8.56300 25.15500
C  42.35800 8.86200 26.66900
C  40.71500 6.67900 24.29700
C  42.53400 9.73700 24.18100
C  41.84800 11.08700 24.49800
N  42.64600 9.61400 29.51400
C  43.56500 9.89800 28.57300
C  44.71200 10.61900 29.11700
C  44.42000 10.65400 30.43400
C  43.23100 10.05400 30.69000
C  45.96400 11.07500 28.35100
C  44.90600 11.09600 31.66200
O  45.90900 11.73100 31.97900
C  43.86500 10.62600 32.79400
C  44.63300 9.88300 33.85000
O  45.44400 9.05500 33.70300
O  44.18000 10.33500 35.04600
C  44.80200 9.61900 36.17600
H  38.04600 6.90900 32.53500
H  38.51700 7.17500 25.98400
H  44.26400 9.72900 26.57000
H  41.94700 9.04300 34.43200
H  39.08900 8.42300 34.38100
H  41.73900 7.09600 34.72600
H  40.57100 6.03500 33.91700
H  40.04800 6.66600 35.41600
H  39.68400 10.98700 33.65900
H  41.19900 11.54700 33.95500
H  40.26500 9.98400 36.20900
H  39.00300 10.89300 35.60700
H  36.62200 5.38200 31.78500
H  36.34200 4.37300 30.35900
H  35.34600 5.81300 30.76900
H  34.31400 6.33600 28.83500
H  34.95100 4.77900 28.51800
H  34.16600 5.66500 27.16400
H  40.05200 8.68800 24.52900
H  42.89100 7.79300 24.88000
H  40.10400 6.01200 24.90500
H  41.70100 6.23800 24.15400
H  40.22400 6.80000 23.33100
H  42.35700 9.48900 23.13400
H  43.61500 9.80700 24.30300
H  41.08500 11.48600 23.83000
H  42.68000 11.79200 24.49500
H  41.42900 10.94400 25.49400
H  45.73100 12.03600 27.89200
H  46.18900 10.35300 27.56600
H  46.85100 11.13100 28.98200
H  43.40000 11.55600 33.12000
H  45.82100 9.93200 36.40500
H  44.80400 8.53300 36.07900
H  44.21800 9.76500 37.08500
Mg 16.64500 52.14000 25.82100
C  18.28700 50.98800 28.69600
C  14.06200 53.24100 27.75300
C  15.26800 53.46100 23.09300
C  19.18200 50.76000 23.87800
N  16.30100 52.18400 27.98300
C  17.16000 51.71000 29.01100
C  16.63000 52.17000 30.36100
C  15.21200 52.69400 30.04600
C  15.15300 52.69500 28.48400
C  14.08000 51.97600 30.92300
C  17.57500 53.26600 30.93300
C  18.09700 52.89100 32.29100
H  17.32700 53.41000 33.46200
N  14.86700 53.12300 25.44700
C  13.94900 53.51100 26.37600
C  12.83300 54.16600 25.71700
C  13.14400 54.18900 24.30100
C  14.48300 53.51600 24.20500
C  11.73800 54.85900 26.50600
C  12.32500 54.59800 23.12600
O  12.63600 54.44100 21.95100
C  11.04800 55.33500 23.26300
N  17.04100 51.99600 23.78800
C  16.46200 52.77500 22.88400
C  17.16300 52.81200 21.50500
C  18.55600 52.07300 21.76100
C  18.21900 51.54000 23.26100
C  16.34800 52.21100 20.31600
C  19.77800 53.00000 21.66000
C  21.13300 52.29600 21.53300
N  18.27800 51.00200 26.12500
C  19.20400 50.46400 25.27200
C  20.23600 49.66700 25.99700
C  19.88800 49.90500 27.32700
C  18.66200 50.60000 27.38700
C  21.53500 49.11200 25.51000
C  20.35500 49.68300 28.66400
O  21.29600 49.01600 29.10300
C  19.40400 50.45100 29.62600
C  18.90900 49.68800 30.78200
O  17.98200 48.90200 30.67800
O  19.76400 49.73500 31.79300
C  19.89700 48.71200 32.77300
H  13.20900 53.61700 28.32100
H  14.83400 53.93900 22.21200
H  19.99700 50.24900 23.36200
H  16.51300 51.31800 31.03100
H  15.12100 53.72900 30.37500
H  14.52700 51.69700 31.87700
H  13.77900 51.15500 30.27100
H  13.23100 52.64800 31.04700
H  17.07000 54.21700 31.10500
H  18.45400 53.41800 30.30700
H  19.12900 53.22000 32.40900
H  18.26300 51.81400 32.30700
H  12.03200 55.31300 27.45200
H  10.91500 54.14400 26.52100
H  11.33700 55.66900 25.89700
H  11.21300 56.23200 23.86100
H  10.50700 54.61100 23.87200
H  10.49800 55.46100 22.33100
H  17.33800 53.86500 21.28400
H  18.70500 51.17300 21.16500
H  15.45500 51.72800 20.71200
H  16.95100 51.44600 19.82600
H  16.09400 53.03600 19.65000
H  19.84100 53.73600 22.46200
H  19.55900 53.55100 20.74500
H  21.77600 52.61700 22.35200
H  21.66300 52.69000 20.66500
H  21.05100 51.21200 21.45100
H  21.97000 48.42800 26.23800
H  22.25800 49.91300 25.34800
H  21.35700 48.60900 24.56000
H  19.91600 51.28000 30.11500
H  20.72500 48.98500 33.42800
H  19.89300 47.73900 32.28300
H  19.03600 48.73000 33.44200

