158

Mg 25.94400 0.12300 29.59500
C  27.70500 -0.51800 32.65700
C  23.01900 0.05900 31.66600
C  24.11100 -0.07200 26.84300
C  28.77200 -0.80500 27.89100
N  25.42600 -0.20600 31.91800
C  26.37200 -0.29500 32.93700
C  25.74300 -0.13700 34.27300
C  24.22400 -0.37300 33.93800
C  24.21600 -0.12900 32.41000
C  23.68200 -1.81600 34.12300
C  26.11600 1.26800 34.90000
C  26.55600 1.27500 36.37400
H  25.88000 0.39700 37.39000
N  23.89300 0.19500 29.27700
C  22.89500 0.21100 30.29100
C  21.59600 0.43100 29.61500
C  21.86200 0.48000 28.22800
C  23.36300 0.11600 28.08100
C  20.30000 0.68300 30.38300
C  20.86900 0.71300 27.10300
O  21.16200 0.57600 25.97400
C  19.33800 0.83200 27.45800
N  26.31500 -0.60500 27.62700
C  25.43000 -0.42700 26.64800
C  26.16900 -0.35900 25.24700
C  27.66000 -0.32400 25.72900
C  27.60900 -0.53800 27.17100
C  25.86900 -1.56100 24.26600
C  28.42900 0.96100 25.36900
C  29.78200 0.69600 24.60800
N  27.82200 -0.44100 30.08800
C  28.90200 -0.74500 29.30400
C  30.08900 -0.85700 30.06200
C  29.65300 -0.81900 31.38500
C  28.25000 -0.63300 31.35600
C  31.52000 -0.98600 29.61700
C  30.13500 -0.90600 32.78200
O  31.25700 -1.03200 33.22100
C  28.83800 -0.75900 33.67300
C  28.74700 -1.96400 34.46000
O  27.97300 -2.87400 34.23300
O  29.57900 -1.87500 35.55200
C  29.11500 -2.60600 36.68300
H  22.14000 0.22200 32.29300
H  23.59500 -0.09200 25.88100
H  29.70200 -1.00400 27.35500
H  26.14400 -0.93800 34.89400
H  23.61100 0.42800 34.35300
H  23.42100 -2.28300 33.17300
H  22.75200 -1.80200 34.69000
H  24.42500 -2.47300 34.57600
H  25.23000 1.89000 34.77100
H  26.86700 1.70400 34.24200
H  26.40400 2.26000 36.81400
H  27.62600 1.06900 36.36800
H  19.83600 1.61800 30.07300
H  20.51700 0.74400 31.44900
H  19.58900 -0.12700 30.21900
H  18.98600 -0.03600 28.01500
H  18.79400 0.61900 26.53800
H  19.00000 1.80200 27.82100
H  25.89200 0.57900 24.76700
H  28.07700 -1.27200 25.39000
H  24.79300 -1.69700 24.15800
H  26.42200 -2.43700 24.60500
H  26.30400 -1.38100 23.28300
H  28.62400 1.43600 26.33100
H  27.80000 1.63300 24.78700
H  30.56400 1.44700 24.71400
H  29.55900 0.73500 23.54200
H  30.07300 -0.33400 24.81400
H  31.58400 -1.25800 28.56300
H  31.89200 -1.84400 30.17700
H  32.25600 -0.26400 29.97200
H  28.91400 0.11200 34.32500
H  30.00400 -2.71200 37.30600
H  28.86800 -3.64800 36.47700
H  28.34000 -2.05000 37.21100
Mg 25.98900 51.14100 26.91800
C  23.88600 52.03500 29.58700
C  28.17000 49.97700 29.32900
C  28.09100 50.53000 24.48800
C  23.72800 52.59600 24.66700
N  26.06600 51.02800 29.27200
C  25.04000 51.46800 30.11600
C  25.41200 51.15000 31.61000
C  26.97100 50.89700 31.49200
C  27.06600 50.50600 29.98100
C  27.89800 52.15100 31.89800
C  24.66500 49.91300 32.20600
C  23.85700 50.16800 33.48600
H  24.61300 50.91800 34.66300
N  27.89400 50.39600 26.91200
C  28.57200 49.83100 28.01400
C  29.85700 49.25100 27.49200
C  29.90500 49.64000 26.12800
C  28.50400 50.13400 25.78600
C  30.95200 48.74900 28.40500
C  31.06500 49.37900 25.16700
O  31.08900 49.82600 23.98100
C  32.37200 48.78600 25.70200
N  25.95900 51.60500 24.79400
C  26.97200 51.27000 24.06200
C  26.77700 51.63000 22.58000
C  25.26900 52.31300 22.61600
C  24.92200 52.17700 24.08200
C  27.90800 52.66300 22.10600
C  24.22700 51.72700 21.56500
C  23.50400 50.44100 21.92600
N  24.27500 52.22400 27.09700
C  23.44100 52.65100 26.04100
C  22.19200 53.22600 26.62200
C  22.33700 53.00800 28.01200
C  23.61400 52.36600 28.23100
C  21.01500 53.81600 25.83800
C  21.65400 53.03100 29.28500
O  20.54700 53.50900 29.51000
C  22.67800 52.50900 30.38600
C  22.90100 53.68800 31.26400
O  23.55500 54.67200 30.99000
O  22.23000 53.47600 32.44800
C  22.56000 54.43400 33.48400
H  28.87900 49.46800 29.98500
H  28.74300 50.30600 23.64100
H  23.08900 52.97700 23.86700
H  25.29200 52.08000 32.16500
H  27.19500 50.01800 32.09500
H  27.49400 53.04100 32.38200
H  28.22100 52.48600 30.91200
H  28.73600 51.78700 32.49100
H  25.30200 49.03200 32.28400
H  23.92100 49.77400 31.42100
H  23.44000 49.23900 33.87600
H  23.02100 50.77700 33.14300
H  31.31000 47.75300 28.14500
H  30.58600 48.63800 29.42500
H  31.62700 49.60200 28.47800
H  33.05200 48.71300 24.85300
H  32.25300 47.82000 26.19200
H  32.72700 49.57500 26.36500
H  26.78200 50.68300 22.04200
H  25.32800 53.38500 22.43200
H  28.50400 52.34300 21.25100
H  28.68300 52.77100 22.86500
H  27.43500 53.62100 21.89300
H  24.74200 51.53900 20.62300
H  23.57000 52.57000 21.35300
H  23.67700 49.84900 21.02700
H  22.42400 50.58200 21.91800
H  23.85500 49.94100 22.82800
H  21.41000 54.66600 25.28200
H  20.35400 54.26300 26.58100
H  20.52300 53.01300 25.29000
H  22.10200 51.70600 30.84600
H  22.42300 55.48000 33.21000
H  23.63500 54.32400 33.62900
H  22.07100 54.16100 34.41900

