158

Mg 35.55400 2.73800 29.94600
C  32.93500 3.45700 32.17300
C  37.73200 2.89800 32.56700
C  37.97200 2.27800 27.69900
C  33.24000 3.13200 27.33300
N  35.33600 3.03800 32.14400
C  34.15900 3.28000 32.79700
C  34.39700 3.39700 34.32500
C  36.05100 3.60200 34.36100
C  36.44300 3.06200 32.95500
C  36.52800 5.05700 34.57400
C  33.97300 2.16000 35.13500
C  33.42900 2.27800 36.58400
H  33.98500 3.55100 37.24600
N  37.58200 2.56500 30.13500
C  38.32000 2.64800 31.28900
C  39.76800 2.53800 30.90800
C  39.82800 2.24100 29.49500
C  38.43400 2.31400 29.00500
C  40.87600 2.78400 31.95000
C  41.05300 2.04300 28.67700
O  41.00500 1.88300 27.45200
C  42.43000 1.60500 29.18100
N  35.54200 2.74700 27.81600
C  36.71100 2.44300 27.14500
C  36.44200 2.36500 25.64200
C  34.90800 2.57200 25.46000
C  34.51800 2.81600 26.93300
C  37.34600 3.29000 24.83500
C  34.09100 1.41400 24.81000
C  33.94800 0.04300 25.48900
N  33.52400 3.26400 29.76600
C  32.76200 3.40100 28.60000
C  31.39100 3.75400 28.99100
C  31.42000 3.67800 30.38300
C  32.75200 3.43000 30.77800
C  30.17200 3.88800 28.17100
C  30.65900 3.86800 31.56100
O  29.48300 4.24700 31.66800
C  31.57600 3.69500 32.83300
C  31.48400 4.93900 33.68800
O  31.72900 6.03500 33.27700
O  31.07300 4.70400 34.91400
C  30.94100 5.82400 35.84800
H  38.40700 3.06200 33.40900
H  38.77100 2.26200 26.95600
H  32.46800 3.16800 26.56200
H  33.90000 4.31500 34.64000
H  36.49500 2.98100 35.13900
H  35.66300 5.71700 34.63300
H  37.07700 5.41300 33.70200
H  37.16100 5.19700 35.45000
H  34.83900 1.54100 35.37000
H  33.32700 1.59200 34.46600
H  33.72500 1.40600 37.16600
H  32.34000 2.27100 36.52900
H  41.83300 2.91900 31.44600
H  40.95800 1.96100 32.66000
H  40.51800 3.67400 32.46800
H  42.90800 1.11000 28.33600
H  42.31500 0.95500 30.04800
H  43.06900 2.45500 29.42300
H  36.74000 1.33700 25.44000
H  34.64800 3.55200 25.05800
H  36.78400 4.01200 24.24200
H  38.04300 2.75100 24.19400
H  37.86200 4.09100 25.36500
H  34.47900 1.31400 23.79600
H  33.04400 1.68300 24.67600
H  32.90300 -0.18400 25.70000
H  34.58400 -0.05800 26.36800
H  34.36200 -0.77000 24.89200
H  29.22200 3.95600 28.70200
H  30.18600 3.02300 27.50800
H  30.28900 4.74400 27.50600
H  31.22200 2.76300 33.27300
H  30.51000 6.72100 35.40300
H  31.90700 6.12300 36.25600
H  30.30300 5.56000 36.69100
Mg 47.69000 35.71900 27.06200
C  45.87300 34.23000 29.75500
C  48.07900 38.42000 28.95400
C  49.09900 37.08000 24.40900
C  46.65800 32.90400 25.11100
N  47.05200 36.19800 29.12700
C  46.47800 35.44100 30.05900
C  46.69800 36.07900 31.48200
C  47.05000 37.54800 31.05800
C  47.40400 37.40600 29.61300
C  45.94500 38.62600 31.30200
C  47.86000 35.42800 32.28200
C  47.63100 35.21300 33.80400
H  46.75400 36.28800 34.50900
N  48.52100 37.56500 26.72200
C  48.60500 38.54200 27.68200
C  49.52000 39.56000 27.17700
C  49.71700 39.26600 25.75700
C  49.10400 37.91500 25.52600
C  50.23500 40.53700 28.02200
C  50.50400 39.99800 24.58400
O  50.56200 39.52100 23.47000
C  51.05000 41.32400 24.92400
N  47.72300 35.13600 24.98400
C  48.54500 35.80900 24.17200
C  48.85900 34.94500 22.94000
C  48.13700 33.65500 23.22900
C  47.46000 33.90000 24.53200
C  48.40900 35.65000 21.59600
C  49.07400 32.41400 23.14700
C  49.81900 32.01900 21.89100
N  46.38900 33.94600 27.26500
C  46.16700 32.88300 26.40700
C  45.33800 31.97200 27.08700
C  45.17500 32.46500 28.35000
C  45.87700 33.63100 28.44200
C  44.86700 30.69400 26.57400
C  44.73400 32.15000 29.66500
O  44.23400 31.13900 30.12100
C  44.90900 33.40500 30.55100
C  45.30400 33.01700 31.91300
O  46.36700 32.49400 32.24100
O  44.31800 33.28200 32.77400
C  44.44800 32.90600 34.16100
H  48.27000 39.17600 29.71800
H  49.79600 37.35500 23.61500
H  46.51200 32.03300 24.46900
H  45.69500 36.00400 31.90200
H  47.93100 37.88700 31.60300
H  46.32200 39.42000 31.94700
H  45.06400 38.20800 31.78800
H  45.72800 38.97000 30.29100
H  48.70800 36.10900 32.35300
H  47.98900 34.40800 31.92100
H  48.65100 35.35300 34.16200
H  47.30800 34.21100 34.08700
H  49.91100 41.52900 27.70800
H  51.29900 40.42000 27.81600
H  50.01100 40.42000 29.08200
H  51.20600 41.93100 24.03200
H  52.04600 41.26900 25.36500
H  50.35300 41.92700 25.50600
H  49.93500 34.77800 22.97500
H  47.43800 33.41300 22.42900
H  47.40700 35.39200 21.25200
H  49.17400 35.43200 20.85100
H  48.37400 36.73000 21.73800
H  48.51500 31.52700 23.44600
H  49.84300 32.60700 23.89500
H  49.52900 32.72000 21.10900
H  49.60600 30.97600 21.65700
H  50.88100 32.06400 22.13400
H  44.72600 30.73700 25.49400
H  43.95300 30.42500 27.10300
H  45.68400 29.97800 26.65500
H  44.04100 34.05800 30.65300
H  45.50100 32.73500 34.38200
H  43.82400 32.09800 34.54500
H  44.12500 33.72900 34.79900

