158

Mg 36.41900 49.83800 24.75300
C  36.52600 47.72300 27.70100
C  35.03100 52.19600 26.78100
C  35.63300 51.43800 21.89100
C  37.49700 47.03300 22.87800
N  35.84600 49.90500 27.02200
C  36.09600 49.05000 28.01300
C  35.80000 49.67600 29.44500
C  35.08600 51.06100 29.03800
C  35.33400 51.05600 27.54700
C  33.59000 51.26100 29.41400
C  36.96600 49.68100 30.48000
C  36.55200 49.84000 32.00800
H  35.06700 49.85900 32.39000
N  35.53700 51.64400 24.38600
C  35.07900 52.46100 25.40300
C  34.94100 53.76500 24.68900
C  34.96100 53.52400 23.26700
C  35.31500 52.13000 23.11800
C  34.54700 54.90400 25.47300
C  34.54700 54.47000 22.15700
O  34.48200 54.10500 20.97100
C  34.15800 55.86700 22.44700
N  36.45000 49.32600 22.70100
C  36.19200 50.21700 21.69400
C  36.61700 49.65500 20.39200
C  37.49400 48.45100 20.78900
C  37.13100 48.22700 22.21600
C  35.55200 49.29900 19.36100
C  39.05800 48.60800 20.56100
C  39.62100 47.67400 19.40500
N  37.00700 47.87500 25.13300
C  37.35200 46.88000 24.26600
C  37.69800 45.64600 25.03700
C  37.38400 45.97000 26.32700
C  36.95800 47.32600 26.37200
C  38.19600 44.26700 24.46300
C  37.39200 45.43900 27.69800
O  37.76700 44.40400 28.12900
C  36.88900 46.58700 28.64700
C  35.76700 46.03500 29.43100
O  34.99600 45.16400 28.96500
O  35.67800 46.51200 30.71200
C  34.68000 45.84600 31.55300
H  34.55700 52.97100 27.38600
H  35.41900 51.99800 20.97800
H  37.99100 46.33300 22.20100
H  35.08800 48.93000 29.79900
H  35.69000 51.85100 29.48400
H  32.90600 50.94800 28.62400
H  33.46100 52.27100 29.80200
H  33.22900 50.62200 30.22000
H  37.71000 50.45700 30.30500
H  37.55800 48.77300 30.36500
H  37.04500 50.72100 32.41900
H  36.94000 48.94200 32.49000
H  34.86600 55.86100 25.05900
H  35.06300 54.90600 26.43300
H  33.47200 54.92800 25.64900
H  35.00400 56.45800 22.80000
H  33.33000 55.78900 23.15100
H  33.79000 56.28900 21.51200
H  37.22800 50.43000 19.93000
H  37.18000 47.56200 20.24300
H  35.94800 48.57200 18.65200
H  35.27200 50.21700 18.84500
H  34.65800 48.84600 19.78900
H  39.49800 48.20400 21.47200
H  39.40100 49.61200 20.31300
H  40.04300 46.79300 19.88900
H  40.39500 48.18300 18.83100
H  38.79600 47.25700 18.82700
H  38.81800 43.71500 25.16800
H  38.63400 44.43100 23.47900
H  37.34900 43.60300 24.29000
H  37.73300 46.64500 29.33500
H  35.04100 45.99400 32.57100
H  34.51800 44.77200 31.45600
H  33.69600 46.28700 31.40000
Mg 27.21400 50.68900 26.02700
C  25.00700 51.62700 28.80800
C  29.22400 49.30200 28.37300
C  29.28100 50.10600 23.52200
C  24.88700 52.17200 23.94800
N  27.09400 50.50100 28.39500
C  26.15500 50.93600 29.27500
C  26.46000 50.58400 30.76400
C  27.94000 49.96300 30.56000
C  28.15000 49.91300 28.99900
C  29.08100 50.67300 31.31200
C  25.33500 49.54100 31.38100
C  24.60700 50.04300 32.57800
H  25.44200 50.43100 33.74100
N  28.98500 49.73200 25.94800
C  29.76200 49.30000 27.06200
C  30.93900 48.77200 26.59000
C  31.02500 49.03000 25.19200
C  29.78200 49.69000 24.79500
C  32.04300 48.19900 27.52400
C  32.23600 48.74100 24.22900
O  32.08600 49.05300 23.07000
C  33.53300 47.95100 24.73900
N  27.00900 50.99400 24.08900
C  28.02000 50.76400 23.23500
C  27.64200 51.00200 21.80000
C  26.07500 51.38600 21.94400
C  25.97100 51.47900 23.40700
C  28.48700 52.15200 21.23100
C  25.12500 50.30500 21.41600
C  24.36100 50.70500 20.14700
N  25.37400 51.75000 26.29900
C  24.54300 52.25300 25.33500
C  23.39400 52.77700 25.87800
C  23.53500 52.55200 27.27500
C  24.78100 51.93300 27.45000
C  22.32400 53.36100 25.08400
C  22.92700 52.75200 28.59700
O  21.94000 53.41800 28.95200
C  23.87100 52.16800 29.62800
C  24.31100 53.24000 30.65300
O  25.35900 53.81300 30.67500
O  23.39500 53.25500 31.68900
C  23.77700 53.97200 32.91200
H  29.91600 48.76000 29.02100
H  29.84000 49.96400 22.59500
H  24.08400 52.54400 23.30800
H  26.52300 51.48800 31.37000
H  27.98500 48.94400 30.94600
H  28.60600 51.56000 31.73000
H  29.79700 50.99000 30.55400
H  29.70600 50.02800 31.93000
H  25.92400 48.68400 31.70800
H  24.64400 49.25900 30.58700
H  24.00000 49.16700 32.80700
H  24.01700 50.91900 32.30700
H  32.28600 47.18200 27.21600
H  31.78300 48.19300 28.58300
H  32.94000 48.76000 27.26100
H  34.21400 48.63300 25.24800
H  33.99900 47.60900 23.81500
H  33.29200 47.02800 25.26700
H  27.77900 50.06100 21.26600
H  25.83800 52.34700 21.48700
H  29.27300 52.24600 21.98000
H  28.06500 53.09200 20.87500
H  28.98700 51.68100 20.38400
H  24.43700 49.93200 22.17400
H  25.60000 49.35100 21.18600
H  24.46400 49.95000 19.36800
H  24.74300 51.67000 19.81300
H  23.32400 50.88700 20.42800
H  22.22600 52.68300 24.23600
H  22.63800 54.31500 24.66000
H  21.46000 53.57800 25.71200
H  23.31100 51.40500 30.16900
H  23.27800 53.35500 33.66000
H  23.34200 54.96300 32.78900
H  24.83200 54.03000 33.18300

