158

Mg 40.91400 9.25000 29.50700
C  42.60400 10.53000 32.32900
C  38.83500 7.73200 31.71800
C  39.39500 7.83800 26.97100
C  43.44100 10.34600 27.50400
N  40.71200 9.21300 31.83200
C  41.46300 9.81600 32.70800
C  40.97500 9.75800 34.15800
C  39.83600 8.70400 33.92300
C  39.78300 8.48100 32.42400
C  40.09100 7.38500 34.66300
C  40.64000 11.07400 34.78700
C  40.12600 10.76300 36.19000
H  40.47700 11.71700 37.28200
N  39.29200 7.94400 29.33900
C  38.58300 7.46600 30.37500
C  37.44000 6.75000 29.83300
C  37.50600 6.88400 28.44600
C  38.80000 7.55300 28.16500
C  36.34200 6.04200 30.64100
C  36.43500 6.44900 27.42300
O  36.67600 6.66500 26.27600
C  35.08500 6.11900 27.79900
N  41.43500 9.01600 27.59800
C  40.60000 8.46400 26.67400
C  41.05500 8.68100 25.25000
C  42.44800 9.37000 25.34800
C  42.44800 9.62400 26.89700
C  41.09900 7.33600 24.36600
C  42.56600 10.61000 24.35500
C  41.87700 11.94100 24.75400
N  42.73500 10.21100 29.79800
C  43.64300 10.66000 28.84700
C  44.69700 11.28800 29.53300
C  44.35000 11.35500 30.93400
C  43.14200 10.60800 31.02900
C  45.71400 11.91200 28.87400
C  44.78800 11.80400 32.24400
O  45.70500 12.45100 32.69000
C  43.66400 11.28800 33.12300
C  44.28000 10.64400 34.32700
O  44.80400 9.54200 34.42300
O  44.13500 11.48700 35.46900
C  44.54700 10.91700 36.76200
H  38.15500 7.13300 32.32700
H  38.72600 7.60100 26.14100
H  44.29200 10.60400 26.87000
H  41.77400 9.26200 34.70900
H  38.89500 9.16500 34.22300
H  39.87500 6.55600 33.99000
H  39.43000 7.27900 35.52300
H  41.10200 7.25700 35.05000
H  39.84600 11.59700 34.25400
H  41.44700 11.77100 35.01200
H  40.53400 9.76700 36.35900
H  39.03600 10.74300 36.16800
H  36.24900 5.09200 30.11400
H  35.46500 6.68400 30.73100
H  36.73700 5.70000 31.59700
H  34.43400 6.29900 26.94400
H  34.67600 6.66400 28.65000
H  35.20500 5.06300 28.04200
H  40.23500 9.28100 24.85600
H  43.19700 8.60500 25.14500
H  41.10800 6.44200 24.98800
H  41.88800 7.27800 23.61700
H  40.13100 7.18400 23.88900
H  42.11800 10.39700 23.38400
H  43.64400 10.75500 24.28900
H  41.01100 12.06700 24.10500
H  42.47400 12.83100 24.56000
H  41.44200 12.01100 25.75100
H  45.44000 12.21700 27.86400
H  46.58300 11.27300 28.71700
H  46.11600 12.78800 29.38300
H  43.17700 12.14800 33.58300
H  45.49900 10.39100 36.68900
H  43.80300 10.47800 37.42600
H  44.77300 11.80500 37.35200
Mg 1.04700 43.51600 25.91600
C  2.57300 43.78500 29.06800
C  -1.71500 42.08200 27.32700
C  0.05000 42.84400 22.85400
C  4.13200 44.68600 24.49300
N  0.49300 43.02200 28.00200
C  1.26600 43.26600 29.11400
C  0.46100 42.77600 30.39700
C  -0.82300 42.26000 29.74400
C  -0.69200 42.44200 28.29500
C  -1.11000 40.78100 30.09500
C  0.26000 43.95600 31.47900
C  -0.73600 43.74100 32.70800
H  -1.00900 42.36000 33.20500
N  -0.63900 42.71300 25.21400
C  -1.66200 42.16900 25.90400
C  -2.66000 41.62300 25.01700
C  -2.22300 41.94300 23.73000
C  -0.91900 42.57600 23.89100
C  -3.89200 41.02900 25.48700
C  -2.88400 41.53600 22.36000
O  -2.28200 41.66100 21.32000
C  -4.19800 40.83600 22.37100
N  2.03100 43.73700 23.96300
C  1.40400 43.27800 22.87200
C  2.08500 43.79900 21.60100
C  3.32000 44.58300 22.04600
C  3.14700 44.39000 23.60800
C  2.33100 42.65000 20.61500
C  3.40400 46.06600 21.52900
C  2.10400 46.92800 21.75100
N  2.97900 44.00700 26.60100
C  4.10000 44.42400 25.88100
C  5.25500 44.48500 26.79700
C  4.73100 44.29000 28.13100
C  3.30000 44.01800 27.92300
C  6.70700 44.72100 26.40400
C  4.95500 44.20600 29.51400
O  5.99200 44.47900 30.16400
C  3.61100 43.87900 30.14500
C  3.74000 42.71400 30.96000
O  3.90800 41.62700 30.48100
O  3.63200 42.90600 32.29100
C  3.43400 41.70400 33.07700
H  -2.59000 41.53400 27.68300
H  -0.26700 42.46000 21.88200
H  4.91400 45.31500 24.06200
H  1.14900 41.98800 30.70300
H  -1.68200 42.81300 30.12500
H  -2.07300 40.64400 30.58800
H  -0.32200 40.42500 30.75800
H  -1.06800 40.21700 29.16300
H  -0.08700 44.80000 30.88200
H  1.21100 44.29600 31.88900
H  -1.67300 44.28900 32.60900
H  -0.32200 44.17300 33.61900
H  -4.15700 41.30700 26.50700
H  -3.84000 39.94300 25.41900
H  -4.78200 41.30000 24.92000
H  -4.96200 41.56200 22.65000
H  -4.18900 39.95700 23.01500
H  -4.57600 40.36700 21.46200
H  1.34400 44.41100 21.08700
H  4.21300 44.07700 21.67900
H  2.27800 41.64400 21.03000
H  3.22900 42.91300 20.05500
H  1.58200 42.70500 19.82600
H  3.47400 46.04000 20.44100
H  4.21900 46.59400 22.02500
H  1.45200 46.30400 22.36300
H  1.51200 47.04900 20.84400
H  2.25900 47.90000 22.22100
H  7.27200 44.16000 27.14900
H  6.93400 45.78400 26.47400
H  6.87700 44.39700 25.37600
H  3.34700 44.65600 30.86300
H  4.31800 41.29200 33.56300
H  2.99000 40.93200 32.44800
H  2.62900 41.92900 33.77600

