158

Mg 2.37500 -1.83800 44.54700
C  5.71100 -1.19500 43.96300
C  1.57600 0.80200 42.40500
C  -0.82600 -2.87400 44.48100
C  3.32800 -4.65800 46.36900
N  3.56800 -0.43200 43.17600
C  4.92000 -0.33600 43.19500
C  5.30900 0.82100 42.31600
C  4.00900 1.65300 42.07500
C  3.00300 0.55800 42.48100
C  3.88300 3.00000 42.84900
C  5.96000 0.29600 41.08500
C  6.88000 1.17300 40.30000
H  6.39500 1.52000 38.81400
N  0.60900 -1.11100 43.59500
C  0.49800 0.02100 42.85600
C  -0.82700 0.18200 42.34600
C  -1.56100 -0.93200 42.94600
C  -0.60800 -1.71100 43.71000
C  -1.29600 1.34700 41.49800
C  -3.14400 -1.16400 42.88400
O  -3.88700 -0.32100 42.36000
C  -3.74300 -2.53200 43.24900
N  1.34400 -3.50600 45.38600
C  0.01900 -3.77800 45.16300
C  -0.33400 -5.18000 45.84200
C  1.01500 -5.58600 46.58400
C  1.95600 -4.46900 46.19600
C  -1.64500 -5.18100 46.72500
C  1.59300 -7.01100 46.28200
C  1.70300 -7.83600 47.54200
N  4.14700 -2.79100 45.16000
C  4.42200 -3.86100 45.93400
C  5.87900 -3.99800 46.16900
C  6.33300 -2.88800 45.34900
C  5.32100 -2.24800 44.78100
C  6.60700 -5.04300 47.01300
C  7.56700 -2.32300 44.96600
O  8.72600 -2.61400 45.20500
C  7.22300 -1.12200 44.07300
C  7.61400 0.15000 44.60100
O  7.17300 0.78000 45.48600
O  8.62000 0.64000 43.79900
C  8.95400 2.02000 44.07000
H  1.36000 1.72800 41.86800
H  -1.86400 -3.12800 44.70900
H  3.67000 -5.44900 47.04000
H  5.97200 1.39500 42.96400
H  4.06200 1.88300 41.01000
H  2.87900 2.94900 43.27000
H  3.90300 3.80600 42.11600
H  4.65200 3.16700 43.60300
H  5.15500 0.07400 40.38500
H  6.47800 -0.65000 41.24000
H  7.80100 0.63700 40.07500
H  6.95200 2.08700 40.89000
H  -0.50200 1.61300 40.80000
H  -1.54700 2.19300 42.13700
H  -2.19000 1.11000 40.92100
H  -3.15500 -3.39600 42.94100
H  -4.73900 -2.49300 42.80800
H  -3.90200 -2.60300 44.32500
H  -0.57800 -5.90800 45.06800
H  0.97200 -5.45700 47.66600
H  -2.35500 -5.74900 46.12300
H  -2.17700 -4.25300 46.93200
H  -1.50000 -5.80400 47.60800
H  2.56800 -6.83700 45.82600
H  1.09600 -7.56400 45.48400
H  0.68600 -8.17000 47.75100
H  2.05400 -7.24300 48.38600
H  2.40900 -8.64300 47.34100
H  7.56800 -4.64900 47.34600
H  6.85300 -5.93600 46.43900
H  6.16200 -5.36500 47.95400
H  7.70400 -1.39900 43.13400
H  9.82400 2.30300 43.47800
H  9.11300 2.16200 45.13900
H  8.12600 2.70700 43.89400
Mg 17.23100 52.99700 26.39000
C  19.29800 51.48700 28.90800
C  14.77500 53.38500 28.72500
C  15.07500 53.36100 23.86300
C  19.59300 51.71700 24.02400
N  17.07400 52.37700 28.53300
C  18.08700 51.98200 29.41500
C  17.65700 52.00100 30.88200
C  16.10300 52.42200 30.71600
C  15.95500 52.80100 29.26500
C  14.99700 51.42200 31.24100
C  18.57900 52.99600 31.62400
C  18.73400 52.74800 33.13900
H  17.59100 52.06300 33.91500
N  15.27600 53.58400 26.32700
C  14.43700 53.68100 27.41700
C  13.20700 54.23900 26.94300
C  13.19500 54.07800 25.52800
C  14.49700 53.58400 25.13700
C  12.15300 54.77700 27.89200
C  12.11800 54.43300 24.54600
O  12.24800 54.16400 23.33000
C  10.86100 55.00700 24.98200
N  17.40800 52.80100 24.23500
C  16.41300 53.11600 23.44400
C  16.94200 53.18600 21.98100
C  18.34100 52.64900 22.06300
C  18.50700 52.39600 23.52800
C  16.09500 52.54600 20.84300
C  19.47600 53.50000 21.40100
C  19.93100 54.75000 22.24500
N  18.97500 51.82700 26.34900
C  19.82400 51.43600 25.34200
C  20.94800 50.65500 25.85200
C  20.77100 50.65100 27.25500
C  19.59300 51.39200 27.52100
C  22.11800 50.10100 25.14700
C  21.39800 50.26600 28.49200
O  22.38800 49.59100 28.68700
C  20.43700 50.78100 29.64900
C  19.85100 49.60700 30.40200
O  18.92200 48.88000 30.06500
O  20.50600 49.52800 31.61600
C  19.82500 48.75000 32.69400
H  14.08000 53.57400 29.54600
H  14.32600 53.37800 23.06900
H  20.24500 51.32700 23.23900
H  17.75900 51.01300 31.33100
H  16.04200 53.27100 31.39800
H  14.17500 51.92300 31.75300
H  15.48300 50.61700 31.79300
H  14.62600 50.94000 30.33700
H  18.13700 53.98300 31.48500
H  19.57300 53.05400 31.18000
H  18.94300 53.73900 33.54300
H  19.66400 52.18800 33.24100
H  12.05300 55.86000 27.82600
H  12.54400 54.57300 28.88900
H  11.16900 54.30800 27.87500
H  10.34400 54.22900 25.54200
H  10.34700 55.23400 24.04800
H  11.04400 55.76800 25.74100
H  17.06700 54.25700 21.82100
H  18.45800 51.69900 21.54100
H  15.36100 51.86100 21.26600
H  16.68800 51.85800 20.24100
H  15.60100 53.16000 20.09000
H  19.14200 53.69400 20.38200
H  20.37500 52.88400 21.41000
H  20.77800 54.51200 22.88900
H  19.13900 55.07600 22.91900
H  20.20500 55.55000 21.55700
H  22.30900 50.77500 24.31200
H  21.79700 49.19000 24.64200
H  22.84100 49.94300 25.94700
H  20.97200 51.45400 30.31900
H  19.83700 49.36600 33.59300
H  20.47000 47.87200 32.73900
H  18.85700 48.26400 32.56700

