158

Mg 41.68400 40.34500 26.12200
C  40.70100 42.60500 28.73300
C  42.51600 38.10200 28.49900
C  42.61900 38.24300 23.59200
C  40.97000 42.88700 23.82200
N  41.60900 40.41000 28.37700
C  41.07200 41.33400 29.21900
C  41.04700 40.85300 30.71300
C  41.83300 39.48500 30.55100
C  42.02000 39.33200 29.02400
C  43.14800 39.40500 31.38600
C  39.61300 40.72500 31.28800
C  39.41000 40.20600 32.73400
H  38.98000 41.03500 33.99500
N  42.51900 38.44100 26.09000
C  42.72300 37.61200 27.18500
C  43.22700 36.33400 26.76400
C  43.33800 36.34500 25.35800
C  42.81500 37.71800 24.90300
C  43.66800 35.22900 27.83100
C  43.82500 35.36000 24.30500
O  43.69800 35.40300 23.09000
C  44.49600 34.08100 24.82800
N  41.76800 40.58600 24.03000
C  42.09900 39.53800 23.25200
C  42.05400 39.89400 21.78500
C  41.30200 41.24900 21.79000
C  41.26400 41.61000 23.25500
C  43.44200 39.93700 20.95800
C  39.90200 41.15100 21.17500
C  38.92900 40.10400 21.84600
N  41.05500 42.33000 26.16600
C  40.81500 43.21600 25.14300
C  40.37000 44.49900 25.65900
C  40.34500 44.29300 27.02800
C  40.76200 42.96700 27.31200
C  40.06500 45.71800 24.88000
C  40.10500 44.88500 28.21400
O  39.89600 46.08500 28.43600
C  40.12700 43.80700 29.37100
C  41.02200 44.24000 30.53000
O  42.23100 44.46600 30.45900
O  40.30500 44.43000 31.61900
C  41.02500 44.98700 32.73900
H  42.72800 37.38600 29.29500
H  42.93900 37.56200 22.80100
H  40.77400 43.65400 23.07000
H  41.50400 41.54600 31.41900
H  41.19600 38.66700 30.88800
H  43.24600 40.30600 31.99100
H  43.94000 39.50200 30.64300
H  43.31800 38.47400 31.92700
H  39.11200 40.08200 30.56300
H  39.18800 41.72800 31.27300
H  40.31600 39.73700 33.11800
H  38.67300 39.41800 32.58200
H  43.70500 35.62400 28.84700
H  44.69300 34.93900 27.59800
H  43.02900 34.35800 27.68700
H  45.05600 33.59900 24.02700
H  43.62400 33.47400 25.07100
H  45.03900 34.21900 25.76300
H  41.50100 39.12500 21.24500
H  41.95100 42.00600 21.34900
H  43.73800 40.92600 20.60600
H  43.36300 39.35500 20.03900
H  44.11700 39.44600 21.65900
H  40.00300 40.84500 20.13300
H  39.48600 42.15500 21.09200
H  38.49900 39.54800 21.01300
H  38.03400 40.57600 22.25200
H  39.41300 39.42000 22.54300
H  40.80400 46.51700 24.82100
H  39.20900 46.13200 25.41100
H  39.80700 45.37700 23.87700
H  39.08600 43.68800 29.66900
H  41.48100 44.15100 33.27000
H  40.29900 45.50700 33.36400
H  41.83000 45.70300 32.58000
Mg -5.88400 25.80000 26.05400
C  -4.20000 27.08600 28.93200
C  -7.62200 23.76800 28.19100
C  -6.82500 23.89600 23.43500
C  -3.98700 27.73200 24.09800
N  -5.73400 25.26500 28.42900
C  -5.10900 26.07800 29.41500
C  -5.54400 25.63900 30.77500
C  -6.89300 24.84800 30.42100
C  -6.68700 24.47900 28.92900
C  -7.16900 23.58300 31.26000
C  -5.64100 26.70600 31.81300
C  -6.75400 26.51000 32.79900
H  -6.56400 25.55000 34.02000
N  -7.16600 24.12700 25.80600
C  -7.80900 23.44900 26.79400
C  -8.66700 22.43900 26.24200
C  -8.44700 22.46000 24.80200
C  -7.44800 23.51600 24.65200
C  -9.46700 21.45500 27.06300
C  -9.07600 21.63100 23.70300
O  -8.82700 21.71200 22.54300
C  -10.09500 20.61700 24.05900
N  -5.43500 25.76100 24.05300
C  -5.85700 24.88700 23.15300
C  -5.32900 25.20700 21.72500
C  -4.66500 26.58100 21.85500
C  -4.65000 26.67200 23.44400
C  -4.53800 24.00600 21.09300
C  -5.42800 27.75500 21.20000
C  -4.58200 28.84100 20.60000
N  -4.30300 26.96100 26.38400
C  -3.66900 27.76800 25.48400
C  -2.74200 28.68500 26.13900
C  -2.84700 28.35200 27.50400
C  -3.84300 27.35700 27.58600
C  -1.77100 29.69500 25.50300
C  -2.36600 28.68300 28.74200
O  -1.42200 29.42500 29.10500
C  -3.23500 27.90200 29.78400
C  -2.26500 27.00400 30.48600
O  -1.90800 25.97600 30.03200
O  -1.83200 27.63100 31.59100
C  -0.74700 26.98400 32.23700
H  -8.30700 23.22700 28.84800
H  -7.11500 23.29200 22.57300
H  -3.46200 28.51300 23.54500
H  -4.76400 24.90600 30.98300
H  -7.77000 25.49400 30.44900
H  -7.05500 22.77400 30.53900
H  -8.15400 23.62200 31.72500
H  -6.33900 23.47200 31.95800
H  -5.75600 27.72300 31.43700
H  -4.76700 26.65300 32.46200
H  -7.73200 26.27700 32.37800
H  -6.70900 27.53200 33.17200
H  -9.39400 20.42400 26.71800
H  -10.52000 21.70400 27.20000
H  -9.23000 21.36200 28.12200
H  -9.45000 19.81900 24.42600
H  -10.53200 20.25000 23.13000
H  -10.89500 20.88900 24.74700
H  -6.21900 25.29800 21.10200
H  -3.69100 26.43600 21.38700
H  -4.43700 23.07800 21.65600
H  -3.52800 24.29200 20.79900
H  -5.04900 23.62000 20.21200
H  -6.00200 28.25900 21.97700
H  -6.01500 27.42700 20.34200
H  -3.55800 28.47600 20.51600
H  -4.44900 29.71600 21.23500
H  -4.93000 29.20300 19.63300
H  -1.06200 30.07600 26.23900
H  -2.43900 30.50500 25.21100
H  -1.21600 29.30700 24.64800
H  -3.73900 28.65100 30.39500
H  -0.98100 25.92000 32.26500
H  -0.63400 27.32100 33.26700
H  0.22400 27.19900 31.79000

