158

Mg 44.12000 3.75500 48.11300
C  42.02400 6.47500 47.43300
C  41.29700 1.73500 47.63300
C  46.16700 1.13900 47.90400
C  46.83300 5.86700 47.67300
N  41.87600 4.06900 47.78600
C  41.27400 5.26600 47.53900
C  39.77300 5.11300 47.26800
C  39.48600 3.58500 47.41600
C  40.99400 3.07100 47.61200
C  38.66700 3.13600 48.63500
C  39.01100 5.85600 46.02700
C  39.58600 5.65200 44.61100
H  39.65600 6.83000 43.61600
N  43.81000 1.73200 47.83700
C  42.54600 1.09100 47.77800
C  42.74900 -0.33200 47.64700
C  44.18700 -0.53100 47.78000
C  44.83100 0.81500 47.83000
C  41.59400 -1.31100 47.60500
C  44.86000 -1.86100 47.82300
O  44.28100 -2.93800 47.92100
C  46.28800 -1.95600 47.80400
N  46.15200 3.58200 47.91500
C  46.81300 2.38700 47.87800
C  48.36100 2.50400 47.75800
C  48.56300 4.02100 47.64300
C  47.13600 4.53200 47.84000
C  49.21700 1.80600 48.92100
C  49.17700 4.41300 46.31100
C  50.54200 5.15700 46.39100
N  44.40300 5.79100 47.78600
C  45.59700 6.49300 47.64300
C  45.30100 7.87300 47.34100
C  43.91800 7.92600 47.31500
C  43.42000 6.59200 47.46000
C  46.29900 8.98000 47.09700
C  42.73000 8.86700 47.18200
O  42.60700 10.12600 47.12200
C  41.41100 7.96500 47.29600
C  40.58000 8.27000 48.48300
O  40.61300 7.54100 49.53200
O  39.68000 9.21000 48.19000
C  38.49900 9.35600 49.15100
H  40.42300 1.10900 47.43800
H  46.86600 0.33300 47.67100
H  47.75000 6.45700 47.62200
H  39.34300 5.63400 48.12400
H  39.09900 3.28800 46.44100
H  39.20100 2.34200 49.15800
H  37.71900 2.65500 48.39400
H  38.39400 3.89600 49.36600
H  38.72900 6.87000 46.31100
H  38.00900 5.42500 46.03700
H  39.12800 4.76200 44.17900
H  40.62300 5.34000 44.73500
H  41.52400 -1.70400 46.59100
H  40.63200 -0.86200 47.85400
H  41.67400 -2.21800 48.20400
H  46.75300 -1.35300 48.58400
H  46.61100 -1.44300 46.89800
H  46.41400 -3.03800 47.82100
H  48.71100 1.99700 46.85900
H  49.16800 4.42800 48.45300
H  48.44800 1.37400 49.56200
H  49.91400 2.43500 49.47500
H  49.78900 0.97800 48.50300
H  48.51300 5.16700 45.88900
H  49.27300 3.49900 45.72500
H  50.93400 5.08000 47.40500
H  50.43900 6.18900 46.05500
H  51.18900 4.63200 45.68900
H  46.70900 9.16000 48.09000
H  45.80200 9.90500 46.80500
H  47.07500 8.67100 46.39600
H  40.79400 7.97800 46.39700
H  38.29100 10.42600 49.19200
H  38.68000 9.04300 50.18000
H  37.71500 8.82100 48.61700
Mg 47.80500 25.74500 29.39500
C  48.66800 28.17000 31.75200
C  46.61400 23.82600 31.85800
C  47.12800 23.47700 27.03400
C  49.34900 27.75300 26.99400
N  47.54500 26.07700 31.53500
C  47.96300 27.07400 32.26900
C  47.59300 26.92100 33.72500
C  47.00300 25.51400 33.75200
C  47.11100 25.06500 32.26300
C  47.61900 24.47000 34.75000
C  46.55100 27.96400 34.15400
C  46.38400 28.14200 35.67500
H  47.34100 27.51200 36.65200
N  46.88400 23.91200 29.39800
C  46.49800 23.29500 30.56500
C  45.64700 22.10900 30.23600
C  45.73600 22.07000 28.76900
C  46.63000 23.16700 28.30100
C  44.97300 21.22600 31.29400
C  45.25900 21.01800 27.79900
O  45.34700 21.11400 26.57700
C  44.30200 19.95600 28.30000
N  48.42800 25.50800 27.40800
C  48.01000 24.52000 26.66500
C  48.58900 24.52100 25.22800
C  49.22000 25.88000 25.17400
C  48.92100 26.50300 26.57100
C  49.54100 23.32800 25.02900
C  48.53800 26.67400 24.04400
C  49.51700 27.36900 23.00300
N  48.73500 27.67300 29.33400
C  49.26500 28.31400 28.27600
C  49.94600 29.48300 28.73100
C  49.69500 29.51000 30.10800
C  48.94400 28.39900 30.43300
C  50.56800 30.56400 27.92300
C  49.87300 30.31100 31.32300
O  50.38700 31.41500 31.54900
C  49.34500 29.32900 32.49900
C  50.54900 28.90500 33.27400
O  51.08800 27.78000 33.24100
O  50.89400 29.83000 34.19100
C  52.04100 29.44600 35.04200
H  46.12000 23.22300 32.62300
H  47.03200 22.72900 26.24400
H  49.94400 28.19400 26.19100
H  48.48500 26.91700 34.35100
H  45.92600 25.53900 33.91500
H  48.49500 24.83600 35.28500
H  47.88500 23.53900 34.24800
H  46.83500 24.15800 35.44000
H  45.59800 27.68000 33.70900
H  46.82600 28.94300 33.76300
H  45.38700 27.96100 36.07600
H  46.49400 29.22600 35.69200
H  45.25300 20.17600 31.20900
H  43.89900 21.32800 31.13500
H  45.11300 21.47400 32.34600
H  43.46200 20.54000 28.67600
H  44.63500 19.26700 29.07700
H  43.85400 19.38800 27.48500
H  47.68800 24.40100 24.62800
H  50.30800 25.82500 25.19500
H  48.98800 22.38900 25.05700
H  50.15800 23.35300 25.92700
H  50.05700 23.46500 24.07900
H  47.84000 27.38200 24.49200
H  47.84200 26.11600 23.41800
H  49.18100 27.15600 21.98800
H  50.54500 27.05100 23.17600
H  49.51300 28.43200 23.24600
H  49.82100 30.71700 27.14400
H  51.50100 30.27800 27.43800
H  50.78800 31.38700 28.60300
H  48.59900 29.88800 33.06400
H  51.79300 28.50700 35.53600
H  52.07600 30.20800 35.82000
H  53.01000 29.41500 34.54400

