158

Mg 2.17000 7.58400 26.34500
C  2.38000 9.80400 29.03800
C  2.31800 4.96000 28.50300
C  2.20400 5.54800 23.59600
C  2.48800 10.37300 24.19300
N  2.46100 7.40200 28.54100
C  2.37500 8.44600 29.43700
C  2.04800 7.89700 30.83600
C  2.44000 6.37100 30.64600
C  2.33600 6.19700 29.16300
C  3.79600 5.87200 31.11300
C  0.60600 8.14200 31.42500
C  0.50100 8.41100 32.95700
H  1.69200 7.89600 33.81900
N  2.23600 5.52700 26.11500
C  2.23500 4.57300 27.12600
C  2.15000 3.27700 26.57300
C  2.09100 3.43300 25.15800
C  2.24800 4.86400 24.88600
C  1.93800 2.01700 27.48900
C  2.04900 2.37100 24.11700
O  2.08900 2.59400 22.92400
C  1.99200 0.86900 24.62500
N  2.29100 7.91800 24.25800
C  2.30900 6.92500 23.31200
C  2.37400 7.41600 21.87000
C  2.46500 8.97700 22.04300
C  2.32700 9.11000 23.61500
C  3.42800 6.71800 21.07100
C  1.28200 9.73500 21.36300
C  1.61600 10.64200 20.23800
N  2.36000 9.66400 26.51700
C  2.52000 10.60200 25.57000
C  2.55600 11.94400 26.15800
C  2.51900 11.69100 27.56900
C  2.46300 10.27900 27.70500
C  2.36400 13.29600 25.52500
C  2.35200 12.25800 28.94400
O  2.30100 13.42800 29.29500
C  2.27000 11.06600 29.88600
C  3.39000 11.02500 30.90900
O  4.58300 11.00600 30.70800
O  2.81200 11.11600 32.14100
C  3.76800 11.22100 33.23500
H  2.39700 4.18400 29.26700
H  2.15900 4.93800 22.69200
H  2.44500 11.24300 23.53300
H  2.80100 8.27100 31.53100
H  1.68000 5.71900 31.07600
H  4.41400 5.59500 30.25900
H  3.53800 5.04300 31.77200
H  4.32900 6.56800 31.75900
H  -0.08900 7.32000 31.25400
H  0.23900 9.10900 31.08100
H  -0.38200 7.88200 33.31600
H  0.47400 9.48700 33.13200
H  2.89200 1.49000 27.44900
H  0.99700 1.58500 27.14800
H  1.78400 2.34600 28.51600
H  2.96900 0.66400 25.06300
H  1.79800 0.22900 23.76500
H  1.08000 0.74800 25.20900
H  1.39800 7.14600 21.46500
H  3.43000 9.37300 21.72600
H  4.10400 6.32900 21.83300
H  3.93200 7.40800 20.39500
H  3.03500 5.97900 20.37300
H  0.74500 10.37200 22.06600
H  0.58600 9.04400 20.88700
H  1.04100 10.44800 19.33200
H  2.68100 10.52300 20.04000
H  1.27100 11.65200 20.45800
H  1.60600 13.95000 25.95700
H  2.18500 13.11200 24.46500
H  3.25200 13.92700 25.56700
H  1.36900 11.09000 30.49900
H  3.98400 12.28900 33.24300
H  4.69100 10.67800 33.03000
H  3.40900 11.04300 34.24900
Mg 52.44100 22.70100 43.52100
C  49.66000 24.68100 42.68500
C  50.69000 19.89300 43.09200
C  55.39000 21.01500 43.15600
C  54.34400 25.82400 43.17800
N  50.53800 22.35400 42.66000
C  49.53600 23.27700 42.47000
C  48.20600 22.53400 42.11900
C  48.52800 21.14900 42.69100
C  49.97500 21.11900 42.89100
C  47.80400 20.76100 44.05900
C  47.85900 22.63500 40.58200
C  46.32800 22.28000 40.34600
H  46.03500 21.00900 39.47100
N  52.95300 20.67700 43.39500
C  52.05000 19.67200 43.18400
C  52.78300 18.43600 43.13000
C  54.16300 18.72300 43.20000
C  54.26000 20.19200 43.27100
C  52.06300 17.12300 42.89400
C  55.22800 17.62000 43.18700
O  54.92800 16.42600 43.21700
C  56.68700 17.90000 43.19900
N  54.44500 23.29500 43.07600
C  55.48800 22.38800 43.06200
C  56.83800 23.09000 42.87600
C  56.51200 24.65200 42.84900
C  55.01000 24.63000 42.97400
C  57.92800 22.73400 43.86400
C  57.00900 25.34100 41.53100
C  56.40700 24.76700 40.19100
N  52.07000 24.83200 43.19100
C  52.95300 25.98000 43.24800
C  52.05700 27.17600 43.37200
C  50.77700 26.65400 43.04500
C  50.85000 25.27800 42.95400
C  52.49800 28.63600 43.47100
C  49.38100 27.16200 42.88700
O  48.86800 28.28300 42.84700
C  48.63700 25.87200 42.45100
C  48.27800 26.06500 40.98000
O  49.07000 26.28400 40.09000
O  46.91400 26.12500 40.82600
C  46.33700 26.29000 39.47300
H  50.07300 18.99700 43.18100
H  56.34000 20.50900 42.97300
H  54.92000 26.75100 43.19800
H  47.41200 23.13000 42.56900
H  48.23500 20.33600 42.02700
H  47.15200 21.58800 44.34300
H  48.48300 20.64800 44.90400
H  47.22800 19.83600 44.05400
H  48.47500 21.88400 40.08800
H  47.99500 23.61900 40.13300
H  45.87300 23.07600 39.75600
H  45.71000 22.11100 41.22800
H  52.34900 16.65100 41.95400
H  50.98100 17.20100 42.78900
H  52.27700 16.52300 43.77800
H  57.34100 17.03000 43.25400
H  56.99100 18.60900 43.96900
H  56.85900 18.38300 42.23700
H  57.19200 22.84500 41.87500
H  56.97000 25.22200 43.65700
H  58.56000 23.59700 44.07400
H  58.61800 21.98200 43.48000
H  57.54200 22.37900 44.81900
H  58.08400 25.17300 41.47000
H  56.74500 26.38900 41.67400
H  55.85300 25.61900 39.79700
H  55.73600 23.92500 40.36400
H  57.19000 24.48200 39.48900
H  51.95600 29.33200 44.11100
H  52.56300 29.01700 42.45200
H  53.51800 28.72200 43.84300
H  47.68900 25.72700 42.96900
H  45.57400 25.51200 39.45100
H  46.98400 26.53500 38.63100
H  45.77800 27.22400 39.41200

