158

Mg 35.29800 1.60700 29.19900
C  33.25200 2.64300 31.78200
C  37.94800 2.11400 31.27700
C  37.25900 0.82600 26.64500
C  32.56300 1.85800 27.08200
N  35.50700 2.20100 31.28900
C  34.55300 2.45500 32.19600
C  35.02900 2.44500 33.64500
C  36.49700 2.38200 33.41200
C  36.71100 2.29900 31.90500
C  37.32600 3.61100 33.99900
C  34.44000 1.36000 34.53500
C  34.02200 1.78300 35.96100
H  34.75500 2.95900 36.61200
N  37.35100 1.39200 29.03900
C  38.22900 1.76000 29.94500
C  39.57400 1.61800 29.41900
C  39.42400 1.09700 28.03700
C  37.98100 1.04700 27.85100
C  40.78400 1.89500 30.31300
C  40.48200 0.71800 27.03800
O  40.12300 0.43000 25.90900
C  41.89300 0.69500 27.43100
N  34.87800 1.28800 27.25200
C  35.81800 0.92000 26.35700
C  35.27300 0.56900 24.96700
C  33.74000 0.77300 25.15700
C  33.76700 1.39900 26.53000
C  35.80900 1.42400 23.81600
C  32.92600 -0.53400 24.95800
C  33.08000 -1.24400 23.51700
N  33.32600 2.13100 29.31100
C  32.35500 2.25000 28.40100
C  31.11200 2.78300 28.93900
C  31.43300 2.93000 30.26300
C  32.78000 2.50200 30.43900
C  29.83300 2.96500 28.25400
C  30.87300 3.30800 31.58000
O  29.78900 3.64200 31.92300
C  32.02000 3.00000 32.58900
C  32.19100 4.27500 33.38200
O  32.76900 5.33100 33.01500
O  31.50000 4.19800 34.55700
C  31.31100 5.48600 35.18800
H  38.83000 2.20500 31.91300
H  37.82500 0.53600 25.75700
H  31.79300 1.98100 26.31700
H  34.89600 3.46100 34.01700
H  36.96300 1.49600 33.84400
H  36.69200 4.28300 34.57800
H  37.75000 4.27900 33.24900
H  38.14700 3.31100 34.65000
H  35.04600 0.46200 34.65700
H  33.46500 1.04400 34.16400
H  34.13700 0.97000 36.67900
H  32.96400 2.04400 35.93300
H  41.78000 1.64100 29.95000
H  40.71100 1.38400 31.27300
H  40.77500 2.98000 30.41600
H  42.29500 1.69200 27.61100
H  42.43700 0.43200 26.52300
H  42.08800 0.06300 28.29700
H  35.49000 -0.46100 24.68500
H  33.37900 1.57300 24.51100
H  35.06200 1.94000 23.21300
H  36.43800 0.77700 23.20500
H  36.48500 2.18300 24.20800
H  31.87100 -0.27500 25.04600
H  33.36300 -1.21600 25.68800
H  32.34200 -1.03700 22.74100
H  33.13400 -2.28700 23.82900
H  34.07400 -1.07500 23.10400
H  29.04700 3.06800 29.00200
H  29.70700 2.15600 27.53400
H  29.83500 3.83400 27.59500
H  31.67600 2.17300 33.20900
H  32.30200 5.91900 35.32500
H  30.87800 5.34400 36.17800
H  30.71100 6.21400 34.64200
Mg -10.61300 16.87600 41.09300
C  -7.97600 14.55400 40.97700
C  -8.77700 18.95500 39.09600
C  -13.33000 18.62200 40.50000
C  -12.60400 14.23000 42.40600
N  -8.62000 16.76600 40.29200
C  -7.69400 15.78700 40.39500
C  -6.44900 16.16400 39.50100
C  -6.64000 17.63000 39.28600
C  -8.09200 17.85300 39.61900
C  -5.71700 18.52100 40.18400
C  -6.34900 15.42700 38.16600
C  -5.34600 14.22800 38.11800
H  -4.19500 14.09400 37.00300
N  -10.93500 18.62400 40.07100
C  -10.05200 19.35500 39.36800
C  -10.70500 20.54000 38.88800
C  -12.07900 20.47300 39.33500
C  -12.14800 19.20800 40.05000
C  -9.99100 21.67900 38.22000
C  -13.18600 21.63900 39.03600
O  -12.86100 22.62800 38.36700
C  -14.62600 21.46800 39.47900
N  -12.67300 16.52100 41.47300
C  -13.61000 17.43100 41.17600
C  -15.11600 16.93800 41.61900
C  -14.77100 15.56900 42.37500
C  -13.30200 15.39400 41.99400
C  -15.89700 17.93400 42.59900
C  -15.67700 14.40100 41.99200
C  -16.80100 13.92900 43.01500
N  -10.38900 14.87400 41.85300
C  -11.23100 13.91900 42.31400
C  -10.56600 12.76300 42.64600
C  -9.27400 12.98800 42.20100
C  -9.23600 14.30300 41.63300
C  -11.03900 11.52300 43.24000
C  -7.90500 12.41000 42.11000
O  -7.42900 11.30300 42.44800
C  -7.04300 13.35900 41.32600
C  -5.84000 13.74300 42.16500
O  -5.89300 13.91400 43.37800
O  -4.66000 13.94300 41.39700
C  -3.61400 14.71900 42.13000
H  -8.08700 19.63100 38.58600
H  -14.27600 19.08300 40.20800
H  -13.20300 13.48100 42.92800
H  -5.63900 15.84100 40.15600
H  -6.40500 17.87700 38.25100
H  -6.36300 19.02200 40.90400
H  -5.13600 19.18800 39.54600
H  -5.03200 17.93400 40.79600
H  -6.14000 16.05800 37.30200
H  -7.33200 15.02900 37.91900
H  -5.91200 13.29800 38.06400
H  -4.84700 14.17200 39.08500
H  -9.60400 21.36700 37.25100
H  -9.15600 21.97000 38.85700
H  -10.61100 22.57500 38.18300
H  -15.10200 22.44700 39.53000
H  -14.59500 21.13900 40.51700
H  -15.20800 20.85500 38.79100
H  -15.72100 16.85800 40.71600
H  -14.75900 15.65600 43.46100
H  -16.41700 17.32400 43.33800
H  -16.69300 18.35600 41.98500
H  -15.28200 18.76500 42.94400
H  -15.07900 13.53100 41.72000
H  -16.28500 14.64600 41.12200
H  -16.91400 14.59900 43.86700
H  -16.59900 12.89700 43.30000
H  -17.75800 13.89500 42.49300
H  -10.18000 10.97600 43.63000
H  -11.51000 10.91400 42.46800
H  -11.75700 11.88000 43.97800
H  -6.79800 12.70600 40.48900
H  -3.32000 14.21200 43.04900
H  -3.99000 15.74100 42.09200
H  -2.80600 14.66600 41.40000

