158

Mg 16.72200 -2.61900 29.02800
C  15.57700 -0.27400 31.33400
C  18.95800 -3.75600 31.38700
C  18.17500 -4.51200 26.66100
C  14.74000 -1.11200 26.55900
N  17.11800 -2.09700 31.10800
C  16.49300 -1.18200 31.85000
C  16.86400 -1.34400 33.32300
C  18.08600 -2.35800 33.35000
C  18.04200 -2.79300 31.86600
C  19.46600 -1.92600 33.85200
C  15.77400 -1.81500 34.26700
C  15.44500 -0.88600 35.42200
H  16.52100 -0.28900 36.39400
N  18.33600 -3.98600 29.06700
C  19.09500 -4.35700 30.12400
C  20.07700 -5.35000 29.67200
C  19.88300 -5.52700 28.25900
C  18.73200 -4.67700 27.96600
C  20.97100 -6.13500 30.64000
C  20.77700 -6.33100 27.37300
O  20.55700 -6.47000 26.19200
C  21.99800 -7.07500 27.85600
N  16.67000 -2.73100 26.90100
C  17.23700 -3.69900 26.11200
C  16.66400 -3.72700 24.72400
C  15.73700 -2.45000 24.68100
C  15.66700 -2.14700 26.18400
C  17.78600 -3.52300 23.71300
C  14.30800 -2.75000 24.07900
C  13.70600 -1.70400 23.10000
N  15.43800 -1.08600 28.93800
C  14.72500 -0.53000 27.85600
C  13.98300 0.57100 28.33000
C  14.27200 0.71100 29.66600
C  15.17700 -0.27000 30.00300
C  12.95300 1.44900 27.55500
C  13.98600 1.53500 30.85700
O  13.33000 2.56400 30.94100
C  14.73300 0.76400 32.00400
C  15.39300 1.90400 32.84500
O  16.58600 2.10600 32.92300
O  14.48600 2.52800 33.61600
C  15.03800 3.39500 34.69300
H  19.68200 -4.09200 32.13200
H  18.53300 -5.27800 25.96900
H  14.14800 -0.66600 25.75700
H  17.18700 -0.38600 33.73200
H  17.80100 -3.16200 34.02800
H  19.45700 -1.01400 34.45000
H  20.06500 -1.68400 32.97400
H  19.88700 -2.74800 34.43100
H  15.77600 -2.83400 34.65500
H  14.90200 -1.69000 33.62400
H  14.69700 -1.32500 36.08200
H  14.88200 -0.01900 35.07600
H  20.88300 -7.20600 30.45700
H  20.80800 -5.76000 31.65000
H  22.00000 -5.83900 30.43600
H  22.55800 -7.30400 26.94900
H  21.62400 -8.02400 28.23900
H  22.58300 -6.48600 28.56300
H  16.04300 -4.58000 24.45200
H  16.32300 -1.65500 24.21800
H  18.14600 -4.48800 23.35300
H  18.60500 -2.95900 24.15900
H  17.30200 -2.99200 22.89400
H  13.63700 -2.84200 24.93400
H  14.21000 -3.72400 23.60100
H  13.03200 -1.13100 23.73600
H  13.18700 -2.20800 22.28500
H  14.34600 -0.95300 22.63500
H  12.13100 0.84200 27.17700
H  13.46400 1.98200 26.75300
H  12.69100 2.19000 28.31000
H  14.04800 0.26300 32.68800
H  15.09500 4.46300 34.48200
H  16.06400 3.17800 34.98800
H  14.31700 3.27200 35.50100
Mg 27.15300 50.47800 26.66200
C  24.94000 51.62700 29.23700
C  29.49600 49.87200 29.06700
C  29.19200 49.82600 24.22400
C  25.09700 52.19700 24.39300
N  27.13500 50.79500 28.97800
C  26.14100 51.09400 29.76200
C  26.58400 50.84600 31.19900
C  28.13900 50.64500 31.12400
C  28.34700 50.43800 29.65000
C  28.96400 51.77000 31.80400
C  25.86900 49.68200 31.85800
C  25.49900 49.73700 33.36200
H  26.34000 50.48100 34.40700
N  28.95600 49.76100 26.67000
C  29.80300 49.52000 27.70800
C  31.00000 48.90100 27.25900
C  30.90700 48.85500 25.86300
C  29.64300 49.52700 25.48400
C  32.08400 48.28200 28.22500
C  31.92500 48.32800 24.87900
O  31.75000 48.34800 23.64600
C  33.36700 47.99600 25.41500
N  27.14700 50.98300 24.56700
C  28.03700 50.43800 23.73900
C  27.76800 50.82100 22.25500
C  26.40900 51.48200 22.37300
C  26.14900 51.56000 23.85200
C  28.85400 51.69100 21.55400
C  25.29500 50.62600 21.80900
C  24.87200 49.33100 22.53600
N  25.42700 51.67300 26.67100
C  24.73300 52.34100 25.71300
C  23.55400 53.09500 26.25300
C  23.64900 52.81200 27.68100
C  24.78500 51.94000 27.86400
C  22.38400 53.63300 25.47200
C  22.82900 52.91800 28.87900
O  21.79400 53.53300 29.05200
C  23.66900 52.19900 29.95100
C  23.97700 53.04400 31.11700
O  24.55800 54.11100 31.10200
O  23.45000 52.55700 32.27700
C  23.43400 53.37900 33.46500
H  30.32500 49.63100 29.73700
H  29.84600 49.56000 23.39000
H  24.54400 52.80300 23.67200
H  26.39800 51.72800 31.81000
H  28.45800 49.68500 31.53000
H  29.84600 51.81100 31.16500
H  29.36700 51.60000 32.80200
H  28.53900 52.77400 31.79800
H  26.58900 48.88100 31.69200
H  24.96200 49.59500 31.26100
H  25.40200 48.71300 33.72200
H  24.51700 50.20500 33.43500
H  32.25100 47.20500 28.19600
H  31.94000 48.55300 29.27200
H  33.06100 48.68600 27.96000
H  33.80400 48.84000 25.94900
H  33.85700 47.71500 24.48200
H  33.26100 47.11700 26.05000
H  27.72600 49.95500 21.59400
H  26.50100 52.49400 21.97800
H  28.49500 52.63500 21.14300
H  29.12400 51.01300 20.74400
H  29.71800 51.91300 22.18100
H  25.60200 50.33900 20.80300
H  24.46200 51.32900 21.78700
H  25.45600 49.08800 23.42300
H  24.97500 48.49500 21.84400
H  23.80200 49.39500 22.73500
H  21.51400 53.92700 26.06000
H  22.07300 53.06000 24.59900
H  22.53100 54.58600 24.96500
H  23.04400 51.40200 30.35500
H  22.39100 53.45200 33.77200
H  23.70300 54.39600 33.18100
H  24.10200 53.05100 34.26200

