158

Mg 49.85900 46.63300 42.63200
C  46.74700 47.56400 41.43700
C  49.55900 43.68000 40.67700
C  53.19900 45.92500 43.11100
C  50.27500 49.68600 43.97500
N  48.35700 45.84900 41.07900
C  47.11500 46.31100 40.93300
C  46.22900 45.43900 40.06700
C  47.06700 44.07100 40.18600
C  48.47800 44.57000 40.53700
C  46.45200 43.09400 41.07600
C  46.08700 46.01200 38.62700
C  44.85600 45.61600 37.81000
H  45.06800 44.33400 36.99000
N  51.11500 44.99700 42.11200
C  50.83000 43.87000 41.36600
C  51.92000 42.99500 41.37600
C  52.95700 43.54400 42.10500
C  52.44300 44.94100 42.46300
C  51.86200 41.65700 40.82000
C  54.30500 42.92500 42.42600
O  54.68400 41.86800 41.93600
C  55.21800 43.51700 43.41400
N  51.55600 47.68800 43.26500
C  52.79700 47.16900 43.48800
C  53.72400 48.25900 44.00900
C  52.74300 49.38600 44.41000
C  51.41400 48.88700 43.83300
C  54.68700 47.83100 45.18400
C  53.11800 50.80800 43.91900
C  52.97000 51.96400 44.94200
N  48.81200 48.33700 42.68200
C  49.02500 49.54400 43.37000
C  47.91200 50.40100 43.25100
C  46.98200 49.68300 42.46800
C  47.58900 48.43200 42.18200
C  47.75500 51.74100 43.95300
C  45.65500 49.67600 41.96600
O  44.70200 50.46400 42.16900
C  45.49400 48.36900 41.13500
C  44.15600 47.78100 41.41800
O  43.25100 47.69000 40.56500
O  44.16900 47.05600 42.54400
C  43.00500 46.24000 42.90500
H  49.34900 42.74900 40.14700
H  54.27600 45.76400 43.18300
H  50.41000 50.54600 44.63400
H  45.19000 45.36500 40.38900
H  47.32400 43.57700 39.24900
H  45.52400 43.48600 41.49400
H  47.08600 42.91000 41.94300
H  46.18600 42.14100 40.62000
H  46.90700 45.60200 38.03700
H  46.11600 47.09800 38.53500
H  44.66800 46.48300 37.17500
H  43.91400 45.41700 38.32100
H  52.43600 41.61800 39.89500
H  50.87800 41.22100 40.64500
H  52.30800 40.96600 41.53500
H  56.02000 42.90400 43.82500
H  54.53900 43.94100 44.15500
H  55.73000 44.35600 42.94300
H  54.41400 48.49200 43.19800
H  52.57900 49.33500 45.48600
H  54.46400 46.89400 45.69300
H  54.83200 48.59600 45.94700
H  55.69400 47.69600 44.79100
H  52.67100 50.98400 42.94100
H  54.17800 50.85700 43.66800
H  52.40000 52.79200 44.51900
H  53.94300 52.35300 45.24200
H  52.45100 51.65300 45.84800
H  48.65200 52.28800 43.66400
H  47.70700 51.53200 45.02200
H  46.90700 52.15900 43.41000
H  45.55400 48.66300 40.08700
H  43.45200 45.46400 43.52700
H  42.52900 45.70900 42.08100
H  42.36600 46.91500 43.47500
Mg -0.78700 34.17200 27.62600
C  -2.91500 32.77300 29.96000
C  0.66800 36.00600 30.29800
C  0.63600 36.39600 25.36600
C  -2.41300 32.56400 25.04800
N  -1.22400 34.48800 29.79000
C  -2.07700 33.72800 30.54700
C  -1.86600 33.98900 32.02000
C  -0.95200 35.30300 32.06400
C  -0.38500 35.19100 30.66600
C  -1.56600 36.73500 32.35000
C  -1.25100 32.76400 32.78900
C  -1.91500 32.38300 34.13200
H  -0.99800 32.35700 35.37300
N  0.59700 35.76700 27.77000
C  1.03800 36.34300 28.93200
C  1.93700 37.45200 28.62200
C  1.89300 37.62200 27.24500
C  0.97500 36.59200 26.73400
C  2.71200 38.26400 29.68700
C  2.66100 38.62900 26.33500
O  2.71300 38.70900 25.11900
C  3.48500 39.69200 27.07800
N  -0.93200 34.48400 25.56700
C  -0.21100 35.43200 24.81800
C  -0.46800 35.25100 23.29000
C  -1.31400 33.96300 23.17100
C  -1.62900 33.68000 24.68900
C  -1.17900 36.53600 22.72800
C  -0.70500 32.74200 22.32600
C  -1.68100 31.97800 21.43500
N  -2.37100 32.95500 27.47800
C  -2.89800 32.34400 26.38800
C  -3.85600 31.35900 26.87800
C  -3.84900 31.51900 28.29600
C  -3.03100 32.53200 28.59800
C  -4.62200 30.30700 26.05300
C  -4.37000 30.97100 29.41200
O  -5.12500 30.01000 29.49800
C  -3.83800 31.74700 30.72100
C  -4.94800 32.43400 31.48100
O  -5.70600 33.29500 31.04900
O  -5.05100 31.86000 32.69900
C  -5.88500 32.53100 33.70400
H  1.21800 36.48400 31.11200
H  1.10600 37.10900 24.68500
H  -2.87600 32.05500 24.20100
H  -2.83100 34.31200 32.40900
H  -0.13300 35.10700 32.75600
H  -0.73900 37.33800 32.72300
H  -2.28900 36.73400 33.16600
H  -2.13600 37.17800 31.53300
H  -0.20900 33.04200 32.94900
H  -1.28000 31.91700 32.10400
H  -2.50300 31.47900 33.97200
H  -2.68800 33.11300 34.37000
H  3.76400 38.18900 29.41200
H  2.50000 37.86500 30.67900
H  2.32000 39.28100 29.69400
H  2.91000 40.36300 27.71600
H  3.84200 40.38300 26.31500
H  4.29200 39.11300 27.52500
H  0.46700 35.22500 22.73000
H  -2.32700 34.16400 22.82300
H  -1.26700 37.37900 23.41300
H  -2.17400 36.26700 22.37400
H  -0.61700 36.90600 21.87000
H  -0.58300 31.98300 23.09800
H  0.24300 32.98200 21.84300
H  -1.31100 32.04800 20.41200
H  -2.65900 32.43500 21.28700
H  -1.74400 30.94000 21.76000
H  -4.24400 30.20400 25.03600
H  -5.68200 30.56000 26.05500
H  -4.62600 29.34000 26.55700
H  -3.25600 30.99400 31.25200
H  -6.34500 31.73300 34.28600
H  -6.73000 33.05700 33.26000
H  -5.24000 33.11900 34.35700

