158

Mg 53.96100 24.56600 43.44200
C  51.36300 26.75800 42.86200
C  52.08100 22.11900 41.87400
C  56.89600 22.73600 42.69000
C  55.89600 27.20700 44.33800
N  52.02500 24.55100 42.37300
C  51.11200 25.48800 42.39000
C  49.77200 25.05600 41.83100
C  49.91500 23.56400 41.94500
C  51.42900 23.36200 42.06900
C  49.19800 23.07800 43.25200
C  49.46800 25.46100 40.30700
C  50.49700 24.98000 39.24600
H  50.85600 25.80100 37.98700
N  54.42600 22.59400 42.61100
C  53.46500 21.76400 42.04700
C  54.06900 20.56200 41.69000
C  55.46000 20.67900 42.00800
C  55.68000 22.04700 42.45200
C  53.33900 19.40400 41.10000
C  56.50300 19.55800 41.82000
O  56.14800 18.48700 41.33000
C  58.00400 19.59700 42.19800
N  56.13600 24.98000 43.35200
C  57.09800 24.04500 43.15600
C  58.51500 24.64600 43.33500
C  58.17700 26.07900 43.84200
C  56.65400 26.10100 43.87000
C  59.31000 23.76800 44.39600
C  58.86300 27.24300 43.07500
C  59.84400 28.33300 43.66700
N  53.66000 26.51600 43.82700
C  54.51800 27.50000 44.27700
C  53.80800 28.72500 44.49400
C  52.54800 28.44900 44.00300
C  52.55900 27.10700 43.48200
C  54.23100 30.01000 45.07600
C  51.26000 29.03500 43.68700
O  50.74100 30.15200 43.99800
C  50.47100 27.99500 42.92200
C  50.24000 28.50700 41.51600
O  51.10800 28.64700 40.64500
O  48.84900 28.72100 41.25800
C  48.42500 28.86800 39.89400
H  51.36000 21.32300 41.67700
H  57.80600 22.15300 42.53200
H  56.35100 28.12400 44.71700
H  48.95200 25.47500 42.41500
H  49.59900 23.08800 41.01600
H  48.96100 22.01500 43.21100
H  48.28400 23.64000 43.44400
H  49.90300 23.10000 44.08300
H  49.37700 26.54700 40.29900
H  48.50300 25.10500 39.94500
H  50.02000 24.11300 38.78900
H  51.50500 24.88700 39.65000
H  53.71200 18.52700 41.62900
H  53.58600 19.20700 40.05600
H  52.29700 19.32300 41.40900
H  58.03300 20.08900 43.17000
H  58.46700 20.29200 41.49800
H  58.44600 18.60100 42.19000
H  58.91100 24.57100 42.32200
H  58.51300 26.23400 44.86700
H  59.67700 22.80000 44.05200
H  58.71900 23.84100 45.30800
H  60.23600 24.27000 44.67700
H  58.06300 27.74200 42.52800
H  59.35800 26.67700 42.28600
H  60.51900 27.92500 44.42000
H  59.21400 29.12000 44.08000
H  60.48100 28.82000 42.92900
H  53.91900 30.17500 46.10700
H  53.74900 30.75900 44.44800
H  55.28100 30.29500 45.01200
H  49.53300 27.84400 43.45700
H  48.04600 29.87900 39.74400
H  47.69000 28.07900 39.73600
H  49.21500 28.73100 39.15600
Mg 9.34200 48.79800 25.98900
C  7.27100 49.16300 28.85900
C  11.99000 49.85100 27.79800
C  11.06100 48.68100 23.11800
C  6.37000 48.32700 24.12100
N  9.54500 49.33900 28.11000
C  8.58600 49.33400 29.14700
C  9.31200 49.63700 30.42200
C  10.67000 50.31400 29.94000
C  10.78200 49.81600 28.48200
C  10.61300 51.84600 30.12700
C  9.60300 48.37600 31.28000
C  9.87400 48.55400 32.71800
H  9.94400 47.33600 33.61400
N  11.26500 49.14600 25.55700
C  12.26800 49.48200 26.50400
C  13.47800 49.38100 25.78400
C  13.25700 49.15900 24.40200
C  11.81100 48.96000 24.28400
C  14.83400 49.61500 26.50200
C  14.23700 49.11900 23.28100
O  13.92600 48.90900 22.09700
C  15.67200 49.44700 23.58800
N  8.80300 48.61000 23.95200
C  9.69900 48.54200 22.95900
C  9.02700 48.30000 21.53200
C  7.55500 48.44200 21.83900
C  7.57100 48.47500 23.42600
C  9.55100 49.20900 20.38800
C  6.64500 47.35400 21.27600
C  5.66700 47.77500 20.16300
N  7.28000 48.56700 26.34700
C  6.20100 48.35800 25.49000
C  4.97400 48.31500 26.20900
C  5.37500 48.66600 27.56600
C  6.77600 48.86500 27.56800
C  3.65800 48.16700 25.56600
C  4.85300 48.93500 28.87400
O  3.71800 49.09500 29.36100
C  6.11300 49.13600 29.79300
C  6.18000 47.94800 30.74800
O  6.08700 46.76400 30.41600
O  6.46000 48.46300 31.98500
C  6.53600 47.43500 33.02500
H  12.84700 50.27600 28.32500
H  11.68800 48.60300 22.22800
H  5.43600 48.24000 23.56200
H  8.60600 50.24700 30.98700
H  11.49100 49.92800 30.54500
H  9.57700 52.18100 30.08000
H  11.04500 52.34200 29.25700
H  11.06500 52.03500 31.10100
H  10.59700 48.06500 30.95700
H  8.96000 47.53300 31.02600
H  9.04900 49.10600 33.16800
H  10.76400 49.17900 32.80000
H  14.55500 49.82500 27.53500
H  15.38600 50.49500 26.17200
H  15.43800 48.70800 26.50700
H  16.11000 48.85700 24.39200
H  15.66700 50.47800 23.94300
H  16.28100 49.52800 22.68800
H  9.12300 47.26300 21.20900
H  7.07200 49.39100 21.60500
H  8.69300 49.71900 19.95200
H  10.08200 48.55200 19.69900
H  10.30100 49.89200 20.78800
H  5.97000 46.92100 22.01400
H  7.21300 46.52400 20.85400
H  4.67900 47.65200 20.60800
H  5.73000 47.02100 19.37900
H  5.78400 48.78900 19.78000
H  3.57600 47.24600 24.98900
H  3.47500 49.01600 24.90800
H  2.89000 48.22000 26.33700
H  5.92600 50.02200 30.40000
H  5.72400 46.71800 32.90300
H  6.46900 47.85000 34.03100
H  7.47900 46.89200 32.97200

