158

Mg 36.16100 2.82700 30.93700
C  33.27100 3.19100 32.86400
C  37.97500 3.19900 33.76800
C  38.81200 2.01200 29.18900
C  34.30800 3.00400 28.04200
N  35.57900 3.09800 33.03900
C  34.40900 3.13600 33.65200
C  34.54100 3.10200 35.17200
C  36.06900 3.44700 35.36100
C  36.61100 3.25100 33.95200
C  36.26500 4.96600 35.82100
C  34.17700 1.71100 35.67400
C  33.89900 1.67700 37.21400
H  34.40500 2.77900 38.19100
N  38.15200 2.60500 31.40100
C  38.72300 2.87000 32.61600
C  40.17400 2.49900 32.54400
C  40.38500 1.97600 31.24800
C  39.08700 2.17700 30.53000
C  41.24500 2.62400 33.74400
C  41.55200 1.14600 30.72500
O  41.55500 0.61900 29.60900
C  42.67700 0.90500 31.69700
N  36.59600 2.88800 28.82400
C  37.80200 2.42500 28.32700
C  37.79800 2.03900 26.87800
C  36.25200 2.29900 26.51400
C  35.70600 2.82200 27.86400
C  38.82000 2.76900 26.07900
C  35.45700 1.12600 25.84900
C  35.10600 1.35100 24.33700
N  34.18800 2.97000 30.50500
C  33.59200 3.15000 29.28400
C  32.13600 3.48300 29.50100
C  31.91100 3.41500 30.88500
C  33.23900 3.18100 31.43000
C  31.08500 3.78600 28.35600
C  30.99300 3.52500 32.04500
O  29.79100 3.67500 32.07200
C  31.86700 3.42700 33.33600
C  31.66700 4.71200 34.00900
O  32.27000 5.75100 33.70200
O  30.89700 4.57200 35.15600
C  31.19900 5.48700 36.26300
H  38.71000 3.27500 34.57200
H  39.59400 1.39100 28.74800
H  33.65600 2.98300 27.16700
H  33.92600 3.93700 35.50600
H  36.56300 2.80400 36.08900
H  36.83800 5.49700 35.06100
H  36.79400 4.99400 36.77300
H  35.34300 5.54100 35.91300
H  34.95500 0.95100 35.60500
H  33.35100 1.28300 35.10600
H  34.22800 0.69100 37.54500
H  32.81000 1.67000 37.26700
H  40.81400 3.17500 34.58000
H  42.14800 3.08000 33.33700
H  41.43600 1.59700 34.05700
H  43.08200 1.86100 32.02900
H  43.40700 0.40200 31.06300
H  42.32600 0.22900 32.47700
H  38.03300 0.98500 26.73200
H  36.25200 3.22000 25.93000
H  38.33700 3.51500 25.44800
H  39.53600 2.10300 25.59800
H  39.35800 3.38400 26.80000
H  34.53500 0.92400 26.39300
H  36.00000 0.18100 25.81600
H  35.74800 0.75300 23.69000
H  35.04800 2.39500 24.02800
H  34.08600 1.06200 24.08500
H  31.44900 4.34200 27.49200
H  30.30100 4.42100 28.76700
H  30.66700 2.79800 28.16500
H  31.38800 2.70700 34.00000
H  32.25600 5.74400 36.20800
H  31.01000 4.84200 37.12100
H  30.50500 6.32800 36.27100
Mg -2.09300 35.07500 26.52900
C  -3.41700 33.66500 29.39300
C  -0.73400 37.58200 28.53700
C  -1.16200 36.79200 23.79600
C  -3.71600 32.80100 24.57900
N  -2.20200 35.66800 28.68100
C  -2.66400 34.75100 29.70800
C  -2.27400 35.39500 31.01500
C  -1.51700 36.66900 30.76900
C  -1.44400 36.62700 29.25300
C  -2.25700 37.97000 31.31100
C  -1.56000 34.35200 31.95900
C  -1.67600 34.61600 33.49900
H  -2.51600 33.70000 34.41700
N  -1.04500 36.97500 26.18800
C  -0.58300 37.84200 27.13600
C  0.19700 38.86800 26.45300
C  -0.02300 38.75900 25.06800
C  -0.70900 37.45600 24.93400
C  0.96400 39.85900 27.30500
C  0.48600 39.61700 23.96000
O  0.39800 39.18400 22.77800
C  1.20900 40.91200 24.24000
N  -2.31300 34.76300 24.48400
C  -1.83400 35.62300 23.53400
C  -2.01900 35.01300 22.11200
C  -2.53800 33.57800 22.40400
C  -2.94300 33.72500 23.84500
C  -2.70200 35.82600 21.06300
C  -1.58600 32.37400 22.16600
C  -0.14500 32.30800 22.77000
N  -3.34100 33.54600 26.85400
C  -3.91800 32.70200 25.94300
C  -4.71500 31.74000 26.72000
C  -4.56200 32.12400 28.03100
C  -3.74800 33.23100 28.05800
C  -5.37100 30.56600 26.23200
C  -4.92600 31.71700 29.36000
O  -5.60200 30.79300 29.78200
C  -4.41000 32.83700 30.26000
C  -5.52900 33.61800 30.78200
O  -5.97000 34.65300 30.30600
O  -5.99500 33.00600 31.85900
C  -7.25300 33.40800 32.44700
H  -0.28100 38.32300 29.19900
H  -0.90200 37.33100 22.88300
H  -4.10700 31.95700 24.00600
H  -3.16900 35.61400 31.59800
H  -0.53600 36.67500 31.24400
H  -2.55300 38.65600 30.51700
H  -1.56400 38.44000 32.00900
H  -3.15400 37.75800 31.89200
H  -0.50900 34.28600 31.67600
H  -1.83900 33.31100 31.79900
H  -2.18000 35.58000 33.57000
H  -0.63700 34.66500 33.82200
H  0.98500 39.78700 28.39200
H  0.55200 40.86200 27.19100
H  1.99300 39.80200 26.95100
H  0.53200 41.68400 24.60500
H  1.75800 41.31300 23.38800
H  1.94800 40.59400 24.97600
H  -0.97400 34.95700 21.80600
H  -3.42000 33.39600 21.78900
H  -2.85300 36.83100 21.45800
H  -3.59300 35.37100 20.62900
H  -1.98300 35.92100 20.25000
H  -1.55400 32.22900 21.08600
H  -2.02600 31.42100 22.46000
H  -0.17700 31.77800 23.72200
H  0.17700 33.33700 22.93100
H  0.49700 31.86900 22.00600
H  -6.39500 30.58300 26.60500
H  -4.83600 29.69300 26.60600
H  -5.28900 30.58100 25.14500
H  -4.00000 32.21900 31.05800
H  -7.13700 34.26700 33.10700
H  -7.65700 32.54900 32.98200
H  -8.06600 33.55000 31.73400

