158

Mg 45.40900 2.88500 47.99500
C  43.20000 5.67700 47.10800
C  42.58900 0.87600 48.09600
C  47.39500 0.37500 48.04800
C  48.01000 5.22200 47.37500
N  43.15400 3.22800 47.44600
C  42.50300 4.40700 47.22500
C  40.95300 4.24700 47.21300
C  40.86000 2.68400 47.59800
C  42.28900 2.23000 47.79100
C  40.04700 2.49000 48.91600
C  40.29300 4.47400 45.80800
C  39.33100 5.60400 45.55900
H  39.62300 6.56300 44.34300
N  45.03100 0.85800 48.09800
C  43.82400 0.14600 48.19400
C  44.01400 -1.18600 48.36900
C  45.41700 -1.37400 48.24000
C  46.05100 -0.07000 48.10300
C  42.91600 -2.24400 48.30200
C  46.09200 -2.78900 48.31900
O  45.41500 -3.83900 48.57300
C  47.50400 -2.88700 48.12100
N  47.38700 2.72300 47.40500
C  48.00100 1.60400 47.75000
C  49.57700 1.86300 47.55600
C  49.65900 3.35500 47.35600
C  48.25600 3.84100 47.36800
C  50.47800 1.24100 48.70300
C  50.47600 3.85100 46.13600
C  51.85500 4.54900 46.52100
N  45.65200 5.05400 47.40800
C  46.75200 5.80400 47.34400
C  46.35800 7.19700 47.26200
C  44.99200 7.22300 47.14300
C  44.57100 5.86600 47.19500
C  47.24000 8.38900 47.31000
C  43.80500 8.05800 46.89300
O  43.67100 9.24100 46.70100
C  42.59000 7.07400 47.07300
C  41.80300 7.44500 48.34000
O  41.89100 6.96200 49.47200
O  40.99400 8.53500 47.98600
C  40.05200 8.94600 49.00500
H  41.67800 0.27500 48.08200
H  48.17300 -0.39100 48.05900
H  48.84100 5.93000 47.37700
H  40.41500 4.89100 47.90800
H  40.39600 2.07400 46.82200
H  39.48900 3.40900 49.09600
H  40.66100 2.30700 49.79800
H  39.30400 1.70400 48.78300
H  39.81300 3.54800 45.49000
H  41.07000 4.60900 45.05600
H  39.21500 6.31700 46.37500
H  38.40000 5.05300 45.42700
H  43.23500 -3.01100 49.00800
H  43.06500 -2.69300 47.32000
H  41.89300 -1.95600 48.54000
H  47.78200 -3.94100 48.13400
H  48.04900 -2.38600 48.92100
H  47.94300 -2.52900 47.19000
H  49.89700 1.35800 46.64400
H  50.20000 3.77000 48.20600
H  51.00800 0.37300 48.31100
H  49.89100 1.01500 49.59200
H  51.21900 1.98800 48.98900
H  49.81400 4.42200 45.48500
H  50.82500 2.98100 45.57900
H  51.78400 5.56700 46.13700
H  52.67800 3.92100 46.18100
H  51.99000 4.60000 47.60200
H  48.25700 8.07000 47.08000
H  47.17200 8.84000 48.30000
H  46.89900 9.15200 46.61000
H  41.94000 7.25700 46.21700
H  40.29400 10.00900 49.02700
H  40.22300 8.45900 49.96500
H  39.00700 8.87100 48.70200
Mg 0.41200 43.87800 26.23500
C  1.96300 43.98500 29.36700
C  -2.50200 43.16500 27.99900
C  -1.00200 43.16600 23.30800
C  3.62400 44.23100 24.72700
N  -0.21800 43.54200 28.51000
C  0.61300 43.79600 29.52600
C  -0.21400 43.64200 30.90800
C  -1.60600 43.18600 30.43400
C  -1.42900 43.31800 28.91100
C  -1.96700 41.80100 30.90600
C  -0.23800 45.01800 31.66500
C  -0.43400 44.97100 33.22700
H  -0.81700 43.68200 34.00700
N  -1.52700 43.42100 25.74200
C  -2.59600 43.17400 26.57500
C  -3.74500 42.78900 25.67900
C  -3.33500 42.91400 24.32200
C  -1.90000 43.15400 24.43400
C  -5.10900 42.46200 26.16500
C  -4.15800 42.71900 22.99200
O  -3.71800 42.86800 21.87200
C  -5.60800 42.28400 23.01300
N  1.19500 43.75300 24.33400
C  0.40100 43.46600 23.29900
C  1.18600 43.44200 21.96200
C  2.55200 44.11300 22.36500
C  2.49500 44.06800 23.90400
C  1.34200 42.15000 21.18300
C  2.75900 45.49900 21.85200
C  3.46600 45.56600 20.48100
N  2.46200 44.07000 26.81200
C  3.63400 44.15900 26.12700
C  4.68000 44.33700 27.13600
C  4.08600 44.25700 28.40500
C  2.70700 44.10500 28.15300
C  6.16200 44.52500 26.80800
C  4.33400 44.18700 29.82100
O  5.36400 44.17200 30.48500
C  3.01300 44.11600 30.49000
C  3.13900 42.99300 31.38400
O  3.16700 41.84000 31.03000
O  3.01100 43.39300 32.68300
C  3.03500 42.22200 33.56900
H  -3.36500 43.02800 28.65500
H  -1.51700 42.98400 22.36300
H  4.53400 44.47300 24.17500
H  0.30500 42.95700 31.57800
H  -2.35300 43.93600 30.69000
H  -2.96400 41.80200 31.34600
H  -1.21900 41.32700 31.54200
H  -1.98900 41.16600 30.02000
H  -0.93200 45.76000 31.26900
H  0.73900 45.49500 31.58700
H  -1.03600 45.79500 33.60900
H  0.57000 45.25500 33.54300
H  -5.94500 43.08500 25.84800
H  -5.16800 42.12100 27.19900
H  -5.40200 41.50700 25.72900
H  -6.26700 43.02900 23.45900
H  -5.81200 41.33600 23.50900
H  -5.88400 42.04100 21.98600
H  0.62400 44.16000 21.36500
H  3.40200 43.45100 22.20300
H  2.28100 42.13100 20.62900
H  0.54900 42.03900 20.44300
H  1.37100 41.26900 21.82400
H  3.32900 46.15800 22.50700
H  1.82500 46.05400 21.75700
H  2.68700 45.75700 19.74200
H  3.82500 44.59000 20.15400
H  4.22300 46.35000 20.46300
H  6.81800 43.92300 27.43700
H  6.30900 45.58000 27.04000
H  6.42200 44.40600 25.75600
H  2.89400 45.01900 31.08800
H  3.89900 41.57700 33.40500
H  2.14700 41.59700 33.46900
H  3.04000 42.41500 34.64100

