158

Mg 7.78000 3.35400 28.07300
C  9.30000 1.79300 30.88200
C  6.27200 5.56200 30.16000
C  6.23800 4.60700 25.43700
C  8.93200 0.72300 26.15500
N  7.72300 3.52200 30.32700
C  8.59000 2.97200 31.21600
C  8.39400 3.67900 32.64600
C  7.27700 4.71300 32.42500
C  7.12200 4.63500 30.84800
C  5.91500 4.46400 33.12800
C  9.75600 4.29100 33.16100
C  10.27500 3.66900 34.45800
H  10.43800 4.51200 35.78300
N  6.47200 4.95200 27.79200
C  5.98500 5.73600 28.75600
C  5.25800 6.85300 28.12200
C  5.23900 6.57300 26.80400
C  5.94000 5.29200 26.58700
C  4.54100 8.05000 28.78000
C  4.70900 7.40800 25.56800
O  4.47300 6.89300 24.46800
C  4.39300 8.88600 25.78800
N  7.73700 2.86900 26.08000
C  7.08700 3.53700 25.14000
C  7.23700 2.89000 23.77400
C  8.17500 1.70600 23.99900
C  8.22000 1.70500 25.49600
C  5.96200 2.49500 23.07600
C  9.70000 1.78600 23.38600
C  10.35400 0.48100 22.99400
N  8.92800 1.62100 28.44300
C  9.35500 0.64700 27.47200
C  10.12600 -0.40000 28.13700
C  10.05500 0.00900 29.48000
C  9.35200 1.21300 29.61200
C  10.85100 -1.49700 27.52200
C  10.53000 -0.30300 30.80600
O  11.30800 -1.19100 31.15300
C  10.19500 0.85500 31.72700
C  9.46800 0.28600 32.91700
O  8.36600 -0.15700 33.05000
O  10.42100 0.37000 33.91200
C  10.03100 -0.05900 35.24900
H  5.96500 6.47100 30.68100
H  5.83700 5.01900 24.50900
H  9.32900 -0.08300 25.53500
H  8.01600 2.96600 33.37800
H  7.71300 5.68100 32.67000
H  5.12700 4.55400 32.37900
H  5.72000 5.27400 33.83000
H  5.84600 3.53000 33.68600
H  9.77100 5.37700 33.24200
H  10.53400 4.20800 32.40300
H  11.26500 3.24100 34.30100
H  9.66900 2.82500 34.78600
H  4.75500 8.00800 29.84800
H  3.51400 7.70600 28.65700
H  4.78100 9.06000 28.44800
H  5.16300 9.45600 26.30700
H  3.55100 8.93600 26.47700
H  4.15700 9.39900 24.85500
H  7.58300 3.67400 23.10100
H  7.81300 0.72900 23.67700
H  5.03400 2.63900 23.63100
H  5.91700 1.49400 22.64800
H  5.88400 3.20600 22.25400
H  10.38000 2.36300 24.01200
H  9.62700 2.46700 22.53900
H  10.73300 0.50300 21.97200
H  9.68300 -0.37300 23.08800
H  11.18200 0.26900 23.67000
H  10.67100 -1.58100 26.45000
H  10.65100 -2.47500 27.95800
H  11.91400 -1.30600 27.67200
H  10.93800 1.57300 32.07500
H  9.37000 0.70800 35.65200
H  10.99600 -0.11800 35.75200
H  9.68700 -1.09300 35.24500
Mg 25.10900 1.25200 30.27300
C  27.56000 1.19700 32.65800
C  22.64900 1.63200 32.71200
C  22.73400 1.25200 27.84800
C  27.54200 1.04300 27.86500
N  25.08700 1.47200 32.45200
C  26.27800 1.52900 33.17900
C  25.98900 1.91700 34.59600
C  24.33500 2.15000 34.56900
C  23.98700 1.74700 33.21600
C  23.65900 1.34700 35.67200
C  26.82700 2.98600 35.33600
C  26.12600 3.53400 36.56000
H  26.00700 2.74600 37.86800
N  22.99200 1.24700 30.29500
C  22.15200 1.45300 31.37500
C  20.74900 1.44100 30.88700
C  20.74600 1.23300 29.47700
C  22.20300 1.21900 29.12400
C  19.63100 1.40200 31.88000
C  19.61700 1.07800 28.52300
O  19.74300 0.77900 27.29500
C  18.25500 1.27400 29.02700
N  25.13600 1.12300 28.18700
C  24.03300 1.17400 27.40700
C  24.42900 1.60600 25.97000
C  25.93600 1.29400 25.93300
C  26.24600 1.23900 27.42700
C  23.63000 1.00600 24.80300
C  26.84300 2.37900 25.16200
C  26.96000 3.77900 25.80700
N  27.17200 0.96000 30.22400
C  28.05900 0.87700 29.17400
C  29.32700 0.58200 29.65500
C  29.19200 0.84400 31.02200
C  27.84500 0.95000 31.29200
C  30.51600 0.29400 28.77800
C  29.97400 0.99900 32.20000
O  31.17000 1.06900 32.32900
C  28.94700 1.29300 33.34600
C  29.07900 0.24300 34.31600
O  28.86500 -0.96400 34.15000
O  29.42800 0.88500 35.53800
C  29.27200 0.11900 36.77000
H  21.94300 1.87000 33.51000
H  22.01600 1.58900 27.09700
H  28.25100 1.16600 27.04300
H  26.18000 1.03800 35.21100
H  24.11600 3.21800 34.57100
H  23.30300 2.12100 36.35200
H  24.39700 0.65900 36.08300
H  22.83000 0.74400 35.30100
H  27.03000 3.73600 34.57100
H  27.73000 2.43200 35.59200
H  25.14400 3.99200 36.43500
H  26.63300 4.44900 36.86600
H  19.06500 2.33200 31.94400
H  19.88000 1.11100 32.90000
H  19.02400 0.53900 31.60700
H  17.99100 0.35700 29.55500
H  17.55800 1.45800 28.21000
H  18.12900 2.05300 29.77900
H  24.18500 2.66600 25.91100
H  26.04200 0.32800 25.43900
H  24.35900 0.71600 24.04600
H  22.92600 1.64000 24.26400
H  23.15000 0.08000 25.11900
H  26.18800 2.57000 24.31300
H  27.75700 1.85400 24.88200
H  26.24800 3.87500 26.62700
H  26.75700 4.59700 25.11600
H  27.91800 3.91600 26.30700
H  31.14100 -0.57100 29.00100
H  31.23800 1.10200 28.88900
H  30.16300 0.28600 27.74700
H  29.21900 2.22100 33.84800
H  28.85500 -0.85100 36.49800
H  28.75300 0.66100 37.56100
H  30.26600 -0.09800 37.16000

