158

Mg 50.64700 45.10700 42.51900
C  47.34300 45.71800 41.33400
C  50.17300 41.84500 41.32200
C  53.76800 44.73500 42.88700
C  50.79300 48.53200 43.16100
N  48.92300 43.95200 41.44900
C  47.65200 44.40000 41.15100
C  46.81900 43.28100 40.47000
C  47.57200 41.99100 41.01100
C  49.03000 42.61100 41.23100
C  47.08300 41.26400 42.31100
C  46.59600 43.45300 38.95400
C  45.17100 43.31700 38.48000
H  44.84700 42.33700 37.33400
N  51.81900 43.45500 42.25600
C  51.44900 42.19300 41.82800
C  52.60400 41.36300 41.84700
C  53.66300 42.13400 42.39600
C  53.13600 43.52600 42.52700
C  52.53100 39.90500 41.45700
C  55.01900 41.62500 42.69700
O  55.21600 40.41800 42.72800
C  56.25500 42.52400 43.04800
N  52.07800 46.47500 42.78400
C  53.38200 46.04000 43.04800
C  54.26100 47.23800 43.38200
C  53.30900 48.39100 43.65100
C  51.92300 47.73200 43.24900
C  55.19600 46.93300 44.59800
C  53.48400 49.73600 42.90200
C  53.26700 51.06100 43.71600
N  49.40100 46.79200 42.32200
C  49.61100 48.12300 42.66900
C  48.46400 48.92800 42.37100
C  47.52800 48.01900 41.83100
C  48.13400 46.72300 41.84300
C  48.17900 50.43800 42.68600
C  46.20200 47.87600 41.37200
O  45.27800 48.70700 41.25600
C  46.07700 46.41800 40.95600
C  44.88700 45.88200 41.71600
O  44.96300 45.28500 42.78600
O  43.69800 46.13000 41.13400
C  42.55900 45.34700 41.62500
H  49.87300 40.83100 41.04900
H  54.85800 44.72700 42.95800
H  50.75200 49.60200 43.37200
H  45.87000 43.38800 40.99600
H  47.69600 41.23900 40.23200
H  47.81500 41.35600 43.11300
H  46.96900 40.18600 42.19800
H  46.05600 41.60900 42.43000
H  47.15300 42.57900 38.61600
H  47.03500 44.37500 38.57500
H  44.85500 44.30800 38.15400
H  44.61500 43.06800 39.38400
H  53.32300 39.54500 40.80100
H  51.63700 39.57100 40.93000
H  52.44100 39.42100 42.43000
H  56.20900 42.99400 44.03100
H  56.32900 43.23800 42.22800
H  57.11700 41.85600 43.07800
H  54.86100 47.30600 42.47400
H  53.29200 48.57400 44.72500
H  55.01600 46.04100 45.19800
H  55.13900 47.83800 45.20300
H  56.24000 46.87100 44.29000
H  52.74900 49.68900 42.09800
H  54.51300 49.65900 42.55100
H  52.98300 50.82000 44.74000
H  52.40800 51.64000 43.37900
H  54.12200 51.73300 43.78900
H  47.16400 50.56300 43.06100
H  48.27100 50.99300 41.75300
H  48.86500 50.86100 43.42000
H  45.93300 46.31400 39.88000
H  41.72800 45.32400 40.92100
H  42.12400 45.65300 42.57700
H  42.97200 44.35200 41.79500
Mg 8.62300 48.52600 25.32700
C  6.23400 49.11700 27.82100
C  11.07400 49.42700 27.59700
C  10.75000 48.01600 22.95800
C  5.93800 48.16700 23.04400
N  8.60000 49.21400 27.47300
C  7.52600 49.30400 28.31500
C  8.01000 49.59000 29.73900
C  9.44500 50.28800 29.44400
C  9.77000 49.53500 28.11700
C  9.39700 51.85500 29.08200
C  8.25300 48.34700 30.62500
C  8.51100 48.71400 32.09900
H  8.09800 47.72100 33.16900
N  10.65200 48.65500 25.32800
C  11.52900 49.04900 26.35800
C  12.89300 48.94400 25.86100
C  12.86000 48.44300 24.55200
C  11.40800 48.24500 24.23000
C  14.15400 49.38900 26.68500
C  13.95000 48.19900 23.40300
O  13.73800 47.96100 22.21600
C  15.32800 48.42600 23.83000
N  8.35600 48.14800 23.35300
C  9.45700 47.98900 22.56000
C  9.05800 47.69900 21.07900
C  7.51800 47.74400 21.17100
C  7.24100 48.03500 22.56900
C  9.65500 48.75400 20.07700
C  6.78800 46.52300 20.67100
C  5.66800 46.87300 19.61900
N  6.55900 48.71500 25.33900
C  5.57100 48.44500 24.37300
C  4.28000 48.47200 24.99300
C  4.51300 48.76700 26.28600
C  5.90300 48.83200 26.48200
C  2.80800 48.34500 24.37800
C  3.78500 48.97400 27.59000
O  2.57700 48.93300 27.92100
C  4.92900 49.34000 28.57000
C  4.73400 48.54100 29.80700
O  5.05200 47.45100 30.02200
O  4.11000 49.36300 30.71600
C  3.94500 48.80700 32.13500
H  11.83900 49.78700 28.28800
H  11.41000 47.70800 22.14500
H  5.23200 48.05300 22.21800
H  7.29200 50.26200 30.20800
H  10.27200 50.08000 30.12300
H  8.35700 52.16100 29.20200
H  9.64400 51.98100 28.02800
H  10.14700 52.42200 29.63300
H  8.94700 47.65900 30.14300
H  7.29300 47.83300 30.57900
H  8.16500 49.74100 32.21600
H  9.58900 48.87800 32.09100
H  13.96100 49.39200 27.75800
H  14.46300 50.36700 26.31800
H  15.04100 48.79200 26.47400
H  15.32700 49.37900 24.35800
H  16.01500 48.26200 23.00000
H  15.56500 47.61100 24.51300
H  9.46200 46.70000 20.91900
H  7.16800 48.63700 20.65300
H  10.44300 49.28500 20.61300
H  8.79300 49.38300 19.85800
H  10.01400 48.21100 19.20300
H  6.49200 45.95700 21.55400
H  7.51700 45.96600 20.08200
H  5.51800 45.96400 19.03700
H  5.98500 47.65300 18.92600
H  4.79300 47.23600 20.15900
H  2.59300 47.31600 24.09200
H  2.80500 48.96300 23.47900
H  2.07600 48.55000 25.16000
H  4.85100 50.38600 28.86800
H  2.90500 48.50300 32.25700
H  4.24200 49.58300 32.84100
H  4.56200 47.95400 32.41300

