158

Mg 41.29000 40.92500 26.10000
C  40.59500 43.28800 28.67100
C  42.45900 38.83000 28.48600
C  42.11900 38.80300 23.66100
C  40.38800 43.36200 23.76400
N  41.36700 41.06100 28.32900
C  41.09000 42.09200 29.19300
C  41.22700 41.70600 30.66600
C  41.97200 40.29900 30.57600
C  41.97500 40.02800 29.03300
C  43.44900 40.28800 31.15100
C  39.85600 41.72700 31.44600
C  39.63100 42.86500 32.39800
H  39.59400 42.24900 33.77000
N  42.08400 39.11700 26.03900
C  42.48800 38.35300 27.13100
C  42.98400 37.03100 26.70000
C  43.13600 37.11000 25.27100
C  42.42900 38.37900 24.86300
C  43.54200 35.97900 27.67500
C  43.60700 36.12900 24.21300
O  43.69100 36.34900 23.02300
C  44.03500 34.85000 24.68400
N  41.27300 41.08500 24.02700
C  41.51600 39.98100 23.24300
C  41.19800 40.32600 21.69400
C  40.38300 41.62100 21.88500
C  40.73200 42.06800 23.31200
C  42.47100 40.51700 20.87100
C  38.82100 41.38300 21.66700
C  38.10200 40.56000 22.81800
N  40.60900 42.91900 26.19400
C  40.28800 43.70300 25.12800
C  39.95700 45.04500 25.64000
C  40.02900 44.84500 27.01200
C  40.45700 43.56700 27.33200
C  39.63200 46.25500 24.76200
C  39.81600 45.59200 28.29200
O  39.45700 46.72300 28.45800
C  40.20500 44.54800 29.40700
C  41.32900 45.18600 30.15000
O  42.44700 44.98000 29.84100
O  40.93400 45.89500 31.24200
C  42.03100 46.40300 32.09000
H  42.78200 38.10700 29.23900
H  42.09700 38.12200 22.80800
H  40.09800 44.10400 23.01800
H  41.92200 42.46900 31.01500
H  41.45600 39.52700 31.14600
H  43.72600 41.24000 31.60600
H  44.09200 40.02000 30.31200
H  43.54500 39.47700 31.87200
H  39.80200 40.77500 31.97300
H  38.99900 41.78700 30.77400
H  38.75800 43.46800 32.15000
H  40.40200 43.63500 32.40100
H  44.60100 36.23100 27.73000
H  43.44400 34.95600 27.31300
H  43.14500 36.17400 28.67100
H  44.69900 35.00100 25.53500
H  44.60100 34.32800 23.91300
H  43.10900 34.30000 24.84900
H  40.48600 39.62600 21.25800
H  40.67300 42.41700 21.19900
H  43.32700 40.16500 21.44700
H  42.55200 41.54800 20.52700
H  42.40400 39.85300 20.00900
H  38.60600 40.82300 20.75700
H  38.33400 42.35700 21.72300
H  38.26100 41.03600 23.78600
H  38.42100 39.52000 22.74900
H  37.02000 40.49400 22.70000
H  38.82500 46.83600 25.20700
H  39.27100 45.75500 23.86300
H  40.45800 46.90000 24.46400
H  39.40300 44.33500 30.11300
H  42.72200 46.90100 31.41000
H  42.57900 45.66600 32.67500
H  41.62600 47.19600 32.71900
Mg 6.86300 53.90400 41.73800
C  6.24500 50.39400 41.65800
C  10.06000 53.33600 41.12800
C  7.16800 57.25500 41.29500
C  3.43900 54.37700 42.54200
N  7.89600 52.06500 41.31800
C  7.57400 50.78500 41.49500
C  8.79600 49.87600 41.33400
C  9.99300 50.83400 41.53000
C  9.27800 52.20400 41.38100
C  10.79500 50.72600 42.81100
C  8.87000 49.13100 39.96900
C  8.75200 49.96200 38.70700
H  7.36200 49.96800 38.12000
N  8.34900 55.06500 41.03600
C  9.64000 54.67400 40.96000
C  10.46800 55.80000 40.58300
C  9.69400 56.97600 40.76200
C  8.31000 56.47700 40.94600
C  11.93400 55.63800 40.14400
C  10.22700 58.42500 40.59300
O  11.39300 58.57000 40.34900
C  9.49700 59.69600 40.83400
N  5.36900 55.62700 41.66200
C  5.89900 56.87200 41.77000
C  4.83000 57.82200 42.32200
C  3.49900 56.95900 42.44100
C  4.12200 55.55100 42.30200
C  5.21500 58.62000 43.60600
C  2.46200 57.34400 41.32300
C  1.19200 56.49200 41.31200
N  5.20200 52.72000 42.00200
C  3.89100 53.03900 42.35100
C  3.11500 51.84100 42.57400
C  4.00700 50.71800 42.30600
C  5.20700 51.35500 41.97300
C  1.66500 51.67600 42.88400
C  4.14300 49.29300 42.35800
O  3.35400 48.39300 42.69300
C  5.57500 49.01400 41.80900
C  5.29900 48.35400 40.45000
O  4.59500 48.83800 39.49900
O  5.83700 47.06100 40.50200
C  5.52600 46.20100 39.40300
H  11.13000 53.11800 41.10000
H  7.25900 58.34000 41.37800
H  2.45500 54.43300 43.01500
H  8.85200 49.24200 42.22000
H  10.58500 50.68100 40.62800
H  11.75900 50.22200 42.74700
H  10.37300 50.16800 43.64600
H  10.98000 51.74500 43.15100
H  8.07300 48.38800 39.97700
H  9.73300 48.46700 39.89900
H  9.49600 49.57600 38.01000
H  9.03700 50.99900 38.88100
H  12.31400 54.62600 40.00400
H  12.51200 56.38700 40.68500
H  11.91100 56.11200 39.16300
H  8.86100 59.91200 39.97600
H  10.25100 60.47700 40.93500
H  8.98900 59.66300 41.79800
H  4.54900 58.48300 41.50200
H  2.98500 57.00200 43.40200
H  4.89200 58.18500 44.55100
H  4.87800 59.65300 43.68400
H  6.30200 58.56700 43.66400
H  2.87500 57.39700 40.31600
H  2.22800 58.39200 41.51100
H  1.47200 55.68900 40.63000
H  0.45200 57.10700 40.79900
H  0.76900 56.13700 42.25100
H  1.35400 50.80800 42.30300
H  1.28400 52.68900 42.75600
H  1.66500 51.35500 43.92600
H  5.94300 48.31300 42.55800
H  4.45900 45.99200 39.49200
H  6.07300 45.26400 39.50900
H  5.80700 46.75200 38.50500

