158

Mg 25.81200 0.77600 29.31200
C  27.73300 0.55500 32.15900
C  22.99100 0.99600 30.99300
C  24.01500 0.25600 26.32400
C  28.73300 0.08500 27.37900
N  25.40500 0.56100 31.34700
C  26.32000 0.64400 32.40100
C  25.59400 0.65500 33.76400
C  24.07900 0.77300 33.28700
C  24.14800 0.74700 31.77900
C  23.05300 -0.27000 33.81700
C  26.20500 2.02800 34.40200
C  25.29700 2.91300 35.19600
H  26.02500 3.40800 36.55300
N  23.78300 0.71800 28.73300
C  22.76400 0.84600 29.62400
C  21.46700 0.52900 28.98400
C  21.78200 0.26600 27.60300
C  23.18300 0.45900 27.49500
C  20.16700 0.46600 29.73600
C  20.86700 -0.03800 26.42100
O  21.22600 -0.36700 25.25600
C  19.36500 -0.06600 26.66200
N  26.30000 0.31800 27.11800
C  25.37700 0.12900 26.14900
C  25.99600 0.00100 24.72800
C  27.54800 0.13300 25.09000
C  27.57600 0.19800 26.62500
C  25.61800 -1.24900 23.81800
C  28.32400 1.24700 24.39000
C  28.27200 2.64000 24.99800
N  27.78600 0.43700 29.61000
C  28.85900 0.18400 28.77400
C  30.07600 0.02900 29.55700
C  29.65200 0.20600 30.89100
C  28.26600 0.38600 30.88400
C  31.40800 -0.34900 28.94600
C  30.15100 0.24900 32.21500
O  31.25800 0.05000 32.62400
C  28.93100 0.57300 33.09500
C  28.76200 -0.41600 34.29100
O  28.14600 -1.42500 34.31000
O  29.41100 0.17700 35.33900
C  29.35900 -0.59700 36.57900
H  22.12100 1.25800 31.59800
H  23.40900 0.34500 25.42000
H  29.63000 -0.16700 26.80900
H  25.77400 -0.23100 34.37300
H  23.63700 1.74700 33.49400
H  22.66200 -0.84900 32.97900
H  22.28600 0.41300 34.18400
H  23.58100 -0.82500 34.59200
H  26.49000 2.73200 33.62100
H  26.97400 1.74200 35.12000
H  24.51200 2.23000 35.52100
H  24.90900 3.68200 34.52800
H  20.24500 0.86000 30.74900
H  19.92500 -0.58100 29.91900
H  19.35300 0.93300 29.18200
H  18.88800 -0.24200 25.69800
H  19.04200 0.91700 27.00600
H  19.07200 -0.90900 27.28800
H  25.71300 0.88000 24.14800
H  27.93800 -0.82700 24.75300
H  26.35300 -2.05200 23.87500
H  25.47300 -0.92500 22.78700
H  24.65700 -1.65200 24.14000
H  28.04800 1.18000 23.33700
H  29.36800 0.93400 24.39700
H  27.38600 3.07300 24.53500
H  29.12300 3.31400 24.90000
H  28.04100 2.66800 26.06300
H  32.29200 0.28800 28.93700
H  31.24100 -0.90000 28.02000
H  31.73200 -1.24700 29.47200
H  29.07100 1.58000 33.48800
H  29.43700 -1.68400 36.57900
H  28.45000 -0.38100 37.14000
H  30.21500 -0.33100 37.19900
Mg -1.24000 34.35000 25.77200
C  -2.97100 32.76900 28.33800
C  -0.19000 36.71100 27.98900
C  0.01900 36.01000 23.14100
C  -2.76100 32.06300 23.48700
N  -1.61600 34.71000 27.87700
C  -2.17900 33.84600 28.74400
C  -1.95700 34.29300 30.22300
C  -1.07900 35.61500 30.08400
C  -0.94200 35.67600 28.52200
C  -1.67700 36.86800 30.76100
C  -1.32800 33.33900 31.25700
C  -1.95900 33.31000 32.62700
H  -1.19000 32.57700 33.72300
N  -0.03000 36.01600 25.64000
C  0.18700 36.93300 26.61900
C  0.91700 38.02300 26.06200
C  1.09600 37.76100 24.64800
C  0.36700 36.51300 24.44300
C  1.53100 39.14600 26.91000
C  1.71400 38.64400 23.55900
O  1.62100 38.45800 22.39100
C  2.37000 39.88700 23.95400
N  -1.35300 34.08500 23.56700
C  -0.66700 34.85600 22.78500
C  -0.87300 34.39800 21.28500
C  -1.41900 32.94500 21.47300
C  -1.86700 32.99300 22.93200
C  -1.70800 35.24700 20.33500
C  -0.39300 31.71300 21.20500
C  0.26400 31.10300 22.51800
N  -2.57200 32.79300 25.86200
C  -3.04000 31.91500 24.87100
C  -3.91000 30.90800 25.39300
C  -3.90100 31.24700 26.75000
C  -3.01000 32.30900 26.97400
C  -4.80700 29.92800 24.65900
C  -4.52100 30.94700 27.97800
O  -5.34700 30.07200 28.21800
C  -3.86400 31.86000 29.10400
C  -4.91900 32.52000 29.96800
O  -5.53700 33.46700 29.56500
O  -5.04200 31.99100 31.23000
C  -5.97500 32.62300 32.16600
H  0.21100 37.42300 28.71400
H  0.44500 36.50200 22.26400
H  -3.11200 31.21700 22.89300
H  -2.92900 34.43500 30.69600
H  -0.03300 35.66100 30.38400
H  -2.32400 36.59900 31.59600
H  -2.14900 37.58200 30.08600
H  -0.93600 37.48700 31.26700
H  -0.29800 33.59700 31.50600
H  -1.22200 32.32600 30.87100
H  -2.91000 32.79500 32.49100
H  -2.12200 34.30500 33.04300
H  2.61600 39.09700 26.82000
H  1.34400 38.91000 27.95800
H  1.09300 40.10800 26.64500
H  1.63300 40.49200 24.48200
H  2.59800 40.47900 23.06700
H  3.31800 39.71100 24.46200
H  0.11000 34.35300 20.81700
H  -2.19700 32.87300 20.71300
H  -2.73800 34.91900 20.19500
H  -1.31500 35.37800 19.32700
H  -1.86400 36.24600 20.74300
H  0.34800 32.11300 20.51300
H  -0.87000 30.87900 20.69100
H  -0.02500 31.65900 23.41000
H  1.34800 31.21700 22.50200
H  0.04300 30.03600 22.52900
H  -4.32900 29.68400 23.71100
H  -5.71400 30.46000 24.37500
H  -4.93400 28.98700 25.19500
H  -3.13100 31.34200 29.72300
H  -6.64900 33.33300 31.68600
H  -5.45500 33.06100 33.01800
H  -6.52200 31.74100 32.49800

