158

Mg 48.46400 35.57100 27.55100
C  46.09400 34.10900 29.75200
C  48.83200 38.08000 29.73300
C  50.26200 37.06800 25.17500
C  47.58100 33.17200 25.26100
N  47.73000 35.83000 29.60900
C  46.84800 35.15300 30.38600
C  46.95000 35.56500 31.82400
C  47.43500 37.01700 31.64000
C  48.06800 36.98500 30.25800
C  46.35400 38.11000 31.78100
C  47.83200 34.62900 32.70700
C  48.23000 35.07300 34.15400
H  47.35600 36.09500 34.82800
N  49.41900 37.26300 27.50800
C  49.51400 38.24000 28.48600
C  50.36200 39.38500 28.05500
C  50.81400 39.04800 26.77900
C  50.12300 37.78300 26.39900
C  50.70700 40.58900 28.97400
C  51.64000 39.90500 25.79600
O  52.07900 39.52400 24.66900
C  52.21800 41.28800 26.25000
N  48.83400 35.20800 25.43800
C  49.66000 35.91200 24.70900
C  49.95600 35.26800 23.31000
C  49.35400 33.90200 23.44100
C  48.53300 34.10400 24.79700
C  49.50600 36.13000 22.14000
C  50.36000 32.69300 23.51600
C  50.03000 31.60400 22.45500
N  47.14700 34.01500 27.42600
C  46.87200 33.07300 26.42000
C  45.87900 32.15000 26.82000
C  45.50400 32.50400 28.16600
C  46.25900 33.57600 28.53500
C  45.32600 30.96500 26.12500
C  44.67600 32.20900 29.32000
O  43.86500 31.26100 29.47800
C  44.90700 33.33800 30.35700
C  44.93300 32.71600 31.74900
O  45.38400 31.57300 31.99100
O  44.26400 33.54700 32.61900
C  44.33500 33.10000 34.00600
H  48.82200 38.91100 30.44200
H  50.88700 37.58500 24.44400
H  47.41900 32.31800 24.60000
H  45.89700 35.49500 32.09700
H  48.18900 37.20200 32.40500
H  45.66000 37.85200 32.58100
H  45.72500 38.44800 30.95800
H  46.88800 38.99000 32.14100
H  48.72400 34.41200 32.12000
H  47.34600 33.65400 32.74100
H  49.24100 35.47900 34.17100
H  48.32500 34.13500 34.69900
H  50.02500 41.41600 28.78100
H  51.75400 40.85100 28.82800
H  50.67900 40.20400 29.99400
H  51.54700 41.81600 26.92700
H  52.35800 42.01100 25.44600
H  53.21200 41.09200 26.65200
H  51.04200 35.20200 23.23700
H  48.64200 33.66300 22.65000
H  48.52100 35.92600 21.72000
H  50.26000 36.29400 21.37000
H  49.45200 37.14800 22.52600
H  50.56200 32.41600 24.55100
H  51.37300 32.91800 23.18100
H  50.46400 30.63200 22.68800
H  50.57900 31.87900 21.55400
H  48.96200 31.46800 22.28500
H  44.85900 31.32800 25.21000
H  44.54000 30.46200 26.68800
H  46.17600 30.30800 25.94200
H  44.08500 34.05100 30.42200
H  45.38900 33.23200 34.25000
H  44.23400 32.03400 34.20900
H  43.81400 33.70600 34.74700
Mg 42.45600 41.83500 26.17100
C  41.42400 44.19100 28.57500
C  43.47900 39.77600 28.77700
C  43.74500 39.83400 23.87600
C  42.20600 44.40100 23.84700
N  42.44300 41.99300 28.44200
C  41.81900 42.94700 29.14600
C  41.78200 42.61900 30.68800
C  42.54800 41.22900 30.72800
C  42.83000 40.99000 29.21900
C  43.70100 41.03700 31.72600
C  40.35500 42.64000 31.44400
C  40.30400 43.69700 32.58400
H  39.43900 43.32800 33.76800
N  43.47700 40.10100 26.33500
C  43.67600 39.34600 27.43500
C  44.12100 37.99100 26.98800
C  44.15400 38.01400 25.57800
C  43.76500 39.37100 25.15400
C  44.64000 36.94000 27.90500
C  44.56200 36.85600 24.67600
O  44.45100 36.89300 23.43600
C  45.09700 35.62600 25.17800
N  42.78800 42.00700 24.18500
C  43.27200 41.06200 23.44600
C  43.52100 41.49600 21.96700
C  42.98000 42.97900 21.94900
C  42.61900 43.12000 23.42200
C  45.05800 41.35300 21.58400
C  41.85200 43.21400 20.92500
C  40.55300 42.42100 21.20400
N  41.80400 43.83500 26.11800
C  41.74500 44.76900 25.08800
C  41.09000 45.98200 25.46300
C  41.02500 45.86200 26.84800
C  41.46100 44.49700 27.17100
C  40.90800 47.19100 24.61900
C  40.63400 46.49800 28.06800
O  40.30000 47.65100 28.24900
C  40.93700 45.47200 29.23100
C  41.86500 46.15500 30.04100
O  43.07700 46.22500 29.82600
O  41.22600 46.48900 31.25300
C  42.21600 46.94200 32.24700
H  43.68200 39.06600 29.58100
H  44.14800 39.13200 23.14300
H  41.97500 45.00000 22.96400
H  42.42600 43.35300 31.17200
H  41.80100 40.54600 31.13300
H  43.95900 42.08200 31.89900
H  44.52200 40.47900 31.27500
H  43.37400 40.45900 32.59000
H  40.10900 41.66000 31.85300
H  39.65300 42.91600 30.65700
H  39.89200 44.58300 32.10100
H  41.30200 43.98100 32.91700
H  44.63800 37.35700 28.91200
H  45.68300 36.67700 27.72600
H  44.00800 36.05500 27.96900
H  44.50800 35.18300 25.98100
H  46.06600 35.82900 25.63600
H  45.34600 34.87900 24.42400
H  42.86400 40.86200 21.37300
H  43.77500 43.67100 21.67200
H  45.14500 40.39300 21.07300
H  45.64400 41.38700 22.50200
H  45.32600 42.16800 20.91200
H  42.31000 42.93800 19.97600
H  41.65300 44.28400 20.99200
H  40.29500 42.06000 20.20800
H  39.78700 43.15000 21.46600
H  40.77300 41.56500 21.84100
H  40.13200 46.72700 24.01000
H  41.77400 47.38000 23.98500
H  40.41400 48.01300 25.13700
H  39.99100 45.30700 29.74700
H  42.37700 46.15200 32.98200
H  41.77100 47.72600 32.85900
H  43.24100 47.27200 32.08000

