158

Mg 47.50800 24.95600 27.91600
C  48.32700 27.05200 30.78700
C  46.71800 22.48000 30.20000
C  46.94200 23.02600 25.41100
C  48.78300 27.46200 25.85600
N  47.60100 24.74100 30.27900
C  47.86800 25.76500 31.21900
C  47.69500 25.29400 32.68100
C  47.09500 23.82100 32.50700
C  47.15800 23.65800 30.93600
C  47.97500 22.67200 33.12300
C  46.68000 26.17500 33.47600
C  46.16800 25.60600 34.82800
H  45.93200 26.56600 35.95700
N  46.86200 22.98000 27.82500
C  46.59500 22.14400 28.84600
C  46.11200 20.88400 28.27700
C  46.03400 21.05900 26.85100
C  46.55900 22.43900 26.61300
C  45.84200 19.59600 29.04700
C  45.51900 20.10100 25.79100
O  45.49000 20.30800 24.57700
C  44.87000 18.80800 26.24300
N  47.69800 25.29200 25.91500
C  47.45400 24.25200 25.08400
C  47.65200 24.67400 23.64800
C  47.96700 26.20800 23.78400
C  48.27600 26.32300 25.23400
C  48.75400 23.93800 22.86500
C  46.71800 27.06200 23.41300
C  46.91700 28.24500 22.50300
N  48.48000 26.82000 28.22800
C  48.80700 27.73300 27.24600
C  49.24400 28.95000 27.91500
C  49.02300 28.74700 29.25600
C  48.49300 27.42800 29.45300
C  49.71400 30.14300 27.09200
C  49.07500 29.39100 30.53900
O  49.55000 30.43700 30.89800
C  48.52400 28.40300 31.65500
C  49.46000 28.28500 32.79100
O  50.44400 27.60200 32.84500
O  49.11600 29.25300 33.70200
C  49.63000 28.98500 35.08000
H  46.42400 21.71600 30.92300
H  46.81200 22.41000 24.51900
H  49.18200 28.21300 25.17100
H  48.63000 25.24500 33.24000
H  46.05100 23.80100 32.82200
H  48.68800 23.02700 33.86600
H  48.62500 22.28600 32.33800
H  47.33100 21.96600 33.64700
H  45.83000 26.33600 32.81300
H  47.25500 27.08700 33.63900
H  46.82100 24.80000 35.16400
H  45.19000 25.16400 34.63900
H  44.77300 19.41400 29.15400
H  46.33100 19.58400 30.02100
H  46.39300 18.78100 28.57700
H  45.47200 18.08900 26.80000
H  44.58100 18.21100 25.37900
H  43.99900 18.97900 26.87600
H  46.74700 24.47700 23.07400
H  48.82600 26.53200 23.19700
H  49.58400 24.54800 22.50800
H  48.24700 23.46700 22.02400
H  49.13300 23.10300 23.45400
H  46.31600 27.40300 24.36700
H  45.99000 26.40800 22.93300
H  46.51400 28.08600 21.50300
H  47.99200 28.41500 22.43800
H  46.39400 29.15300 22.80400
H  50.65000 29.83300 26.62700
H  49.85400 30.96500 27.79400
H  49.00100 30.41200 26.31200
H  47.56100 28.77200 32.00800
H  50.07200 29.92300 35.41600
H  50.43700 28.25400 35.08900
H  48.89900 28.62200 35.80300
Mg -5.50000 25.68100 26.03200
C  -4.26500 27.22900 29.05600
C  -7.35300 23.53600 28.10700
C  -6.38800 23.91100 23.40100
C  -3.23400 27.60700 24.21700
N  -5.82700 25.51100 28.31400
C  -5.23200 26.23000 29.27700
C  -5.80400 25.88600 30.67700
C  -6.46900 24.56400 30.36800
C  -6.52700 24.47800 28.80400
C  -5.54000 23.29200 30.83200
C  -6.67800 26.99100 31.35100
C  -6.79200 26.96700 32.86900
H  -6.07500 25.79900 33.63400
N  -6.74300 23.94300 25.74000
C  -7.42400 23.19800 26.75000
C  -8.33600 22.28100 26.05300
C  -8.06000 22.40900 24.65400
C  -7.02200 23.44500 24.56200
C  -9.29900 21.37800 26.78200
C  -8.70100 21.70500 23.48500
O  -8.37200 21.96300 22.31400
C  -9.63500 20.53100 23.74200
N  -4.81100 25.71500 24.10100
C  -5.38300 24.84700 23.14900
C  -4.55500 24.98700 21.90000
C  -3.65500 26.28600 21.98500
C  -3.91100 26.58800 23.53600
C  -3.76500 23.70900 21.59100
C  -4.16400 27.54400 21.10700
C  -3.28700 28.21900 20.04100
N  -4.02600 27.21300 26.53100
C  -3.23900 27.94500 25.67700
C  -2.54000 28.96400 26.45800
C  -2.88300 28.70700 27.78700
C  -3.77400 27.62400 27.82900
C  -1.58100 29.95500 25.95800
C  -2.64700 29.07500 29.14200
O  -1.86800 29.92600 29.57700
C  -3.62200 28.23000 30.04300
C  -2.79400 27.53300 31.06000
O  -1.99400 26.62300 30.79400
O  -3.08000 28.13500 32.31600
C  -2.23600 27.54900 33.36700
H  -7.94300 22.83900 28.70600
H  -6.66100 23.41900 22.46500
H  -2.54100 28.18600 23.60400
H  -4.89200 25.78800 31.26700
H  -7.49200 24.61500 30.74000
H  -4.46900 23.42800 30.98300
H  -5.68400 22.50600 30.09100
H  -5.91800 23.02100 31.81800
H  -7.71800 26.83300 31.06400
H  -6.35900 27.97000 30.99200
H  -7.83500 27.05100 33.17400
H  -6.32400 27.91700 33.12600
H  -10.28400 21.84400 26.80200
H  -8.86500 21.20200 27.76600
H  -9.34100 20.33600 26.46500
H  -9.11800 19.72800 24.26700
H  -10.14200 20.21400 22.83100
H  -10.46100 20.85000 24.37900
H  -5.26900 25.17400 21.09900
H  -2.59100 26.11700 21.82100
H  -4.00400 23.49500 20.54900
H  -4.13600 22.90400 22.22500
H  -2.68900 23.88400 21.57700
H  -4.40000 28.37900 21.76700
H  -5.10700 27.26100 20.63800
H  -3.89200 28.37400 19.14700
H  -2.48700 27.54000 19.74700
H  -2.82600 29.17700 20.28000
H  -0.97600 29.50100 25.17300
H  -1.03200 30.39900 26.78900
H  -2.26800 30.70300 25.56300
H  -4.44500 28.85700 30.38400
H  -2.79100 27.60800 34.30300
H  -1.33300 28.13900 33.52800
H  -1.97600 26.50800 33.17300

