158

Mg 23.85200 -4.76400 45.10300
C  26.23900 -2.38400 43.68500
C  21.36400 -3.18100 43.31100
C  21.88900 -7.33900 45.87100
C  26.71500 -6.38300 46.47300
N  23.89600 -3.08800 43.65800
C  24.91700 -2.33100 43.20800
C  24.43100 -1.24000 42.24000
C  22.88300 -1.34800 42.22500
C  22.70200 -2.61600 43.10400
C  22.12100 -0.17200 42.90200
C  25.16100 -1.41200 40.92200
C  25.20200 -0.25100 39.97300
H  24.85400 -0.51000 38.45500
N  21.88800 -5.21300 44.67700
C  21.03700 -4.37300 44.06400
C  19.73000 -5.00100 44.08500
C  19.76700 -6.21800 44.74200
C  21.19300 -6.29000 45.16900
C  18.51100 -4.42800 43.25900
C  18.64300 -7.25200 45.00900
O  17.53400 -7.12500 44.54600
C  18.90500 -8.53200 45.73600
N  24.34100 -6.70400 45.75900
C  23.25900 -7.48500 46.19900
C  23.83900 -8.76700 46.95000
C  25.34300 -8.38400 47.25000
C  25.50200 -7.07500 46.41500
C  23.08800 -9.25800 48.19500
C  26.42100 -9.44200 47.08500
C  27.41900 -9.61200 48.26600
N  26.01000 -4.38100 45.22200
C  26.99300 -5.12600 45.93900
C  28.31600 -4.52300 45.67700
C  28.08500 -3.47500 44.82300
C  26.64100 -3.33400 44.66700
C  29.59000 -4.93600 46.37100
C  28.70800 -2.38900 44.08000
O  29.83400 -2.01500 44.03800
C  27.51100 -1.73500 43.28000
C  27.39700 -0.30300 43.57200
O  26.95100 0.16300 44.60200
O  27.90300 0.46900 42.55500
C  27.73900 1.90700 42.62300
H  20.61300 -2.67900 42.69900
H  21.32000 -8.21000 46.20300
H  27.50900 -6.90500 47.01100
H  24.79600 -0.30800 42.67300
H  22.43500 -1.47000 41.23900
H  21.25400 -0.44900 43.50300
H  21.61500 0.45700 42.17000
H  22.70600 0.43900 43.58900
H  24.75700 -2.33000 40.49500
H  26.19300 -1.75900 40.96600
H  26.17200 0.21700 40.14300
H  24.47400 0.49600 40.28700
H  18.85000 -3.73000 42.49400
H  17.74600 -4.01500 43.91700
H  18.01500 -5.26600 42.77000
H  18.05700 -9.19600 45.90900
H  19.30400 -8.26800 46.71600
H  19.56200 -9.14000 45.11300
H  23.94000 -9.61900 46.27800
H  25.37400 -7.97100 48.25800
H  22.67300 -10.23500 47.94700
H  22.17000 -8.69800 48.37100
H  23.67400 -9.40400 49.10200
H  26.90600 -9.32600 46.11600
H  25.88400 -10.38700 47.01100
H  27.09500 -10.41600 48.92700
H  27.54200 -8.77400 48.95200
H  28.40200 -9.74100 47.81400
H  29.55700 -6.02400 46.32400
H  29.65700 -4.60700 47.40800
H  30.45600 -4.61100 45.79400
H  27.74700 -1.78300 42.21700
H  27.10800 2.26100 43.43800
H  27.22700 2.21500 41.71200
H  28.73200 2.35300 42.68900
Mg 40.98000 9.39800 29.83500
C  42.92600 10.31400 32.57000
C  38.57800 8.41400 32.00800
C  39.23200 8.23800 27.33100
C  43.71700 10.07300 27.72200
N  40.87500 9.10500 32.05200
C  41.69000 9.75600 32.92500
C  41.02900 9.86900 34.33800
C  39.76900 8.89600 34.13600
C  39.69400 8.69600 32.66300
C  39.87700 7.58200 34.95800
C  40.75600 11.35700 34.77200
C  40.16000 11.50800 36.19700
H  41.13600 12.03800 37.29300
N  39.18100 8.50400 29.69000
C  38.24800 8.37500 30.65500
C  37.00500 7.75700 30.16600
C  37.35000 7.39700 28.78700
C  38.65100 8.04300 28.54100
C  35.89700 7.45400 31.03600
C  36.60400 6.59500 27.79900
O  37.02700 6.31300 26.68600
C  35.19700 5.91900 28.21100
N  41.37900 9.31800 27.73500
C  40.49200 8.71600 26.91600
C  41.10000 8.75900 25.39300
C  42.52900 9.22500 25.61500
C  42.58000 9.55900 27.11900
C  41.04200 7.35200 24.65800
C  42.98300 10.31600 24.54900
C  42.69700 11.72800 24.98800
N  42.96300 10.08900 30.05200
C  43.95000 10.33500 29.11000
C  45.13300 10.85000 29.77700
C  44.78400 10.89300 31.14400
C  43.44300 10.38900 31.21900
C  46.33200 11.44600 29.17700
C  45.18800 11.33400 32.42700
O  46.19400 11.94900 32.72600
C  44.05500 10.98700 33.35600
C  44.66000 10.07500 34.31900
O  44.75100 8.86700 34.14100
O  45.06800 10.78400 35.38300
C  45.72100 9.90600 36.37800
H  37.73800 8.17500 32.66300
H  38.89000 7.71300 26.43600
H  44.56700 10.20900 27.05000
H  41.69600 9.39800 35.06000
H  38.90100 9.52200 34.34600
H  39.89500 6.84500 34.15400
H  38.97400 7.58400 35.56800
H  40.74500 7.55200 35.61700
H  40.07700 11.76800 34.02500
H  41.64400 11.95900 34.57700
H  39.88600 10.48500 36.45700
H  39.34900 12.22800 36.08600
H  35.79200 8.20800 31.81700
H  35.88600 6.47000 31.50500
H  35.01700 7.58500 30.40600
H  35.37800 5.30700 29.09400
H  34.85600 5.22400 27.44300
H  34.40500 6.66500 28.13800
H  40.45800 9.47500 24.88000
H  43.26200 8.42000 25.57100
H  40.62300 6.58400 25.31000
H  41.96200 7.01500 24.18100
H  40.36800 7.44600 23.80700
H  42.56500 10.02700 23.58500
H  44.05100 10.26500 24.33500
H  41.75300 11.72600 25.53200
H  42.63900 12.40600 24.13700
H  43.50900 12.10100 25.61300
H  45.99500 11.93300 28.26200
H  46.97400 10.58700 28.97900
H  46.75700 12.21900 29.81700
H  43.73700 11.89300 33.87200
H  46.64700 9.45700 36.02000
H  45.03800 9.14500 36.75700
H  46.01000 10.55300 37.20600

