158

Mg 49.39700 46.26100 43.00200
C  46.37700 46.94900 41.43900
C  49.61400 43.26400 41.09700
C  52.67700 45.95300 43.76100
C  49.59400 49.76300 43.67900
N  48.11700 45.22400 41.41200
C  46.87300 45.69100 41.01800
C  46.19700 44.53500 40.18000
C  47.16500 43.34300 40.43800
C  48.41500 43.96800 40.95900
C  46.63400 42.23900 41.31600
C  45.88000 45.02300 38.74900
C  44.46800 44.67400 38.26700
H  44.37700 44.18400 36.78200
N  50.86600 44.73300 42.62000
C  50.78300 43.60200 41.80400
C  51.95200 42.78800 42.05700
C  52.79600 43.42500 42.93500
C  52.10800 44.75700 43.18900
C  52.14600 41.46600 41.47900
C  54.15200 42.91100 43.44800
O  54.51500 41.78000 43.19500
C  54.97500 43.62000 44.37400
N  50.88500 47.71900 43.56900
C  52.14200 47.24900 43.89700
C  53.00300 48.35400 44.65000
C  52.07900 49.62500 44.50300
C  50.75700 49.06600 43.90600
C  53.34400 48.11700 46.17900
C  52.61400 50.75200 43.66800
C  52.22600 52.15300 44.14000
N  48.12500 47.88900 42.91300
C  48.32100 49.28200 43.20500
C  47.09900 49.95900 43.07400
C  46.28800 49.08000 42.38700
C  47.02300 47.85600 42.24700
C  46.80000 51.31000 43.42700
C  45.00200 48.97900 41.81000
O  44.07000 49.74600 41.90400
C  45.01500 47.58700 41.04100
C  43.89200 46.71200 41.44900
O  43.83300 45.97000 42.44300
O  42.89300 46.93400 40.57200
C  41.59900 46.29900 40.89800
H  49.57000 42.20000 40.85400
H  53.62900 45.85300 44.28700
H  49.65600 50.81700 43.95700
H  45.24300 44.32500 40.66400
H  47.49600 42.90400 39.49700
H  47.40000 41.46400 41.30400
H  45.68000 41.85400 40.95600
H  46.63100 42.53100 42.36600
H  46.62200 44.69100 38.02200
H  46.00900 46.10400 38.78500
H  43.87900 45.58900 38.20000
H  43.92700 43.94600 38.87200
H  52.66000 41.65000 40.53600
H  51.18900 40.98700 41.27000
H  52.63700 40.79200 42.18100
H  55.41700 44.51100 43.92700
H  55.71800 42.95900 44.82200
H  54.25600 43.90400 45.14300
H  53.91800 48.44700 44.06400
H  51.87900 50.11100 45.45800
H  52.74900 48.65700 46.91600
H  54.36200 48.47900 46.32600
H  53.44300 47.04300 46.33100
H  52.07400 50.65500 42.72600
H  53.66400 50.58200 43.43000
H  52.93400 52.96500 43.97400
H  52.00300 52.18900 45.20600
H  51.31800 52.41400 43.59700
H  47.18000 51.95200 42.63300
H  47.38700 51.57100 44.30700
H  45.76700 51.63200 43.56000
H  44.96500 47.77200 39.96800
H  41.12500 46.62300 41.82500
H  41.66300 45.21300 40.84400
H  40.92300 46.53000 40.07500
Mg -5.13000 25.17900 25.96300
C  -3.72000 26.78900 28.92400
C  -7.04300 23.26800 28.15900
C  -5.99700 23.31800 23.30400
C  -2.75600 27.01600 24.09900
N  -5.14900 24.90500 28.23800
C  -4.61100 25.67700 29.27300
C  -5.24900 25.36400 30.67700
C  -6.09400 24.11700 30.33500
C  -6.13300 24.06200 28.76600
C  -5.49900 22.76800 30.95300
C  -6.09300 26.56900 31.22000
C  -5.56600 27.04600 32.63100
H  -5.08000 25.98100 33.68300
N  -6.45200 23.76200 25.73800
C  -7.17200 23.14700 26.75000
C  -8.18000 22.28900 26.13800
C  -8.02000 22.44200 24.76700
C  -6.70400 23.16800 24.53200
C  -9.08400 21.31700 26.84900
C  -8.88400 21.83100 23.61000
O  -8.66700 22.07800 22.44200
C  -10.09000 20.97800 23.88900
N  -4.50400 25.23300 23.91500
C  -4.93100 24.25700 23.03700
C  -4.12800 24.35400 21.68700
C  -3.15400 25.61300 22.01200
C  -3.40300 25.93800 23.48400
C  -3.32900 23.06700 21.33200
C  -3.46300 26.84200 21.09600
C  -2.18400 27.61600 20.63200
N  -3.65400 26.67400 26.38500
C  -2.84700 27.38300 25.44300
C  -2.13100 28.41500 26.15700
C  -2.45500 28.20400 27.53800
C  -3.33100 27.11100 27.59700
C  -1.27500 29.47700 25.49900
C  -2.26200 28.73500 28.85100
O  -1.61800 29.67800 29.19600
C  -3.01000 27.81000 29.87200
C  -1.90700 27.07700 30.65500
O  -1.17700 26.26600 30.14300
O  -1.77400 27.51600 31.92200
C  -0.77000 26.74800 32.70700
H  -7.63200 22.58500 28.77500
H  -6.22200 22.64000 22.47800
H  -2.01500 27.48300 23.44700
H  -4.40400 25.19400 31.34400
H  -7.05700 24.22000 30.83700
H  -5.17000 22.13100 30.13200
H  -6.21600 22.25200 31.59200
H  -4.53600 22.97500 31.41900
H  -7.16900 26.40500 31.26800
H  -5.98100 27.41100 30.53700
H  -6.46600 27.40400 33.13100
H  -4.86600 27.86800 32.48100
H  -10.15000 21.47000 26.68100
H  -8.94600 21.42000 27.92500
H  -8.79100 20.31700 26.53100
H  -9.82400 20.26800 24.67100
H  -10.43600 20.54400 22.95100
H  -10.91000 21.58200 24.27900
H  -4.75500 24.61100 20.83400
H  -2.12500 25.26700 21.92200
H  -2.24400 23.04300 21.43600
H  -3.64200 22.83600 20.31400
H  -3.77800 22.30200 21.96500
H  -4.00700 27.54900 21.72300
H  -4.12300 26.59100 20.26500
H  -2.05400 27.45100 19.56300
H  -1.30700 27.30000 21.19800
H  -2.32000 28.65500 20.93100
H  -0.26500 29.39300 25.90100
H  -1.75400 30.41400 25.78300
H  -1.28000 29.33300 24.41900
H  -3.66800 28.43400 30.47600
H  0.14000 26.53000 32.14700
H  -1.30400 25.88700 33.10900
H  -0.48100 27.35100 33.56800

