158

Mg 54.43100 24.78400 45.06800
C  51.48800 26.52700 43.99000
C  52.80400 21.80600 44.06600
C  57.36800 23.17700 45.09100
C  55.90400 27.75900 45.66500
N  52.28400 24.26300 44.20100
C  51.35300 25.08600 43.78500
C  50.23200 24.32900 43.12000
C  50.48100 22.86900 43.58000
C  51.97500 22.94900 43.95000
C  49.68600 22.53300 44.80600
C  50.03000 24.52400 41.57300
C  48.61600 24.91300 41.13600
H  48.24800 24.64000 39.69300
N  54.99600 22.78100 44.85700
C  54.16600 21.75200 44.38400
C  54.96700 20.54900 44.14900
C  56.26900 20.87800 44.56100
C  56.25800 22.27900 44.91700
C  54.38300 19.28900 43.51200
C  57.36800 19.85700 44.60100
O  57.09900 18.66700 44.36200
C  58.76100 20.15900 45.02800
N  56.38400 25.37700 45.30300
C  57.50800 24.52800 45.29500
C  58.81600 25.28800 45.53300
C  58.28500 26.73100 45.79300
C  56.75400 26.59900 45.49100
C  59.73700 24.72700 46.63500
C  59.03700 27.80600 44.96900
C  59.47500 29.09400 45.61800
N  53.85000 26.74400 44.96600
C  54.49900 27.84600 45.46100
C  53.63000 28.95800 45.49600
C  52.46400 28.55100 44.84200
C  52.63200 27.13700 44.57100
C  54.06200 30.28700 46.12700
C  51.09300 28.91300 44.41800
O  50.45000 29.94800 44.56400
C  50.45500 27.64700 43.74100
C  50.32400 27.94800 42.26500
O  51.22200 28.19800 41.46200
O  48.94600 28.22800 42.01400
C  48.69400 28.99400 40.76600
H  52.33500 20.83600 43.88800
H  58.39900 22.82800 45.00800
H  56.33400 28.73700 45.88900
H  49.33500 24.67400 43.63500
H  50.38900 22.13200 42.78200
H  50.24600 21.72300 45.27300
H  48.66300 22.25100 44.55500
H  49.80400 23.36000 45.50600
H  50.38300 23.62100 41.07400
H  50.77900 25.25200 41.26000
H  48.48500 25.98100 41.31000
H  47.84500 24.45900 41.75800
H  54.60100 19.34500 42.44500
H  53.29600 19.23100 43.56600
H  54.67000 18.35800 44.00000
H  59.30800 19.22600 45.16700
H  58.68000 20.70800 45.96600
H  59.22500 20.66200 44.17900
H  59.30000 25.22100 44.55900
H  58.27500 26.93300 46.86400
H  59.32100 23.89200 47.19800
H  60.05000 25.50000 47.33700
H  60.62800 24.40500 46.09700
H  58.47600 28.09700 44.08100
H  59.95500 27.37000 44.57500
H  58.78100 29.87000 45.29500
H  60.49800 29.31200 45.31100
H  59.42200 28.98200 46.70100
H  54.64100 29.94200 46.98300
H  53.21000 30.94400 46.30000
H  54.74900 30.86500 45.50800
H  49.48200 27.41300 44.17200
H  49.24300 28.65300 39.88900
H  49.00000 30.03000 40.91200
H  47.62700 29.07000 40.55500
Mg 50.11400 46.43600 42.44400
C  46.59700 46.69300 41.31700
C  50.17900 43.28500 41.00000
C  53.39400 46.48800 42.49000
C  49.81500 49.76600 43.37900
N  48.57300 45.11300 41.45600
C  47.27700 45.46500 41.07300
C  46.68300 44.27300 40.27300
C  47.67800 43.11900 40.45100
C  48.92200 43.89500 41.02500
C  47.13900 41.92500 41.30100
C  46.40300 44.79400 38.88000
C  44.93900 44.49800 38.32200
H  44.85600 43.65400 37.14400
N  51.59900 45.07100 41.79500
C  51.38100 43.86400 41.24700
C  52.63200 43.13900 41.21000
C  53.63100 44.06600 41.49500
C  52.89800 45.27400 41.95100
C  52.77400 41.62000 40.84800
C  55.08700 43.77200 41.50400
O  55.40700 42.58400 41.50600
C  56.13700 44.77200 41.64900
N  51.46200 47.98500 42.80500
C  52.78800 47.70300 42.85700
C  53.49400 48.96400 43.32100
C  52.33500 49.93100 43.84000
C  51.07800 49.20300 43.26100
C  54.49000 48.76200 44.48600
C  52.57300 51.41800 43.41400
C  52.01400 52.54200 44.30400
N  48.48500 47.94900 42.60400
C  48.53300 49.26800 43.05900
C  47.22200 49.92900 42.87400
C  46.47200 48.90700 42.20700
C  47.23900 47.73900 42.11300
C  46.80600 51.33900 43.16300
C  45.10900 48.60400 41.58500
O  44.16000 49.36500 41.34500
C  45.21500 47.16300 41.01100
C  44.24600 46.28100 41.80600
O  44.50000 45.66100 42.80600
O  42.99800 46.34000 41.26400
C  42.03600 45.35100 41.78500
H  50.06300 42.28100 40.58500
H  54.47200 46.55200 42.65400
H  49.88600 50.82500 43.63900
H  45.74100 43.89800 40.67500
H  47.81100 42.75400 39.43200
H  47.04500 41.00100 40.73000
H  46.10000 42.06600 41.59900
H  47.75200 41.86500 42.20000
H  47.11000 44.44300 38.12800
H  46.55400 45.87300 38.83600
H  44.45400 45.47300 38.26400
H  44.31700 44.09900 39.12400
H  53.39300 41.75400 39.96100
H  51.91700 41.05200 40.48600
H  53.34800 41.04300 41.57300
H  55.66000 45.67900 41.27900
H  56.88200 44.45100 40.92000
H  56.53900 44.79900 42.66200
H  54.03200 49.44500 42.50400
H  52.14800 49.89800 44.91400
H  54.59400 49.67700 45.06900
H  55.43000 48.31700 44.16100
H  54.00600 47.94100 45.01600
H  52.04500 51.55200 42.47000
H  53.63000 51.64000 43.26400
H  51.38400 53.20800 43.71400
H  52.76500 53.16600 44.78700
H  51.38400 52.15800 45.10700
H  46.03100 51.67300 42.47300
H  47.66700 52.00800 43.19100
H  46.38600 51.41600 44.16500
H  44.87100 47.26900 39.98200
H  41.75700 44.70400 40.95300
H  41.05700 45.71500 42.09800
H  42.51500 44.59800 42.41100

