158

Mg 35.80200 0.63500 28.85200
C  33.73000 1.85300 31.28800
C  38.38000 0.36900 31.24600
C  37.97900 -0.02300 26.37000
C  33.42300 1.54100 26.33800
N  36.02700 1.20200 30.98300
C  34.98100 1.55100 31.78500
C  35.38700 1.51500 33.26300
C  36.93400 1.35400 33.18300
C  37.15600 0.92000 31.75100
C  37.81600 2.50700 33.71200
C  34.59800 0.53600 34.22200
C  34.34900 1.01900 35.63800
H  34.87000 2.41000 36.13900
N  37.91000 0.11200 28.84500
C  38.75400 0.02500 29.93300
C  40.06700 -0.49300 29.47900
C  39.95500 -0.57300 27.98500
C  38.56400 -0.14600 27.69500
C  41.20800 -0.86000 30.37700
C  41.04900 -0.90400 27.03700
O  40.89200 -0.94600 25.85300
C  42.31500 -1.38400 27.59400
N  35.62100 0.42000 26.66300
C  36.69200 0.22400 25.89200
C  36.26000 0.28300 24.37000
C  34.77700 0.48400 24.51200
C  34.54400 0.83300 25.91700
C  37.06600 1.38400 23.63500
C  33.87800 -0.76700 24.12100
C  32.61700 -0.40300 23.40200
N  33.97400 1.52600 28.76100
C  33.08400 1.80900 27.65300
C  31.99700 2.41500 28.17200
C  32.06100 2.40100 29.62600
C  33.35100 1.88900 29.85100
C  30.83500 2.87100 27.39300
C  31.39000 2.72000 30.91100
O  30.33300 3.31600 31.10600
C  32.43500 2.36000 32.00900
C  32.74400 3.62800 32.79200
O  33.52300 4.50600 32.48900
O  31.74300 3.73700 33.80900
C  31.78300 5.02800 34.54300
H  39.21900 0.29900 31.94200
H  38.69700 -0.20500 25.56800
H  32.83300 1.87500 25.48200
H  35.14100 2.53100 33.57300
H  37.26900 0.57000 33.86400
H  37.20300 3.33000 34.08000
H  38.39100 2.84300 32.84900
H  38.41900 2.21800 34.57200
H  35.12900 -0.40900 34.33500
H  33.65500 0.37500 33.70100
H  34.81500 0.26300 36.27000
H  33.30300 0.94500 35.93600
H  41.03600 -0.51300 31.39600
H  41.93400 -0.16900 29.94600
H  41.48100 -1.91400 30.43300
H  42.88000 -0.58100 28.06700
H  42.91400 -1.77300 26.77000
H  42.07100 -2.21700 28.25400
H  36.53600 -0.66100 23.90200
H  34.58800 1.41700 23.98200
H  37.52700 2.13400 24.27700
H  36.38100 1.96200 23.01400
H  37.84000 0.93500 23.01200
H  33.54600 -1.29200 25.01700
H  34.37000 -1.41600 23.39700
H  32.79000 -0.85300 22.42500
H  32.48900 0.67700 23.32600
H  31.76900 -0.84400 23.92700
H  30.28900 2.01600 26.99200
H  31.19200 3.49800 26.57700
H  30.09100 3.45800 27.93100
H  32.07600 1.56200 32.65900
H  32.53700 4.87000 35.31400
H  30.85200 5.20500 35.08100
H  31.89700 6.00700 34.07700
Mg -12.65700 39.02900 41.64800
C  -11.02900 36.09700 40.77500
C  -10.13700 40.80500 40.02000
C  -14.54300 41.73600 42.02300
C  -15.25800 37.06200 43.06200
N  -10.87700 38.52200 40.48500
C  -10.40700 37.22900 40.25500
C  -9.11800 37.22800 39.46000
C  -8.74200 38.77000 39.33600
C  -9.96200 39.43600 39.99200
C  -7.44000 39.19800 39.93900
C  -9.30600 36.59400 38.05700
C  -8.37400 35.45900 37.58400
H  -7.12400 35.76700 36.57500
N  -12.32200 41.05200 41.24300
C  -11.27700 41.55600 40.48100
C  -11.45400 43.00600 40.45400
C  -12.70100 43.34400 41.14700
C  -13.28200 42.04800 41.48100
C  -10.38400 43.87600 39.74900
C  -13.16800 44.70800 41.44000
O  -12.42600 45.67000 41.38500
C  -14.55300 44.96400 42.08000
N  -14.67700 39.36500 42.42600
C  -15.11200 40.58500 42.51200
C  -16.53400 40.59100 43.32600
C  -16.61700 39.11000 43.82300
C  -15.45000 38.46300 43.10900
C  -16.62400 41.63200 44.50300
C  -17.99800 38.48300 43.52000
C  -18.61000 37.85300 44.81600
N  -13.07800 37.09500 41.90300
C  -14.08400 36.37900 42.48300
C  -13.91600 34.91400 42.50400
C  -12.69600 34.81400 41.82500
C  -12.18000 36.12100 41.52300
C  -14.87100 33.94800 43.08200
C  -11.72100 33.84200 41.43700
O  -11.67400 32.63100 41.62000
C  -10.60500 34.59400 40.70400
C  -9.26500 34.31200 41.35300
O  -8.79600 34.53000 42.48900
O  -8.61000 33.61200 40.36100
C  -7.28500 33.15900 40.77500
H  -9.33300 41.36400 39.53700
H  -15.27800 42.53900 42.10800
H  -15.97700 36.55500 43.70900
H  -8.25000 36.70200 39.85900
H  -8.73500 39.03900 38.28000
H  -6.82200 38.40300 40.35700
H  -7.58400 39.96000 40.70600
H  -6.80900 39.53700 39.11800
H  -9.25500 37.33600 37.26000
H  -10.32800 36.21500 38.05000
H  -9.02800 34.78200 37.03600
H  -8.03500 35.04200 38.53200
H  -10.43300 44.91000 40.09300
H  -10.72200 43.88800 38.71200
H  -9.37000 43.47800 39.75900
H  -15.26700 44.53900 41.37500
H  -14.75200 46.02900 42.19300
H  -14.57500 44.46400 43.04900
H  -17.28700 40.84900 42.58100
H  -16.31500 38.98900 44.86400
H  -17.62900 42.04500 44.42200
H  -15.83000 42.37600 44.45300
H  -16.51200 41.14400 45.47100
H  -17.77300 37.64100 42.86600
H  -18.72500 39.09600 42.98700
H  -18.29100 36.81100 44.83600
H  -19.68000 38.01400 44.94500
H  -18.17100 38.26300 45.72600
H  -15.50400 34.23700 43.92200
H  -14.36700 33.08500 43.51700
H  -15.51500 33.69600 42.24000
H  -10.61000 34.26000 39.66600
H  -7.48400 32.58300 41.67900
H  -6.58100 33.97000 40.96500
H  -6.98800 32.53400 39.93300

