158

Mg 1.75700 -1.35400 43.71300
C  5.11700 -0.54400 43.46900
C  0.88300 1.77800 42.22700
C  -1.34600 -2.46100 43.14100
C  2.81000 -4.55800 44.83300
N  2.91700 0.39100 42.90400
C  4.27900 0.49900 42.98000
C  4.74700 1.82800 42.18800
C  3.37800 2.49800 41.89200
C  2.30100 1.52300 42.37100
C  3.31700 3.98400 42.45500
C  5.60500 1.60100 40.90900
C  6.78800 2.61400 40.68900
H  6.73200 3.35000 39.35600
N  -0.04600 -0.47400 42.81800
C  -0.19700 0.80600 42.32900
C  -1.48900 0.90700 41.71300
C  -2.16400 -0.32500 41.96900
C  -1.16700 -1.16600 42.71300
C  -1.98400 2.05100 40.83600
C  -3.53100 -0.73300 41.53300
O  -4.24200 0.08400 40.84500
C  -4.24700 -1.93400 42.00300
N  0.87000 -3.25200 43.83600
C  -0.51700 -3.41600 43.78900
C  -0.93200 -4.77700 44.37100
C  0.39400 -5.37900 44.95800
C  1.45000 -4.34700 44.45900
C  -2.20000 -4.90100 45.28200
C  0.57800 -6.87200 44.51900
C  0.96300 -7.88000 45.65600
N  3.56800 -2.35800 44.16200
C  3.81200 -3.63000 44.68400
C  5.26000 -3.82700 44.85400
C  5.82400 -2.58200 44.42600
C  4.74800 -1.77400 43.94400
C  5.94900 -5.12300 45.25100
C  7.03900 -1.84200 44.18200
O  8.17100 -2.10700 44.49500
C  6.58300 -0.51500 43.54400
C  6.90300 0.58200 44.49000
O  6.38900 0.82600 45.54000
O  7.88800 1.35700 43.90600
C  8.54000 2.39200 44.74700
H  0.56500 2.70600 41.74500
H  -2.36500 -2.84900 43.19300
H  3.04700 -5.57000 45.17000
H  5.34100 2.35700 42.93300
H  3.28300 2.54900 40.80700
H  2.82700 4.02100 43.42800
H  2.81900 4.66700 41.76700
H  4.35200 4.32400 42.47700
H  4.98000 1.65700 40.01800
H  5.94800 0.56700 40.95400
H  7.70600 2.03800 40.80300
H  6.72400 3.42000 41.42100
H  -2.39100 1.68200 39.89400
H  -1.16000 2.68100 40.50200
H  -2.61500 2.66200 41.48100
H  -5.29700 -1.80600 41.74200
H  -4.16900 -2.06400 43.08200
H  -3.80900 -2.83400 41.57200
H  -1.27100 -5.27800 43.46400
H  0.44100 -5.32300 46.04500
H  -1.77900 -5.27100 46.21700
H  -2.96400 -5.56200 44.87500
H  -2.66000 -3.94900 45.54700
H  1.32700 -6.93400 43.73000
H  -0.31300 -7.28700 44.04800
H  0.87400 -7.38300 46.62200
H  1.98400 -8.22900 45.50300
H  0.43600 -8.83200 45.72000
H  6.91900 -5.06700 44.75800
H  5.53900 -6.04300 44.83500
H  6.03300 -5.23600 46.33200
H  7.06100 -0.39700 42.57200
H  8.09900 3.38800 44.73600
H  9.51800 2.63700 44.33400
H  8.66000 2.11800 45.79500
Mg 16.78000 52.45300 24.64900
C  18.15700 51.39000 27.71200
C  14.13700 53.72900 26.36600
C  15.57800 53.61600 21.75300
C  19.32300 50.86600 23.03300
N  16.16000 52.29400 26.88600
C  16.93700 52.04600 27.92200
C  16.30900 52.48500 29.25700
C  14.89200 52.92600 28.79300
C  15.09100 53.12000 27.19300
C  13.72000 51.92600 28.93900
C  17.13400 53.53700 30.11400
C  17.47900 53.30800 31.71500
H  16.66100 52.28500 32.48900
N  14.97100 53.39300 24.12500
C  14.02300 53.92100 24.95200
C  13.09000 54.64100 24.17500
C  13.42500 54.54000 22.84200
C  14.75300 53.86500 22.84300
C  11.89800 55.42700 24.88000
C  12.74900 55.10400 21.58800
O  13.27000 55.00200 20.47400
C  11.38400 55.79700 21.68300
N  17.30100 52.18400 22.59900
C  16.77100 52.87900 21.57000
C  17.45800 52.66600 20.20900
C  18.60800 51.81500 20.74800
C  18.54400 51.73500 22.24500
C  16.52700 52.00700 19.12600
C  20.05700 52.34500 20.35200
C  20.23500 52.66700 18.88200
N  18.36500 51.23300 25.20800
C  19.34200 50.61900 24.40400
C  20.33000 49.90500 25.23300
C  19.88200 50.32800 26.51400
C  18.70200 51.06000 26.45900
C  21.70300 49.37900 24.93000
C  20.32300 50.26400 27.89200
O  21.20300 49.53200 28.30100
C  19.17500 50.99800 28.71600
C  18.63000 49.86800 29.55600
O  17.73500 49.08100 29.24100
O  19.19900 49.73000 30.79400
C  18.55400 48.88700 31.81100
H  13.36700 54.24400 26.94300
H  15.14700 53.99400 20.82400
H  20.08600 50.44700 22.37300
H  16.40000 51.53800 29.79000
H  14.65900 53.89700 29.22900
H  13.96700 51.20600 29.71900
H  13.51900 51.41900 27.99500
H  12.81700 52.48100 29.19000
H  16.79000 54.56000 29.96500
H  18.08400 53.50700 29.58200
H  17.34000 54.27200 32.20500
H  18.56100 53.19100 31.77100
H  11.80800 56.35400 24.31300
H  12.24300 55.80000 25.84400
H  11.02100 54.78400 24.96200
H  11.12100 56.07100 20.66100
H  11.45800 56.74800 22.21100
H  10.67500 55.09700 22.12400
H  17.77600 53.64700 19.85700
H  18.39900 50.83500 20.31800
H  16.89800 51.05800 18.73800
H  16.56800 52.54700 18.18000
H  15.51000 51.91500 19.50600
H  20.96800 51.81300 20.62800
H  20.12800 53.23400 20.97800
H  21.16500 52.20600 18.54900
H  20.33400 53.72900 18.65400
H  19.45400 52.25900 18.24100
H  22.38400 50.16000 25.26700
H  21.85300 49.34700 23.85000
H  21.85100 48.40700 25.40000
H  19.52200 51.87600 29.26000
H  18.77700 47.83600 31.62900
H  17.48200 48.87600 32.00700
H  19.03300 49.16900 32.74900

