158

Mg 26.15000 1.73500 29.70600
C  28.20200 1.21300 32.64200
C  23.38700 2.31500 31.95800
C  24.14100 1.76900 27.14400
C  28.95500 0.78100 27.84800
N  25.88700 1.82400 32.01700
C  26.89700 1.65000 33.00000
C  26.40900 1.95900 34.44700
C  24.81600 2.10800 34.14600
C  24.64300 2.13400 32.61500
C  23.99500 1.04200 34.85300
C  26.99600 3.40000 34.93800
C  27.68400 3.33100 36.30900
H  27.19700 4.29000 37.42600
N  24.04600 2.10200 29.53400
C  23.12200 2.29700 30.51500
C  21.81100 2.56500 29.86500
C  21.96400 2.24300 28.44100
C  23.38400 1.98900 28.28400
C  20.57800 2.94700 30.55000
C  20.85400 2.12800 27.36100
O  21.19200 1.79000 26.23800
C  19.34400 2.34000 27.69900
N  26.44100 1.05600 27.77400
C  25.49700 1.46900 26.93400
C  26.07500 1.32400 25.50000
C  27.61100 1.51500 25.75700
C  27.70600 1.05200 27.19300
C  25.72400 -0.01400 24.75100
C  28.08100 3.03800 25.52700
C  29.18100 3.09800 24.42900
N  28.08300 0.96400 30.12700
C  29.13000 0.65700 29.23000
C  30.35200 0.25500 29.97100
C  29.95700 0.50300 31.30700
C  28.62900 1.00800 31.36600
C  31.69200 -0.21600 29.40900
C  30.42400 0.31800 32.64500
O  31.50800 -0.14600 33.07600
C  29.41200 0.91200 33.56800
C  29.14700 0.06800 34.77500
O  28.30900 -0.84500 34.85900
O  30.01100 0.51200 35.82400
C  29.75200 -0.16000 37.11800
H  22.53500 2.58000 32.58800
H  23.56100 1.92000 26.23100
H  29.85500 0.93600 27.24900
H  26.63400 1.22400 35.22100
H  24.48000 3.11600 34.38900
H  24.68500 0.39500 35.39600
H  23.50100 0.38600 34.13600
H  23.36900 1.61600 35.53700
H  26.24200 4.18600 34.97800
H  27.64800 3.86200 34.19700
H  28.75100 3.50800 36.17600
H  27.61900 2.30800 36.68000
H  19.88200 2.10800 30.56900
H  20.09300 3.80200 30.08100
H  20.85200 3.15400 31.58500
H  18.89000 1.52300 28.26000
H  18.80800 2.36200 26.75000
H  19.25100 3.30700 28.19500
H  25.68900 2.17000 24.93200
H  28.07800 0.84100 25.03900
H  26.53300 -0.66700 24.42600
H  25.20700 0.27900 23.83800
H  25.06600 -0.58700 25.40400
H  28.37000 3.44800 26.49500
H  27.22700 3.59000 25.13400
H  28.83400 3.73900 23.61800
H  29.45700 2.17400 23.92200
H  30.07200 3.56500 24.85000
H  32.34400 0.62000 29.15600
H  31.59700 -0.82700 28.51100
H  32.10800 -0.85800 30.18500
H  29.89000 1.86000 33.81300
H  29.65900 -1.23700 36.97300
H  28.81000 0.06300 37.61800
H  30.58500 0.10400 37.77000
Mg 41.17000 9.06500 29.66000
C  43.09300 10.24600 32.31700
C  39.02600 7.69000 31.92900
C  39.55200 7.56300 27.15700
C  43.68700 10.02700 27.45800
N  41.10700 8.94200 31.92300
C  41.85600 9.72300 32.75100
C  41.34600 9.73500 34.24800
C  40.13100 8.83200 34.02200
C  40.01800 8.49400 32.57000
C  39.98900 7.68400 34.98800
C  41.20100 11.18100 34.80900
C  42.09200 11.43300 36.10400
H  41.35500 12.01700 37.34400
N  39.56500 7.77600 29.55300
C  38.85500 7.33700 30.60700
C  37.72700 6.54600 30.11900
C  37.77600 6.60600 28.70400
C  39.04500 7.26300 28.40000
C  36.68100 5.85000 31.00700
C  36.78600 6.21900 27.68000
O  36.98600 6.31000 26.49000
C  35.45000 5.66100 28.09400
N  41.60700 8.79000 27.62200
C  40.68700 8.31700 26.77600
C  41.14600 8.46900 25.27600
C  42.35100 9.47300 25.40100
C  42.56200 9.42200 26.92200
C  41.56600 7.07800 24.76600
C  42.20200 10.99200 24.94100
C  40.86500 11.74600 25.07700
N  43.04800 9.85500 29.80800
C  43.97100 10.16800 28.82300
C  45.07900 10.75200 29.44300
C  44.79500 10.92000 30.82400
C  43.51400 10.28700 30.95300
C  46.30900 11.40800 28.81800
C  45.26700 11.44300 32.08600
O  46.28300 12.10900 32.36100
C  44.17800 10.92900 33.10000
C  44.78700 10.00400 34.08700
O  44.98600 8.79900 34.00500
O  45.06000 10.72300 35.26300
C  45.57200 9.93900 36.37000
H  38.23100 7.49800 32.65300
H  39.16700 6.87800 26.39900
H  44.42800 10.43300 26.76700
H  42.07900 9.15000 34.80300
H  39.26900 9.47700 34.19400
H  40.23400 6.76100 34.46300
H  38.96300 7.47600 35.29200
H  40.59600 7.80800 35.88400
H  40.15200 11.23400 35.10000
H  41.39300 11.98900 34.10200
H  42.83400 12.14300 35.73800
H  42.59000 10.50900 36.39800
H  36.86600 4.82200 30.69800
H  35.65500 6.19000 30.86400
H  36.82800 5.99900 32.07700
H  35.71200 4.67500 28.48000
H  34.76800 5.54200 27.25200
H  34.95400 6.35800 28.77000
H  40.28200 8.77500 24.68700
H  43.21300 8.97700 24.95500
H  41.00200 6.82700 23.86800
H  41.27500 6.32400 25.49800
H  42.61500 6.91600 24.51700
H  42.43300 11.12700 23.88400
H  43.02500 11.64700 25.22800
H  40.27600 11.08600 25.71400
H  40.47300 11.84700 24.06500
H  41.08400 12.72500 25.50400
H  46.47100 11.08700 27.79000
H  47.19600 11.18000 29.40900
H  46.19800 12.48900 28.91000
H  43.78500 11.80500 33.61600
H  46.62400 9.77900 36.13400
H  44.98900 9.10300 36.75600
H  45.44100 10.50400 37.29200

