158

Mg 55.16400 23.56400 44.51900
C  52.48900 25.59100 43.41300
C  53.37000 20.81900 43.37100
C  57.95700 21.77300 44.75800
C  56.82300 26.40400 45.71600
N  53.25100 23.28700 43.36200
C  52.26400 24.26100 43.11200
C  50.98700 23.59400 42.71600
C  51.16100 22.03200 42.89500
C  52.64000 21.99300 43.27400
C  50.18100 21.34900 43.95800
C  50.58400 23.90900 41.24200
C  49.06500 23.90200 41.09500
H  48.41000 23.63400 39.72700
N  55.62300 21.57900 44.07100
C  54.76300 20.58200 43.64200
C  55.49500 19.37000 43.50400
C  56.89000 19.62700 43.70600
C  56.90200 21.00300 44.25600
C  54.90500 18.05000 43.00600
C  57.98900 18.68800 43.47700
O  57.70100 17.53300 43.23000
C  59.38200 19.01100 43.62600
N  57.14600 24.09200 45.25100
C  58.11200 23.12400 45.19300
C  59.45300 23.73800 45.63700
C  59.16200 25.22800 46.03600
C  57.65200 25.26000 45.70900
C  60.30000 22.97900 46.65100
C  60.02200 26.25600 45.25400
C  60.72000 27.36300 45.86800
N  54.78400 25.55700 44.53700
C  55.53400 26.59100 45.12700
C  54.80500 27.79100 44.95600
C  53.61700 27.39300 44.35400
C  53.66200 26.05700 44.05800
C  55.21500 29.13600 45.36500
C  52.40400 27.98400 43.89900
O  52.06600 29.16700 43.99200
C  51.61400 26.84500 43.19500
C  51.44900 27.26200 41.76000
O  52.38300 27.45600 41.00600
O  50.05300 27.20300 41.39400
C  49.77700 27.30300 39.96700
H  52.73800 19.93100 43.30400
H  58.88300 21.19500 44.76200
H  57.25900 27.37200 45.96800
H  50.10300 23.87800 43.28600
H  50.98400 21.44900 41.99100
H  50.67200 21.00500 44.86900
H  49.77700 20.44400 43.50600
H  49.51900 22.13800 44.31700
H  51.04700 23.18400 40.57300
H  50.90900 24.89500 40.90900
H  48.80900 24.92300 41.37900
H  48.58800 23.29000 41.86000
H  55.34200 17.86400 42.02500
H  53.87100 18.08300 42.66300
H  55.07100 17.21700 43.69000
H  59.75100 19.80600 42.97800
H  60.04300 18.16000 43.46200
H  59.50300 19.26400 44.67900
H  60.16100 23.60500 44.81900
H  59.28200 25.45800 47.09400
H  60.66600 23.51700 47.52500
H  61.22500 22.62500 46.19700
H  59.64900 22.21000 47.06900
H  59.34200 26.59300 44.47100
H  60.77700 25.77700 44.63200
H  61.78400 27.15700 45.75300
H  60.50400 27.40500 46.93500
H  60.48200 28.31600 45.39600
H  56.12500 29.37600 44.81600
H  55.31700 29.20800 46.44800
H  54.49700 29.93600 45.18400
H  50.61700 26.68200 43.60500
H  48.75200 26.97100 39.79800
H  50.57000 26.77900 39.43400
H  49.74300 28.36000 39.70300
Mg 16.33600 52.87100 26.84800
C  18.23700 51.57200 29.54900
C  13.94800 53.96000 29.29100
C  14.68800 54.39800 24.42200
C  18.46600 51.18300 24.64800
N  16.16400 52.79200 29.13200
C  17.16100 52.33500 30.03600
C  16.75200 52.66100 31.47400
C  15.24800 53.18600 31.32800
C  15.12100 53.32000 29.80400
C  14.11000 52.32400 31.90000
C  17.70800 53.66300 32.11200
C  17.65800 53.69700 33.61300
H  16.48400 53.04000 34.29900
N  14.56500 54.04100 26.82800
C  13.70900 54.29200 27.88200
C  12.47900 54.99300 27.41700
C  12.64200 55.02000 26.03300
C  14.01200 54.49000 25.70300
C  11.36200 55.52100 28.29100
C  11.80500 55.64000 24.97800
O  12.12700 55.69300 23.80000
C  10.34700 56.23100 25.30700
N  16.61300 52.83600 24.89200
C  15.91400 53.67000 24.07300
C  16.31900 53.37400 22.60800
C  17.66100 52.66500 22.71000
C  17.53300 52.14200 24.17100
C  15.27300 52.48200 21.92000
C  18.93100 53.68000 22.67500
C  20.23700 53.02300 22.20700
N  17.93200 51.53300 26.99100
C  18.70000 50.89000 26.01700
C  19.74400 50.08600 26.70300
C  19.67000 50.41700 28.06900
C  18.50400 51.19300 28.20600
C  20.72000 49.22100 25.89900
C  20.18900 50.16000 29.37200
O  21.17700 49.53600 29.75600
C  19.33300 50.95300 30.38000
C  18.65400 50.06700 31.32300
O  17.81800 49.17300 31.08800
O  19.06500 50.40600 32.54100
C  18.56100 49.63900 33.67300
H  13.29400 54.27900 30.10500
H  14.15000 54.87000 23.59700
H  19.28400 50.78600 24.04300
H  16.80200 51.74000 32.05500
H  15.23000 54.12800 31.87600
H  13.58900 52.85400 32.69800
H  14.52600 51.37700 32.24500
H  13.41000 52.08800 31.09800
H  17.39600 54.64300 31.75000
H  18.71700 53.30500 31.90800
H  17.52400 54.77100 33.74100
H  18.62400 53.46200 34.06100
H  10.52700 54.88000 28.00800
H  11.13000 56.54600 28.00200
H  11.48600 55.49000 29.37400
H  9.78300 55.84300 24.45900
H  10.42400 57.31700 25.36700
H  10.14400 55.62500 26.19000
H  16.43400 54.34500 22.12700
H  17.81300 51.76700 22.11200
H  15.79400 51.81500 21.23300
H  14.62600 53.20300 21.42000
H  14.72200 51.91600 22.67100
H  19.08300 54.22200 23.60800
H  18.74600 54.42200 21.89700
H  20.46600 53.54000 21.27500
H  20.09600 51.97300 21.95100
H  21.01400 53.29600 22.92200
H  21.53000 49.82300 25.48900
H  20.14200 48.79400 25.07900
H  21.09400 48.40500 26.51800
H  19.79000 51.78800 30.91000
H  17.48800 49.49300 33.54600
H  18.76200 50.14600 34.61700
H  18.97100 48.63700 33.79600

