158

Mg 0.75700 8.12600 24.97200
C  1.40800 9.68200 28.21700
C  0.91800 5.09600 26.69800
C  1.01500 6.62400 22.12100
C  1.32200 11.26600 23.52300
N  1.17100 7.53600 27.21700
C  1.29100 8.30300 28.32300
C  1.22900 7.46300 29.62900
C  1.07000 6.04300 29.09800
C  1.03700 6.21300 27.59800
C  2.20900 5.09900 29.52400
C  0.01100 7.91800 30.50600
C  0.20800 7.66600 32.07500
H  1.55800 7.32500 32.69200
N  0.75500 6.16400 24.41200
C  0.79500 5.03300 25.26300
C  0.72100 3.82500 24.43800
C  0.53300 4.25000 23.07000
C  0.78200 5.71100 23.12000
C  0.65700 2.44500 25.03000
C  0.31300 3.48400 21.80900
O  0.18100 4.04500 20.72300
C  -0.05600 1.97400 21.82600
N  1.16900 8.86200 23.11100
C  1.23500 8.00600 22.06900
C  1.21700 8.87400 20.68900
C  1.07200 10.33300 21.23700
C  1.18100 10.16600 22.75200
C  2.45500 8.67400 19.76800
C  -0.17800 11.13700 20.68300
C  -1.44000 10.99400 21.46000
N  1.09000 10.08600 25.67200
C  1.39400 11.20800 24.95900
C  1.51800 12.31600 25.84100
C  1.60900 11.76300 27.10400
C  1.35200 10.43900 26.96800
C  1.62000 13.75700 25.44100
C  1.87700 12.02600 28.54500
O  2.09900 13.15700 29.03600
C  1.63500 10.69600 29.30900
C  2.83000 10.51300 30.17300
O  3.92000 10.17000 29.88000
O  2.54800 10.94100 31.43900
C  3.67100 11.08800 32.41300
H  0.91500 4.13200 27.21100
H  1.26500 6.17000 21.16000
H  1.26100 12.24500 23.04300
H  2.08800 7.75600 30.23300
H  0.11400 5.65600 29.45000
H  1.79900 4.50400 30.34100
H  3.04200 5.67400 29.92700
H  2.63900 4.30600 28.91100
H  -0.87000 7.29900 30.34100
H  -0.19500 8.96700 30.29100
H  -0.46000 6.83100 32.28600
H  -0.24700 8.56400 32.49200
H  -0.33700 2.03000 24.86400
H  0.94200 2.37700 26.08000
H  1.34100 1.77000 24.51400
H  0.76900 1.27900 21.98600
H  -0.66300 1.80600 20.93600
H  -0.79700 1.82200 22.61100
H  0.27000 8.53700 20.26700
H  1.99200 10.83000 20.92700
H  2.93200 9.64300 19.62300
H  2.07600 8.27400 18.82800
H  3.26500 8.03100 20.11300
H  -0.39000 10.76400 19.68100
H  0.19100 12.16100 20.61500
H  -2.16800 10.45600 20.85400
H  -1.83900 11.96000 21.76800
H  -1.38400 10.44400 22.39900
H  0.96900 14.02100 24.60800
H  2.65200 14.09100 25.32700
H  1.32400 14.43800 26.23900
H  0.84800 10.84500 30.04800
H  4.31000 11.87400 32.01100
H  4.22300 10.16300 32.58200
H  3.39300 11.35000 33.43400
Mg 49.34100 44.88300 42.76800
C  46.03800 45.39400 41.33100
C  49.32900 41.82100 41.09200
C  52.73400 44.98700 42.77900
C  49.31400 48.28900 43.61400
N  47.88700 43.81200 41.14900
C  46.55800 44.15500 40.90100
C  45.86900 42.93800 40.30400
C  46.83600 41.72500 40.48300
C  48.14000 42.47500 40.85600
C  46.32900 40.62300 41.44300
C  45.32700 43.11200 38.83100
C  44.27000 42.15200 38.50900
H  44.64200 41.11000 37.51400
N  50.81300 43.53000 42.17700
C  50.57400 42.28500 41.57300
C  51.84000 41.59400 41.55300
C  52.77600 42.44300 42.16100
C  52.13800 43.69100 42.47700
C  51.95700 40.20300 41.03800
C  54.23000 42.13200 42.42900
O  54.71400 41.02100 42.13200
C  55.23100 43.11300 43.07300
N  50.82700 46.54100 42.88400
C  52.14500 46.17200 43.07500
C  52.97400 47.33300 43.65800
C  51.90200 48.44000 43.89600
C  50.57300 47.69800 43.49300
C  53.82900 46.89500 44.96300
C  52.05300 49.83700 43.21200
C  52.28200 51.05500 44.07100
N  47.99100 46.44000 42.70700
C  48.07800 47.75000 43.20200
C  46.74900 48.34300 43.22400
C  45.96500 47.52100 42.43600
C  46.79900 46.33200 42.15400
C  46.45600 49.65100 43.68600
C  44.63300 47.25600 41.99400
O  43.55800 47.79400 42.28900
C  44.71900 46.02100 41.04900
C  43.52400 45.08100 41.24300
O  42.74500 44.79000 40.35300
O  43.63000 44.42200 42.45000
C  42.67200 43.35400 42.78400
H  49.23900 40.75900 40.85400
H  53.79700 45.21600 42.87700
H  49.15600 49.28400 44.03600
H  44.93300 42.90300 40.86100
H  47.16300 41.35100 39.51300
H  46.84000 40.75700 42.39700
H  46.68600 39.64200 41.13100
H  45.25500 40.47500 41.56100
H  46.19200 42.92200 38.19600
H  44.97100 44.14100 38.77400
H  43.43500 42.77600 38.18900
H  44.06100 41.69900 39.47800
H  52.77700 40.15800 40.32100
H  51.06200 39.76500 40.59600
H  52.08300 39.48600 41.84900
H  55.37100 43.85900 42.29100
H  56.21800 42.67400 43.22100
H  54.88700 43.51200 44.02700
H  53.60700 47.74200 42.87000
H  51.74300 48.63500 44.95700
H  54.65000 46.29900 44.56500
H  53.10500 46.35100 45.56900
H  54.31900 47.73400 45.45700
H  51.17400 50.01100 42.59200
H  52.84300 49.79600 42.46100
H  52.90100 50.75000 44.91500
H  51.37900 51.50600 44.48100
H  52.85300 51.77800 43.48800
H  45.44300 49.58200 44.08300
H  46.54700 50.32700 42.83600
H  47.12400 49.92900 44.50200
H  44.58700 46.26800 39.99600
H  42.00700 43.78400 43.53400
H  43.14300 42.44700 43.16200
H  41.96500 43.06400 42.00700

