158

Mg 24.15200 -5.45400 45.29800
C  26.40300 -3.09500 43.85200
C  21.70500 -4.26300 43.12800
C  22.37500 -8.17300 45.96400
C  26.95800 -6.94200 46.86700
N  24.13600 -3.92700 43.70200
C  25.11800 -3.05100 43.27400
C  24.62300 -2.24500 42.04600
C  23.08100 -2.31400 42.27600
C  22.91000 -3.59000 43.04600
C  22.49700 -1.04900 42.82200
C  25.02900 -2.84300 40.68100
C  25.52100 -1.80000 39.64000
H  24.91600 -1.92500 38.24000
N  22.33400 -6.13700 44.64400
C  21.45200 -5.42300 43.86600
C  20.17200 -6.13300 43.85300
C  20.31900 -7.24100 44.69200
C  21.70000 -7.21900 45.16100
C  18.99900 -5.68600 43.07500
C  19.18300 -8.20500 45.15100
O  18.09900 -8.24300 44.69300
C  19.40800 -9.13400 46.26500
N  24.54100 -7.23900 46.28600
C  23.64900 -8.20800 46.49600
C  24.24700 -9.43100 47.20000
C  25.73600 -9.09100 47.44900
C  25.76200 -7.67200 46.77500
C  23.49500 -9.93100 48.51300
C  26.65800 -10.14500 46.84800
C  28.09900 -10.17100 47.33700
N  26.22000 -4.95600 45.68400
C  27.20400 -5.65100 46.34400
C  28.46700 -4.91600 46.17900
C  28.19200 -3.89800 45.18800
C  26.82700 -4.00000 44.90100
C  29.78800 -5.23200 46.82600
C  28.79000 -2.88800 44.36100
O  29.94900 -2.50200 44.33700
C  27.60800 -2.22700 43.43000
C  27.44100 -0.92700 43.93100
O  26.62900 -0.54300 44.79300
O  28.27700 -0.06900 43.25300
C  28.40400 1.28000 43.89400
H  20.91700 -3.86100 42.48600
H  21.97500 -9.18100 46.09500
H  27.74000 -7.38500 47.48600
H  24.96500 -1.23300 42.26500
H  22.43400 -2.40100 41.40300
H  23.29600 -0.45200 43.26200
H  21.76900 -1.22900 43.61300
H  22.04600 -0.51300 41.98700
H  24.29700 -3.54300 40.27900
H  25.97900 -3.36200 40.80200
H  26.59800 -1.87700 39.49000
H  25.18100 -0.80000 39.91000
H  18.09200 -6.29100 43.09200
H  19.24200 -5.56900 42.01900
H  18.74400 -4.69800 43.45700
H  18.42200 -9.30800 46.69500
H  19.98500 -8.68800 47.07500
H  19.81900 -10.05900 45.86000
H  24.16900 -10.31400 46.56500
H  25.89800 -8.93000 48.51500
H  23.08400 -10.92600 48.34100
H  22.69400 -9.24500 48.79000
H  24.17300 -10.03700 49.36000
H  26.74100 -9.91600 45.78500
H  26.27100 -11.16100 46.92400
H  28.23400 -11.24200 47.48400
H  28.09800 -9.65000 48.29400
H  28.91800 -10.00100 46.63700
H  30.38400 -6.09800 46.53800
H  29.70500 -5.37200 47.90400
H  30.28500 -4.26900 46.71600
H  27.85000 -2.36100 42.37500
H  28.98300 1.98600 43.29800
H  28.85100 1.09400 44.87100
H  27.45000 1.68300 44.23200
Mg 36.60100 49.90800 25.48000
C  36.91900 48.16100 28.53700
C  35.16500 52.49400 27.14900
C  35.85200 51.27100 22.45400
C  38.09600 47.11400 23.87500
N  35.97700 50.20500 27.60600
C  36.29700 49.45200 28.60500
C  36.06400 50.25600 29.93800
C  35.40400 51.61100 29.48900
C  35.50800 51.43000 27.95400
C  33.96300 51.94000 30.13500
C  37.40300 50.45500 30.75200
C  37.49300 50.01700 32.22300
H  36.21800 50.13300 33.09200
N  35.65400 51.64300 24.88200
C  35.12900 52.56400 25.71000
C  34.42200 53.64000 24.91800
C  34.63800 53.34900 23.56700
C  35.43600 52.03900 23.56900
C  33.77100 54.82300 25.65600
C  34.34800 54.14200 22.29900
O  34.65500 53.74800 21.18300
C  33.72000 55.47200 22.40900
N  36.90600 49.23500 23.43900
C  36.52900 50.03600 22.35800
C  37.02700 49.50100 21.03700
C  37.91100 48.21000 21.55100
C  37.60500 48.17300 23.06300
C  35.79700 49.13100 20.16200
C  39.48600 48.35900 21.13300
C  40.19400 47.11300 20.53300
N  37.24400 47.91200 25.98000
C  37.89200 46.89300 25.24200
C  38.21000 45.76300 26.17700
C  37.84800 46.20500 27.46800
C  37.30400 47.52300 27.29000
C  38.98000 44.55800 25.78300
C  37.78200 45.84300 28.85400
O  38.25400 44.88000 29.54000
C  37.16000 47.13700 29.60800
C  35.98800 46.66100 30.41100
O  34.95100 46.29200 29.87400
O  36.39100 46.49600 31.71000
C  35.43800 45.73200 32.60800
H  34.70500 53.28200 27.75000
H  35.78800 51.76100 21.48000
H  38.71800 46.39400 23.33900
H  35.34400 49.75900 30.58700
H  36.07600 52.40700 29.80800
H  34.01800 52.89600 30.65500
H  33.67300 51.13000 30.80500
H  33.17300 52.19100 29.42800
H  37.60300 51.52000 30.87700
H  38.18000 49.96200 30.16700
H  38.32200 50.60900 32.61100
H  37.78000 48.96600 32.24900
H  33.33800 54.59300 26.63000
H  32.97400 55.18800 25.00900
H  34.42500 55.68800 25.76600
H  32.78800 55.39900 22.96900
H  33.46900 55.80100 21.40100
H  34.45500 56.15900 22.82900
H  37.71400 50.21000 20.57500
H  37.45200 47.31500 21.13200
H  35.96200 48.14400 19.73100
H  35.59600 49.89500 19.41200
H  34.95500 48.92100 20.82100
H  40.04600 48.63900 22.02600
H  39.49600 49.21600 20.46100
H  40.47200 47.41700 19.52300
H  39.43900 46.32800 20.50200
H  41.00700 46.80800 21.19200
H  39.95600 44.83000 25.38000
H  38.30200 44.07800 25.07700
H  39.02300 44.02200 26.73000
H  37.87600 47.60800 30.28000
H  35.00300 46.36000 33.38600
H  36.02400 44.95600 33.10000
H  34.64200 45.16800 32.12200

