158

Mg 16.87000 51.86300 25.08700
C  18.61700 50.50100 27.80000
C  14.28900 52.72800 27.14100
C  15.15800 52.84300 22.31400
C  19.35600 50.42000 22.95100
N  16.54900 51.62500 27.20400
C  17.44800 51.13900 28.14900
C  16.90700 51.49000 29.60500
C  15.43100 51.92100 29.35000
C  15.43300 52.17100 27.82000
C  14.34900 50.87100 29.63600
C  17.73400 52.60500 30.27900
C  17.42800 52.85400 31.83200
H  16.41000 52.06400 32.52700
N  14.89500 52.69900 24.77200
C  14.04800 53.00300 25.78600
C  12.91200 53.65700 25.22100
C  13.05800 53.64600 23.74900
C  14.48300 53.08400 23.53800
C  11.70500 54.10100 26.08300
C  12.15200 54.22000 22.70700
O  12.34700 54.21700 21.48300
C  10.79600 54.86100 23.21000
N  17.18800 51.65400 22.97900
C  16.35500 52.25400 22.07100
C  16.86900 52.19800 20.57900
C  18.27400 51.33400 20.82400
C  18.32800 51.11800 22.32500
C  15.92200 51.36900 19.67800
C  19.63200 51.97400 20.38500
C  19.73400 52.30600 18.92500
N  18.65400 50.75400 25.28200
C  19.48400 50.20800 24.34000
C  20.58300 49.55400 25.00900
C  20.24300 49.60100 26.35200
C  19.02500 50.32700 26.44200
C  21.82800 48.91600 24.38900
C  20.64600 49.27500 27.64900
O  21.59300 48.60800 28.03700
C  19.71900 49.96400 28.63800
C  19.28500 48.97100 29.62700
O  18.38900 48.16000 29.55800
O  20.00100 49.24700 30.78500
C  19.65600 48.60700 32.06000
H  13.44600 53.01300 27.77300
H  14.72200 53.34300 21.44700
H  20.19200 49.99900 22.38900
H  16.98800 50.57100 30.18600
H  15.23500 52.84200 29.90000
H  13.35700 51.27200 29.84200
H  14.60300 50.21000 30.46500
H  14.24800 50.19900 28.78400
H  17.59000 53.51800 29.70100
H  18.78400 52.31800 30.22500
H  17.24400 53.92400 31.93200
H  18.39600 52.55500 32.23300
H  11.39400 55.14200 25.99600
H  11.99500 54.03700 27.13200
H  10.84700 53.43700 25.97100
H  10.27200 54.20100 23.90100
H  10.29400 54.98300 22.25000
H  10.94300 55.79700 23.74800
H  17.07300 53.16800 20.12700
H  18.18500 50.38300 20.29800
H  15.92300 50.33400 20.02100
H  16.28300 51.37300 18.64900
H  14.90100 51.74100 19.76300
H  20.48000 51.31700 20.58100
H  19.68700 52.96400 20.83700
H  20.00400 53.35600 18.80700
H  18.87700 52.00900 18.32100
H  20.58900 51.71400 18.60100
H  22.62900 49.64700 24.27700
H  21.66300 48.46000 23.41300
H  22.17600 48.11300 25.03800
H  20.23800 50.83100 29.04700
H  19.75800 47.53200 31.91500
H  18.65800 48.84000 32.43300
H  20.31400 48.76400 32.91500
Mg -11.52600 38.31700 42.43100
C  -9.29800 35.83800 41.20400
C  -10.04700 40.56000 40.36600
C  -14.23000 40.25100 42.66600
C  -13.37200 35.63600 43.83000
N  -9.97500 38.20400 40.87800
C  -9.11300 37.10900 40.62900
C  -7.99100 37.43500 39.63800
C  -8.15800 38.98800 39.43600
C  -9.42000 39.32100 40.35600
C  -6.86200 39.83400 39.78800
C  -7.99300 36.54500 38.28900
C  -6.78400 35.65000 38.13600
H  -5.65300 36.18800 37.28600
N  -11.96500 40.19300 41.82300
C  -11.16000 40.99200 41.01100
C  -11.75500 42.28900 40.89100
C  -12.99600 42.31100 41.56800
C  -13.09400 40.87800 42.07200
C  -11.00200 43.48900 40.22800
C  -13.93500 43.45500 41.79600
O  -13.71500 44.50500 41.20000
C  -15.18400 43.47500 42.72200
N  -13.46900 38.00700 43.23300
C  -14.41700 38.98400 43.17600
C  -15.84400 38.47200 43.55900
C  -15.59400 36.98800 43.94400
C  -14.04500 36.83300 43.61700
C  -16.37000 39.31000 44.72500
C  -16.57000 35.97700 43.23800
C  -17.18200 34.85000 44.04000
N  -11.29900 36.16900 42.66300
C  -12.10600 35.30600 43.36300
C  -11.43300 34.02100 43.45700
C  -10.27200 34.14500 42.61700
C  -10.27700 35.46300 42.14100
C  -11.94500 32.81300 44.16300
C  -9.07800 33.49800 41.99200
O  -8.66800 32.38800 41.97400
C  -8.45700 34.59300 41.02600
C  -7.05600 34.80800 41.43300
O  -6.16600 34.05300 41.08900
O  -6.83500 35.85700 42.28400
C  -5.52200 36.03500 42.85500
H  -9.43400 41.18000 39.70900
H  -15.12800 40.87200 42.70200
H  -13.89400 34.77900 44.26000
H  -7.03500 37.32600 40.15000
H  -8.32300 39.14500 38.37000
H  -7.29300 40.68800 40.31200
H  -6.34600 40.21700 38.90700
H  -6.13200 39.34000 40.42900
H  -7.98700 37.20700 37.42300
H  -8.95300 36.03000 38.25300
H  -7.13300 34.63700 37.93500
H  -6.28600 35.49400 39.09300
H  -11.38300 43.75700 39.24200
H  -9.92000 43.37000 40.28300
H  -11.12200 44.41500 40.79100
H  -15.01500 42.96800 43.67200
H  -15.99000 42.98900 42.17300
H  -15.42900 44.52700 42.86600
H  -16.48400 38.59600 42.68600
H  -15.67400 36.85000 45.02200
H  -15.60000 40.03800 44.97800
H  -16.56600 38.77800 45.65600
H  -17.17900 39.99400 44.46500
H  -15.94600 35.59500 42.43000
H  -17.23900 36.55800 42.60400
H  -16.88400 33.91200 43.57200
H  -18.26800 34.81300 43.94600
H  -16.95000 34.89300 45.10400
H  -12.37700 33.11400 45.11700
H  -11.09900 32.13800 44.29500
H  -12.71400 32.36400 43.53400
H  -8.48800 34.22900 39.99900
H  -5.54600 36.88500 43.53700
H  -4.70200 36.14100 42.14500
H  -5.40800 35.18500 43.52800

