158

Mg 53.78800 24.92800 44.81800
C  51.08900 26.99300 44.05100
C  52.04900 22.29900 43.39900
C  56.64800 23.21600 44.39700
C  55.57500 27.83000 45.51400
N  51.79600 24.69900 43.91000
C  50.80500 25.71600 43.75300
C  49.55100 25.13800 43.08700
C  49.83200 23.65800 43.27800
C  51.32100 23.50000 43.49800
C  49.00300 22.90900 44.36900
C  49.46600 25.55700 41.62200
C  48.02500 25.78700 41.07700
H  47.81100 25.42500 39.62500
N  54.32200 23.03100 44.05800
C  53.46100 22.07500 43.57400
C  54.14600 20.78000 43.42200
C  55.46400 20.96400 43.81000
C  55.53800 22.43300 44.08900
C  53.42400 19.52000 42.98900
C  56.58300 19.97400 43.81000
O  56.35700 18.83500 43.40700
C  57.92300 20.28600 44.27900
N  55.74400 25.50200 44.80700
C  56.80000 24.56000 44.69800
C  58.10000 25.16300 44.97700
C  57.83300 26.66700 45.12200
C  56.31500 26.74500 45.03100
C  58.89700 24.47800 46.18700
C  58.54400 27.61700 44.10000
C  59.49900 28.63400 44.70600
N  53.44800 27.03700 44.90700
C  54.20900 28.04300 45.36600
C  53.44300 29.25800 45.55800
C  52.22500 28.89900 44.89100
C  52.26800 27.53600 44.58400
C  53.82400 30.44300 46.27600
C  50.91500 29.42100 44.56900
O  50.47300 30.54400 44.81100
C  50.26800 28.30700 43.76000
C  50.44600 28.69300 42.31500
O  51.50700 28.76200 41.78700
O  49.25900 28.99300 41.79100
C  49.21700 29.54200 40.42900
H  51.41100 21.44600 43.16000
H  57.61500 22.77500 44.14900
H  56.13400 28.70700 45.84600
H  48.65800 25.35800 43.67300
H  49.47700 23.12900 42.39300
H  48.32500 22.23300 43.84800
H  48.38200 23.55600 44.98900
H  49.73200 22.37600 44.98000
H  49.85100 24.71500 41.04600
H  50.13500 26.37800 41.36500
H  47.72700 26.83200 41.16600
H  47.28200 25.22100 41.63800
H  53.52100 19.43900 41.90700
H  52.43100 19.45000 43.43200
H  53.96400 18.65400 43.37300
H  58.33200 20.93800 43.50600
H  58.57600 19.42600 44.13400
H  57.90600 20.63500 45.31200
H  58.70600 24.92300 44.10300
H  58.18200 26.89800 46.12800
H  58.76600 25.13600 47.04600
H  59.95600 24.43000 45.93600
H  58.55400 23.50500 46.54000
H  57.90800 28.19100 43.42700
H  59.04400 26.92800 43.42000
H  60.51800 28.47800 44.35300
H  59.35500 28.71400 45.78400
H  59.13500 29.57000 44.28300
H  54.73100 30.22000 46.83800
H  52.99200 30.83500 46.86000
H  53.97700 31.27900 45.59300
H  49.24000 28.25100 44.12000
H  50.24700 29.75400 40.14400
H  48.78700 30.53800 40.31600
H  48.68100 28.93800 39.69700
Mg 17.42300 52.24000 25.86300
C  19.59000 50.75800 28.24400
C  15.30100 53.02400 28.38400
C  15.48200 53.46100 23.52900
C  19.83800 51.28900 23.42100
N  17.48400 51.85400 28.05100
C  18.46700 51.28600 28.82400
C  18.11400 51.40700 30.34800
C  16.66600 52.01600 30.34600
C  16.48600 52.38300 28.85200
C  15.44200 51.14900 30.82900
C  18.97300 52.35600 31.12400
C  19.41100 51.90200 32.54100
H  18.38500 51.18000 33.38500
N  15.58500 52.99600 25.90800
C  14.80900 53.25800 27.03500
C  13.46200 53.75800 26.59600
C  13.52000 54.01100 25.21800
C  14.87400 53.47500 24.85600
C  12.37700 53.96400 27.48100
C  12.55500 54.55600 24.23100
O  12.67100 54.64600 23.01700
C  11.31400 55.31100 24.84600
N  17.60100 52.21700 23.76000
C  16.68200 52.92200 23.09400
C  17.01900 52.99500 21.59400
C  18.39900 52.41500 21.51800
C  18.65400 51.89300 22.96200
C  15.95200 52.40400 20.60900
C  19.55000 53.40100 21.06000
C  20.04600 54.44900 22.08900
N  19.34000 51.27400 25.77700
C  20.17300 50.97000 24.71800
C  21.38100 50.29000 25.15300
C  21.20100 50.20500 26.56200
C  19.93000 50.78100 26.87200
C  22.54500 49.83100 24.33000
C  21.77900 49.71900 27.85200
O  22.82300 49.10800 28.10100
C  20.73600 50.02700 28.91300
C  20.45100 48.73100 29.50400
O  20.15600 47.72200 28.86300
O  20.28200 48.88300 30.82400
C  19.73500 47.76900 31.60400
H  14.72600 53.39200 29.23600
H  14.88700 53.95700 22.75900
H  20.64800 51.15800 22.70000
H  18.11200 50.41000 30.78800
H  16.44900 52.95300 30.85900
H  15.91300 50.43400 31.50400
H  15.01200 50.51600 30.05300
H  14.77000 51.82700 31.35600
H  18.53500 53.33200 31.33400
H  19.89800 52.50500 30.56800
H  19.88500 52.75600 33.02400
H  20.22100 51.18900 32.39100
H  12.11200 55.01300 27.61300
H  12.65100 53.49200 28.42400
H  11.46200 53.50100 27.10900
H  10.69600 54.74100 25.54000
H  10.70800 55.73600 24.04600
H  11.64500 56.21100 25.36600
H  17.10300 54.04900 21.33100
H  18.36700 51.55000 20.85500
H  16.44300 51.59200 20.07300
H  15.46700 53.11800 19.94300
H  15.09400 52.02200 21.16200
H  19.21000 53.71700 20.07400
H  20.42400 52.75500 20.98800
H  19.32800 54.59100 22.89700
H  20.04500 55.38100 21.52300
H  21.08600 54.29800 22.37700
H  23.20000 49.15900 24.88300
H  23.12500 50.70000 24.01900
H  22.15700 49.26300 23.48400
H  21.12400 50.79000 29.58900
H  20.36100 46.91900 31.33200
H  18.69700 47.55600 31.35100
H  19.82600 47.93700 32.67800

