158

Mg 7.30200 54.80900 42.17000
C  6.51300 51.47100 41.48700
C  10.47500 54.21300 40.95700
C  7.71700 58.21000 41.87000
C  3.87000 55.28500 42.62100
N  8.28600 53.08700 41.22400
C  7.82700 51.78400 41.14500
C  9.00900 50.85200 40.67300
C  10.26600 51.71400 41.00100
C  9.62700 53.10300 40.99000
C  11.04400 51.29300 42.31500
C  8.97300 50.40000 39.20100
C  8.79700 51.45500 38.07900
H  7.53900 51.24000 37.23400
N  8.95900 55.99800 41.61500
C  10.17100 55.53400 41.21500
C  11.03600 56.63400 41.00700
C  10.28300 57.81900 41.34400
C  8.91400 57.38600 41.68400
C  12.48400 56.60400 40.44100
C  10.75700 59.25900 41.45000
O  11.90500 59.53600 41.08900
C  9.96300 60.51600 41.88000
N  5.95800 56.52700 42.17200
C  6.38400 57.81800 42.03300
C  5.26200 58.85300 42.29700
C  4.02200 57.85100 42.49700
C  4.66400 56.45700 42.46300
C  5.54200 59.76800 43.52600
C  2.83000 58.06800 41.47900
C  1.58000 58.83600 41.93200
N  5.54600 53.65800 42.23900
C  4.24900 53.98900 42.52800
C  3.47800 52.83100 42.72100
C  4.33800 51.82100 42.30400
C  5.57200 52.38300 42.00400
C  2.04000 52.70000 43.18300
C  4.37400 50.36100 42.08200
O  3.51500 49.45800 42.31400
C  5.83100 50.13500 41.52100
C  5.88700 49.22300 40.40700
O  5.42100 49.49300 39.28400
O  6.61700 48.07500 40.71200
C  6.94400 47.10800 39.70000
H  11.53600 53.99600 40.82000
H  7.99100 59.26700 41.84400
H  2.82500 55.45200 42.89100
H  8.85600 49.99400 41.32700
H  10.96800 51.41100 40.22500
H  10.43200 50.66400 42.96100
H  11.24900 52.21000 42.86800
H  11.97100 50.74500 42.14200
H  8.20200 49.63400 39.12100
H  9.93600 49.95100 38.95900
H  9.70000 51.29100 37.49200
H  8.76700 52.43000 38.56500
H  12.79600 55.60500 40.13700
H  13.03700 56.97200 41.30500
H  12.73200 57.23300 39.58600
H  9.32000 60.93300 41.10400
H  10.64700 61.33500 42.09900
H  9.56500 60.25200 42.85900
H  5.14600 59.46000 41.39900
H  3.56600 57.99400 43.47600
H  5.11100 59.29000 44.40600
H  5.19100 60.77500 43.30100
H  6.60300 59.81500 43.77100
H  2.52700 57.09200 41.10100
H  3.14900 58.66700 40.62600
H  0.85600 58.08700 42.25500
H  1.03000 59.43100 41.20300
H  1.91000 59.39700 42.80600
H  1.69300 51.73600 43.55600
H  1.44100 52.87400 42.29000
H  1.95600 53.52600 43.89000
H  6.45600 49.59000 42.22800
H  7.96100 47.03000 39.31700
H  6.34800 47.17800 38.79000
H  6.79000 46.15100 40.19800
Mg 0.64900 43.63700 26.60200
C  3.08000 43.88100 29.17500
C  -1.65100 42.68800 28.86600
C  -1.48700 43.36500 24.01900
C  3.28300 43.83900 24.35400
N  0.69400 43.44300 28.83800
C  1.77000 43.55700 29.67600
C  1.28100 43.50700 31.16700
C  -0.09300 42.75200 30.98400
C  -0.40800 42.95500 29.48800
C  0.11200 41.24100 31.25300
C  1.21700 44.89700 31.73900
C  1.27000 44.86400 33.33300
H  0.99500 43.61600 34.20200
N  -1.30700 43.26200 26.47300
C  -2.13600 42.91600 27.50300
C  -3.51900 42.81800 27.00900
C  -3.49400 43.18900 25.63000
C  -2.07700 43.30800 25.31400
C  -4.70700 42.67600 27.91100
C  -4.68600 43.43200 24.65600
O  -4.56200 43.74500 23.44700
C  -6.16000 43.16400 25.12800
N  0.89400 43.82800 24.42600
C  -0.13500 43.49900 23.64100
C  0.27200 43.57600 22.12800
C  1.76600 43.89900 22.23200
C  2.02900 43.89600 23.72300
C  -0.09400 42.34600 21.23700
C  2.31200 45.22400 21.55700
C  2.05300 46.54000 22.24400
N  2.75100 43.80100 26.71800
C  3.69900 43.79900 25.70200
C  4.96900 43.95400 26.23100
C  4.82700 44.05400 27.64700
C  3.42600 43.98500 27.86300
C  6.16500 44.06300 25.50000
C  5.50800 43.99600 28.90000
O  6.69000 43.94700 29.18100
C  4.38500 44.02700 29.94700
C  4.59500 42.83000 30.77300
O  4.47600 41.66800 30.37700
O  4.98900 43.23900 31.99300
C  5.20700 42.21800 33.02100
H  -2.38800 42.32000 29.58200
H  -2.22600 43.29400 23.21800
H  4.07400 43.96600 23.61100
H  2.06400 42.95100 31.68100
H  -0.95100 43.22000 31.46600
H  0.92000 41.07600 31.96600
H  0.21500 40.78200 30.27000
H  -0.72600 40.76100 31.75900
H  0.29400 45.39200 31.43800
H  2.11000 45.44700 31.43900
H  0.64700 45.71200 33.61300
H  2.23900 45.21300 33.69000
H  -5.31500 41.88400 27.47400
H  -5.32800 43.54500 28.12800
H  -4.45100 42.28200 28.89400
H  -6.33200 42.24800 25.69400
H  -6.79500 43.22500 24.24500
H  -6.60400 43.94700 25.74300
H  -0.24900 44.48600 21.82900
H  2.33500 43.09600 21.76400
H  0.72900 41.81400 20.76000
H  -0.64400 42.69100 20.36100
H  -0.65700 41.55100 21.72600
H  1.75800 45.22900 20.61800
H  3.38400 45.07900 21.42300
H  1.59600 46.62600 23.23000
H  1.41400 47.19000 21.64700
H  3.04700 46.98100 22.31900
H  6.12100 45.03300 25.00500
H  6.33800 43.21200 24.84000
H  6.98500 44.25900 26.19100
H  4.50200 44.98300 30.45700
H  5.81500 42.50700 33.87900
H  5.72300 41.38700 32.54000
H  4.26100 41.79200 33.35400

