158

Mg 49.03200 45.13300 42.07000
C  45.96600 45.74000 40.48200
C  48.96200 42.00100 40.95600
C  52.34500 44.99000 42.83400
C  49.25000 48.60200 42.67600
N  47.55100 43.92100 40.97200
C  46.37800 44.36400 40.43500
C  45.69100 43.24000 39.67500
C  46.60000 41.99200 40.02500
C  47.79100 42.63200 40.67000
C  45.98800 40.88000 40.98400
C  45.65500 43.64900 38.16800
C  44.26700 43.54600 37.53600
H  44.16900 42.56100 36.30700
N  50.41100 43.62800 41.95400
C  50.14900 42.37800 41.54000
C  51.34700 41.55000 41.61100
C  52.33600 42.41000 42.20600
C  51.73900 43.72600 42.43200
C  51.48100 40.02400 41.23400
C  53.77900 41.97900 42.50400
O  54.02900 40.76300 42.38400
C  54.96200 42.85700 42.85000
N  50.66100 46.66600 42.31000
C  51.84300 46.28400 42.67300
C  52.78600 47.51800 42.89800
C  51.79600 48.62400 43.04000
C  50.48800 47.96600 42.70600
C  53.76000 47.48600 44.16400
C  52.06600 49.95400 42.30400
C  52.09300 51.28400 43.12700
N  47.80300 46.78000 41.83200
C  48.10700 48.08400 42.12400
C  46.95300 48.91200 41.69300
C  46.07300 47.99000 41.05500
C  46.64300 46.75900 41.12500
C  46.83600 50.45700 41.88100
C  44.86800 47.90000 40.32500
O  44.11400 48.73200 39.83800
C  44.67600 46.42600 40.02700
C  43.44000 45.95900 40.75500
O  42.43200 45.56200 40.12000
O  43.64600 45.93600 42.05800
C  42.59600 45.39200 42.88000
H  48.99000 40.93400 40.72300
H  53.42000 44.90000 43.00600
H  49.26400 49.68200 42.83700
H  44.72200 43.05300 40.13900
H  47.04800 41.46100 39.18500
H  45.90600 39.92100 40.47400
H  44.97000 41.16700 41.24600
H  46.49800 40.70600 41.93200
H  46.29600 42.98300 37.58900
H  46.14600 44.60800 38.00400
H  44.00500 44.54800 37.19700
H  43.57700 43.21600 38.31400
H  50.62900 39.81200 40.58800
H  51.29100 39.45800 42.14600
H  52.39000 39.84700 40.65900
H  54.89400 43.22800 43.87300
H  55.05200 43.69900 42.16400
H  55.84400 42.21800 42.80600
H  53.45900 47.69200 42.05900
H  51.68700 48.82100 44.10600
H  53.77500 46.41800 44.38400
H  53.37400 48.01000 45.03900
H  54.78400 47.76300 43.91600
H  51.37400 50.03100 41.46600
H  52.98400 49.79900 41.73900
H  53.03400 51.82800 43.05200
H  51.85200 51.07400 44.16900
H  51.29500 51.98300 42.87500
H  46.48500 50.87700 40.93800
H  47.76500 50.94500 42.17600
H  46.01400 50.68100 42.56000
H  44.38900 46.27900 38.98600
H  42.18400 46.19300 43.49400
H  42.96300 44.62700 43.56400
H  41.68400 45.01500 42.41600
Mg 0.13800 43.68700 25.52500
C  2.21900 43.44500 28.32500
C  -2.49200 43.13700 27.72300
C  -1.76000 43.17900 22.80300
C  3.09900 43.91200 23.50700
N  -0.15300 43.51300 27.74100
C  0.87700 43.36200 28.63900
C  0.30700 43.48000 30.09700
C  -1.26600 43.31400 29.90000
C  -1.28800 43.19800 28.34300
C  -1.86500 42.03000 30.63600
C  0.73900 44.81100 30.75700
C  0.88400 44.70500 32.27000
H  0.44000 43.45800 33.11500
N  -1.87300 43.29500 25.32200
C  -2.81500 43.17900 26.31700
C  -4.18600 43.10200 25.69900
C  -3.92400 42.83900 24.33300
C  -2.50400 43.18000 24.05800
C  -5.45900 43.07900 26.61000
C  -4.97200 42.56600 23.22600
O  -4.63600 42.20700 22.06000
C  -6.43800 42.63400 23.59100
N  0.60100 43.31500 23.38400
C  -0.37600 43.24100 22.46000
C  0.24300 43.39300 21.06900
C  1.57500 44.19100 21.39500
C  1.81200 43.77700 22.88500
C  0.44700 41.98600 20.33300
C  1.72000 45.73000 21.20400
C  2.54500 46.20500 19.90700
N  2.24700 43.73100 25.86500
C  3.32300 43.84200 24.93300
C  4.55200 43.90500 25.61600
C  4.20100 43.73000 26.96600
C  2.82200 43.62400 27.02000
C  5.86800 44.12600 24.99700
C  4.75600 43.55900 28.28300
O  5.88800 43.47000 28.71000
C  3.49600 43.58000 29.20700
C  3.66100 42.52800 30.22600
O  3.51800 41.30800 30.16400
O  4.13000 43.12200 31.36200
C  4.49900 42.27800 32.43800
H  -3.40100 42.98400 28.31000
H  -2.44200 43.24200 21.95300
H  3.96500 44.12200 22.87600
H  0.66400 42.62900 30.67600
H  -1.85000 44.19900 30.15000
H  -2.56000 41.57200 29.93300
H  -2.45700 42.55000 31.38900
H  -1.10100 41.33200 30.98000
H  0.01700 45.61500 30.61300
H  1.68300 45.11300 30.30400
H  0.37100 45.55800 32.71300
H  1.91900 44.89600 32.55400
H  -6.27100 43.49100 26.01000
H  -5.40400 43.63400 27.54700
H  -5.66800 42.02700 26.80400
H  -7.05800 42.37000 22.73400
H  -6.59100 43.68900 23.81400
H  -6.52300 41.87800 24.37200
H  -0.28200 44.14400 20.47900
H  2.37100 43.72000 20.81700
H  1.46000 41.61200 20.18400
H  -0.01100 42.08200 19.34900
H  -0.18100 41.19600 20.74600
H  2.13100 46.20700 22.09300
H  0.77100 46.26400 21.15200
H  3.33000 46.87900 20.24800
H  1.92100 46.69300 19.15700
H  3.07900 45.44200 19.34200
H  5.79400 43.97900 23.91900
H  6.50400 43.38200 25.47700
H  6.13300 45.16500 25.19200
H  3.62000 44.54200 29.70400
H  4.37900 42.92200 33.30900
H  5.55600 42.01500 32.39600
H  3.83300 41.44200 32.65100

