158

Mg 47.34900 34.34600 26.81800
C  45.56500 33.50700 29.73200
C  47.84700 37.51300 28.19900
C  48.75100 35.32000 23.89600
C  46.32800 31.31100 25.35600
N  46.84600 35.39000 28.85500
C  46.10700 34.82200 29.88600
C  45.93700 35.75200 31.07300
C  46.91500 36.90700 30.65000
C  47.17300 36.64500 29.15600
C  46.55900 38.35200 30.92100
C  46.25100 35.44100 32.58600
C  45.07500 35.57500 33.54400
H  45.47300 35.82700 35.01300
N  48.26200 36.05600 26.22200
C  48.35000 37.26500 26.91800
C  49.03500 38.25000 26.11700
C  49.33900 37.63200 24.82600
C  48.82200 36.25800 24.94300
C  49.52700 39.60800 26.65000
C  50.10500 38.18800 23.53900
O  50.30000 37.58300 22.47200
C  50.75500 39.51000 23.63300
N  47.61000 33.38900 25.00200
C  48.23600 33.99500 23.92900
C  48.32700 33.08100 22.72100
C  47.41200 31.89000 23.09000
C  47.06700 32.25400 24.58600
C  48.12400 33.75500 21.30900
C  48.23000 30.59000 22.89200
C  49.39400 30.29800 23.79300
N  46.36300 32.63600 27.46700
C  45.91500 31.52000 26.71600
C  45.07600 30.73400 27.59000
C  44.96300 31.48200 28.76700
C  45.66100 32.67000 28.65400
C  44.34800 29.40000 27.25500
C  44.24500 31.44800 30.01900
O  43.41500 30.64200 30.51900
C  44.60100 32.78900 30.69000
C  45.26500 32.26200 31.94700
O  46.43500 32.00600 32.20000
O  44.23100 31.94200 32.81700
C  44.65600 31.14000 33.97000
H  48.05900 38.48000 28.66000
H  49.16800 35.67400 22.95000
H  45.96800 30.40000 24.87400
H  44.98300 36.25600 30.91900
H  47.87200 36.57300 31.04900
H  46.47800 38.88000 29.97100
H  47.40000 38.75000 31.48800
H  45.58100 38.45800 31.39200
H  47.01700 36.07700 33.03000
H  46.58400 34.42700 32.80600
H  44.45000 34.69300 33.40500
H  44.48700 36.43000 33.21100
H  48.97400 40.43100 26.19500
H  50.60200 39.71300 26.50500
H  49.40200 39.58700 27.73200
H  50.05800 40.25600 24.01500
H  51.23500 39.76300 22.68800
H  51.51100 39.43400 24.41400
H  49.39100 32.84100 22.72400
H  46.43400 31.90100 22.61000
H  49.08200 33.61000 20.80900
H  47.73500 34.77100 21.37500
H  47.33700 33.21000 20.78800
H  48.66600 30.60200 21.89300
H  47.51600 29.77400 23.00600
H  50.23800 30.34000 23.10600
H  49.29400 29.28800 24.19100
H  49.53800 31.01800 24.59900
H  44.24100 29.33100 26.17300
H  43.37900 29.41700 27.75400
H  45.13300 28.76100 27.65800
H  43.69000 33.33200 30.94200
H  45.63600 31.31400 34.41300
H  44.39000 30.12600 33.67200
H  43.94500 31.20700 34.79400
Mg -10.67000 39.64200 41.76900
C  -9.44000 36.54600 40.37000
C  -8.14600 41.28500 40.17600
C  -12.39200 42.35200 42.31900
C  -13.62600 37.64100 42.57100
N  -9.07100 38.96900 40.32700
C  -8.65500 37.69800 40.00900
C  -7.30200 37.72000 39.30900
C  -6.96300 39.25900 39.18000
C  -8.09600 39.93900 39.91400
C  -5.50600 39.62700 39.63400
C  -7.37000 36.99600 37.84800
C  -6.52600 35.71700 37.77200
H  -5.46300 35.64400 36.65700
N  -10.31500 41.58200 41.37500
C  -9.25400 42.09300 40.67500
C  -9.33000 43.57100 40.63800
C  -10.64100 43.89600 41.15300
C  -11.18300 42.59400 41.72300
C  -8.27900 44.57400 40.09300
C  -11.36100 45.24400 41.07100
O  -10.84500 46.12600 40.35000
C  -12.58000 45.59800 41.84100
N  -12.71900 39.92200 42.41000
C  -13.12500 41.17300 42.67600
C  -14.59500 41.17100 43.15200
C  -14.94200 39.67200 43.30500
C  -13.68400 39.03400 42.67300
C  -14.89100 42.06400 44.39900
C  -16.27900 39.19300 42.56200
C  -17.36100 38.46800 43.34500
N  -11.33100 37.49200 41.70700
C  -12.52100 36.88400 42.08900
C  -12.46000 35.44000 41.80900
C  -11.25200 35.29700 41.21400
C  -10.65800 36.59000 41.10100
C  -13.45200 34.40000 42.15200
C  -10.35700 34.30300 40.68700
O  -10.48900 33.09400 40.51700
C  -9.10500 35.06100 40.29500
C  -8.01500 34.65000 41.25900
O  -7.80800 35.19000 42.33100
O  -7.33100 33.55600 40.77000
C  -6.36700 32.84400 41.65600
H  -7.28900 41.88300 39.86000
H  -13.02500 43.22600 42.48300
H  -14.41200 36.94400 42.86900
H  -6.58700 37.25200 39.98500
H  -6.97600 39.52700 38.12400
H  -5.09600 38.66100 39.92700
H  -5.46400 40.38200 40.42000
H  -4.92600 39.91400 38.75800
H  -7.05400 37.65800 37.04200
H  -8.44100 36.81100 37.77400
H  -7.09500 34.81700 37.53500
H  -6.07900 35.52400 38.74700
H  -7.40500 44.01000 39.76600
H  -7.98900 45.38200 40.76500
H  -8.75600 45.00500 39.21300
H  -13.47700 45.31500 41.29100
H  -12.62500 46.68000 41.97200
H  -12.54100 45.07300 42.79500
H  -15.20500 41.61300 42.36300
H  -14.89600 39.38500 44.35500
H  -15.52300 42.89700 44.09300
H  -13.98200 42.35900 44.92500
H  -15.50400 41.50500 45.10700
H  -15.95400 38.50500 41.78100
H  -16.74600 40.04800 42.07400
H  -18.34600 38.92700 43.43000
H  -17.10700 38.19200 44.36800
H  -17.63700 37.57500 42.78500
H  -13.34800 34.04500 43.17800
H  -13.34400 33.48600 41.56900
H  -14.42200 34.84500 41.92800
H  -8.83200 34.63500 39.33000
H  -5.78200 33.61100 42.16400
H  -5.66100 32.24300 41.08300
H  -6.88000 32.22900 42.39400

