158

Mg 0.54900 8.27300 25.13400
C  1.31200 9.92800 28.29600
C  0.75000 5.31900 26.98400
C  0.20600 6.76500 22.30500
C  1.20900 11.28700 23.54600
N  0.86700 7.69700 27.44400
C  1.10600 8.56100 28.44200
C  1.29100 7.78000 29.80000
C  1.15900 6.29800 29.37200
C  1.00200 6.42000 27.80400
C  2.30700 5.27600 29.79300
C  0.28500 8.12900 30.96700
C  0.88600 8.58200 32.28500
H  1.98400 7.68500 32.83100
N  0.48300 6.26000 24.68700
C  0.54100 5.23500 25.55400
C  0.37100 4.01900 24.80300
C  0.22600 4.37900 23.40700
C  0.33900 5.83200 23.38800
C  0.31600 2.69100 25.48600
C  0.19300 3.49600 22.19800
O  0.00000 3.94800 21.08800
C  0.32800 1.97500 22.35400
N  0.80800 8.96700 23.20900
C  0.42900 8.12500 22.23600
C  0.70200 8.81600 20.85900
C  0.76900 10.30300 21.25300
C  0.94200 10.16400 22.75400
C  1.89800 8.24600 20.09200
C  -0.39400 11.23300 20.82200
C  -1.81600 11.11000 21.38600
N  1.17500 10.26200 25.68800
C  1.40900 11.38800 24.93500
C  1.74500 12.51400 25.78800
C  1.68600 12.02300 27.09400
C  1.38800 10.61300 27.00100
C  2.02900 13.88200 25.46800
C  1.80600 12.36500 28.51800
O  2.23100 13.42700 29.02500
C  1.57400 11.04300 29.34200
C  2.84300 10.78600 30.06500
O  3.83600 10.14300 29.69900
O  2.76600 11.45100 31.22500
C  3.86600 11.58700 32.15500
H  0.84600 4.32900 27.43500
H  -0.03400 6.31800 21.33900
H  1.37200 12.28200 23.12600
H  2.30600 8.10800 30.02400
H  0.19300 5.86800 29.63500
H  3.02800 5.57700 30.55400
H  2.81100 4.82500 28.93800
H  1.79900 4.46100 30.30800
H  -0.30100 7.25500 31.25100
H  -0.41900 8.84000 30.53400
H  0.11600 8.49100 33.05100
H  1.11400 9.64600 32.22100
H  -0.42100 2.08400 24.96200
H  -0.14700 2.71700 26.47200
H  1.28600 2.19800 25.55900
H  -0.44700 1.47300 22.93300
H  1.34200 1.91400 22.74900
H  0.35700 1.42500 21.41300
H  -0.19900 8.56600 20.29800
H  1.70100 10.77100 20.93400
H  2.74500 8.93100 20.05200
H  1.57500 8.10100 19.06100
H  2.20400 7.26700 20.45800
H  -0.43200 11.25700 19.73300
H  -0.07700 12.23100 21.12400
H  -2.05100 12.08400 21.81600
H  -1.79300 10.36900 22.18400
H  -2.58200 10.80900 20.67100
H  0.99900 14.21000 25.32800
H  2.60800 13.86000 24.54400
H  2.32900 14.46200 26.34000
H  0.66000 11.08700 29.93500
H  4.74800 11.70700 31.52600
H  4.11100 10.70700 32.74900
H  3.69100 12.34100 32.92300
Mg 26.01900 0.15100 29.48900
C  27.65500 -0.15500 32.54200
C  23.07100 0.48400 31.43200
C  24.08100 -0.04600 26.67300
C  28.85500 -0.58100 27.81100
N  25.47200 0.31400 31.71000
C  26.32400 0.12600 32.77800
C  25.64200 0.50700 34.14600
C  24.11600 0.59000 33.79000
C  24.18300 0.55000 32.22200
C  23.12500 -0.42000 34.39500
C  26.25200 1.78800 34.73200
C  27.03400 1.63500 36.14100
H  26.54600 2.60700 37.24800
N  23.83500 0.33400 29.09200
C  22.85400 0.51000 30.03300
C  21.54900 0.55000 29.29700
C  21.81600 0.47000 27.85200
C  23.25300 0.24300 27.79700
C  20.24100 0.68000 30.02200
C  20.89600 0.58900 26.64700
O  21.33000 0.38100 25.53700
C  19.50400 1.02300 26.84800
N  26.37300 -0.22000 27.56800
C  25.50600 -0.20100 26.53100
C  26.22900 -0.11100 25.20100
C  27.75900 -0.26800 25.66400
C  27.71100 -0.25200 27.13800
C  25.74600 -1.14300 24.11500
C  28.68600 0.77500 25.01200
C  29.50800 0.24400 23.96800
N  27.93600 -0.26000 30.01600
C  29.02600 -0.63100 29.22500
C  30.18100 -0.75400 30.09600
C  29.64900 -0.55100 31.39600
C  28.30200 -0.27200 31.28800
C  31.64500 -1.18300 29.67800
C  29.99600 -0.52400 32.84300
O  31.04800 -0.62300 33.46500
C  28.71900 -0.23500 33.64200
C  28.62400 -1.45200 34.62400
O  28.34100 -2.57600 34.29900
O  28.94400 -1.03900 35.88100
C  29.47400 -2.02700 36.86300
H  22.17700 0.70000 32.02000
H  23.62700 -0.13800 25.68500
H  29.80100 -0.77400 27.30100
H  25.83500 -0.24400 34.91100
H  23.71900 1.56800 34.06000
H  22.35000 0.01200 35.02800
H  23.75600 -1.13000 34.92900
H  22.67800 -1.12200 33.69100
H  25.43800 2.50100 34.86300
H  26.92700 2.27900 34.03100
H  28.11300 1.76400 36.06000
H  26.96200 0.58900 36.43800
H  20.32100 0.29000 31.03700
H  19.46000 0.12600 29.50100
H  19.98100 1.73300 30.13500
H  19.10500 1.45700 25.93200
H  19.46700 1.76100 27.64900
H  18.95600 0.11600 27.10200
H  26.14400 0.95100 24.96800
H  27.95500 -1.30500 25.39000
H  26.44600 -1.96600 23.97100
H  25.52900 -0.75800 23.11800
H  24.75700 -1.44400 24.46000
H  29.27500 1.28300 25.77500
H  28.03500 1.49600 24.51900
H  29.49300 0.72600 22.99100
H  29.29700 -0.77700 23.65100
H  30.54200 0.24300 24.31400
H  32.33200 -0.50600 30.18600
H  31.79800 -0.91300 28.63300
H  31.82500 -2.23800 29.88100
H  28.80200 0.74100 34.11800
H  29.05000 -1.83300 37.84800
H  30.54700 -1.93100 37.02900
H  29.21000 -3.03100 36.53300

