158

Mg 46.69200 24.38800 28.37400
C  47.65900 26.71000 30.87500
C  46.55500 21.85600 30.81400
C  45.93000 22.18800 26.07500
C  47.98600 26.65600 26.11600
N  47.13400 24.25300 30.57400
C  47.32900 25.42600 31.35200
C  47.14700 25.00800 32.77500
C  46.83100 23.52300 32.77800
C  46.92600 23.13000 31.31300
C  47.83500 22.61400 33.54800
C  46.02800 25.83800 33.44800
C  45.52600 25.33200 34.83700
H  45.68200 26.20500 36.06100
N  46.12200 22.32600 28.53600
C  46.11100 21.50600 29.59900
C  45.52100 20.28600 29.22000
C  45.26600 20.31700 27.82100
C  45.80600 21.57400 27.41800
C  45.21200 19.15500 30.15400
C  44.85400 19.23100 26.87600
O  44.80600 19.41100 25.69300
C  44.52200 17.94700 27.35800
N  46.85900 24.39800 26.42100
C  46.41200 23.38400 25.61900
C  46.74300 23.65900 24.20100
C  47.12300 25.19200 24.23700
C  47.38200 25.45300 25.64800
C  47.85900 22.74200 23.57300
C  46.13200 26.12600 23.48200
C  46.57300 27.38300 22.80000
N  47.66000 26.28300 28.45500
C  48.09400 27.03800 27.45600
C  48.66700 28.29400 27.90400
C  48.38900 28.27500 29.24600
C  47.84600 26.96500 29.56600
C  49.18000 29.46900 27.16000
C  48.33400 29.07500 30.42500
O  48.65800 30.24200 30.55200
C  47.89500 28.06900 31.57700
C  48.78300 28.11400 32.78700
O  49.55100 27.24200 33.03400
O  48.59700 29.21100 33.59300
C  49.26700 29.20200 34.92900
H  46.45400 21.11800 31.61200
H  45.75700 21.58500 25.18100
H  48.24100 27.47300 25.43800
H  48.02000 25.20100 33.39800
H  45.83500 23.31300 33.16800
H  47.17200 21.92700 34.07300
H  48.39400 23.20400 34.27500
H  48.60800 22.04400 33.03100
H  45.16300 26.03600 32.81600
H  46.50700 26.81500 33.51100
H  46.27500 24.56200 35.02000
H  44.47300 25.06000 34.77200
H  44.38000 18.58600 29.73900
H  45.02900 19.46300 31.18300
H  46.04300 18.45000 30.12400
H  45.19700 17.44400 28.05000
H  44.45200 17.35600 26.44500
H  43.52300 18.03300 27.78500
H  45.84600 23.43300 23.62500
H  48.08100 25.42100 23.77000
H  48.81800 22.98200 24.03200
H  47.96000 22.62000 22.49500
H  47.51900 21.84200 24.08600
H  45.45700 26.50700 24.24900
H  45.58500 25.41100 22.86800
H  46.08900 28.29900 23.13900
H  46.47600 27.21400 21.72700
H  47.64400 27.56100 22.89700
H  48.31300 29.86800 26.63500
H  49.81600 29.16900 26.32700
H  49.73700 30.13500 27.82000
H  46.93000 28.36300 31.98900
H  48.73500 28.45400 35.51700
H  49.20600 30.16600 35.43600
H  50.28000 28.80300 34.89500
Mg -5.34400 25.56100 25.95700
C  -4.12500 27.22300 28.77000
C  -7.43300 23.69100 28.04800
C  -6.24300 23.67400 23.35300
C  -3.36400 27.54700 23.95800
N  -5.74700 25.43300 28.12100
C  -5.04800 26.16300 29.09400
C  -5.63800 25.80800 30.45300
C  -6.43800 24.47100 30.21000
C  -6.50800 24.45200 28.70700
C  -5.72900 23.22200 30.74800
C  -6.54600 26.97200 30.98800
C  -6.57500 27.12600 32.50700
H  -5.91500 26.10500 33.46400
N  -6.71200 23.97900 25.70700
C  -7.52900 23.47300 26.64700
C  -8.43000 22.46000 26.05600
C  -8.03300 22.41200 24.62700
C  -6.96400 23.37700 24.48500
C  -9.54000 21.75100 26.77100
C  -8.59400 21.56300 23.45600
O  -8.14400 21.53200 22.30800
C  -9.82000 20.77200 23.74200
N  -4.97100 25.74100 23.95800
C  -5.23400 24.69700 23.12700
C  -4.60000 24.90700 21.75400
C  -3.97100 26.35900 21.87000
C  -4.14600 26.62200 23.35800
C  -3.67100 23.78700 21.27900
C  -4.63800 27.39300 21.08900
C  -3.94600 28.72200 20.82100
N  -3.94400 27.04000 26.21300
C  -3.26400 27.84300 25.32000
C  -2.48900 28.84800 26.02900
C  -2.80400 28.66200 27.40800
C  -3.67600 27.52000 27.45200
C  -1.52200 29.89200 25.43800
C  -2.53900 29.18200 28.76100
O  -1.94900 30.16200 29.17500
C  -3.47700 28.28200 29.67700
C  -2.72700 27.59100 30.72800
O  -2.14000 26.55700 30.63500
O  -2.76600 28.28200 31.89100
C  -2.03200 27.77600 33.01900
H  -8.10800 23.05900 28.62900
H  -6.33600 23.12000 22.41700
H  -2.69600 28.19600 23.38800
H  -4.80000 25.67200 31.13700
H  -7.44100 24.44100 30.63400
H  -5.60500 22.51000 29.93200
H  -6.41700 22.88800 31.52400
H  -4.87300 23.52400 31.35100
H  -7.55800 26.83600 30.60500
H  -6.28000 27.93900 30.56100
H  -7.63600 27.16900 32.75200
H  -6.33100 28.16800 32.70900
H  -9.78400 20.73200 26.47200
H  -10.43700 22.34700 26.94000
H  -9.23500 21.53900 27.79600
H  -10.25100 20.55100 22.76600
H  -10.57900 21.43300 24.15800
H  -9.69600 19.88000 24.35600
H  -5.44400 25.00300 21.07200
H  -2.91900 26.32900 21.58700
H  -2.84200 24.23100 20.72700
H  -4.24400 23.17300 20.58400
H  -3.22300 23.30000 22.14500
H  -5.54800 27.80100 21.53000
H  -4.91000 26.95100 20.13000
H  -2.90800 28.72800 21.15300
H  -4.48700 29.60200 21.16900
H  -3.95100 28.92800 19.75000
H  -1.64500 29.96600 24.35700
H  -0.46500 29.66900 25.58400
H  -1.69700 30.85800 25.91000
H  -4.22900 28.95700 30.08500
H  -1.07600 28.27600 33.17700
H  -1.78200 26.71900 32.94100
H  -2.59700 28.01900 33.91900

