158

Mg 8.24300 3.99400 27.39300
C  9.55900 2.25000 30.29500
C  6.15900 5.68200 29.36400
C  6.79100 5.10500 24.65700
C  10.06000 1.66000 25.43500
N  7.86000 3.90100 29.63900
C  8.61600 3.30800 30.59600
C  8.30700 3.91900 31.95400
C  7.12300 4.87500 31.75100
C  7.07000 4.87300 30.12400
C  5.77400 4.53600 32.46200
C  9.68800 4.44700 32.69000
C  9.56200 5.41100 33.93700
H  10.23100 5.00400 35.26200
N  6.80600 5.36200 27.03200
C  6.03200 5.94400 27.98900
C  5.17800 6.99300 27.33300
C  5.42300 6.93800 25.97100
C  6.38800 5.73000 25.81600
C  4.24600 7.90400 28.10800
C  4.86900 7.71400 24.75000
O  5.26100 7.54300 23.55600
C  3.72400 8.53700 25.00300
N  8.30100 3.31500 25.39300
C  7.65100 4.03200 24.44400
C  7.83700 3.45300 23.09000
C  9.09400 2.53400 23.29900
C  9.13000 2.49100 24.81200
C  6.59000 2.66200 22.52900
C  10.39100 3.08800 22.68300
C  11.36400 3.91100 23.47900
N  9.44100 2.23000 27.72300
C  10.12400 1.40500 26.85100
C  10.76700 0.30400 27.65400
C  10.60500 0.65700 28.98100
C  9.75000 1.77400 28.97600
C  11.64900 -0.77400 27.00800
C  11.05200 0.24200 30.29000
O  11.89000 -0.57100 30.56200
C  10.35200 1.27100 31.24400
C  9.63100 0.55900 32.35500
O  8.59900 0.02200 32.16300
O  10.28100 0.58500 33.54700
C  9.68700 -0.03600 34.71900
H  5.58800 6.30400 30.05700
H  6.28500 5.45400 23.75500
H  10.47200 0.97800 24.68900
H  7.84800 3.13300 32.55300
H  7.42600 5.90000 31.96600
H  5.04200 4.08500 31.79200
H  5.28700 5.43400 32.84400
H  5.83400 3.79400 33.25800
H  10.34800 4.79400 31.89600
H  10.14200 3.51600 33.03200
H  8.50100 5.43200 34.18800
H  9.81200 6.45900 33.77400
H  4.19400 8.96000 27.84400
H  4.47300 7.92000 29.17400
H  3.26300 7.43700 28.05200
H  3.39000 8.96500 24.05700
H  4.06700 9.40400 25.56800
H  2.82400 8.01100 25.32000
H  8.11400 4.29300 22.45300
H  8.88000 1.51600 22.97400
H  5.67800 2.85000 23.09600
H  6.82600 1.60300 22.42100
H  6.33400 3.26600 21.65800
H  10.05900 3.66600 21.82100
H  10.96300 2.21200 22.37600
H  12.21800 3.24300 23.58500
H  10.82500 4.35500 24.31700
H  11.73600 4.69500 22.82000
H  11.59400 -0.82600 25.92100
H  11.35600 -1.70400 27.49600
H  12.71700 -0.62700 27.17200
H  11.07200 1.90600 31.76100
H  8.92000 -0.77300 34.48000
H  9.13700 0.73000 35.26600
H  10.49300 -0.44000 35.33200
Mg 35.84300 48.01500 25.90300
C  36.03000 46.12200 28.81900
C  34.17600 50.42600 27.60800
C  35.36500 49.59500 22.85800
C  37.38000 45.41900 24.19700
N  35.08700 48.18600 27.91000
C  35.42500 47.36800 28.99400
C  34.98900 48.01800 30.34000
C  34.29600 49.29100 29.96000
C  34.53000 49.28900 28.41100
C  32.76600 49.47400 30.47100
C  36.18300 48.13200 31.31900
C  35.89800 47.87400 32.72800
H  35.92800 49.14600 33.66500
N  34.88500 49.73500 25.29800
C  34.38200 50.69700 26.20500
C  34.09600 51.93100 25.44600
C  34.49600 51.70200 24.09700
C  34.95800 50.28900 23.97900
C  33.49800 53.13300 26.14900
C  34.62300 52.72200 23.00000
O  35.00900 52.47200 21.90400
C  34.37900 54.19000 23.33600
N  36.12300 47.48600 23.77500
C  35.90100 48.29000 22.76400
C  36.50700 47.69500 21.44300
C  37.20600 46.41700 21.87500
C  36.96800 46.48100 23.42400
C  35.57700 47.31200 20.30400
C  38.72800 46.36300 21.48900
C  39.02700 45.79200 20.11000
N  36.59700 46.13200 26.39000
C  37.13200 45.15300 25.57300
C  37.42900 43.94600 26.30300
C  36.99500 44.24900 27.68400
C  36.48100 45.60800 27.61900
C  38.07200 42.67600 25.82800
C  36.94200 43.75200 29.02600
O  37.27500 42.68200 29.50300
C  36.35300 45.01300 29.85400
C  35.19100 44.51000 30.64600
O  34.24800 43.87800 30.11700
O  35.31500 44.75500 32.02300
C  34.16600 44.42100 32.87600
H  33.88700 51.30200 28.19300
H  35.31200 50.09400 21.88800
H  37.95300 44.64600 23.68100
H  34.22500 47.37600 30.77900
H  34.90700 50.08800 30.38200
H  32.78100 50.24200 31.24400
H  32.39100 48.57000 30.95100
H  32.11600 49.83400 29.67300
H  36.63300 49.11500 31.18000
H  37.01200 47.50400 30.99200
H  36.72100 47.23100 33.03800
H  34.93200 47.38500 32.85800
H  33.92100 54.07400 25.79700
H  33.77800 53.25500 27.19500
H  32.41600 53.14500 26.01900
H  33.32900 54.46100 23.44800
H  34.64400 54.74400 22.43600
H  35.08000 54.59200 24.06700
H  37.12300 48.48700 21.01700
H  36.74100 45.48800 21.54400
H  35.50100 48.05400 19.50900
H  34.61200 46.95500 20.66500
H  36.00700 46.50800 19.70600
H  39.34200 45.75000 22.15000
H  39.09100 47.37800 21.65500
H  38.08600 45.49500 19.64800
H  39.75400 44.98100 20.14100
H  39.53700 46.54100 19.50400
H  39.08800 42.62200 26.22000
H  38.13800 42.60500 24.74200
H  37.46900 41.83200 26.16600
H  37.07600 45.35800 30.59300
H  33.95000 45.22300 33.58100
H  34.38000 43.53700 33.47700
H  33.22600 44.32900 32.33200

