158

Mg 25.81500 0.15000 29.41200
C  27.57800 0.14300 32.34600
C  22.88800 0.43000 31.16400
C  24.17600 0.03600 26.51500
C  28.85300 -0.47800 27.75000
N  25.37100 0.33100 31.46800
C  26.27400 0.43300 32.55700
C  25.57700 0.91700 33.89300
C  24.04300 0.98700 33.41200
C  24.08500 0.48000 31.96500
C  22.94000 0.29400 34.34700
C  26.14100 2.26100 34.43900
C  25.32800 2.81500 35.63800
H  26.03600 2.79300 36.98200
N  23.77100 0.23500 28.94800
C  22.68200 0.33500 29.74200
C  21.45600 0.40200 29.01600
C  21.88100 0.49600 27.68800
C  23.35500 0.21900 27.67200
C  20.07600 0.54800 29.53800
C  21.03800 0.80600 26.44700
O  21.45500 0.87100 25.25900
C  19.60300 1.06200 26.62100
N  26.44200 -0.30200 27.37000
C  25.51400 -0.20300 26.36300
C  26.28600 -0.34700 25.07100
C  27.75300 -0.25400 25.42900
C  27.69600 -0.44500 26.93600
C  25.83600 -1.66700 24.47200
C  28.33500 1.22000 24.95500
C  29.88700 1.28100 24.75700
N  27.74900 -0.32900 29.93300
C  28.85100 -0.54600 29.12600
C  30.03400 -0.75600 29.95200
C  29.57700 -0.48000 31.25300
C  28.22000 -0.13200 31.17000
C  31.36300 -1.16300 29.47600
C  29.91900 -0.33000 32.67100
O  30.93400 -0.60100 33.29600
C  28.66500 0.09200 33.38300
C  28.39700 -0.99300 34.33100
O  27.63300 -1.92400 34.11600
O  29.09700 -0.76800 35.46000
C  28.91200 -1.66700 36.60100
H  21.96400 0.60900 31.71800
H  23.68200 -0.05600 25.54500
H  29.81400 -0.51100 27.23300
H  25.51500 0.16700 34.68100
H  23.81900 2.05100 33.33200
H  22.30300 1.08500 34.74200
H  23.34400 -0.30000 35.16700
H  22.37200 -0.43400 33.76800
H  26.31400 2.91100 33.58100
H  27.13100 2.00300 34.81600
H  24.35900 2.32300 35.72500
H  25.09200 3.86100 35.44200
H  19.37900 -0.22600 29.22000
H  19.59500 1.50900 29.35400
H  20.16800 0.47000 30.62200
H  18.98800 1.13200 25.72500
H  19.55600 2.06300 27.05000
H  19.14400 0.27100 27.21500
H  25.93900 0.55500 24.56600
H  28.39100 -1.05300 25.05100
H  26.60500 -2.41900 24.30000
H  25.26400 -1.47400 23.56400
H  25.09600 -2.13200 25.12300
H  27.98400 2.06700 25.54400
H  27.85500 1.49000 24.01500
H  30.13300 1.32900 23.69700
H  30.39300 0.42400 25.20200
H  30.35700 2.13700 25.24200
H  31.65400 -2.20900 29.57700
H  32.07100 -0.69600 30.16100
H  31.62800 -0.81000 28.48000
H  28.74500 1.07800 33.84000
H  29.16400 -1.13700 37.52000
H  29.62500 -2.49200 36.60400
H  27.90600 -2.07800 36.67800
Mg -12.37500 39.73700 42.40300
C  -10.86300 36.82100 41.27200
C  -9.79400 41.56400 40.91000
C  -14.26800 42.58500 42.92200
C  -15.23900 37.93400 43.30800
N  -10.62300 39.23100 40.95300
C  -10.08700 37.96300 40.86800
C  -8.68900 37.99900 40.31300
C  -8.34400 39.58700 40.24100
C  -9.66400 40.15200 40.84200
C  -7.00600 39.95400 40.95000
C  -8.65400 37.22300 38.94100
C  -7.41400 36.32700 39.02200
H  -7.02600 35.66300 37.75900
N  -12.04900 41.77200 41.98500
C  -10.91100 42.34600 41.40500
C  -11.05400 43.82400 41.43800
C  -12.27100 44.09100 42.16800
C  -12.98000 42.76900 42.36500
C  -10.08800 44.81100 40.79600
C  -12.83700 45.52700 42.61800
O  -12.20400 46.56100 42.36900
C  -14.13800 45.68800 43.37800
N  -14.57000 40.18900 42.87600
C  -14.97900 41.40000 43.21100
C  -16.39300 41.38400 43.82200
C  -16.76700 39.90700 43.66100
C  -15.40200 39.31100 43.34600
C  -16.45400 41.82800 45.34300
C  -17.80600 39.54300 42.57200
C  -18.83500 38.48900 43.00200
N  -12.94400 37.72700 42.41000
C  -14.11400 37.20700 42.82400
C  -14.00100 35.73800 42.62700
C  -12.68200 35.54400 42.14000
C  -12.15400 36.81100 41.89100
C  -15.09200 34.79300 43.11500
C  -11.68200 34.56100 41.78600
O  -11.61300 33.38600 41.99100
C  -10.44100 35.37300 41.24000
C  -9.28900 35.06400 42.08900
O  -9.08600 35.45700 43.22800
O  -8.49800 34.11700 41.40500
C  -7.33900 33.59800 42.18500
H  -8.92300 42.18700 40.69700
H  -14.95500 43.36800 43.24800
H  -16.02400 37.35300 43.79500
H  -8.06700 37.51800 41.06800
H  -8.12800 39.88100 39.21500
H  -6.50800 40.68000 40.30700
H  -6.38000 39.07400 41.10000
H  -7.23000 40.41400 41.91300
H  -8.53100 37.90100 38.09600
H  -9.53500 36.59800 38.79500
H  -7.63100 35.57100 39.77600
H  -6.59900 36.95300 39.38600
H  -10.32200 45.00900 39.75000
H  -9.04700 44.49100 40.76700
H  -10.17300 45.81500 41.21100
H  -14.19200 44.93500 44.16500
H  -14.92500 45.43000 42.66900
H  -14.28600 46.65500 43.85800
H  -17.09200 42.03400 43.29600
H  -17.16100 39.46700 44.57700
H  -16.32900 41.07700 46.12300
H  -17.42200 42.26500 45.58900
H  -15.75200 42.57600 45.71200
H  -17.33800 39.12000 41.68300
H  -18.22700 40.42500 42.09100
H  -18.44600 37.47900 42.87700
H  -19.79200 38.58700 42.48900
H  -18.98600 38.41800 44.07900
H  -14.78100 34.30800 44.04000
H  -15.11500 33.97500 42.39400
H  -16.08500 35.18000 43.34300
H  -10.33000 35.03600 40.20900
H  -6.60900 33.31700 41.42600
H  -7.62900 32.71300 42.75200
H  -6.88800 34.47400 42.65000

