158

Mg 47.29700 24.72800 28.42100
C  47.95400 27.09900 31.10200
C  46.35400 22.46800 30.96500
C  46.72000 22.45300 26.10300
C  48.52700 26.94900 26.20700
N  47.15400 24.84200 30.77800
C  47.40400 25.92400 31.60400
C  47.14800 25.55200 33.06200
C  46.87900 23.93100 33.00900
C  46.77000 23.68900 31.49000
C  48.02100 23.06600 33.54400
C  46.07800 26.34500 33.78200
C  45.72200 25.92400 35.23400
H  45.46500 26.90100 36.40700
N  46.56100 22.71900 28.53400
C  46.24500 22.02000 29.65300
C  45.84100 20.71200 29.24500
C  46.08700 20.61500 27.87600
C  46.44400 21.94800 27.44000
C  45.46600 19.58600 30.24400
C  45.86300 19.48000 26.92000
O  46.08900 19.67500 25.75200
C  45.31900 18.13300 27.37400
N  47.50600 24.74200 26.40300
C  47.17200 23.74800 25.63300
C  47.47600 24.07500 24.14100
C  47.85900 25.58400 24.26100
C  48.03200 25.79500 25.70800
C  48.59600 23.15500 23.47900
C  46.79000 26.44400 23.49500
C  47.29700 27.24300 22.22200
N  48.16600 26.55900 28.57200
C  48.63600 27.37000 27.52200
C  49.16300 28.61800 28.03900
C  48.91800 28.55200 29.46400
C  48.30900 27.29200 29.71700
C  49.79200 29.68600 27.17300
C  49.04400 29.25900 30.72500
O  49.52600 30.34500 31.05100
C  48.33500 28.39300 31.84800
C  49.24600 28.31000 32.95300
O  50.39400 27.94800 32.95400
O  48.66100 28.70300 34.03600
C  49.21000 28.21900 35.31900
H  46.09800 21.69300 31.69000
H  46.54300 21.69600 25.33600
H  48.78000 27.61600 25.38100
H  48.07000 25.85700 33.55500
H  45.91400 23.73800 33.47900
H  48.70500 23.66400 34.14500
H  48.60000 22.62700 32.73100
H  47.58500 22.25200 34.12300
H  45.16000 26.28600 33.19700
H  46.47600 27.36000 33.77500
H  46.51300 25.22200 35.49700
H  44.81300 25.34100 35.08800
H  46.30000 18.97600 30.58900
H  44.83000 18.84800 29.75600
H  44.82800 19.93100 31.05900
H  45.87200 17.78000 28.24500
H  45.51100 17.46600 26.53300
H  44.28900 18.28900 27.69300
H  46.54900 23.86500 23.60700
H  48.84500 25.72000 23.81800
H  49.57000 23.64500 23.47700
H  48.37000 23.06500 22.41600
H  48.60700 22.10500 23.77200
H  46.39900 27.16500 24.21300
H  46.02300 25.79300 23.07700
H  46.84700 26.63800 21.43600
H  48.38000 27.12700 22.22700
H  46.97700 28.27900 22.33800
H  50.60000 29.96000 27.85200
H  49.10900 30.50300 26.93800
H  50.24400 29.22900 26.29300
H  47.44500 28.95100 32.13700
H  49.43900 29.08100 35.94500
H  50.10600 27.60900 35.20300
H  48.40600 27.61300 35.73600
Mg 6.28800 54.28200 39.50000
C  5.83800 50.99300 39.47000
C  9.50600 53.91200 38.40400
C  6.31400 57.60200 38.67100
C  2.74700 54.86100 40.18500
N  7.51800 52.58400 38.73300
C  7.16500 51.29000 38.98900
C  8.31200 50.31700 38.63100
C  9.51100 51.35300 38.81000
C  8.84700 52.73200 38.68800
C  10.34400 51.37500 40.08700
C  8.17400 49.71400 37.22200
C  7.78200 50.59600 35.99000
H  6.30300 50.65900 35.38000
N  7.69400 55.57600 38.61000
C  8.95700 55.24800 38.26000
C  9.61000 56.37200 37.64000
C  8.63100 57.40400 37.65800
C  7.51600 56.90900 38.35900
C  11.05000 56.52100 37.29900
C  8.85500 58.76000 37.15000
O  9.94900 59.07400 36.70600
C  7.85000 59.95700 37.24600
N  4.60300 56.04500 39.41500
C  5.01600 57.28600 39.10100
C  3.98600 58.34700 39.41000
C  2.79100 57.40500 39.83500
C  3.35800 56.01100 39.80500
C  4.42200 59.33000 40.50200
C  1.44000 57.55300 39.06000
C  0.75700 58.91200 39.16000
N  4.66600 53.23600 39.94900
C  3.32100 53.55700 40.19300
C  2.62600 52.29800 40.48500
C  3.54800 51.27700 40.22400
C  4.76000 51.91800 39.82600
C  1.22900 52.05700 40.90400
C  3.69000 49.77700 40.24700
O  2.92100 48.85200 40.50500
C  5.20900 49.61700 39.74400
C  4.95400 48.75800 38.54300
O  4.52600 49.04400 37.43600
O  5.24000 47.53600 38.94300
C  4.60900 46.37100 38.21800
H  10.54700 53.66500 38.18100
H  6.39300 58.68800 38.59200
H  1.66900 54.86400 40.35900
H  8.36700 49.44900 39.28900
H  10.07500 51.08800 37.91600
H  11.38600 51.49900 39.79400
H  10.15600 50.47600 40.67400
H  10.08400 52.22900 40.71300
H  7.34800 49.00200 37.18500
H  9.12900 49.23800 37.00300
H  8.47700 50.34700 35.18800
H  7.95200 51.65400 36.18800
H  11.20100 56.77400 36.25000
H  11.63100 55.64000 37.57100
H  11.48500 57.39700 37.77900
H  6.92700 59.53000 36.85300
H  8.22400 60.60900 36.45700
H  7.74700 60.48300 38.19600
H  3.69600 58.93200 38.53800
H  2.49200 57.60200 40.86400
H  3.71500 60.09000 40.83400
H  5.31600 59.88800 40.22200
H  4.76600 58.81700 41.40100
H  0.81300 56.82700 39.57800
H  1.59200 57.30900 38.00900
H  1.35600 59.74300 39.53200
H  -0.07600 58.72200 39.83800
H  0.41500 59.24500 38.18000
H  0.70900 53.01400 40.88000
H  1.28200 51.51300 41.84700
H  0.82400 51.27300 40.26500
H  5.77700 49.13400 40.53900
H  5.20900 45.46200 38.27400
H  4.43800 46.42000 37.14300
H  3.63000 46.11000 38.62000

