158

Mg 16.78800 -2.21600 27.87900
C  15.47100 -0.10800 30.41800
C  18.88500 -3.60100 30.25300
C  18.53500 -3.64600 25.36800
C  15.27900 -0.03800 25.58600
N  17.21200 -1.75500 30.05900
C  16.42200 -1.04200 30.88400
C  16.84700 -1.23700 32.39600
C  18.04400 -2.20400 32.23500
C  18.04300 -2.55700 30.72300
C  19.40900 -1.63600 32.58600
C  15.71300 -1.75700 33.35100
C  15.99400 -1.61600 34.80300
H  17.20400 -0.90300 35.32500
N  18.20500 -3.72100 27.79200
C  18.96600 -4.13100 28.87800
C  19.81500 -5.20600 28.41000
C  19.78500 -5.31900 26.97200
C  18.83000 -4.14800 26.63700
C  20.74900 -5.98100 29.43600
C  20.46900 -6.18600 25.92800
O  20.39800 -5.98500 24.72400
C  21.42200 -7.39300 26.48000
N  17.00700 -1.74600 25.78700
C  17.69400 -2.61200 24.94900
C  17.35800 -2.42500 23.43900
C  16.13800 -1.46000 23.55400
C  16.10300 -1.11200 25.05700
C  18.52400 -1.71100 22.74700
C  14.75600 -1.93600 22.94800
C  13.71700 -2.47500 23.88800
N  15.55100 -0.40000 27.88100
C  15.01100 0.32100 26.86600
C  14.14300 1.26900 27.37900
C  14.30700 1.22400 28.81800
C  15.21100 0.13300 29.05500
C  13.20800 2.13800 26.55800
C  13.86900 1.79700 30.07700
O  13.05100 2.65600 30.30800
C  14.62900 0.98600 31.15300
C  15.39800 1.93000 31.89300
O  16.27500 2.63600 31.47400
O  15.04600 1.92100 33.21100
C  15.87800 2.76500 34.09600
H  19.61700 -3.99500 30.96000
H  19.17100 -4.19700 24.67200
H  14.82100 0.54800 24.78600
H  17.19000 -0.23800 32.66700
H  17.90600 -3.09500 32.84800
H  19.29300 -0.75900 33.22400
H  20.01900 -1.38400 31.71900
H  19.92300 -2.42800 33.13000
H  15.62000 -2.81700 33.11400
H  14.79500 -1.26900 33.02500
H  15.86800 -2.61300 35.22400
H  15.15800 -1.09700 35.27300
H  20.25600 -6.93900 29.59800
H  20.95200 -5.57200 30.42600
H  21.78100 -6.13700 29.12200
H  20.89800 -8.09500 27.12800
H  22.22000 -7.05400 27.14100
H  21.87400 -7.88900 25.62100
H  17.09000 -3.37200 22.97000
H  16.22800 -0.51600 23.01700
H  19.49600 -1.92700 23.19000
H  18.47300 -0.62300 22.70900
H  18.49400 -2.04200 21.70900
H  14.98500 -2.64200 22.14900
H  14.31100 -1.05600 22.48300
H  14.15700 -2.69200 24.86200
H  13.14900 -3.27500 23.41400
H  12.97000 -1.69400 24.02800
H  13.63700 2.77300 25.78200
H  12.75200 2.87200 27.22300
H  12.48900 1.41400 26.17400
H  13.91200 0.62500 31.89000
H  15.74200 2.48400 35.14000
H  15.72400 3.84400 34.06300
H  16.93700 2.76500 33.83700
Mg 43.29900 42.81900 26.00900
C  42.42800 45.41500 28.19600
C  44.63900 41.05600 28.48400
C  44.17000 40.59400 23.65100
C  42.57000 45.16700 23.42600
N  43.44300 43.16500 28.12500
C  42.90600 44.20300 28.88700
C  43.01500 43.95600 30.40800
C  44.01800 42.70100 30.39800
C  44.08100 42.25900 28.90100
C  45.38900 42.87300 31.20600
C  41.53100 43.80000 30.90500
C  41.19100 44.16400 32.31800
H  42.28200 43.93700 33.35300
N  44.35800 41.08400 26.03800
C  44.75600 40.43300 27.22600
C  45.40600 39.20000 26.89500
C  45.12600 38.94500 25.45600
C  44.52700 40.21400 24.94500
C  45.89200 38.39700 28.04800
C  45.47400 37.79800 24.54000
O  45.14400 37.81800 23.36000
C  46.23300 36.69200 25.13800
N  43.49400 42.94900 23.83100
C  43.86300 41.86600 23.12600
C  43.56100 41.97800 21.68600
C  42.77100 43.32300 21.66600
C  42.87700 43.88100 23.06600
C  44.92400 42.04900 20.90900
C  41.31600 43.19100 21.02600
C  40.40200 42.05500 21.52700
N  42.67200 44.86200 25.81300
C  42.46800 45.65400 24.72000
C  42.09800 47.01000 25.12900
C  42.06100 46.96500 26.52500
C  42.41400 45.64200 26.83400
C  41.79700 48.13000 24.18100
C  41.85100 47.72400 27.70700
O  41.54100 48.87900 27.86000
C  42.14100 46.74400 28.89900
C  43.20500 47.18700 29.84400
O  44.41000 47.19600 29.68000
O  42.57900 47.46400 31.00800
C  43.37000 48.01900 32.08500
H  45.14200 40.50700 29.28300
H  44.10400 39.80300 22.90100
H  42.20700 45.80600 22.61900
H  43.59900 44.73000 30.90600
H  43.43200 42.02400 31.01900
H  45.64300 43.87300 31.55700
H  46.10200 42.46800 30.48800
H  45.47100 42.20800 32.06600
H  41.02600 42.86900 30.64800
H  40.84800 44.43700 30.34300
H  40.37800 43.51900 32.65300
H  40.84500 45.19300 32.42100
H  46.52700 38.97100 28.72400
H  46.50500 37.55400 27.72800
H  45.03000 37.92300 28.51600
H  45.60600 36.27900 25.92800
H  47.11900 37.18600 25.53700
H  46.59500 35.89600 24.48700
H  42.93600 41.16500 21.31700
H  43.23800 44.07500 21.03000
H  45.76000 42.01700 21.60700
H  45.02200 42.88900 20.22100
H  45.10700 41.06300 20.48100
H  41.46000 43.29600 19.95100
H  40.85600 44.09200 21.43000
H  39.41900 42.46800 21.75100
H  40.77900 41.54600 22.41400
H  40.23400 41.21600 20.85200
H  42.73800 48.15000 23.63200
H  41.58000 49.01400 24.78200
H  40.95800 47.89000 23.52700
H  41.19300 46.57000 29.40800
H  44.15300 48.71200 31.77600
H  43.75000 47.41300 32.90800
H  42.68100 48.73000 32.54200

