158

Mg 40.29600 9.82100 29.39100
C  42.19800 11.06600 32.07200
C  37.86100 8.90100 31.72200
C  38.32900 8.78700 26.81100
C  42.89800 10.36000 27.23400
N  39.99100 10.07700 31.67000
C  40.89800 10.76600 32.49600
C  40.32500 10.79500 33.97200
C  38.94600 9.99000 33.78700
C  38.88100 9.67400 32.28600
C  38.68900 8.81900 34.81800
C  40.26200 12.17900 34.66500
C  40.94800 12.33900 36.04100
H  40.04600 12.89900 37.11100
N  38.38800 9.04400 29.28700
C  37.53800 8.63800 30.33100
C  36.33100 8.06800 29.82400
C  36.33100 8.26700 28.38300
C  37.69200 8.83500 28.09900
C  35.18100 7.61800 30.67400
C  35.29200 8.04600 27.23700
O  35.38600 8.55200 26.14900
C  33.95400 7.45800 27.71900
N  40.63000 9.47400 27.34400
C  39.67500 8.96000 26.46000
C  40.26700 8.61400 25.11400
C  41.67100 9.27700 25.20100
C  41.83200 9.68300 26.66800
C  40.11000 7.03700 24.90300
C  41.85600 10.49500 24.19600
C  41.51900 11.89700 24.66200
N  42.23200 10.55500 29.60600
C  43.16600 10.70600 28.62900
C  44.37900 11.19900 29.20500
C  44.01500 11.50400 30.56400
C  42.70300 10.92800 30.79600
C  45.61000 11.46300 28.41100
C  44.48100 12.00600 31.81900
O  45.56400 12.54100 32.15100
C  43.31700 11.77200 32.79100
C  43.83600 10.76700 33.72700
O  44.29200 9.66000 33.42000
O  44.00200 11.29300 34.97900
C  44.68900 10.56200 36.02600
H  37.15900 8.49100 32.45000
H  37.74300 8.40800 25.97100
H  43.74000 10.43200 26.54300
H  41.00800 10.13400 34.50500
H  38.09300 10.64000 33.98200
H  38.98500 7.87400 34.36200
H  37.67000 8.84500 35.20400
H  39.34600 8.95000 35.67800
H  39.20100 12.40300 34.77100
H  40.65000 12.95600 34.00500
H  41.77500 13.03000 35.87600
H  41.29900 11.34300 36.31000
H  34.78800 6.66200 30.32900
H  34.40400 8.36100 30.49300
H  35.59200 7.59600 31.68300
H  33.53000 8.18000 28.41700
H  34.30200 6.52200 28.15400
H  33.34000 7.34400 26.82600
H  39.57200 9.11700 24.44100
H  42.36400 8.50500 24.86800
H  41.02100 6.84400 24.33500
H  39.25800 6.76900 24.27900
H  40.10500 6.52900 25.86700
H  41.10300 10.31000 23.42900
H  42.91600 10.41700 23.95700
H  40.85400 11.90600 25.52500
H  41.02700 12.40800 23.83400
H  42.38000 12.54600 24.82400
H  46.38900 11.34600 29.16400
H  45.68100 12.49400 28.06400
H  45.80000 10.79500 27.57100
H  42.92800 12.60200 33.38200
H  45.74600 10.36700 35.84400
H  44.14100 9.62100 36.08400
H  44.58600 11.09300 36.97200
Mg -2.77400 33.98700 26.07400
C  -4.52100 32.50100 28.76900
C  -1.00800 35.97100 28.35600
C  -1.54700 35.80000 23.45700
C  -4.85400 32.37000 23.89600
N  -2.86200 34.31700 28.21600
C  -3.62400 33.50300 29.10600
C  -3.44000 34.02400 30.56300
C  -2.43800 35.19700 30.43100
C  -2.09500 35.17500 28.95500
C  -2.97800 36.57600 30.99000
C  -2.91500 32.82200 31.40700
C  -2.28800 33.21700 32.83100
H  -2.70100 32.40900 34.08000
N  -1.38800 35.57000 25.93600
C  -0.70000 36.19100 27.00300
C  0.25500 37.20200 26.34300
C  0.13300 37.05000 24.97600
C  -0.99200 36.10100 24.70400
C  1.16100 38.02000 27.21400
C  0.91100 37.81200 23.92800
O  0.68000 37.69900 22.76000
C  1.98300 38.68700 24.38500
N  -3.29300 34.23200 24.01200
C  -2.67100 35.04800 23.15600
C  -3.11600 34.86200 21.67900
C  -4.01200 33.53800 21.79000
C  -4.03000 33.34000 23.33900
C  -3.91700 36.07100 21.11600
C  -3.63900 32.27100 21.01100
C  -2.79700 31.22900 21.79800
N  -4.30500 32.62300 26.21200
C  -5.08700 32.05200 25.25200
C  -5.92800 31.05600 25.85100
C  -5.74200 31.24900 27.21400
C  -4.81200 32.22600 27.41200
C  -6.71600 30.04000 25.08800
C  -6.18500 30.75900 28.54300
O  -6.88500 29.82300 28.82900
C  -5.42200 31.58200 29.59400
C  -6.41700 32.24300 30.47200
O  -7.27800 33.01100 30.12200
O  -6.24800 31.79300 31.81400
C  -7.31500 32.14100 32.77000
H  -0.39100 36.55100 29.04500
H  -1.14100 36.27800 22.56300
H  -5.45000 31.75000 23.22400
H  -4.40300 34.37900 30.93100
H  -1.49400 35.10100 30.96700
H  -2.71500 37.43000 30.36600
H  -2.42900 36.86700 31.88600
H  -4.02100 36.57800 31.30900
H  -2.11700 32.36300 30.82200
H  -3.59500 32.01500 31.67800
H  -2.74300 34.17900 33.06800
H  -1.21600 33.38400 32.72200
H  1.03900 37.77400 28.26900
H  0.92900 39.07400 27.06400
H  2.23500 38.02400 27.02900
H  1.65500 39.68900 24.66100
H  2.68700 38.80100 23.56100
H  2.65900 38.15800 25.05700
H  -2.22800 34.52400 21.14500
H  -5.03500 33.79800 21.51800
H  -3.92000 36.91800 21.80200
H  -4.96400 35.94000 20.84200
H  -3.40200 36.36500 20.20100
H  -3.07300 32.63500 20.15400
H  -4.57900 31.82600 20.68500
H  -2.26100 31.66300 22.64200
H  -2.07100 30.68700 21.19100
H  -3.42200 30.42000 22.17500
H  -6.14300 29.16300 24.78700
H  -7.26000 30.49500 24.26100
H  -7.53800 29.75000 25.74200
H  -4.79600 30.87400 30.13700
H  -6.72600 32.26300 33.67900
H  -7.95500 31.28500 32.98800
H  -7.87600 33.01300 32.43500

