158

Mg -0.76500 7.43000 26.25300
C  -0.09200 9.50900 28.89300
C  -0.17900 4.75900 28.40900
C  -1.16200 5.51900 23.67600
C  -1.10700 10.34000 24.13500
N  -0.23700 7.16400 28.41500
C  -0.04600 8.18400 29.28000
C  0.24200 7.64900 30.72100
C  0.24300 6.09700 30.48900
C  0.03500 5.96400 28.97200
C  1.58500 5.39300 30.95900
C  -0.86900 8.12700 31.69600
C  -0.54800 8.07800 33.19800
H  0.54900 7.22000 33.88700
N  -0.70100 5.42500 26.06300
C  -0.40200 4.46500 26.98600
C  -0.29900 3.14900 26.35500
C  -0.58000 3.35900 24.94800
C  -0.85300 4.78900 24.84600
C  -0.01000 1.85100 27.20000
C  -0.53500 2.34600 23.76700
O  -0.95700 2.57800 22.64100
C  -0.16200 0.85000 23.97200
N  -1.11000 7.92000 24.23000
C  -1.22000 6.88900 23.36300
C  -1.44800 7.34500 21.97100
C  -1.87000 8.79500 22.20500
C  -1.28200 9.08900 23.55700
C  -0.13300 7.21500 21.10700
C  -3.46000 8.88600 22.14000
C  -3.92500 10.13600 21.33800
N  -0.62000 9.52700 26.40400
C  -0.70400 10.53400 25.48800
C  -0.42200 11.78500 26.10200
C  -0.16900 11.41400 27.48000
C  -0.31700 10.02600 27.55700
C  -0.46200 13.22100 25.61600
C  0.16900 12.03400 28.74700
O  0.47100 13.19700 29.02900
C  0.11500 10.79100 29.69700
C  1.26800 10.86000 30.58400
O  2.38200 10.88700 30.15200
O  0.90700 11.00900 31.87900
C  2.03900 11.04200 32.84200
H  0.02900 3.83500 28.95300
H  -1.42800 4.89000 22.82400
H  -1.14600 11.21800 23.48700
H  1.26900 7.95100 30.93000
H  -0.61700 5.63200 30.97200
H  2.23000 6.04800 31.54400
H  2.14700 5.06000 30.08700
H  1.26600 4.55600 31.58000
H  -1.58700 7.32000 31.55100
H  -1.32300 9.05600 31.34900
H  -1.48400 7.63100 33.53500
H  -0.57800 9.12000 33.51700
H  0.79700 1.96100 27.92500
H  0.28400 1.03600 26.53900
H  -0.93400 1.53900 27.68700
H  0.89000 0.85000 24.25900
H  -0.30400 0.43600 22.97300
H  -0.87500 0.40200 24.66300
H  -2.27500 6.81200 21.50100
H  -1.32100 9.47000 21.54900
H  -0.39100 6.37600 20.46000
H  0.79100 6.92800 21.60800
H  -0.03200 8.14500 20.54800
H  -3.85500 9.04800 23.14200
H  -4.02800 8.05000 21.73100
H  -3.24400 10.64400 20.65600
H  -4.23600 10.95900 21.98100
H  -4.84300 9.78200 20.86900
H  -0.75300 13.96600 26.35800
H  -1.16500 13.23400 24.78400
H  0.46400 13.58700 25.17200
H  -0.69200 10.86600 30.42500
H  2.64900 11.93500 32.70300
H  2.75300 10.23000 32.70000
H  1.75800 11.04400 33.89500
Mg 1.12700 41.92800 24.61300
C  3.02600 41.91000 27.70100
C  -1.56800 41.02500 26.33100
C  -0.28600 41.64500 21.70700
C  4.33200 42.17100 22.99900
N  0.84600 41.43900 26.78000
C  1.63500 41.66800 27.83200
C  0.83600 41.48200 29.13700
C  -0.59600 40.94600 28.68700
C  -0.47400 41.16200 27.15900
C  -0.96100 39.48600 29.10200
C  0.78600 42.84400 29.95400
C  1.29000 42.78100 31.46800
H  0.23800 42.39100 32.59900
N  -0.70600 41.55500 24.06900
C  -1.72100 41.25400 24.96000
C  -2.96900 41.10800 24.10500
C  -2.58700 41.22500 22.76000
C  -1.12800 41.42600 22.80400
C  -4.35100 40.91400 24.70700
C  -3.47300 41.22500 21.50100
O  -2.98200 41.37900 20.42300
C  -5.02800 40.94600 21.62100
N  1.95400 41.83100 22.69800
C  1.07400 41.94700 21.68000
C  1.81400 42.12300 20.31800
C  3.18100 42.53100 20.78300
C  3.14300 42.20500 22.25700
C  1.95300 40.85100 19.36400
C  3.66500 43.96100 20.47400
C  5.14200 44.26000 19.93600
N  3.25500 41.97100 25.20300
C  4.37000 42.05000 24.40300
C  5.55900 42.25100 25.23400
C  5.11500 42.23600 26.53100
C  3.68500 42.02500 26.44800
C  6.96800 42.40200 24.75200
C  5.37200 42.27400 28.04000
O  6.45800 42.45100 28.63000
C  4.04000 42.02000 28.77000
C  4.24300 40.77800 29.60600
O  4.02100 39.61900 29.28300
O  4.78000 41.21200 30.73800
C  5.02700 40.06500 31.63800
H  -2.53100 40.95200 26.84100
H  -0.83800 41.98400 20.82800
H  5.25400 42.54400 22.54600
H  1.35000 40.74700 29.75600
H  -1.42900 41.52700 29.08300
H  -0.23500 39.20900 29.86600
H  -0.72200 38.95100 28.18300
H  -1.98800 39.33400 29.43500
H  -0.28200 43.06200 29.96600
H  1.32600 43.68600 29.52000
H  1.59300 43.78500 31.76500
H  2.14300 42.10500 31.51700
H  -4.14100 40.97800 25.77500
H  -4.70000 39.89100 24.56400
H  -5.04400 41.64500 24.29000
H  -5.32500 40.14900 22.30300
H  -5.31000 40.79900 20.57800
H  -5.39400 41.92300 21.93600
H  1.35800 42.92400 19.73600
H  3.93000 41.93800 20.25900
H  1.21700 40.11000 19.67800
H  2.93500 40.38000 19.41700
H  1.67700 41.28200 18.40200
H  3.69500 44.49400 21.42400
H  2.90000 44.50700 19.92200
H  5.68400 44.42800 20.86700
H  5.24000 45.09600 19.24300
H  5.46900 43.31700 19.50000
H  7.13400 42.00300 23.75200
H  7.55800 41.86100 25.49200
H  7.34500 43.42300 24.82600
H  3.96500 42.96300 29.31100
H  5.56800 40.49200 32.48300
H  5.76400 39.37000 31.23500
H  4.14200 39.49200 31.91300

