158

Mg 25.66200 0.96500 29.82500
C  27.72500 0.96700 32.63300
C  22.91900 1.49100 31.95900
C  23.64600 1.02500 27.12200
C  28.36300 0.38400 27.69500
N  25.41600 1.24100 32.15000
C  26.40300 1.24100 33.04300
C  25.87700 1.48400 34.42600
C  24.32600 1.59100 34.15100
C  24.19900 1.38300 32.66000
C  23.49700 0.51300 34.92800
C  26.46300 2.73100 35.13400
C  26.61900 2.47900 36.62600
H  26.16700 3.66800 37.53600
N  23.58900 1.05600 29.61400
C  22.62500 1.21100 30.57900
C  21.35900 1.28300 29.96100
C  21.55300 1.19200 28.54200
C  23.02300 1.06900 28.37200
C  20.02600 1.49800 30.65900
C  20.45300 1.14900 27.40200
O  20.76200 1.13200 26.18900
C  18.99500 1.19700 27.64800
N  25.91400 0.69000 27.68000
C  24.97000 1.01400 26.78300
C  25.55900 1.08700 25.40700
C  27.08200 0.86300 25.60400
C  27.08900 0.60800 27.06700
C  24.91600 0.21100 24.23200
C  27.99000 2.01100 25.10200
C  29.38400 1.61200 24.59500
N  27.58500 0.61400 30.01100
C  28.57600 0.33100 29.10800
C  29.79400 0.24100 29.80300
C  29.50300 0.40300 31.17600
C  28.14600 0.64500 31.29600
C  31.09400 0.00900 29.09200
C  30.03200 0.39600 32.44900
O  31.18500 0.31000 32.78100
C  28.93500 0.80000 33.50000
C  28.88100 -0.23800 34.43700
O  28.52500 -1.38300 34.23300
O  29.37700 0.19000 35.66500
C  29.32700 -0.59500 36.84800
H  22.03800 1.66400 32.58100
H  23.13100 1.33000 26.20900
H  29.14500 0.23800 26.94700
H  26.05600 0.61100 35.05400
H  23.97400 2.59700 34.38200
H  23.77200 0.51600 35.98300
H  23.68000 -0.46700 34.48700
H  22.41900 0.67200 34.95400
H  25.75500 3.54100 34.95800
H  27.36900 3.10200 34.65600
H  27.65400 2.24800 36.87600
H  26.01600 1.61900 36.91900
H  19.48800 2.35800 30.25900
H  20.13800 1.68300 31.72700
H  19.33400 0.66300 30.55500
H  18.62200 0.42800 28.32300
H  18.35200 1.10000 26.77300
H  18.78400 2.15400 28.12400
H  25.46400 2.15500 25.20900
H  27.25800 -0.12400 25.17700
H  25.71500 -0.36200 23.76100
H  24.53200 0.89800 23.47900
H  24.22900 -0.54400 24.61600
H  28.25300 2.80000 25.80600
H  27.42600 2.56000 24.34800
H  30.07300 2.22800 25.17300
H  29.35400 1.91200 23.54800
H  29.58200 0.54200 24.66200
H  31.15900 -0.93600 28.55300
H  31.89900 0.15600 29.81200
H  31.19500 0.76800 28.31500
H  29.29200 1.71800 33.96500
H  28.62100 -0.19700 37.57700
H  30.25400 -0.44800 37.40200
H  29.23300 -1.65700 36.61900
Mg 42.67600 42.29100 25.88900
C  41.54200 44.46800 28.45200
C  43.87100 40.15500 28.18300
C  44.15300 40.69200 23.32300
C  41.66800 44.81400 23.54900
N  42.91900 42.44500 28.16100
C  42.21400 43.29800 28.99900
C  42.30900 42.83700 30.46300
C  43.15800 41.52800 30.33200
C  43.30000 41.34300 28.78900
C  44.49400 41.58700 31.09200
C  41.05800 42.67600 31.21600
C  41.28700 42.06600 32.62100
H  40.92500 43.00600 33.88200
N  43.71500 40.55600 25.73000
C  44.11700 39.77700 26.77200
C  44.62600 38.58300 26.32900
C  44.97900 38.80000 24.92900
C  44.33100 40.08300 24.59100
C  45.04100 37.45000 27.21500
C  45.66400 37.87200 23.87400
O  46.11800 38.32700 22.81400
C  46.00500 36.38400 24.28400
N  42.97700 42.75800 23.78900
C  43.56600 41.87100 22.96700
C  43.47300 42.28700 21.50600
C  42.25000 43.32300 21.60900
C  42.33300 43.69900 23.04700
C  44.73300 42.91300 20.88800
C  40.85100 42.85400 21.07100
C  40.13800 41.82100 21.99700
N  41.93000 44.25900 25.95000
C  41.45400 45.10800 24.95100
C  40.85900 46.25500 25.52000
C  40.80600 46.01300 26.87500
C  41.48300 44.78600 27.09500
C  40.39300 47.44800 24.68900
C  40.40000 46.53900 28.18100
O  39.86800 47.57900 28.59300
C  40.73800 45.44700 29.22600
C  41.61400 46.11700 30.33600
O  42.77700 46.24100 30.28500
O  40.88600 46.40000 31.39600
C  41.58500 46.83200 32.59500
H  44.19700 39.37300 28.87200
H  44.56100 40.24200 22.41600
H  41.16700 45.49600 22.85800
H  43.03900 43.52600 30.88800
H  42.54300 40.72200 30.73300
H  44.62500 42.49800 31.67600
H  45.35000 41.58900 30.41700
H  44.63300 40.77100 31.80100
H  40.35100 42.17600 30.55400
H  40.89900 43.73400 31.42300
H  42.26900 41.62600 32.79500
H  40.60700 41.21500 32.60400
H  46.11900 37.31800 27.11600
H  44.61000 36.57400 26.73100
H  44.60800 37.52700 28.21200
H  46.40500 35.73900 23.50100
H  45.11400 35.91400 24.70000
H  46.62800 36.50300 25.17000
H  43.07300 41.49700 20.87000
H  42.45600 44.24900 21.07300
H  44.41200 43.80300 20.34600
H  45.30300 42.27500 20.21300
H  45.35400 43.08400 21.76800
H  41.08400 42.51600 20.06100
H  40.26000 43.77000 21.06500
H  39.41100 42.41600 22.55000
H  40.83800 41.30300 22.65200
H  39.68500 40.97500 21.47900
H  39.86300 48.12900 25.35500
H  39.61800 47.18300 23.97000
H  41.21500 47.83700 24.08900
H  39.74500 45.15100 29.56400
H  41.49200 46.02200 33.31800
H  41.01400 47.70800 32.90100
H  42.62000 47.12300 32.41600

