158

Mg 36.92600 49.36100 25.64700
C  36.77100 47.62400 28.77100
C  35.33000 51.92600 27.20500
C  36.53200 50.79000 22.60000
C  38.00500 46.47000 24.12600
N  36.03700 49.67200 27.70300
C  36.24400 48.91100 28.86400
C  35.98500 49.70200 30.14900
C  35.23700 50.94900 29.57800
C  35.67100 50.91200 28.11300
C  33.71000 50.95800 29.84800
C  37.31700 49.96000 30.99800
C  37.34500 49.40200 32.40200
H  36.05900 49.19500 33.15000
N  36.04500 51.11500 24.99900
C  35.45800 51.99800 25.78600
C  34.92500 53.05500 24.96900
C  35.26700 52.78100 23.59700
C  36.03300 51.52800 23.68600
C  34.21100 54.22500 25.50200
C  34.95400 53.60400 22.37800
O  35.37900 53.32200 21.26300
C  34.22000 54.90000 22.44600
N  37.52600 48.91500 23.71500
C  37.18500 49.61700 22.62200
C  37.31200 48.73500 21.28900
C  38.21400 47.62100 21.81600
C  37.83600 47.64100 23.29100
C  36.00200 48.29100 20.56100
C  39.70100 47.73000 21.45900
C  40.42000 48.97700 21.96900
N  37.37200 47.46100 26.26900
C  37.82100 46.39700 25.49100
C  38.02800 45.28400 26.38700
C  37.74600 45.72300 27.63200
C  37.27400 47.05400 27.56200
C  38.54200 43.92100 26.00300
C  37.68100 45.32700 28.97600
O  37.95500 44.26200 29.49100
C  37.25900 46.55600 29.74900
C  36.04700 46.14800 30.62900
O  34.89400 46.49400 30.39000
O  36.37300 45.33700 31.68500
C  35.30800 44.85400 32.52800
H  34.96100 52.82200 27.70700
H  36.20900 51.16500 21.62700
H  38.23800 45.46700 23.76300
H  35.27600 49.04000 30.64600
H  35.61700 51.79900 30.14400
H  33.53100 51.93600 30.29600
H  33.38200 50.10300 30.43900
H  33.11500 50.87000 28.93900
H  37.69100 50.96400 30.79800
H  38.04200 49.41700 30.39200
H  38.05800 50.02300 32.94500
H  37.84800 48.43500 32.38600
H  34.90900 55.06100 25.51600
H  33.85400 54.04500 26.51600
H  33.27400 54.42500 24.98300
H  34.17700 55.39800 21.47700
H  34.70800 55.56200 23.16100
H  33.18800 54.81000 22.78800
H  37.91000 49.31800 20.58900
H  37.84100 46.63100 21.55400
H  35.72400 47.27100 20.29500
H  35.96000 48.76800 19.58200
H  35.17100 48.77200 21.07600
H  39.85200 47.57900 20.39000
H  40.21100 46.88000 21.91100
H  39.68800 49.78500 22.00900
H  41.18300 49.18400 21.21900
H  40.85300 48.69100 22.92800
H  39.35900 43.70500 26.69100
H  38.97500 43.96500 25.00300
H  37.69200 43.23900 25.98700
H  38.07100 46.72100 30.45700
H  34.47900 45.55400 32.42300
H  35.72100 45.17800 33.48300
H  34.91200 43.84200 32.43600
Mg -11.06600 39.09400 41.23300
C  -9.45100 35.94300 40.86600
C  -8.32900 40.55000 39.67500
C  -12.95200 41.87100 40.75200
C  -13.95700 37.34700 42.05800
N  -9.07300 38.35400 40.39100
C  -8.67500 37.04200 40.40400
C  -7.36500 36.85100 39.60500
C  -6.96900 38.37000 39.43200
C  -8.19100 39.20800 39.86800
C  -5.55500 38.81700 40.02900
C  -7.64700 36.02800 38.23200
C  -6.96600 34.71200 37.95400
H  -5.87800 34.85100 36.84700
N  -10.61100 41.00900 40.52500
C  -9.45100 41.38000 39.96400
C  -9.53100 42.81000 39.73000
C  -10.88300 43.24300 39.85700
C  -11.55100 42.05200 40.38700
C  -8.35000 43.59400 39.20400
C  -11.38600 44.59900 39.62300
O  -10.66200 45.55000 39.16300
C  -12.80900 44.86500 39.69300
N  -13.10800 39.53800 41.54200
C  -13.66700 40.78600 41.34100
C  -15.20200 40.86100 41.61900
C  -15.50000 39.39200 42.05600
C  -14.09300 38.72700 41.89000
C  -15.56400 41.96500 42.66900
C  -16.78200 38.78600 41.27000
C  -18.09700 38.94000 41.99800
N  -11.54800 37.13900 41.55000
C  -12.78000 36.61400 41.91500
C  -12.67800 35.15500 42.13900
C  -11.36800 34.81800 41.80700
C  -10.78200 36.10200 41.34700
C  -13.71200 34.25800 42.84600
C  -10.28100 33.81900 41.70500
O  -10.34700 32.64100 42.10900
C  -9.08800 34.52300 40.98800
C  -7.95700 34.28000 41.94600
O  -7.25600 33.34300 41.82300
O  -7.84700 35.31800 42.80900
C  -6.56600 35.35600 43.50000
H  -7.44100 41.05200 39.28600
H  -13.67100 42.64100 40.46200
H  -14.75900 36.70200 42.42300
H  -6.65000 36.29300 40.21000
H  -6.84400 38.47000 38.35400
H  -4.94200 38.02300 40.45500
H  -5.72300 39.25400 41.01300
H  -5.06300 39.52600 39.36400
H  -7.36600 36.70100 37.42300
H  -8.72000 35.86800 38.12300
H  -7.63200 33.95000 37.55000
H  -6.46800 34.33100 38.84600
H  -8.37100 44.64600 39.48900
H  -8.22400 43.56500 38.12100
H  -7.49300 43.16100 39.72000
H  -13.15000 44.17000 38.92600
H  -13.16100 45.86100 39.42200
H  -13.23700 44.68800 40.68000
H  -15.74200 41.07900 40.69800
H  -15.75100 39.32900 43.11500
H  -16.03700 41.56000 43.56400
H  -16.27700 42.68100 42.25900
H  -14.68200 42.56900 42.88000
H  -16.63600 37.71400 41.13700
H  -16.64200 39.15000 40.25300
H  -18.74400 39.41700 41.26200
H  -18.09600 39.53400 42.91200
H  -18.48900 37.96800 42.29800
H  -13.50300 34.20100 43.91500
H  -13.52600 33.27600 42.41100
H  -14.76200 34.45900 42.63200
H  -8.90900 34.04400 40.02500
H  -6.27800 36.39300 43.32700
H  -5.71800 34.90300 42.98600
H  -6.62200 35.16400 44.57100

