158

Mg 25.99100 -0.55500 28.74300
C  27.63000 -0.91900 31.79100
C  23.01400 -0.05800 30.61400
C  24.28400 -0.22400 25.98000
C  28.85300 -1.60800 27.14300
N  25.43900 -0.24700 31.04100
C  26.35600 -0.39700 32.02600
C  25.65300 -0.25800 33.37000
C  24.13900 -0.06600 33.02300
C  24.19700 -0.10600 31.47500
C  23.15000 -1.21700 33.54400
C  26.24500 0.84800 34.25600
C  26.74600 0.40100 35.69500
H  26.42300 1.37200 36.77500
N  23.89200 -0.21700 28.35800
C  22.87000 -0.03000 29.25300
C  21.63700 0.22500 28.48600
C  22.02600 0.40600 27.10500
C  23.43200 -0.05100 27.10000
C  20.21400 0.46500 29.08500
C  21.24300 0.89400 25.91500
O  21.73900 0.76900 24.82900
C  19.88000 1.57300 26.11600
N  26.54900 -0.87400 26.79200
C  25.64700 -0.70200 25.78500
C  26.32900 -0.83100 24.38600
C  27.68600 -1.55500 24.76900
C  27.73400 -1.33200 26.33900
C  25.40800 -1.53200 23.34100
C  28.92500 -1.01200 23.97800
C  28.80300 -0.61500 22.50800
N  27.84500 -1.14300 29.33500
C  28.92700 -1.44500 28.57700
C  30.08100 -1.67600 29.37600
C  29.62800 -1.44900 30.68300
C  28.25500 -1.18500 30.60800
C  31.43100 -2.13900 28.83800
C  30.03400 -1.49500 32.04000
O  31.07400 -1.71500 32.52400
C  28.76000 -1.17800 32.80100
C  28.40300 -2.31900 33.74800
O  27.56200 -3.17200 33.48100
O  29.11900 -2.29900 34.93700
C  28.68000 -3.29300 35.92300
H  22.17400 0.22200 31.25300
H  23.90200 -0.01100 24.97900
H  29.76300 -1.97300 26.66300
H  25.52400 -1.14000 33.99800
H  23.70500 0.89100 33.31200
H  23.53500 -2.16000 33.93200
H  22.26700 -1.44200 32.94600
H  22.81200 -0.74500 34.46600
H  25.44900 1.55000 34.50300
H  27.06600 1.26600 33.67300
H  27.80200 0.27800 35.45500
H  26.29100 -0.57500 35.86300
H  19.97900 -0.14300 29.95800
H  19.46900 0.15300 28.35300
H  19.94800 1.51200 29.22900
H  19.92700 2.29500 26.93100
H  19.15500 0.81700 26.42100
H  19.50200 2.12200 25.25400
H  26.57700 0.20800 24.17100
H  27.52300 -2.62700 24.65800
H  25.77100 -2.45900 22.89900
H  25.26000 -0.76700 22.57800
H  24.49400 -1.77000 23.88400
H  29.63800 -1.83400 24.03100
H  29.35500 -0.21200 24.58200
H  27.94100 -1.00500 21.96700
H  29.65000 -0.97500 21.92500
H  28.75900 0.46000 22.33400
H  31.51400 -1.84300 27.79300
H  31.68100 -3.17200 29.08300
H  32.13100 -1.51500 29.39400
H  29.02300 -0.31200 33.40800
H  27.72900 -2.92300 36.30500
H  29.34500 -3.26000 36.78700
H  28.73600 -4.36700 35.74900
Mg 35.86400 0.77700 29.93100
C  33.33800 1.69400 32.19800
C  38.20400 1.26000 32.42000
C  38.25500 0.70200 27.51200
C  33.37900 1.16400 27.28300
N  35.82600 1.24500 32.06000
C  34.62700 1.57100 32.75500
C  34.92800 1.72400 34.24900
C  36.49300 1.94700 34.25200
C  36.92100 1.50800 32.84600
C  36.79200 3.48900 34.46800
C  34.32500 0.47200 35.00200
C  33.94100 0.41100 36.47400
H  34.83200 1.42200 37.29500
N  37.92000 0.68000 29.97500
C  38.65800 0.86300 31.12500
C  39.98700 0.36200 30.74700
C  40.09800 0.33300 29.36200
C  38.69500 0.57700 28.87900
C  41.15400 0.33300 31.75100
C  41.25500 0.12400 28.42100
O  41.21900 0.23100 27.16900
C  42.60800 -0.13000 28.92600
N  35.79500 0.89200 27.76400
C  36.95800 0.91100 26.99800
C  36.68700 0.77400 25.51700
C  35.11000 0.86200 25.40600
C  34.71300 0.87600 26.91400
C  37.47200 1.67700 24.49300
C  34.28900 -0.07900 24.49500
C  33.15900 0.63800 23.75100
N  33.76600 1.27800 29.68600
C  32.89300 1.37000 28.60200
C  31.56200 1.60200 29.02000
C  31.72700 1.75300 30.39200
C  33.08800 1.55300 30.76700
C  30.37400 1.79000 28.21000
C  30.98100 2.04100 31.65500
O  29.79900 2.18400 31.81400
C  32.02700 2.11000 32.86700
C  32.05400 3.46100 33.46200
O  32.35000 4.47000 32.83000
O  31.55500 3.50500 34.72100
C  31.49700 4.76700 35.35700
H  38.97100 1.34000 33.19300
H  39.02600 0.52200 26.76000
H  32.59300 1.10500 26.52700
H  34.36700 2.58400 34.61600
H  36.92300 1.32600 35.03800
H  37.41500 3.53400 35.36200
H  35.90800 4.07000 34.73200
H  37.38200 3.91700 33.65800
H  35.12700 -0.26500 35.05100
H  33.47500 -0.01200 34.52200
H  34.00600 -0.61900 36.82300
H  32.91000 0.76000 36.52000
H  42.03600 0.82400 31.34100
H  41.52200 -0.66000 32.01000
H  40.94100 0.89900 32.65800
H  43.35000 -0.47700 28.20700
H  42.52700 -0.85700 29.73500
H  43.00200 0.82400 29.27400
H  36.98600 -0.25900 25.33600
H  34.86000 1.89300 25.15700
H  38.12400 2.30400 25.10100
H  36.79200 2.26700 23.87900
H  37.94200 0.91100 23.87600
H  33.86500 -0.91300 25.05300
H  34.95900 -0.41900 23.70500
H  33.56600 1.30300 22.98900
H  32.47100 1.24300 24.34200
H  32.62300 -0.16300 23.24100
H  30.61900 2.20600 27.23300
H  29.73700 2.57300 28.62100
H  29.80300 0.89100 27.97600
H  31.78000 1.38000 33.63700
H  32.28400 4.68700 36.10600
H  30.55100 4.82500 35.89600
H  31.56700 5.54900 34.60100

