158

Mg 8.94900 47.01500 25.42600
C  6.80900 46.86000 28.07300
C  11.49800 48.21400 27.43100
C  10.90100 47.32600 22.71400
C  6.25200 46.36700 23.25100
N  9.10100 47.54400 27.43100
C  8.15000 47.17000 28.41200
C  8.65500 47.52200 29.82400
C  10.00200 48.27000 29.61600
C  10.21300 48.02600 28.09300
C  9.96200 49.76400 29.93900
C  8.69700 46.34900 30.85600
C  9.70300 46.41500 32.04400
H  9.38900 45.63200 33.35700
N  10.91300 47.64100 25.13500
C  11.82200 48.00200 26.12800
C  13.19800 48.02700 25.52000
C  13.04800 47.66500 24.19500
C  11.59300 47.56100 23.93300
C  14.41900 48.29200 26.42200
C  14.10900 47.19600 23.15300
O  13.75500 47.01100 21.97000
C  15.51800 46.97300 23.54800
N  8.55300 47.06200 23.23900
C  9.57100 47.21100 22.36800
C  9.09700 47.04700 20.91500
C  7.54200 46.82400 21.06200
C  7.42900 46.75300 22.59300
C  9.38100 48.16500 19.87200
C  6.97100 45.59100 20.27700
C  5.61500 45.88100 19.52700
N  6.92500 46.80700 25.60800
C  5.93400 46.48400 24.65900
C  4.64000 46.39700 25.35700
C  4.97200 46.50800 26.74700
C  6.34700 46.74700 26.81600
C  3.30100 46.05900 24.71500
C  4.37000 46.50800 28.09600
O  3.26300 46.36600 28.51800
C  5.60300 46.58200 28.98400
C  5.76500 45.23300 29.73900
O  6.34900 44.26500 29.33200
O  5.25700 45.31200 30.96000
C  5.35500 44.19800 31.88500
H  12.26000 48.47300 28.16900
H  11.44000 47.35400 21.76500
H  5.33700 46.41900 22.65700
H  7.86400 48.11800 30.27800
H  10.87900 47.84200 30.10300
H  9.52500 50.37200 29.14700
H  10.96200 50.16500 30.10300
H  9.42600 49.95000 30.87000
H  8.99700 45.56600 30.15900
H  7.70600 46.30000 31.30700
H  9.87500 47.44500 32.35600
H  10.67100 46.06000 31.69000
H  14.09900 48.62600 27.40900
H  15.05800 49.04800 25.96700
H  14.98700 47.38500 26.62900
H  15.39700 46.42000 24.48000
H  16.13200 47.82800 23.83100
H  16.05300 46.42100 22.77600
H  9.56800 46.12000 20.58600
H  6.99100 47.68100 20.67500
H  9.60100 49.09400 20.39800
H  8.57400 48.20000 19.14000
H  10.28300 47.96600 19.29300
H  6.68200 44.77600 20.94000
H  7.66900 45.20800 19.53200
H  5.54300 46.94800 19.31800
H  4.77600 45.63200 20.17700
H  5.52900 45.39400 18.55600
H  3.35700 46.23900 23.64200
H  2.52400 46.61400 25.24000
H  3.18200 44.98900 24.88500
H  5.51200 47.38500 29.71600
H  6.33900 43.74500 32.00400
H  4.62700 43.42600 31.63500
H  5.39800 44.59600 32.89800
Mg -6.40000 24.72400 26.71300
C  -4.65600 26.33700 29.38900
C  -7.82000 22.68500 29.23200
C  -7.96100 23.14400 24.23700
C  -4.59600 26.59000 24.43600
N  -6.20600 24.46700 29.12300
C  -5.49100 25.34100 29.91100
C  -5.80400 25.09200 31.39300
C  -6.52100 23.69500 31.29200
C  -7.01600 23.65300 29.82700
C  -5.85600 22.36000 31.81000
C  -6.73500 26.23500 32.03400
C  -6.27600 26.77500 33.33000
H  -5.84700 25.81100 34.40800
N  -7.68600 23.10600 26.75000
C  -8.17500 22.46700 27.88000
C  -9.28600 21.55900 27.47500
C  -9.34400 21.66000 26.03700
C  -8.30700 22.63400 25.61000
C  -10.12800 20.63400 28.40800
C  -10.09000 20.84400 25.01000
O  -10.06200 21.06300 23.78900
C  -10.87400 19.66200 25.52400
N  -6.38100 24.85100 24.56400
C  -7.20200 24.18700 23.79000
C  -6.75100 24.45000 22.27600
C  -5.70500 25.54200 22.42100
C  -5.55200 25.67800 23.91200
C  -6.35600 23.21000 21.49600
C  -6.07300 26.92100 21.85100
C  -5.55900 27.20900 20.44300
N  -4.93700 26.13000 26.79200
C  -4.29700 26.86100 25.79700
C  -3.38100 27.84500 26.41500
C  -3.55300 27.69500 27.74200
C  -4.47000 26.65800 27.98200
C  -2.48900 28.81800 25.72600
C  -3.05500 28.25300 29.00100
O  -2.19400 29.06500 29.22500
C  -3.84200 27.38900 30.09600
C  -2.82000 26.85600 31.06900
O  -1.94900 26.02700 30.78800
O  -3.10800 27.16500 32.35700
C  -2.16800 26.50900 33.34100
H  -8.29800 22.22600 30.10000
H  -8.39500 22.60400 23.39300
H  -4.22200 27.15600 23.58000
H  -4.81100 24.86400 31.78000
H  -7.35500 23.88400 31.96700
H  -5.16500 22.47100 32.64600
H  -5.22800 22.00400 30.99300
H  -6.47600 21.49800 32.05500
H  -7.76600 25.89200 32.12800
H  -6.82900 27.11600 31.40000
H  -7.14900 27.32100 33.68600
H  -5.44700 27.46200 33.16400
H  -11.17600 20.65700 28.11100
H  -10.30100 21.09300 29.38200
H  -9.82400 19.58900 28.46800
H  -10.27900 19.11000 26.25200
H  -11.18100 19.02500 24.69500
H  -11.71300 20.15300 26.01600
H  -7.68100 24.81700 21.84300
H  -4.78800 25.18300 21.95300
H  -7.00200 23.02700 20.63700
H  -6.12000 22.28400 22.02200
H  -5.39100 23.43600 21.04100
H  -5.74800 27.76500 22.46100
H  -7.16100 26.89400 21.79700
H  -6.35000 27.29000 19.69700
H  -4.84900 26.45900 20.09300
H  -5.12400 28.20900 20.44100
H  -1.54600 28.78600 26.27200
H  -2.87300 29.82700 25.87400
H  -2.33000 28.56900 24.67700
H  -4.51400 28.06300 30.62600
H  -2.44900 25.45600 33.31600
H  -2.28600 26.84600 34.37100
H  -1.16000 26.70700 32.97500

