158

Mg 39.62800 10.31400 29.95500
C  41.52500 11.35800 32.67600
C  37.40300 8.89400 32.30600
C  37.72300 8.90600 27.43300
C  42.12700 11.14600 27.75900
N  39.58100 10.06400 32.18400
C  40.33200 10.73100 33.08300
C  39.87900 10.69700 34.52500
C  38.71700 9.66400 34.33600
C  38.53200 9.58200 32.84500
C  38.88500 8.21800 35.00000
C  39.50900 12.11100 35.09800
C  40.31700 12.74100 36.27500
H  39.55200 13.19900 37.47900
N  37.82700 9.03800 29.90600
C  37.00300 8.67400 30.96100
C  35.74900 7.98300 30.41300
C  35.83500 7.99100 29.01200
C  37.17700 8.63100 28.73700
C  34.78100 7.34500 31.42300
C  34.82100 7.43300 27.99800
O  34.99400 7.46900 26.80500
C  33.51000 6.88800 28.56900
N  39.91400 9.98500 27.94100
C  38.99100 9.45900 27.03800
C  39.54900 9.61800 25.55100
C  40.78300 10.61400 25.72900
C  40.96900 10.57900 27.24900
C  39.84000 8.29700 24.76200
C  40.47200 12.11700 25.39500
C  41.75000 12.80800 24.73600
N  41.45600 11.06100 30.08800
C  42.35300 11.42200 29.14900
C  43.47200 11.97700 29.75300
C  43.17700 12.10700 31.12700
C  41.96800 11.41700 31.29700
C  44.68400 12.42000 29.00300
C  43.62200 12.65900 32.42200
O  44.65500 13.26600 32.65600
C  42.63700 12.13900 33.47200
C  43.33500 11.20600 34.46400
O  43.76000 10.09800 34.20800
O  43.49400 11.89100 35.68500
C  43.99800 11.10800 36.83000
H  36.70900 8.67300 33.12000
H  37.17800 8.57800 26.54500
H  42.92300 11.38200 27.05000
H  40.73000 10.18900 34.97900
H  37.84300 10.13300 34.78800
H  38.00700 7.88800 35.55600
H  39.73500 8.43800 35.64500
H  39.29600 7.48900 34.30200
H  38.45700 12.01300 35.36800
H  39.59500 12.84500 34.29700
H  40.86400 13.63200 35.96800
H  41.05600 11.97400 36.50400
H  34.36700 6.43700 30.98400
H  33.92000 8.00900 31.50300
H  35.33300 7.12900 32.33700
H  33.23400 7.68700 29.25800
H  33.80000 6.01100 29.14800
H  32.71800 6.60700 27.87500
H  38.82100 10.07500 24.88100
H  41.64200 10.30800 25.13200
H  40.92600 8.25500 24.67900
H  39.35800 7.96400 23.84300
H  39.57000 7.46800 25.41800
H  40.10200 12.70500 26.23500
H  39.65400 12.20700 24.68000
H  41.42900 12.98100 23.70900
H  42.60300 12.13500 24.81900
H  41.94600 13.77400 25.20100
H  44.58800 12.02200 27.99200
H  45.65300 12.10400 29.38600
H  44.86000 13.49500 28.96200
H  42.27200 13.02900 33.98400
H  43.49200 11.27900 37.78000
H  45.07800 11.24400 36.88700
H  43.74100 10.05400 36.72300
Mg 1.38500 42.06000 25.94500
C  2.77700 42.31100 29.14300
C  -1.67200 41.25300 27.42500
C  0.12600 41.32900 22.92200
C  4.47700 42.65600 24.57700
N  0.67100 41.78900 28.11700
C  1.42000 42.01300 29.20000
C  0.41200 41.97000 30.40400
C  -0.95600 41.48200 29.87500
C  -0.64600 41.51200 28.41400
C  -1.37300 40.00900 30.22300
C  0.26500 43.36900 31.12200
C  0.20200 43.44300 32.63700
H  0.01800 42.08700 33.54900
N  -0.53700 41.53800 25.29000
C  -1.62800 41.21600 25.99700
C  -2.72100 40.86600 25.14200
C  -2.25600 40.98600 23.80800
C  -0.83600 41.38700 23.93800
C  -4.07800 40.32100 25.66600
C  -3.03600 40.77300 22.50600
O  -2.52500 40.90200 21.39200
C  -4.54600 40.41400 22.51400
N  2.17400 42.08300 24.05000
C  1.46600 41.62800 22.91300
C  2.29400 41.77500 21.66100
C  3.60100 42.48300 22.16700
C  3.46300 42.41400 23.69800
C  2.44300 40.40400 21.04600
C  3.90900 44.02300 21.73500
C  2.66800 44.93100 21.49500
N  3.31600 42.33500 26.65800
C  4.49600 42.63700 25.98100
C  5.61500 42.65700 26.98200
C  4.97900 42.48800 28.22600
C  3.56500 42.37200 27.97600
C  7.04600 42.78000 26.59200
C  5.13200 42.37900 29.67800
O  6.17600 42.26900 30.33900
C  3.66900 42.31400 30.29800
C  3.60300 41.20300 31.13000
O  3.32500 40.08200 30.79000
O  4.04400 41.58600 32.35200
C  4.24100 40.63700 33.44000
H  -2.65500 41.18900 27.89600
H  -0.22600 41.05700 21.92500
H  5.38200 42.77800 23.97800
H  0.93600 41.24900 31.03200
H  -1.80500 42.12600 30.10600
H  -1.42300 39.40200 29.31900
H  -2.35800 39.94100 30.68600
H  -0.65400 39.60900 30.93800
H  -0.71600 43.71800 30.79900
H  1.01400 44.09700 30.81300
H  -0.62200 44.14100 32.78100
H  1.18700 43.81800 32.91500
H  -4.90100 40.84000 25.17500
H  -4.26700 40.66600 26.68300
H  -4.19200 39.24500 25.53300
H  -4.96400 40.06700 21.56900
H  -5.06800 41.17500 23.09300
H  -4.35700 39.45900 23.00400
H  1.79900 42.45200 20.96500
H  4.43600 41.90400 21.77200
H  3.37700 40.21400 20.51800
H  1.69200 40.26700 20.26800
H  2.27600 39.61400 21.77700
H  4.45400 43.91300 20.79800
H  4.58200 44.51600 22.43600
H  1.71500 44.48100 21.77400
H  2.57600 45.20000 20.44300
H  2.71100 45.89500 22.00100
H  7.20700 42.50700 25.54900
H  7.50700 42.09400 27.30300
H  7.39700 43.79800 26.76100
H  3.48500 43.19900 30.90700
H  5.24000 40.21900 33.57100
H  3.60500 39.78400 33.20300
H  3.91600 41.06800 34.38700

