158

Mg 47.03600 17.08400 28.04100
C  45.00700 16.31000 31.07000
C  49.32600 18.51900 30.00600
C  48.38700 17.94300 25.28000
C  44.19500 15.85700 26.22400
N  47.13400 17.36200 30.30000
C  46.20200 17.04100 31.30100
C  46.86100 17.33400 32.62700
C  47.90600 18.44300 32.25500
C  48.22600 18.02900 30.79700
C  47.51900 19.92300 32.25600
C  47.47400 16.00900 33.27000
C  47.56800 15.92600 34.78200
H  47.77900 17.07200 35.77300
N  48.69800 17.98600 27.73400
C  49.56300 18.52100 28.64000
C  50.71500 19.01200 28.01000
C  50.45600 18.87500 26.62000
C  49.14000 18.19900 26.51000
C  51.94000 19.52600 28.77100
C  51.35500 19.32800 25.40600
O  51.09100 18.98600 24.23100
C  52.51200 20.28600 25.69700
N  46.40300 16.85200 26.00800
C  47.16400 17.40800 25.01400
C  46.61200 17.07100 23.61200
C  45.33500 16.28000 23.89400
C  45.30400 16.29500 25.47000
C  46.54500 18.27000 22.58800
C  45.48000 14.81200 23.29700
C  46.46300 13.85700 23.98400
N  45.04800 16.12300 28.45500
C  44.05400 15.72800 27.62200
C  42.91700 15.12700 28.43100
C  43.27500 15.33800 29.71700
C  44.53600 15.96100 29.73100
C  41.62300 14.51100 27.86200
C  42.78800 15.24100 31.15500
O  41.77900 14.77800 31.59300
C  43.94000 15.78800 32.04500
C  43.33100 16.99200 32.76900
O  42.83600 17.92500 32.21500
O  43.35300 16.88900 34.11800
C  42.53100 17.78500 34.86300
H  50.05600 19.02700 30.64000
H  48.92200 18.25400 24.38000
H  43.36000 15.56600 25.58400
H  46.15600 17.71300 33.36700
H  48.76500 18.38700 32.92500
H  48.24100 20.40200 32.91700
H  46.63500 19.99600 32.88900
H  47.38500 20.40100 31.28600
H  48.52200 15.91800 32.98400
H  46.93100 15.15000 32.87500
H  48.46600 15.33800 34.96900
H  46.77600 15.34000 35.24800
H  52.69500 18.74000 28.78000
H  51.65200 19.65100 29.81500
H  52.28600 20.45800 28.32500
H  53.25300 19.94500 26.42100
H  52.11800 21.26500 25.96700
H  53.08800 20.38200 24.77600
H  47.25600 16.28100 23.22400
H  44.38400 16.72200 23.59800
H  45.49300 18.54500 22.52100
H  46.89900 18.11200 21.56900
H  47.10900 19.16300 22.85800
H  45.82500 14.99300 22.27900
H  44.46100 14.44400 23.17600
H  47.46500 14.28400 23.98100
H  46.55600 12.93100 23.41500
H  46.31900 13.56800 25.02500
H  40.79500 15.02900 28.34500
H  41.70300 13.42600 27.94100
H  41.44600 14.64500 26.79500
H  44.25200 15.07000 32.80300
H  42.51200 17.59400 35.93600
H  41.46700 17.66200 34.65900
H  42.76300 18.81500 34.59400
Mg 6.43200 54.08300 40.48700
C  5.45100 50.68100 40.37900
C  9.72200 53.04800 39.68600
C  7.27500 57.34000 40.39200
C  3.11400 54.91100 40.98000
N  7.45600 52.06200 39.96700
C  6.78300 50.86900 40.06500
C  7.83300 49.71500 39.94600
C  9.20600 50.49300 40.10400
C  8.81100 51.96900 39.73100
C  9.89200 50.38800 41.53900
C  7.79800 49.10800 38.52800
C  7.94800 49.95200 37.25600
H  7.06500 49.44100 36.10100
N  8.23700 55.05900 40.17000
C  9.41200 54.49300 39.83000
C  10.31000 55.52800 39.54300
C  9.72500 56.83800 39.81500
C  8.35000 56.47000 40.24600
C  11.76600 55.22200 39.10800
C  10.29900 58.20300 39.58400
O  11.47500 58.32000 39.29300
C  9.56500 59.55700 39.69300
N  5.36900 55.85000 40.90200
C  5.91200 57.09700 40.71900
C  4.89200 58.22000 40.62300
C  3.51100 57.36600 40.68200
C  4.01600 55.94100 40.81100
C  5.25100 59.29900 41.63700
C  2.43600 57.57700 39.53600
C  1.00500 57.73000 40.11400
N  4.63500 53.05300 40.74300
C  3.41000 53.53800 41.05000
C  2.45200 52.46100 41.21200
C  3.25200 51.27700 41.00500
C  4.52300 51.70100 40.61800
C  1.05800 52.55400 41.67400
C  3.24900 49.87700 41.16000
O  2.41700 49.06600 41.54200
C  4.67700 49.43900 40.61800
C  4.37200 48.63100 39.44900
O  3.76600 48.89800 38.43900
O  4.92300 47.37500 39.71600
C  4.74100 46.37400 38.71300
H  10.76500 52.74700 39.56800
H  7.51700 58.40000 40.29000
H  2.09000 55.28500 41.05000
H  7.72900 48.97700 40.74200
H  9.91600 50.09100 39.38200
H  10.04700 51.36000 42.00900
H  10.83600 49.92500 41.25000
H  9.25200 49.76200 42.16000
H  6.85200 48.56900 38.49100
H  8.61000 48.38700 38.43300
H  8.96500 49.83500 36.88000
H  7.83100 51.02500 37.40300
H  12.13900 55.90800 38.34800
H  11.92700 54.22600 38.69700
H  12.41700 55.35100 39.97300
H  10.29800 60.34000 39.50000
H  9.15800 59.64500 40.70000
H  8.74400 59.59800 38.97700
H  4.99400 58.57300 39.59700
H  3.06300 57.73700 41.60400
H  5.83500 60.02400 41.07000
H  5.74600 58.97200 42.55100
H  4.28700 59.73500 41.89700
H  2.57700 56.72000 38.87700
H  2.61200 58.47900 38.95100
H  0.92800 57.79800 41.19900
H  0.39000 56.89300 39.78300
H  0.55600 58.63300 39.70200
H  0.39200 52.18300 40.89400
H  0.89400 53.60500 41.90900
H  0.90000 52.05500 42.63000
H  5.26300 48.89700 41.36100
H  5.29000 45.45400 38.91200
H  4.97900 46.70700 37.70200
H  3.70400 46.04100 38.76900

