158

Mg -0.64400 7.46500 26.88100
C  0.22200 9.71100 29.55000
C  -0.06100 4.90300 29.10300
C  -1.02200 5.29200 24.36800
C  -0.83300 10.16000 24.64100
N  -0.17500 7.42600 29.11700
C  0.15300 8.38800 30.02100
C  0.30500 7.88300 31.39900
C  0.58300 6.38700 31.15700
C  0.03400 6.15000 29.73200
C  1.96800 5.79100 31.33700
C  -0.98800 8.32500 32.19800
C  -0.74600 8.64000 33.67600
H  0.04600 7.56300 34.49600
N  -0.59400 5.31000 26.81700
C  -0.29200 4.47200 27.79000
C  -0.28900 3.12000 27.32800
C  -0.67500 3.21100 25.97500
C  -0.81100 4.64000 25.64000
C  0.01300 1.88000 28.23600
C  -0.84800 2.05600 24.95800
O  -1.06600 2.22500 23.73300
C  -0.89500 0.60700 25.47700
N  -0.69000 7.67200 24.86200
C  -1.02900 6.64900 24.10700
C  -1.28500 7.07200 22.64900
C  -1.59300 8.56700 22.83500
C  -0.98200 8.84900 24.16600
C  0.02700 6.77000 21.81200
C  -3.12300 8.79100 22.71700
C  -3.66600 9.87300 21.77600
N  -0.26200 9.56200 27.01800
C  -0.32800 10.48300 25.97800
C  0.03900 11.75700 26.54200
C  0.32400 11.50300 27.89700
C  0.07600 10.16000 28.19300
C  -0.03600 12.96700 25.77900
C  0.71900 12.07900 29.11400
O  1.01100 13.27200 29.38100
C  0.65100 10.96900 30.20600
C  1.85800 10.96700 31.10000
O  2.68300 10.13700 31.22100
O  1.85600 12.06500 31.97900
C  2.73700 11.99500 33.17700
H  0.17200 4.11900 29.82600
H  -1.16300 4.64200 23.50200
H  -1.05300 10.87100 23.84200
H  1.14000 8.43000 31.83600
H  -0.05100 5.73900 31.76200
H  1.91600 4.93300 32.00800
H  2.63000 6.55800 31.73900
H  2.34800 5.46300 30.37000
H  -1.79500 7.59700 32.11300
H  -1.29100 9.30900 31.84300
H  -1.72500 8.73500 34.14700
H  -0.25500 9.60500 33.80200
H  -0.66700 1.02800 28.24400
H  0.00500 2.09800 29.30400
H  1.02200 1.57500 27.95800
H  0.04500 0.06400 25.57200
H  -1.49200 -0.00400 24.80000
H  -1.42200 0.53800 26.42900
H  -2.15900 6.56600 22.23900
H  -1.10600 9.18100 22.07800
H  0.42000 7.72600 21.46700
H  -0.15800 6.34100 20.82600
H  0.75300 6.17600 22.36600
H  -3.46700 9.01700 23.72600
H  -3.66300 7.89600 22.40800
H  -4.27500 9.34300 21.04400
H  -2.80100 10.47400 21.49500
H  -4.29700 10.54200 22.36100
H  0.19000 13.79500 26.45000
H  -1.03000 13.15400 25.37300
H  0.67200 12.87700 24.95600
H  -0.14100 11.27000 30.89100
H  3.79100 12.03000 32.89900
H  2.64100 11.04700 33.70600
H  2.47500 12.80700 33.85400
Mg -5.93800 24.69900 26.33300
C  -4.56200 26.34200 29.16600
C  -7.93300 22.92100 28.53100
C  -6.62400 22.65500 23.84600
C  -3.66200 26.37900 24.40100
N  -6.06200 24.58300 28.67100
C  -5.45400 25.35800 29.55400
C  -6.01800 25.02500 31.00100
C  -6.95600 23.77000 30.77300
C  -6.97400 23.71500 29.19600
C  -6.59300 22.47200 31.47000
C  -6.68900 26.37700 31.59600
C  -6.74600 26.41900 33.17300
H  -6.40200 25.12800 33.99700
N  -7.19900 23.08800 26.21300
C  -8.06800 22.56000 27.12200
C  -8.89000 21.60300 26.48100
C  -8.41400 21.41900 25.13400
C  -7.36500 22.42500 25.00300
C  -9.96300 20.81200 27.26700
C  -8.80700 20.49200 24.10000
O  -8.37200 20.42200 22.93000
C  -9.96000 19.57800 24.36900
N  -5.28200 24.52100 24.28900
C  -5.71500 23.63100 23.45300
C  -5.11600 23.82600 22.04200
C  -4.03100 24.97800 22.33400
C  -4.34900 25.33200 23.79600
C  -4.57500 22.67600 21.29000
C  -3.97900 26.14400 21.36000
C  -2.59400 26.57100 20.83000
N  -4.48600 26.11700 26.60300
C  -3.70900 26.78900 25.73800
C  -2.80300 27.64900 26.47300
C  -3.11300 27.55100 27.81400
C  -4.19800 26.60800 27.79700
C  -1.74900 28.46700 25.77100
C  -2.81600 28.00500 29.12500
O  -2.00600 28.82000 29.50600
C  -3.73100 27.20200 30.14200
C  -2.87400 26.34200 31.02500
O  -2.35000 25.30500 30.71800
O  -2.66800 27.02300 32.21400
C  -1.99500 26.15100 33.16000
H  -8.48300 22.24100 29.18600
H  -6.80900 22.00600 22.98800
H  -2.97400 26.94600 23.77000
H  -5.16300 24.70900 31.59700
H  -7.98100 24.00700 31.06000
H  -5.56700 22.46300 31.83800
H  -6.71600 21.78300 30.63500
H  -7.28200 22.30400 32.29800
H  -7.71300 26.52800 31.25500
H  -6.10800 27.22600 31.23400
H  -7.60600 26.93400 33.60000
H  -5.86400 27.02600 33.37600
H  -10.94700 21.10300 26.89900
H  -10.13200 21.15600 28.28800
H  -9.98100 19.73100 27.12900
H  -9.70100 18.81600 25.10400
H  -10.05400 19.00600 23.44500
H  -10.93000 20.06400 24.47300
H  -5.94700 24.09400 21.39000
H  -3.05600 24.49300 22.37800
H  -3.54200 22.92600 21.05100
H  -5.26500 22.53000 20.45800
H  -4.53300 21.77900 21.90700
H  -4.52500 26.98000 21.79700
H  -4.47300 25.98300 20.40200
H  -2.72100 26.99900 19.83600
H  -1.97500 25.67500 20.89000
H  -2.13500 27.24000 21.55800
H  -1.35100 28.00500 24.86800
H  -0.95100 28.57300 26.50700
H  -2.10200 29.46500 25.50800
H  -4.25500 27.95900 30.72600
H  -2.39500 26.39200 34.14500
H  -0.90900 26.23700 33.12000
H  -2.31300 25.11200 33.07200

