158

Mg 53.24900 23.72300 44.39100
C  50.49200 25.70300 43.44800
C  51.33600 20.98000 43.07200
C  56.03900 21.83200 44.30700
C  54.92600 26.52600 45.14600
N  51.24200 23.42300 43.09000
C  50.30500 24.41100 42.90700
C  49.01100 23.84100 42.18900
C  49.14200 22.36900 42.45100
C  50.64800 22.20900 42.83800
C  48.20200 21.86700 43.51700
C  49.08800 24.31500 40.67200
C  47.74800 24.66000 39.98500
H  47.12900 23.72400 38.92200
N  53.62800 21.62700 43.91800
C  52.69200 20.69000 43.45100
C  53.31400 19.42500 43.44800
C  54.69100 19.58300 43.80200
C  54.84500 21.03300 44.07800
C  52.66700 18.18200 43.14700
C  55.70600 18.46200 43.93400
O  55.37000 17.36500 43.50700
C  57.13000 18.73600 44.39300
N  55.26600 24.16600 44.45700
C  56.25300 23.20400 44.52400
C  57.58400 23.82400 44.96800
C  57.22200 25.34500 45.30500
C  55.72100 25.38200 44.96200
C  58.42100 23.12900 46.04600
C  57.98000 26.35500 44.47500
C  58.40100 27.64000 45.19300
N  52.84500 25.66500 44.38400
C  53.60900 26.74000 44.81600
C  52.80200 27.92200 44.95400
C  51.57000 27.58600 44.44800
C  51.65700 26.17100 44.06900
C  53.16700 29.28700 45.41700
C  50.21300 28.09500 44.19000
O  49.72500 29.20400 44.31800
C  49.42200 26.79800 43.64700
C  48.84600 27.28200 42.37900
O  49.45900 27.60500 41.35800
O  47.50500 27.51500 42.49200
C  46.80000 28.29600 41.43400
H  50.68800 20.11400 42.92100
H  57.00100 21.31600 44.32700
H  55.41800 27.40500 45.56800
H  48.13400 24.27300 42.67100
H  48.96800 21.92500 41.47100
H  47.35900 21.35500 43.05400
H  47.85500 22.67500 44.16200
H  48.70900 21.06900 44.05800
H  49.51700 23.57300 39.99800
H  49.72500 25.18700 40.52100
H  47.96700 25.55400 39.40200
H  47.02600 24.94700 40.74900
H  52.44000 17.56400 44.01600
H  53.27700 17.64300 42.42300
H  51.72900 18.37200 42.62500
H  57.68000 19.25800 43.60900
H  57.54000 17.73100 44.49100
H  57.13500 19.19900 45.38000
H  58.18100 23.89500 44.06000
H  57.43300 25.57800 46.34900
H  58.04500 22.12000 46.21800
H  58.38300 23.66200 46.99700
H  59.42600 22.96300 45.66000
H  57.31900 26.70000 43.68000
H  58.82900 25.86800 43.99600
H  59.47300 27.79900 45.07800
H  58.26000 27.69400 46.27300
H  57.88400 28.51200 44.79100
H  54.23400 29.45400 45.27500
H  52.92200 29.40400 46.47200
H  52.57900 30.05000 44.90500
H  48.62700 26.46700 44.31500
H  46.07500 28.86900 42.01200
H  46.28000 27.72300 40.66700
H  47.45200 29.06100 41.01200
Mg 16.31100 52.47600 24.52700
C  17.83900 51.62200 27.53800
C  13.46700 53.41700 26.47000
C  14.63000 53.23300 21.70400
C  18.85300 50.95300 22.71300
N  15.75500 52.46600 26.79100
C  16.63500 52.23100 27.76500
C  15.98300 52.50400 29.20700
C  14.57300 52.97900 28.80900
C  14.49300 52.95000 27.24600
C  13.36100 52.17400 29.45600
C  16.80200 53.48700 30.06600
C  17.20000 52.99700 31.54400
H  16.35100 51.95600 32.23700
N  14.39300 53.23500 24.15900
C  13.34000 53.51600 25.06000
C  12.23200 54.10800 24.42000
C  12.52100 54.21100 22.98800
C  13.91700 53.50100 22.90200
C  11.06100 54.57700 25.24500
C  11.69400 54.75700 21.82900
O  12.10700 54.88000 20.68900
C  10.27600 55.28400 22.01700
N  16.63100 52.16100 22.49700
C  15.77800 52.54600 21.53300
C  16.32700 52.17800 20.19900
C  17.87100 51.69600 20.47300
C  17.80500 51.57600 21.96100
C  15.47900 50.99100 19.67100
C  19.03100 52.59900 20.00700
C  19.17700 52.99200 18.53000
N  18.00500 51.50400 24.95900
C  18.93900 50.91400 24.11500
C  20.04100 50.52600 24.89500
C  19.62600 50.70700 26.24400
C  18.40500 51.28400 26.24700
C  21.21300 49.92400 24.44100
C  20.02500 50.53400 27.61600
O  21.15600 50.20100 28.05500
C  18.89500 51.10000 28.48100
C  18.38800 50.01600 29.28900
O  17.64800 49.06800 29.04200
O  19.09700 50.01200 30.48600
C  18.95600 48.87300 31.38300
H  12.67500 53.82400 27.10300
H  14.02800 53.52100 20.84000
H  19.68700 50.54900 22.13500
H  15.95900 51.51200 29.65700
H  14.39100 54.01000 29.11500
H  12.56000 52.06300 28.72500
H  12.81900 52.74000 30.21400
H  13.78900 51.31800 29.97700
H  16.16500 54.36900 30.13600
H  17.72000 53.72300 29.52900
H  17.12500 53.86200 32.20400
H  18.20700 52.58100 31.53300
H  10.15000 54.55100 24.64700
H  11.19900 55.60300 25.58600
H  10.81200 53.98200 26.12400
H  10.29700 56.12900 22.70600
H  9.60200 54.45800 22.24600
H  9.93800 55.69000 21.06300
H  16.30300 53.03000 19.52000
H  17.98000 50.66400 20.14000
H  16.01800 50.04700 19.59000
H  15.23400 51.32700 18.66400
H  14.66200 50.67500 20.32000
H  19.82600 51.87900 20.20200
H  19.24900 53.39100 20.72300
H  19.44200 54.04700 18.47200
H  18.22100 52.82200 18.03600
H  19.93700 52.33900 18.10000
H  21.08200 49.54900 23.42600
H  21.36200 49.13400 25.17800
H  21.95800 50.71500 24.52000
H  19.21200 52.01600 28.97900
H  18.88800 47.92100 30.85500
H  18.13300 48.94900 32.09400
H  19.90600 48.80300 31.91200

