158

Mg 6.61500 53.10800 40.88500
C  6.54700 49.59900 40.52100
C  9.89500 53.02300 40.28600
C  6.50700 56.46400 40.71500
C  2.97500 53.00300 41.00000
N  7.99500 51.48000 40.32000
C  7.82700 50.10000 40.27800
C  9.09500 49.36900 39.82900
C  10.19800 50.51000 40.01700
C  9.29700 51.77500 40.25200
C  11.20700 50.27600 41.18400
C  9.21000 48.80900 38.34900
C  8.89100 49.74900 37.19800
H  7.52100 49.52600 36.45300
N  8.13500 54.65700 40.63700
C  9.41100 54.39500 40.34000
C  10.12900 55.55600 40.10100
C  9.08900 56.66500 40.25500
C  7.83600 55.98000 40.59500
C  11.60000 55.56300 39.93000
C  9.35900 58.17400 40.11400
O  10.52600 58.46400 39.91900
C  8.31200 59.16800 40.25100
N  4.95100 54.49800 40.82600
C  5.25400 55.88000 40.82100
C  4.01900 56.67300 41.04800
C  2.94100 55.59900 40.98800
C  3.64700 54.29200 40.92100
C  4.10100 57.47800 42.40500
C  1.94900 55.67400 39.73900
C  1.46800 57.07300 39.28000
N  4.96500 51.63100 40.77400
C  3.60300 51.70800 40.95300
C  3.21000 50.40200 41.10000
C  4.28500 49.56800 40.97500
C  5.35300 50.29600 40.75100
C  1.71000 50.05700 41.45900
C  4.69700 48.20400 41.06800
O  4.05300 47.23500 41.29000
C  6.17500 48.18400 40.66200
C  6.14400 47.36000 39.43400
O  6.10300 47.79600 38.27600
O  6.05300 46.02600 39.80400
C  5.89100 45.14600 38.56900
H  10.98400 52.97500 40.22600
H  6.31000 57.53200 40.60200
H  1.88800 53.00900 41.10100
H  9.16900 48.52600 40.51700
H  10.78900 50.72900 39.12800
H  12.17300 50.38600 40.69200
H  11.07200 49.28900 41.62500
H  11.10100 51.14100 41.83900
H  8.68500 47.85800 38.26100
H  10.28400 48.70000 38.19400
H  9.60900 49.82400 36.38100
H  8.71200 50.78500 37.48800
H  12.08700 56.32500 40.53800
H  11.69700 55.91600 38.90300
H  12.13000 54.61500 39.83800
H  8.78800 60.12900 40.05800
H  7.74500 59.06900 41.17700
H  7.59400 59.12400 39.43200
H  3.82000 57.42500 40.28500
H  2.35900 55.58400 41.91000
H  3.45500 57.02900 43.16000
H  3.79300 58.50600 42.21500
H  5.12900 57.52600 42.76500
H  1.03800 55.09700 39.89800
H  2.60800 55.35100 38.93300
H  1.92400 57.25400 38.30700
H  1.55900 57.98700 39.86800
H  0.38000 57.01100 39.25400
H  1.23400 50.95700 41.84900
H  1.66200 49.21300 42.14700
H  1.21700 49.80400 40.52000
H  6.72800 47.69400 41.46300
H  6.53300 45.47900 37.75400
H  4.83100 45.12700 38.31600
H  6.28000 44.17500 38.87500
Mg 17.40700 51.85900 26.00900
C  19.32800 50.25000 28.45700
C  15.03200 52.57100 28.21300
C  15.67900 53.21800 23.39500
C  19.64200 50.45800 23.62200
N  17.20600 51.40200 28.02000
C  18.18300 50.88800 28.92800
C  17.83000 51.20400 30.35600
C  16.38200 51.71800 30.25300
C  16.24000 52.01900 28.75100
C  15.18500 50.87000 30.69700
C  18.75500 52.24100 31.04700
C  18.76200 52.27000 32.58800
H  17.72800 51.38600 33.35300
N  15.48700 52.61200 25.85800
C  14.67700 52.90500 26.87300
C  13.42900 53.43500 26.44300
C  13.66900 53.64600 24.99800
C  14.99400 53.20500 24.67100
C  12.21500 53.72000 27.26000
C  12.70300 54.32100 24.00400
O  13.01100 54.57300 22.87600
C  11.29300 54.91300 24.43400
N  17.85500 52.08100 23.81800
C  16.84600 52.53000 22.98300
C  17.11900 52.21500 21.50700
C  18.61900 51.64400 21.51400
C  18.79600 51.41800 23.03300
C  16.08400 51.48500 20.80800
C  19.64800 52.41900 20.67100
C  20.90400 53.12400 21.38600
N  19.14400 50.70100 26.01100
C  19.93000 50.23700 25.02500
C  21.02500 49.38700 25.55200
C  20.77400 49.36400 26.89800
C  19.66400 50.21100 27.12100
C  22.01100 48.56200 24.87800
C  21.47600 48.94200 28.08200
O  22.59100 48.50300 28.27700
C  20.50800 49.57900 29.20500
C  19.94700 48.59500 30.11900
O  19.00900 47.86300 29.94900
O  20.58400 48.74400 31.33300
C  20.20700 47.82800 32.39900
H  14.31800 52.90500 28.96900
H  15.11800 53.48400 22.49600
H  20.31600 49.86700 22.99900
H  17.83300 50.32500 31.00100
H  16.24800 52.70100 30.70400
H  14.74900 50.22800 29.93100
H  14.31600 51.39700 31.09000
H  15.54300 50.27600 31.53800
H  18.37600 53.23100 30.79200
H  19.79400 52.11800 30.74300
H  18.69600 53.33700 32.80400
H  19.77000 52.13700 32.98000
H  11.35000 53.29900 26.74800
H  12.22700 54.79200 27.45600
H  12.27000 53.18300 28.20700
H  10.73900 54.01800 24.71500
H  10.79100 55.49900 23.66400
H  11.43600 55.53600 25.31600
H  17.19600 53.20700 21.06300
H  18.58600 50.63700 21.09800
H  15.02800 51.57500 21.06600
H  16.19200 50.40000 20.80700
H  16.06900 51.77100 19.75600
H  19.14400 53.27600 20.22500
H  19.95100 51.79900 19.82700
H  21.79700 52.58700 21.06500
H  20.83100 53.11600 22.47400
H  21.06500 54.13700 21.01700
H  22.95300 49.10200 24.79400
H  21.56600 48.23300 23.93900
H  22.11400 47.75700 25.60600
H  21.05700 50.29600 29.81400
H  20.41200 46.80900 32.07200
H  19.14800 47.96600 32.62000
H  20.83200 48.08300 33.25500

