158

Mg 25.84900 0.86500 30.45200
C  28.08900 0.66600 33.04300
C  23.36300 1.24100 32.76200
C  23.67400 0.73100 27.87700
C  28.39800 -0.38800 28.33500
N  25.78000 0.90700 32.72500
C  26.83100 1.02900 33.51500
C  26.43100 1.31900 34.90500
C  24.84400 1.36000 34.84600
C  24.60800 1.17700 33.37600
C  24.03600 0.25300 35.79000
C  27.10000 2.60100 35.40100
C  27.90000 2.65000 36.70100
H  27.42400 3.65100 37.78000
N  23.75400 1.13700 30.35600
C  22.94100 1.23000 31.41000
C  21.57700 1.19300 30.91600
C  21.62000 1.17200 29.47900
C  23.06000 0.95800 29.20200
C  20.40400 1.39100 31.80300
C  20.56900 1.19600 28.43200
O  20.82300 1.31700 27.20300
C  19.19300 1.28800 28.84100
N  26.04400 0.21500 28.44700
C  24.99100 0.42300 27.56100
C  25.49900 0.33100 26.09500
C  26.97700 -0.00800 26.24600
C  27.15000 -0.09200 27.75600
C  24.72500 -0.53400 25.02700
C  28.01200 0.95500 25.58300
C  29.26200 0.37900 24.98000
N  27.78900 0.21300 30.57700
C  28.72700 -0.19000 29.67500
C  30.00400 -0.43800 30.31400
C  29.81300 -0.11700 31.65400
C  28.47500 0.29200 31.73200
C  31.22800 -0.97000 29.65100
C  30.44200 0.00400 32.95100
O  31.55600 -0.19900 33.33300
C  29.33300 0.51800 33.91300
C  29.24100 -0.51700 35.02900
O  28.66000 -1.60600 34.95100
O  29.89500 -0.02400 36.13800
C  29.89100 -0.84900 37.34300
H  22.58000 1.44100 33.49600
H  23.05300 0.93800 27.00300
H  29.15600 -0.71600 27.62100
H  26.73600 0.45700 35.49800
H  24.45900 2.36000 35.04700
H  23.22000 -0.27300 35.29500
H  23.51700 0.71200 36.63200
H  24.79900 -0.47600 36.06100
H  26.33400 3.36000 35.55900
H  27.63200 2.99400 34.53400
H  28.96500 2.84200 36.56900
H  27.75700 1.69500 37.20700
H  20.64000 1.48400 32.86300
H  19.73200 0.55500 31.60800
H  19.96000 2.33400 31.48200
H  19.04300 2.12600 29.52100
H  19.08900 0.34400 29.37600
H  18.56900 1.29900 27.94700
H  25.50800 1.31400 25.62300
H  27.14900 -0.99600 25.82000
H  23.67600 -0.61300 25.31500
H  25.17000 -1.52700 24.96600
H  24.63400 -0.10400 24.02900
H  28.25300 1.68700 26.35400
H  27.58800 1.55500 24.77800
H  29.34600 -0.68500 25.20000
H  30.08700 0.96300 25.38600
H  29.20400 0.50700 23.89900
H  31.00000 -2.03600 29.67700
H  32.22100 -0.85000 30.08600
H  31.23400 -0.62000 28.61900
H  29.78200 1.42700 34.31300
H  28.85600 -0.90800 37.68000
H  30.49000 -0.32700 38.09000
H  30.14000 -1.89100 37.14100
Mg 36.68100 49.42900 24.97400
C  36.87700 47.62500 27.81900
C  35.30700 52.03400 26.75900
C  36.30600 51.12800 22.07400
C  37.36800 46.50400 23.14300
N  36.34200 49.84300 27.07300
C  36.55200 48.96900 28.07000
C  36.21800 49.52800 29.45900
C  35.65900 50.89200 29.05400
C  35.73100 50.92800 27.54100
C  34.29900 51.17000 29.73900
C  37.38000 49.51400 30.45800
C  37.06600 49.22800 31.92900
H  35.65900 49.26900 32.42300
N  35.92500 51.37800 24.51700
C  35.35900 52.23700 25.36000
C  34.96600 53.43000 24.64900
C  35.36300 53.19600 23.28100
C  35.86800 51.81600 23.25100
C  34.50000 54.63800 25.42300
C  35.22400 54.14700 22.03100
O  35.59800 53.86800 20.90300
C  34.48400 55.44700 22.08200
N  36.79000 48.87300 22.90200
C  36.75100 49.79200 21.94500
C  36.98400 49.23000 20.57900
C  37.52100 47.73800 20.94400
C  37.15400 47.65500 22.38000
C  35.77300 49.29300 19.62400
C  39.05800 47.53800 20.70300
C  40.09800 48.50100 21.36300
N  37.21600 47.48600 25.34800
C  37.48900 46.41100 24.52900
C  37.67400 45.18900 25.33300
C  37.53000 45.65200 26.64900
C  37.17000 47.02700 26.59000
C  37.88600 43.77100 24.88000
C  37.52900 45.34100 28.02800
O  37.80000 44.27200 28.59500
C  37.01200 46.52000 28.84100
C  35.72400 46.11800 29.41300
O  34.65500 46.10400 28.86400
O  35.86000 45.72300 30.73000
C  34.68800 45.15900 31.36600
H  34.85700 52.81500 27.37600
H  36.07300 51.65500 21.14700
H  37.75600 45.59700 22.67500
H  35.37300 48.93600 29.81100
H  36.39300 51.66400 29.28400
H  34.45300 52.08200 30.31500
H  34.01600 50.38600 30.44200
H  33.46000 51.30400 29.05600
H  38.02600 50.37900 30.31400
H  38.04800 48.75300 30.05400
H  37.64000 49.95500 32.50300
H  37.40700 48.19700 32.02900
H  33.75200 55.21200 24.87500
H  35.37500 55.24300 25.66000
H  33.91700 54.44900 26.32400
H  34.55500 55.96600 21.12600
H  34.96000 56.03200 22.87000
H  33.46200 55.20600 22.37500
H  37.73500 49.85900 20.10000
H  36.93400 47.00200 20.39400
H  34.87000 49.24200 20.23200
H  35.77200 48.44700 18.93700
H  35.95000 50.20100 19.04700
H  39.13000 47.38000 19.62700
H  39.31700 46.54000 21.05700
H  40.80600 48.80000 20.59000
H  40.63300 48.18600 22.25900
H  39.63600 49.47000 21.55400
H  37.63400 43.65500 23.82600
H  37.21400 43.09700 25.41000
H  38.90500 43.43800 25.07600
H  37.80800 46.74100 29.55200
H  33.78800 45.77400 31.38400
H  34.96800 45.18800 32.41900
H  34.40600 44.14600 31.07800

