158

Mg 1.22300 -2.62400 44.74300
C  4.56600 -2.20700 44.08300
C  0.68800 0.02700 42.57600
C  -1.95300 -3.50900 44.57400
C  1.99200 -5.67100 46.23400
N  2.54100 -1.28100 43.40100
C  3.82400 -1.25800 43.37800
C  4.38000 0.01900 42.66800
C  3.06600 0.82400 42.38700
C  1.99100 -0.17500 42.83400
C  2.90900 2.17000 43.21400
C  5.23600 -0.25500 41.43000
C  6.36900 0.74200 41.28400
H  6.56200 1.34600 39.87600
N  -0.42200 -1.75300 43.81800
C  -0.46900 -0.74800 42.96200
C  -1.86700 -0.40200 42.59300
C  -2.66300 -1.36200 43.25700
C  -1.69900 -2.26900 43.92800
C  -2.14600 0.73400 41.59300
C  -4.19300 -1.38700 43.33600
O  -4.85700 -0.52400 42.72600
C  -4.98400 -2.45300 43.99100
N  0.16100 -4.39700 45.25900
C  -1.12800 -4.45700 45.22700
C  -1.68500 -5.72000 45.89100
C  -0.41600 -6.49900 46.33100
C  0.68000 -5.42500 45.97700
C  -2.52100 -5.42600 47.09900
C  -0.28700 -7.86300 45.54500
C  -0.30000 -7.92000 43.97100
N  2.90800 -3.68900 45.26700
C  3.05100 -4.93300 45.92400
C  4.43300 -5.20100 46.14500
C  5.09700 -4.04800 45.46900
C  4.12600 -3.31000 44.84300
C  4.92600 -6.42700 46.81400
C  6.40100 -3.51900 45.14500
O  7.52200 -3.94700 45.47000
C  6.13600 -2.29300 44.21600
C  6.73900 -1.01600 44.81900
O  6.62700 -0.73600 45.98100
O  7.44400 -0.23100 43.87300
C  7.81200 1.13300 44.32200
H  0.51800 0.85600 41.88600
H  -3.00100 -3.81100 44.51700
H  2.22000 -6.64200 46.67700
H  4.97600 0.56400 43.39900
H  2.90500 1.08000 41.34000
H  3.78600 2.29700 43.84900
H  2.01200 2.16100 43.83300
H  2.82000 2.98800 42.49900
H  4.52600 -0.27900 40.60300
H  5.64600 -1.26300 41.48600
H  7.26700 0.17700 41.53100
H  6.24000 1.54000 42.01500
H  -3.10800 0.50200 41.13600
H  -1.43400 0.86400 40.77800
H  -2.23400 1.67600 42.13400
H  -4.85500 -2.34000 45.06800
H  -4.77700 -3.47100 43.66100
H  -6.04700 -2.29500 43.81000
H  -2.33600 -6.24700 45.19200
H  -0.47700 -6.75900 47.38800
H  -1.92300 -5.32900 48.00500
H  -3.27000 -6.21300 47.18800
H  -3.21100 -4.60200 46.91700
H  -0.98300 -8.64900 45.83600
H  0.64500 -8.33700 45.85500
H  0.71400 -8.04200 43.59000
H  -0.67300 -6.95800 43.61700
H  -0.90400 -8.69500 43.49800
H  5.98000 -6.24900 47.02700
H  4.86100 -7.26000 46.11400
H  4.34000 -6.68000 47.69800
H  6.47200 -2.47300 43.19500
H  8.53000 1.09700 45.14100
H  6.83000 1.55800 44.52800
H  8.29800 1.65000 43.49400
Mg 7.49300 52.95800 40.90700
C  6.95300 49.43500 40.87200
C  10.67100 52.22400 39.66500
C  7.98400 56.21300 40.51300
C  4.14900 53.48800 41.49700
N  8.63000 51.05800 40.32800
C  8.20700 49.74800 40.41200
C  9.29000 48.79400 39.88500
C  10.54500 49.68800 39.92600
C  9.88000 51.11600 39.85800
C  11.38400 49.44100 41.17700
C  9.05400 48.24500 38.48600
C  8.54200 49.20900 37.41800
H  8.03200 48.53200 36.14900
N  9.10700 54.10000 40.15000
C  10.32100 53.53200 39.84100
C  11.19600 54.68700 39.50700
C  10.47200 55.91300 39.82100
C  9.11800 55.41200 40.11700
C  12.60800 54.54100 38.90400
C  11.04800 57.29000 39.72000
O  12.06400 57.53200 39.04400
C  10.42600 58.43400 40.38700
N  6.17600 54.71000 40.76100
C  6.66100 55.93400 40.86700
C  5.65800 56.91400 41.47500
C  4.41800 56.00300 41.47400
C  4.89400 54.65400 41.28600
C  6.07500 57.48700 42.80400
C  3.32800 56.34000 40.34700
C  2.33900 57.38700 40.71100
N  5.86200 51.79300 41.15900
C  4.57800 52.12900 41.53500
C  3.82100 50.93000 41.82800
C  4.71800 49.83600 41.54900
C  5.95200 50.40800 41.17100
C  2.31300 50.84400 42.14300
C  4.82900 48.40600 41.54600
O  3.91400 47.66600 41.85600
C  6.35500 48.06000 41.12800
C  6.16400 47.19200 39.92800
O  5.83600 47.55400 38.86800
O  6.67400 45.88900 40.15400
C  6.56500 44.89600 39.08100
H  11.69500 52.02400 39.34400
H  8.06700 57.29400 40.64100
H  3.12300 53.60700 41.85300
H  9.32300 47.96600 40.59300
H  11.23900 49.64000 39.08700
H  12.39500 49.26200 40.81200
H  11.26200 48.45600 41.62600
H  11.35000 50.27300 41.88000
H  8.56400 47.27600 38.39300
H  10.08900 48.05300 38.20100
H  9.30400 49.94200 37.15100
H  7.75200 49.84300 37.82200
H  12.82400 55.02700 37.95300
H  12.93600 53.50200 38.88500
H  13.32300 55.02900 39.56600
H  9.68500 58.97500 39.79800
H  11.23800 59.12300 40.61800
H  9.94900 58.11700 41.31500
H  5.61400 57.74700 40.77400
H  3.97500 56.03300 42.47000
H  6.95800 56.94700 43.14800
H  5.30800 57.46900 43.57700
H  6.29000 58.55100 42.70600
H  2.82700 55.48800 39.88700
H  3.96300 56.84800 39.62100
H  2.20400 57.38100 41.79300
H  1.41200 57.33200 40.14000
H  2.64900 58.37300 40.36500
H  2.32700 50.57700 43.20000
H  1.84600 50.07000 41.53400
H  1.93400 51.86400 42.08700
H  6.85000 47.48900 41.91300
H  7.23000 45.08700 38.23800
H  5.52400 44.74900 38.79200
H  6.89400 43.95300 39.51800

