158

Mg -1.89000 17.03900 26.12600
C  -1.77700 14.79700 28.89000
C  -2.00800 19.61400 28.25800
C  -2.07300 19.03700 23.44200
C  -2.15100 14.17100 24.09200
N  -2.10100 17.11700 28.32900
C  -1.90900 16.15400 29.25900
C  -2.01000 16.81000 30.68000
C  -2.35800 18.30800 30.35000
C  -2.11500 18.36000 28.85700
C  -3.78800 18.78300 30.68300
C  -0.82200 16.55200 31.57300
C  -0.57200 17.60900 32.72000
H  -0.00100 17.01900 33.97700
N  -1.88800 19.06400 25.89600
C  -1.83800 19.98400 26.89600
C  -1.85200 21.32000 26.27900
C  -1.87900 21.14900 24.90500
C  -1.94900 19.72600 24.72100
C  -1.93200 22.59200 27.16600
C  -1.69700 22.15200 23.84300
O  -1.67500 21.85700 22.66600
C  -1.40500 23.60100 24.13600
N  -2.07100 16.68900 24.13300
C  -2.10000 17.64800 23.20000
C  -2.02700 17.09400 21.74700
C  -1.81800 15.63200 21.96700
C  -2.00600 15.45500 23.49500
C  -3.17800 17.57200 20.79400
C  -0.43000 14.96800 21.51400
C  -0.48400 14.35900 20.06800
N  -1.96900 14.98600 26.38400
C  -2.10600 13.90700 25.46800
C  -1.95000 12.73700 26.13600
C  -1.84400 12.97200 27.47300
C  -1.91900 14.40400 27.59400
C  -2.01300 11.42100 25.47700
C  -1.65400 12.39300 28.77600
O  -1.44700 11.24400 29.05600
C  -1.74700 13.56200 29.78500
C  -0.53000 13.27500 30.65800
O  0.66400 13.58700 30.51900
O  -1.11300 12.72000 31.74600
C  -0.40100 12.62200 33.04300
H  -2.02000 20.51100 28.88100
H  -2.14200 19.61500 22.51800
H  -2.06300 13.31400 23.42100
H  -2.89100 16.41900 31.18800
H  -1.68000 19.06100 30.75300
H  -4.29700 18.40000 31.56700
H  -4.45800 18.63400 29.83700
H  -3.76000 19.87000 30.76100
H  0.07100 16.52200 30.94900
H  -0.96200 15.54400 31.96300
H  -1.46100 18.12300 33.08300
H  0.12300 18.33400 32.29600
H  -2.21700 22.31900 28.18100
H  -2.53000 23.40800 26.76000
H  -0.90900 22.96800 27.14600
H  -2.25100 24.21600 24.44400
H  -1.11500 24.11300 23.21900
H  -0.59700 23.68100 24.86300
H  -1.16900 17.43900 21.17000
H  -2.53400 15.09600 21.34500
H  -3.86100 18.20000 21.36700
H  -3.73100 16.70600 20.42800
H  -2.88800 18.21500 19.96400
H  -0.08300 14.17900 22.18200
H  0.39600 15.67700 21.45900
H  0.53700 14.53600 19.73100
H  -1.09000 14.86400 19.31500
H  -0.68500 13.29100 20.14600
H  -1.63400 11.38900 24.45600
H  -3.01600 11.00700 25.58800
H  -1.40400 10.76400 26.09900
H  -2.67800 13.37800 30.32200
H  -0.64000 13.51200 33.62500
H  0.67500 12.55400 32.88400
H  -0.84200 11.80600 33.61500
Mg -5.08800 25.10700 26.18300
C  -3.37900 26.57300 28.83900
C  -6.53700 22.98800 28.54000
C  -6.60700 23.47100 23.60200
C  -3.03900 26.80100 23.86000
N  -4.93800 24.86600 28.37900
C  -4.30900 25.64700 29.26000
C  -4.74100 25.42100 30.70600
C  -5.39200 24.07000 30.65100
C  -5.66000 24.02200 29.10300
C  -4.51600 22.85700 31.24100
C  -5.64800 26.58300 31.33400
C  -5.55500 26.81800 32.83600
H  -4.72300 25.85900 33.73000
N  -6.38500 23.43100 26.07400
C  -6.89700 22.74000 27.16000
C  -7.70500 21.60900 26.62500
C  -7.77300 21.78200 25.18900
C  -6.83600 22.89300 24.87100
C  -8.54700 20.57900 27.50400
C  -8.49400 21.00800 24.07700
O  -8.22800 21.05100 22.89400
C  -9.55900 19.95600 24.35700
N  -5.06500 25.30900 24.00000
C  -5.71200 24.49200 23.15400
C  -5.69500 24.95200 21.74300
C  -4.38700 25.84100 21.78700
C  -4.06800 25.97600 23.28800
C  -5.64700 23.76900 20.76300
C  -4.41300 27.23800 21.11600
C  -3.34900 27.66100 20.06100
N  -3.65500 26.47900 26.35900
C  -2.92500 27.12400 25.29100
C  -2.06000 28.08700 25.91700
C  -2.17000 27.86000 27.30600
C  -3.19000 26.86700 27.54200
C  -1.12000 29.03800 25.29900
C  -1.52500 28.22000 28.54600
O  -0.65400 28.96900 28.86400
C  -2.45400 27.50100 29.63300
C  -1.59100 26.73600 30.57400
O  -0.82200 25.87100 30.25500
O  -1.66300 27.30300 31.80900
C  -0.80400 26.70200 32.84100
H  -7.04900 22.25200 29.16300
H  -7.27400 23.07800 22.83100
H  -2.32600 27.33100 23.22600
H  -3.80200 25.39800 31.25900
H  -6.42700 24.00800 30.98800
H  -5.19100 22.41000 31.97000
H  -3.61000 23.06300 31.81000
H  -4.28200 22.22100 30.38700
H  -6.70700 26.33400 31.26300
H  -5.38000 27.52700 30.85900
H  -6.53400 26.90100 33.30900
H  -5.06000 27.77700 32.98500
H  -8.36700 20.58000 28.57900
H  -8.37600 19.53800 27.23100
H  -9.61500 20.72100 27.34200
H  -10.02500 19.78100 23.38700
H  -10.25800 20.51400 24.98000
H  -9.26700 18.97100 24.72200
H  -6.66200 25.44100 21.62200
H  -3.57600 25.25700 21.35300
H  -5.87700 22.78300 21.16600
H  -4.64900 23.66100 20.33800
H  -6.16400 23.98300 19.82800
H  -4.64600 27.98400 21.87600
H  -5.41300 27.32700 20.69300
H  -2.58400 26.91700 19.83500
H  -2.87900 28.57600 20.42000
H  -3.96400 27.85100 19.18100
H  -0.22500 28.45800 25.07500
H  -1.12800 29.90100 25.96500
H  -1.51600 29.45000 24.37000
H  -3.10600 28.13700 30.23200
H  -1.12200 26.82100 33.87700
H  0.11400 27.24200 32.60800
H  -0.57900 25.65100 32.65900

