158

Mg 25.52800 -8.42100 47.28800
C  27.87500 -6.05800 46.54500
C  23.43600 -6.95700 44.92900
C  23.23200 -10.83700 47.95100
C  28.00500 -10.26900 48.98500
N  25.61200 -6.68200 45.91400
C  26.72200 -5.87200 45.77300
C  26.59000 -4.86900 44.66800
C  25.09200 -4.96900 44.34800
C  24.61400 -6.26200 45.12600
C  24.23400 -3.66200 44.77600
C  27.46500 -5.25900 43.46900
C  28.37400 -4.25300 42.77600
H  27.96500 -3.67700 41.41000
N  23.54800 -8.81200 46.62100
C  22.86900 -8.07700 45.57800
C  21.61600 -8.77000 45.33400
C  21.49400 -9.71800 46.33400
C  22.77200 -9.83200 47.02100
C  20.60900 -8.23200 44.31800
C  20.25800 -10.49600 46.61400
O  19.31900 -10.42400 45.83800
C  20.07500 -11.33500 47.89400
N  25.59700 -10.27200 48.27900
C  24.50700 -11.03900 48.55500
C  24.93100 -12.35600 49.25700
C  26.47500 -12.30600 49.23700
C  26.76800 -10.87400 48.77100
C  24.19300 -12.51300 50.60200
C  27.35000 -13.34100 48.49100
C  27.74500 -14.56000 49.30300
N  27.53100 -8.29400 47.71900
C  28.40000 -9.05900 48.42800
C  29.71300 -8.44300 48.43500
C  29.56500 -7.19700 47.81600
C  28.18800 -7.15300 47.39500
C  30.99100 -9.05500 48.90400
C  30.28000 -6.03900 47.30100
O  31.45300 -5.65600 47.45800
C  29.22800 -5.25300 46.46400
C  29.04600 -3.83300 46.93600
O  28.55500 -3.51200 48.00600
O  29.49400 -2.96200 45.94700
C  29.12500 -1.59000 46.02100
H  22.89600 -6.38600 44.17100
H  22.52900 -11.65900 48.10100
H  28.76700 -10.86700 49.48900
H  26.91100 -3.91000 45.07600
H  24.88500 -5.16400 43.29600
H  23.67400 -3.78100 45.70300
H  23.48100 -3.44400 44.01900
H  24.85400 -2.77400 44.90200
H  26.80500 -5.58400 42.66400
H  28.00000 -6.16600 43.74900
H  29.27400 -4.82600 42.55300
H  28.71800 -3.42700 43.39900
H  21.00200 -7.34400 43.82500
H  19.76500 -7.73700 44.79900
H  20.31200 -9.02200 43.62800
H  20.52200 -12.26600 47.54500
H  19.01400 -11.44600 48.11900
H  20.62500 -10.90600 48.73200
H  24.51700 -13.09900 48.57500
H  26.65800 -12.24800 50.31000
H  24.55400 -13.34400 51.20700
H  23.12500 -12.50200 50.38500
H  24.47600 -11.61700 51.15400
H  28.18600 -12.86700 47.97700
H  26.65500 -13.75200 47.75800
H  28.73800 -14.80600 48.92600
H  27.02300 -15.31100 48.98200
H  27.68200 -14.41100 50.38100
H  31.55300 -8.30100 49.45500
H  31.56500 -9.50100 48.09100
H  30.82600 -9.94600 49.50900
H  29.46000 -5.27400 45.39900
H  28.13200 -1.54600 45.57400
H  29.82800 -0.92400 45.52200
H  29.11200 -1.16700 47.02600
Mg 26.19300 0.02700 29.34200
C  28.09900 -0.33600 32.22200
C  23.39400 0.65800 31.36900
C  24.24000 0.20800 26.66200
C  28.86000 -1.28100 27.45800
N  25.80100 0.10300 31.54500
C  26.72900 -0.01600 32.57300
C  26.15900 0.12100 33.95200
C  24.59400 0.12000 33.58200
C  24.57100 0.29700 32.10000
C  23.79200 -1.14800 34.12600
C  26.78900 1.35700 34.59300
C  26.01000 1.85900 35.88900
H  26.79700 2.06800 37.15400
N  24.19900 0.46300 29.05600
C  23.20300 0.69400 29.96400
C  21.92000 0.90200 29.31800
C  22.10200 0.86300 27.96100
C  23.56100 0.53900 27.83300
C  20.65300 1.19700 30.07100
C  21.20000 1.11200 26.75900
O  21.54100 1.02000 25.59800
C  19.86000 1.61100 27.01800
N  26.56700 -0.41200 27.36400
C  25.56400 -0.22200 26.44300
C  26.14000 -0.69300 25.07900
C  27.69200 -0.73400 25.28700
C  27.72800 -0.87300 26.80400
C  25.53300 -2.02300 24.47100
C  28.55900 0.49300 24.82800
C  30.03000 0.19900 24.50700
N  28.06600 -0.62900 29.68300
C  29.10000 -1.11400 28.85300
C  30.26900 -1.35500 29.53900
C  30.00000 -1.06200 30.85800
C  28.61400 -0.59900 30.91300
C  31.44800 -2.05600 28.86500
C  30.48900 -1.04500 32.24000
O  31.57800 -1.26700 32.69700
C  29.28300 -0.63200 33.14000
C  29.03000 -1.84200 34.04300
O  28.54800 -2.88600 33.68800
O  29.29900 -1.52800 35.35500
C  29.17200 -2.60800 36.33000
H  22.46300 0.80300 31.92100
H  23.79700 0.29300 25.66800
H  29.66400 -1.60300 26.79300
H  26.34000 -0.78200 34.53400
H  24.19800 1.03500 34.02100
H  24.46500 -1.84000 34.63300
H  23.38700 -1.73300 33.30100
H  23.02600 -0.81000 34.82300
H  26.79100 2.26200 33.98500
H  27.80800 1.15100 34.92000
H  25.07700 1.32000 36.05600
H  25.60500 2.85700 35.72500
H  20.08800 1.99900 29.59700
H  20.69800 1.48900 31.12100
H  19.93300 0.39400 29.91000
H  19.96600 2.56000 27.54500
H  19.29700 0.84300 27.54900
H  19.31800 1.81800 26.09600
H  25.94700 0.11300 24.37100
H  28.07900 -1.63200 24.80500
H  26.22200 -2.86300 24.55700
H  25.17200 -1.80900 23.46500
H  24.66600 -2.30000 25.07100
H  28.58000 1.10700 25.72800
H  28.22400 1.06300 23.96200
H  30.27100 0.72100 23.58100
H  30.17400 -0.88100 24.47700
H  30.68500 0.60600 25.27700
H  32.24000 -2.33600 29.55900
H  31.90100 -1.38600 28.13400
H  31.07100 -2.97800 28.42200
H  29.47000 0.19300 33.82700
H  29.95800 -3.36300 36.34300
H  28.19400 -3.02400 36.08800
H  29.00000 -2.15700 37.30700

