158

Mg -2.20900 18.09300 26.90200
C  -2.47200 16.02100 29.68200
C  -2.90300 20.90300 28.91800
C  -1.84200 19.97600 24.28000
C  -1.68700 15.15100 24.91600
N  -2.55400 18.39400 29.06900
C  -2.61100 17.35000 29.99700
C  -2.88200 17.91800 31.44400
C  -3.08900 19.49100 31.13400
C  -2.83500 19.62900 29.58400
C  -4.56000 20.03600 31.58900
C  -1.79200 17.82100 32.52100
C  -2.07400 17.08000 33.83000
H  -1.10200 17.29700 34.97300
N  -2.36800 20.15700 26.57400
C  -2.64200 21.16300 27.52600
C  -2.59900 22.42600 26.90500
C  -2.30100 22.16100 25.56000
C  -2.19400 20.73300 25.42700
C  -2.71600 23.80000 27.53900
C  -2.13700 23.11700 24.38600
O  -2.14700 22.81100 23.22300
C  -2.10200 24.64100 24.68800
N  -1.63800 17.57500 24.93900
C  -1.64600 18.62800 24.06700
C  -1.40300 17.97500 22.61700
C  -0.86500 16.53600 22.90400
C  -1.42500 16.39800 24.32800
C  -2.68200 18.05100 21.66800
C  0.65400 16.29000 22.71900
C  1.73800 16.79300 23.73900
N  -2.28900 15.97900 27.18100
C  -2.04700 14.92600 26.25600
C  -2.23800 13.63700 26.94200
C  -2.45700 14.01500 28.27900
C  -2.41000 15.47000 28.36700
C  -2.27200 12.24100 26.32800
C  -2.79900 13.52400 29.58000
O  -2.98000 12.38300 29.98100
C  -2.77300 14.77800 30.57200
C  -1.68100 14.46400 31.59300
O  -0.50300 14.74300 31.55700
O  -2.24000 13.73900 32.60600
C  -1.40700 13.19200 33.75200
H  -2.96600 21.79400 29.54600
H  -1.85200 20.47800 23.31000
H  -1.53600 14.23800 24.33600
H  -3.81200 17.40600 31.69100
H  -2.32200 20.15500 31.53300
H  -4.50300 20.75900 32.40300
H  -5.05800 19.12500 31.92000
H  -5.11200 20.48100 30.76100
H  -1.42700 18.80000 32.83100
H  -1.02100 17.19700 32.06900
H  -2.15900 15.99700 33.74000
H  -3.08800 17.39900 34.07400
H  -3.49100 24.38500 27.04500
H  -1.75900 24.32000 27.48300
H  -2.84100 23.68600 28.61600
H  -3.08100 24.96900 25.03800
H  -1.90200 25.10000 23.72100
H  -1.23000 24.89100 25.29300
H  -0.53800 18.50500 22.21900
H  -1.24200 15.81000 22.18400
H  -3.60300 18.12000 22.24600
H  -2.63300 17.17500 21.02100
H  -2.53900 18.91800 21.02300
H  1.04800 16.90600 21.91000
H  1.00100 15.31200 22.38500
H  2.14700 15.85800 24.12100
H  1.30200 17.31600 24.59000
H  2.55000 17.32700 23.24500
H  -1.84000 11.53400 27.03700
H  -1.63000 12.11000 25.45600
H  -3.27600 11.85300 26.15700
H  -3.73600 14.73700 31.08100
H  -0.41800 12.88100 33.41600
H  -1.82800 12.26200 34.13400
H  -1.26300 13.95100 34.52000
Mg 16.78500 52.05000 26.25500
C  18.83900 51.07100 28.98300
C  14.28500 52.84200 28.51800
C  14.74100 52.99600 23.80200
C  19.09300 50.69600 24.10500
N  16.68200 52.04900 28.52400
C  17.65800 51.73300 29.42200
C  17.21400 52.22100 30.81000
C  15.64700 52.45000 30.65700
C  15.52800 52.47900 29.14500
C  14.86700 51.24500 31.21400
C  18.02700 53.46300 31.25500
C  18.19400 53.60400 32.78200
H  17.12300 53.20900 33.74500
N  14.81000 52.89900 26.18700
C  13.96900 53.16600 27.19800
C  12.70800 53.57300 26.63600
C  12.80200 53.69600 25.23100
C  14.13900 53.25900 25.00000
C  11.51300 53.82300 27.47200
C  11.79100 54.11900 24.11900
O  12.03400 54.20600 22.92000
C  10.39400 54.40200 24.35300
N  16.84300 51.80100 24.31900
C  15.98900 52.45700 23.40700
C  16.51800 52.32400 21.98800
C  17.85800 51.62000 22.12200
C  17.96300 51.31200 23.63700
C  15.53100 51.61200 21.04100
C  19.04500 52.55600 21.70000
C  20.14200 51.88800 20.86200
N  18.60900 51.04000 26.46600
C  19.46400 50.47600 25.44800
C  20.61600 49.87400 26.07900
C  20.48700 50.07500 27.44500
C  19.25500 50.76600 27.59700
C  21.57100 48.97200 25.43700
C  20.99200 49.79600 28.77900
O  21.89800 49.04400 29.18100
C  20.03400 50.59800 29.84700
C  19.56500 49.67300 30.85400
O  18.93600 48.64200 30.50700
O  19.89300 50.12200 32.10500
C  19.43900 49.34700 33.22600
H  13.54000 53.09000 29.27700
H  14.26500 53.26400 22.85600
H  19.87200 50.37900 23.40900
H  17.45100 51.47300 31.56600
H  15.38200 53.44300 31.02100
H  14.50900 50.57700 30.43100
H  13.94000 51.43900 31.75400
H  15.49300 50.57600 31.80400
H  17.53400 54.40100 31.00200
H  19.01200 53.41100 30.79100
H  18.51800 54.63300 32.93600
H  19.01500 52.96100 33.09800
H  11.16500 54.76600 27.05200
H  11.77300 54.00900 28.51400
H  10.69000 53.11900 27.34500
H  9.89000 54.77300 23.46100
H  10.28700 55.19000 25.09900
H  9.89300 53.54300 24.79900
H  16.70200 53.35300 21.67900
H  18.04000 50.64400 21.67300
H  16.09000 50.83700 20.51600
H  15.18600 52.27400 20.24600
H  14.70200 51.06700 21.49200
H  19.54800 53.02900 22.54300
H  18.66600 53.32500 21.02700
H  21.10800 52.01300 21.35100
H  20.32600 52.36600 19.90000
H  19.91500 50.83400 20.70600
H  22.18500 48.65200 26.27900
H  22.08000 49.52000 24.64400
H  21.15400 48.12900 24.88600
H  20.39300 51.50300 30.33800
H  18.50700 48.81200 33.04200
H  19.26600 50.08200 34.01200
H  20.27700 48.73300 33.55700

