158

Mg 8.03100 3.24700 27.83400
C  9.56300 1.60400 30.44000
C  6.30600 5.19600 30.12300
C  6.32300 4.72300 25.18900
C  9.31200 0.86200 25.65400
N  7.80800 3.18900 29.99700
C  8.70700 2.63200 30.84700
C  8.55000 3.24600 32.28300
C  7.27400 4.15200 32.21700
C  7.15700 4.21700 30.66300
C  5.98200 3.61200 32.95300
C  9.86700 3.83500 32.97100
C  10.42500 3.16400 34.16400
H  10.96100 4.01500 35.26800
N  6.52000 4.69800 27.65600
C  6.01100 5.47200 28.73000
C  5.30700 6.57200 28.14600
C  5.34300 6.45200 26.73200
C  6.04600 5.24400 26.46300
C  4.60100 7.46500 29.18700
C  4.73100 7.41700 25.75100
O  4.92200 7.19300 24.54400
C  4.06900 8.66400 26.25200
N  7.76200 2.74900 25.74000
C  7.07500 3.51500 24.87700
C  7.20500 2.93200 23.39500
C  8.06200 1.57400 23.65000
C  8.44200 1.74200 25.10400
C  5.86800 2.75500 22.67000
C  9.29200 1.47600 22.62500
C  9.49000 0.14400 21.97100
N  9.34500 1.56300 27.97800
C  9.73800 0.67100 27.03200
C  10.60900 -0.23900 27.67700
C  10.68800 0.06900 29.06500
C  9.79900 1.17700 29.12900
C  11.25000 -1.35300 26.87800
C  11.15500 -0.35000 30.36000
O  11.93700 -1.23500 30.70300
C  10.39100 0.63400 31.26900
C  9.55300 -0.00200 32.28100
O  8.48100 -0.65100 32.09800
O  10.09700 0.08000 33.54400
C  9.15700 -0.29200 34.65000
H  5.93500 5.84700 30.91700
H  6.02200 5.23800 24.27400
H  9.63100 0.07500 24.96700
H  8.33300 2.34700 32.86100
H  7.38700 5.20200 32.48600
H  5.30200 3.20500 32.20500
H  5.56000 4.36200 33.62100
H  6.26500 2.73600 33.53700
H  9.46100 4.78900 33.31000
H  10.73500 3.99200 32.33100
H  11.18800 2.42100 33.92900
H  9.66100 2.50700 34.58000
H  5.29900 8.10000 29.73400
H  4.16500 6.84400 29.97000
H  3.85900 8.17200 28.81600
H  4.76700 9.30800 26.78800
H  3.17300 8.42900 26.82600
H  3.71700 9.16300 25.35000
H  7.74700 3.67500 22.81000
H  7.44700 0.67600 23.60500
H  5.78800 3.34300 21.75600
H  5.09500 3.10300 23.35700
H  5.62100 1.70800 22.49800
H  10.15800 1.61500 23.27200
H  9.27600 2.22500 21.83400
H  8.68700 -0.55100 22.21700
H  10.44300 -0.13600 22.42000
H  9.48700 0.20500 20.88300
H  11.84800 -0.91000 26.08200
H  10.63900 -2.16300 26.47900
H  11.94700 -1.85000 27.55200
H  11.15700 1.10300 31.88700
H  8.74600 -1.28300 34.45700
H  8.48800 0.56200 34.74900
H  9.83100 -0.40600 35.49900
Mg -2.50100 33.87200 27.88700
C  -4.13200 31.98400 30.23600
C  -1.54300 35.96600 30.45800
C  -1.16000 35.81400 25.56700
C  -4.03700 31.89100 25.38300
N  -2.73000 33.86000 30.18400
C  -3.47600 33.04200 30.96300
C  -3.46900 33.42100 32.38000
C  -2.89600 34.92800 32.31700
C  -2.36900 34.91300 30.91600
C  -3.89100 36.08600 32.55600
C  -2.82200 32.50800 33.46500
C  -3.58500 32.27600 34.82300
H  -2.76900 32.22800 36.14100
N  -1.41400 35.67800 27.95200
C  -1.05600 36.29200 29.18300
C  -0.11600 37.34500 28.80900
C  0.03200 37.32400 27.39300
C  -0.88200 36.28200 26.87200
C  0.44400 38.39800 29.75200
C  1.01400 38.08800 26.56800
O  1.18100 37.88700 25.37300
C  1.94700 39.03700 27.24900
N  -2.63400 33.87800 25.70300
C  -1.92800 34.82400 25.00700
C  -2.12400 34.66200 23.48100
C  -2.85700 33.29700 23.42300
C  -3.18900 32.94700 24.89800
C  -2.94100 35.80500 22.78100
C  -2.00500 32.20500 22.71500
C  -0.99000 31.40400 23.61100
N  -3.86600 32.33900 27.77800
C  -4.28000 31.54200 26.73900
C  -5.14800 30.48300 27.21200
C  -5.10300 30.65300 28.57300
C  -4.19700 31.68900 28.85100
C  -5.99200 29.49600 26.40900
C  -5.69400 30.04300 29.74400
O  -6.56500 29.21800 29.84400
C  -5.07000 30.98100 30.83300
C  -6.10400 31.73300 31.68000
O  -6.70600 32.75100 31.30900
O  -6.27400 31.21700 32.95200
C  -7.11400 32.04600 33.86600
H  -1.11000 36.57000 31.25800
H  -0.64200 36.37100 24.78300
H  -4.44700 31.34000 24.53400
H  -4.52700 33.52600 32.62000
H  -2.04300 35.15500 32.95600
H  -3.55000 36.82300 33.28300
H  -4.86100 35.75500 32.92500
H  -3.96800 36.75100 31.69600
H  -1.90900 32.97700 33.83200
H  -2.54900 31.53400 33.05900
H  -3.86000 31.24500 34.60300
H  -4.50700 32.83400 34.98900
H  -0.12400 38.32800 30.68000
H  0.35400 39.42800 29.40900
H  1.50400 38.28500 29.98100
H  2.76000 39.34700 26.59300
H  2.50500 38.61800 28.08600
H  1.43000 39.93800 27.58000
H  -1.12100 34.56600 23.06500
H  -3.85900 33.38000 23.00300
H  -3.78100 35.41300 22.20800
H  -2.32800 36.45300 22.15500
H  -3.29600 36.51600 23.52700
H  -1.40900 32.53000 21.86300
H  -2.72200 31.54500 22.22700
H  -1.24100 30.34300 23.59000
H  -1.04700 31.80000 24.62500
H  0.03700 31.51600 23.26100
H  -5.58400 29.31200 25.41500
H  -6.97400 29.94100 26.24800
H  -6.00300 28.56300 26.97300
H  -4.47700 30.38100 31.52300
H  -7.97600 32.38000 33.28800
H  -6.64100 32.94300 34.26600
H  -7.50300 31.45100 34.69300

