158

Mg -1.71300 17.90200 27.42400
C  -1.94900 15.50900 29.92800
C  -2.20300 20.32100 29.78600
C  -1.41700 20.11900 25.01600
C  -1.11100 15.20900 25.02900
N  -1.93000 17.86700 29.67100
C  -1.98400 16.78600 30.47300
C  -1.87400 17.24300 31.98700
C  -2.30400 18.79400 31.87900
C  -2.12200 19.05000 30.33600
C  -3.76100 19.14300 32.37600
C  -0.46400 16.93000 32.56100
C  0.02700 17.75100 33.81200
H  0.06400 17.13600 35.16400
N  -1.86500 19.96300 27.36300
C  -2.03500 20.81100 28.40100
C  -2.15100 22.19400 27.96400
C  -2.04800 22.06100 26.55900
C  -1.72700 20.68500 26.23600
C  -2.20800 23.40800 28.90300
C  -2.17600 23.20500 25.59400
O  -1.84000 23.10000 24.43300
C  -2.72500 24.56000 26.03500
N  -1.50700 17.61700 25.31500
C  -1.27600 18.77900 24.58900
C  -1.00400 18.47300 23.11200
C  -0.68900 16.98100 23.14000
C  -1.14000 16.54600 24.59400
C  -2.28400 18.85700 22.26800
C  0.71900 16.61000 22.73200
C  1.83500 17.40600 23.37800
N  -1.60400 15.79100 27.41100
C  -1.40000 14.86300 26.40400
C  -1.53800 13.55800 26.94800
C  -1.78600 13.77200 28.36300
C  -1.79100 15.14200 28.53400
C  -1.31700 12.19600 26.17400
C  -2.05400 13.07900 29.56900
O  -2.11300 11.89900 29.88800
C  -2.21000 14.17200 30.62500
C  -1.22400 13.75900 31.62200
O  -0.00400 13.97700 31.61700
O  -1.95600 13.16800 32.64900
C  -1.24500 12.79200 33.83300
H  -2.42200 21.14900 30.46400
H  -1.34400 20.85200 24.21000
H  -0.95300 14.39700 24.31600
H  -2.67300 16.69900 32.49000
H  -1.70400 19.54500 32.39300
H  -4.33000 19.81900 31.73900
H  -3.73800 19.64700 33.34200
H  -4.36200 18.23900 32.47300
H  0.38800 16.97600 31.88300
H  -0.50900 15.93000 32.99300
H  -0.68000 18.56500 33.97300
H  1.03500 18.08800 33.56800
H  -1.82600 23.13200 29.88600
H  -3.21500 23.82200 28.96000
H  -1.49200 24.16300 28.58000
H  -2.78600 25.23000 25.17800
H  -2.11400 25.06200 26.78500
H  -3.68900 24.40700 26.52100
H  -0.22900 19.17700 22.80700
H  -1.25600 16.44600 22.37800
H  -2.71200 18.04400 21.68200
H  -2.01100 19.70700 21.64200
H  -3.07000 19.18500 22.94800
H  0.65200 16.73800 21.65100
H  0.82700 15.53200 22.84900
H  2.50600 16.70000 23.86600
H  1.54700 18.20800 24.05700
H  2.40700 17.83400 22.55400
H  -0.98600 11.36000 26.79100
H  -0.85200 12.27700 25.19100
H  -2.34000 11.93900 25.90100
H  -3.23600 14.06400 30.97800
H  -0.59000 11.98200 33.51200
H  -1.91700 12.30800 34.54200
H  -0.56600 13.55800 34.20800
Mg 42.10900 41.25000 26.89500
C  41.55900 43.57500 29.46000
C  43.20600 39.09100 29.27700
C  42.91000 39.16500 24.48400
C  41.22500 43.67100 24.54500
N  42.30200 41.35300 29.04800
C  41.88800 42.29100 29.89800
C  42.02600 41.92000 31.38500
C  42.60800 40.46400 31.34500
C  42.73000 40.30300 29.81800
C  43.85800 40.22100 32.18900
C  40.59900 41.90200 32.01500
C  40.49800 42.78100 33.27300
H  39.66600 42.02800 34.36500
N  43.05000 39.45700 26.90600
C  43.31700 38.59100 27.96500
C  43.73800 37.33300 27.54100
C  43.65000 37.27900 26.13700
C  43.15100 38.64200 25.76400
C  44.25300 36.22600 28.46900
C  43.97000 36.19800 25.16100
O  43.84100 36.30400 23.94100
C  44.42600 34.79700 25.68200
N  42.31600 41.44900 24.77900
C  42.48000 40.36400 23.98800
C  42.13900 40.56600 22.49300
C  41.44500 41.99800 22.57100
C  41.72200 42.43700 24.03900
C  43.38100 40.66800 21.58100
C  39.87600 42.07700 22.25800
C  38.89300 40.96100 22.55800
N  41.57400 43.29800 26.89600
C  41.17900 44.12000 25.85900
C  40.71200 45.38600 26.45500
C  40.89500 45.18900 27.78800
C  41.32400 43.92900 28.08900
C  40.26600 46.61100 25.80800
C  40.73900 45.90500 29.11500
O  40.42300 47.01200 29.45800
C  41.11400 44.83500 30.17700
C  42.20100 45.36700 31.06700
O  43.41200 45.29100 30.77700
O  41.62200 45.85000 32.18100
C  42.62600 46.39300 33.17200
H  43.38700 38.31100 30.02000
H  43.19900 38.48400 23.68000
H  40.68400 44.24600 23.79100
H  42.79700 42.55000 31.82800
H  41.78700 39.78600 31.58000
H  43.75400 39.14600 32.33600
H  43.86300 40.79600 33.11500
H  44.71900 40.59500 31.63500
H  40.30000 40.91800 32.37700
H  39.83600 42.03500 31.24800
H  39.97300 43.70800 33.04400
H  41.48600 43.11800 33.58500
H  44.39400 36.65500 29.46100
H  45.20700 35.96700 28.01000
H  43.50400 35.43700 28.41400
H  43.49800 34.59800 26.21800
H  45.34200 34.99300 26.23900
H  44.52800 34.14600 24.81300
H  41.42600 39.88500 22.02900
H  41.90700 42.68300 21.86100
H  44.27900 40.78200 22.18900
H  43.38100 41.55200 20.94200
H  43.38900 39.76800 20.96600
H  39.78000 42.42700 21.23000
H  39.44300 42.91000 22.81100
H  39.35900 40.34500 23.32700
H  38.68900 40.35000 21.67900
H  38.01700 41.40800 23.02800
H  39.98100 47.23300 26.65600
H  39.49500 46.31600 25.09600
H  41.08200 47.07200 25.25100
H  40.30900 44.68500 30.89700
H  42.91900 45.50500 33.73300
H  41.97900 47.01200 33.79300
H  43.48900 46.93200 32.77900

