158

Mg 8.99300 3.83200 27.20300
C  10.25700 2.22200 30.03000
C  7.03800 5.75000 29.24000
C  7.87400 5.47800 24.50600
C  10.69300 1.57300 25.24800
N  8.68900 3.87500 29.39200
C  9.42100 3.26600 30.38000
C  9.08000 3.90100 31.72700
C  7.85600 4.83200 31.53300
C  7.86400 4.82300 29.95800
C  6.50200 4.41100 32.08600
C  10.32200 4.54500 32.37900
C  10.16900 5.18100 33.77900
H  10.99600 4.62100 34.97700
N  7.62200 5.33900 26.89000
C  6.87300 5.98500 27.84800
C  6.09900 7.10500 27.25300
C  6.49700 7.13900 25.91800
C  7.35400 5.93100 25.72400
C  5.16700 8.02900 27.99700
C  6.18200 8.15000 24.87100
O  6.52400 7.99700 23.67700
C  5.45700 9.48700 25.24900
N  9.02200 3.37300 25.10800
C  8.68600 4.33100 24.24300
C  9.19700 4.02600 22.88300
C  10.06300 2.69200 23.02100
C  9.90600 2.46500 24.53800
C  8.08900 3.95600 21.83400
C  11.55200 2.75200 22.42900
C  11.98400 1.52600 21.67600
N  10.19100 2.15600 27.48600
C  10.82500 1.37500 26.59300
C  11.64400 0.36900 27.22100
C  11.40600 0.67000 28.59900
C  10.49200 1.76100 28.68300
C  12.55000 -0.71100 26.71900
C  11.73800 0.29700 29.87400
O  12.60000 -0.51200 30.14700
C  11.09200 1.27800 30.89900
C  10.38400 0.65700 32.05800
O  9.22200 0.24100 31.96400
O  11.19600 0.68600 33.15900
C  10.39800 0.58100 34.37400
H  6.50600 6.36400 29.96800
H  7.80600 6.24000 23.72700
H  11.26200 0.88300 24.62100
H  8.83200 3.07900 32.39700
H  8.06300 5.87600 31.76500
H  6.62100 3.41400 32.51000
H  5.69700 4.33700 31.35500
H  6.11600 4.98300 32.93000
H  10.74300 5.33600 31.75700
H  11.15600 3.84300 32.39500
H  9.14100 5.13400 34.13800
H  10.36100 6.25000 33.69500
H  5.65500 8.96400 28.26900
H  4.92800 7.59100 28.96600
H  4.23800 8.16600 27.44300
H  5.63600 10.16400 24.41300
H  5.89100 9.96700 26.12600
H  4.43100 9.12500 25.31800
H  9.82600 4.85900 22.57100
H  9.57700 1.82300 22.57700
H  7.17000 4.18300 22.37500
H  7.92600 3.07000 21.22000
H  8.14100 4.74100 21.07900
H  12.25600 2.85800 23.25500
H  11.64900 3.63700 21.80000
H  12.81900 1.00200 22.14100
H  12.20400 1.84000 20.65600
H  11.12300 0.86000 21.61400
H  12.36200 -0.85800 25.65600
H  12.41400 -1.69500 27.16600
H  13.56400 -0.39100 26.96200
H  11.97300 1.82200 31.23900
H  11.06100 0.20300 35.15200
H  9.52600 -0.07300 34.36600
H  10.07500 1.59400 34.61300
Mg 26.70200 50.85300 25.86900
C  24.94200 52.09000 28.69900
C  29.27400 50.24400 28.00900
C  28.34500 49.73600 23.23000
C  24.21500 52.21300 23.91700
N  27.03400 51.18600 28.08600
C  26.17900 51.50800 29.03900
C  26.71000 51.33500 30.49400
C  28.19200 51.06800 30.24200
C  28.18600 50.74500 28.65300
C  29.16000 52.20600 30.72200
C  25.89700 50.26900 31.24900
C  25.36100 50.61200 32.61600
H  26.43200 51.05700 33.63900
N  28.58700 50.17900 25.68400
C  29.51900 50.01100 26.64100
C  30.64600 49.41300 26.03500
C  30.39700 48.97800 24.70900
C  29.12500 49.66200 24.49200
C  31.84500 49.12800 26.88500
C  31.21200 48.14500 23.74300
O  30.88900 47.91200 22.58400
C  32.48700 47.48100 24.18100
N  26.36400 50.97300 23.81600
C  27.15700 50.32300 22.93300
C  26.44700 50.30100 21.52300
C  25.15600 51.18500 21.79800
C  25.21700 51.47700 23.23400
C  27.39800 50.72800 20.37500
C  23.74300 50.45400 21.44400
C  22.56900 51.34100 20.97900
N  25.00000 51.91300 26.18200
C  24.04300 52.36700 25.28500
C  23.00600 53.08100 25.92700
C  23.29200 52.99100 27.28400
C  24.51200 52.29300 27.37600
C  21.91300 53.80600 25.28500
C  22.84700 53.31700 28.55200
O  21.81300 53.93400 28.86700
C  23.92400 52.78800 29.55800
C  24.43400 53.82500 30.54300
O  25.23600 54.72000 30.30100
O  23.93500 53.59400 31.80400
C  24.32300 54.57900 32.85700
H  30.03800 50.08200 28.77200
H  28.96100 49.25200 22.46900
H  23.47100 52.67400 23.26500
H  26.52600 52.25600 31.04700
H  28.38500 50.11700 30.73700
H  28.77500 53.21800 30.59500
H  30.04500 52.14400 30.08800
H  29.49700 52.12900 31.75500
H  26.53100 49.38900 31.36200
H  25.08500 49.91400 30.61400
H  24.91200 49.67400 32.94400
H  24.52300 51.30700 32.67400
H  31.89500 49.75100 27.77700
H  32.78000 49.40700 26.39900
H  31.88600 48.10000 27.24600
H  33.02900 48.31800 24.62200
H  32.98400 47.06800 23.30400
H  32.30200 46.64000 24.84800
H  26.10400 49.31700 21.20300
H  25.22100 52.12600 21.25000
H  28.32200 51.06400 20.84500
H  26.90600 51.48200 19.76000
H  27.62300 49.89800 19.70600
H  23.36400 49.93700 22.32600
H  23.88800 49.74300 20.63100
H  22.15600 50.93200 20.05700
H  22.77200 52.41200 20.98900
H  21.64400 51.30900 21.55400
H  21.39700 53.24500 24.50700
H  22.30800 54.74000 24.88500
H  21.15100 53.96600 26.04900
H  23.34900 52.12900 30.20900
H  24.24700 55.60800 32.50600
H  25.31500 54.33200 33.23400
H  23.63500 54.52600 33.70000

