158

Mg 8.52400 2.02800 27.58500
C  10.19800 0.96500 30.42800
C  6.93000 4.35900 29.56500
C  7.07300 3.09800 24.79400
C  10.16000 -0.46200 25.78000
N  8.60000 2.57800 29.80000
C  9.31800 2.00700 30.73700
C  9.06200 2.67600 32.14300
C  8.05800 3.79200 31.79400
C  7.81000 3.60600 30.28800
C  6.81700 3.99700 32.57100
C  10.28100 3.15900 32.93100
C  10.07700 4.25600 34.07500
H  10.52400 3.89700 35.46400
N  7.23500 3.50700 27.20300
C  6.67300 4.33400 28.20000
C  5.73000 5.17600 27.53500
C  5.83300 4.92300 26.08200
C  6.67400 3.74900 25.99000
C  4.73100 6.14400 28.11700
C  5.03400 5.51600 24.92500
O  5.25300 5.13800 23.78700
C  3.90400 6.60600 25.09500
N  8.60800 1.46300 25.58200
C  7.94600 2.08500 24.60100
C  8.19600 1.49400 23.26100
C  9.10600 0.27700 23.57900
C  9.34300 0.43700 25.03900
C  6.87600 1.08500 22.45300
C  10.37400 0.18200 22.69000
C  10.15300 -0.32200 21.34000
N  9.86300 0.56300 27.97500
C  10.39700 -0.42600 27.14200
C  11.23500 -1.31800 27.87900
C  11.23000 -0.76500 29.20000
C  10.33000 0.33100 29.20100
C  12.03300 -2.54600 27.32600
C  11.71900 -0.87700 30.58800
O  12.51300 -1.66300 31.07800
C  11.06400 0.19300 31.43600
C  10.23500 -0.34900 32.48100
O  9.16000 -0.95300 32.31900
O  10.80400 -0.25500 33.76200
C  9.91000 -0.81600 34.88300
H  6.47800 5.12400 30.20100
H  6.62800 3.40600 23.84600
H  10.70200 -1.20600 25.19300
H  8.51000 2.03300 32.82900
H  8.60400 4.73600 31.78400
H  5.99700 3.54700 32.01000
H  6.59500 5.05200 32.73100
H  6.87700 3.55500 33.56500
H  10.95100 3.57100 32.17600
H  10.79000 2.28900 33.34500
H  9.03400 4.51100 34.26400
H  10.55900 5.15600 33.69200
H  4.98600 7.07800 27.61700
H  4.95000 6.21800 29.18200
H  3.67500 5.89200 28.01700
H  3.42800 6.96500 24.18200
H  4.27800 7.56900 25.44100
H  3.14600 6.21300 25.77300
H  8.74000 2.26800 22.72000
H  8.55700 -0.66500 23.59400
H  6.00800 1.10000 23.11200
H  6.86000 0.06200 22.07800
H  6.79100 1.74200 21.58700
H  11.02300 -0.54600 23.17600
H  10.83000 1.17100 22.63700
H  10.20300 0.45500 20.57700
H  9.14200 -0.70700 21.47300
H  10.85600 -1.10400 21.05200
H  11.34500 -3.33200 27.01400
H  12.65800 -2.76300 28.19300
H  12.74100 -2.14500 26.60000
H  11.79200 0.85600 31.90400
H  9.57300 0.07300 35.41700
H  10.57400 -1.30200 35.59800
H  9.05100 -1.44100 34.63900
Mg 0.59100 41.99900 25.87000
C  3.17700 41.78400 28.38700
C  -1.56100 40.95600 28.27400
C  -1.66900 41.64700 23.48500
C  3.16200 42.21000 23.53500
N  0.80400 41.63600 28.15200
C  1.90100 41.64300 28.91900
C  1.59400 41.52400 30.40300
C  0.14900 40.92700 30.30600
C  -0.31700 41.24300 28.82900
C  0.14300 39.38200 30.54200
C  1.74700 42.92300 31.07500
C  1.82500 42.91200 32.63900
H  1.21800 41.70900 33.35900
N  -1.32800 41.55900 25.90300
C  -2.06100 41.14700 26.96300
C  -3.46400 41.19100 26.59600
C  -3.49000 41.44400 25.15300
C  -2.10600 41.51800 24.83000
C  -4.66700 40.94700 27.58100
C  -4.69500 41.58400 24.28100
O  -4.62300 41.79300 23.09800
C  -6.12000 41.55400 24.89400
N  0.73200 42.01000 23.81900
C  -0.36500 41.96700 22.99500
C  -0.02100 42.28000 21.58700
C  1.43800 42.82500 21.70200
C  1.81700 42.36700 23.11000
C  -0.13900 41.08700 20.56700
C  1.67700 44.38700 21.51100
C  1.74100 45.35500 22.72800
N  2.78800 42.02800 25.87000
C  3.66900 42.04700 24.85000
C  5.05200 41.88400 25.35600
C  4.91200 41.81700 26.80700
C  3.47700 41.77600 27.01900
C  6.24300 41.72000 24.50000
C  5.59200 41.74500 28.03500
O  6.78500 41.61000 28.20600
C  4.50000 41.80400 29.13800
C  4.59600 40.71900 30.20600
O  4.28800 39.54400 30.09700
O  5.03100 41.27100 31.38800
C  4.79900 40.40400 32.55900
H  -2.31900 40.59900 28.97400
H  -2.42400 41.67800 22.69700
H  3.96400 42.41100 22.82200
H  2.20300 40.80000 30.94400
H  -0.62200 41.30100 30.98000
H  1.13900 39.04800 30.83300
H  -0.05500 38.97000 29.55200
H  -0.61400 39.08800 31.26900
H  0.90000 43.51800 30.73600
H  2.65100 43.39100 30.68600
H  1.29900 43.80100 32.98700
H  2.87500 42.92200 32.92800
H  -5.25400 41.82300 27.86100
H  -4.26900 40.65500 28.55300
H  -5.30300 40.19900 27.10800
H  -6.36800 40.51500 25.11200
H  -6.84900 41.84000 24.13600
H  -6.25500 42.12100 25.81500
H  -0.71200 43.04600 21.23300
H  2.04200 42.27400 20.98100
H  0.54900 40.25100 20.69400
H  -0.10000 41.44200 19.53700
H  -1.14100 40.68600 20.72000
H  0.89900 44.75600 20.84300
H  2.60700 44.40300 20.94300
H  1.73800 44.90100 23.71900
H  0.77500 45.86000 22.72400
H  2.46100 46.15200 22.54400
H  6.55900 42.72300 24.21400
H  6.00000 41.05300 23.67300
H  7.07000 41.28300 25.06000
H  4.62100 42.80100 29.56300
H  5.04400 40.83700 33.52900
H  5.49500 39.56500 32.58900
H  3.78300 40.01100 32.60700

