158

Mg 28.90900 56.89000 40.36900
C  26.99700 54.03200 39.67200
C  31.68000 54.97800 39.75000
C  30.65000 59.63500 40.70900
C  25.91400 58.61900 40.95700
N  29.21000 54.81600 39.48900
C  28.29500 53.82500 39.38900
C  28.96400 52.50400 38.96100
C  30.35700 52.81000 39.33000
C  30.43800 54.32800 39.51100
C  30.80700 52.17300 40.66400
C  28.80600 52.11500 37.52700
C  29.29800 53.18500 36.49200
H  28.25800 53.69000 35.42800
N  30.95300 57.22400 40.27900
C  31.91600 56.31800 40.15100
C  33.24800 56.97300 40.34100
C  32.97100 58.37100 40.61000
C  31.49800 58.47400 40.58300
C  34.51400 56.22000 40.07100
C  34.01000 59.43300 40.93600
O  35.22400 59.14300 40.73000
C  33.62300 60.71900 41.49700
N  28.35500 58.85500 40.42700
C  29.28600 59.81400 40.82300
C  28.68000 61.18900 40.75700
C  27.16400 60.85900 40.94700
C  27.13000 59.28600 40.83600
C  29.35100 62.38000 41.61000
C  26.24900 61.61300 40.00500
C  25.89400 63.00500 40.39500
N  26.76200 56.49200 40.40900
C  25.76500 57.25200 40.70900
C  24.58600 56.47300 40.74000
C  24.97400 55.21400 40.32800
C  26.37800 55.28400 40.17000
C  23.17800 56.87300 41.02700
C  24.53200 53.79700 40.10300
O  23.42500 53.34400 40.33500
C  25.81500 53.00700 39.53800
C  26.01200 51.81500 40.38300
O  26.25600 51.83900 41.58800
O  25.93700 50.68400 39.60600
C  25.87200 49.39900 40.24000
H  32.55000 54.31900 39.80300
H  31.25000 60.54500 40.77900
H  25.00900 59.18800 41.17900
H  28.52400 51.77400 39.64000
H  31.12200 52.50400 38.61700
H  30.38800 51.17700 40.80500
H  30.37500 52.70500 41.51100
H  31.88900 52.03300 40.65900
H  27.79000 51.83800 37.24300
H  29.50200 51.28300 37.42600
H  30.23400 52.92100 36.00000
H  29.66600 54.05000 37.04500
H  35.39300 56.84100 40.24200
H  34.50000 55.79800 39.06600
H  34.47700 55.28700 40.63200
H  33.10700 61.33800 40.76300
H  34.51200 61.25500 41.82900
H  33.04300 60.46600 42.38500
H  28.67600 61.64100 39.76500
H  26.94200 61.03500 42.00000
H  30.29900 62.00600 41.99800
H  28.77400 62.47400 42.53000
H  29.38500 63.30300 41.03100
H  25.33900 61.03000 39.86500
H  26.66800 61.75500 39.00900
H  24.81000 63.09700 40.32400
H  26.44200 63.70000 39.75800
H  26.21200 63.39300 41.36200
H  22.73300 57.28800 40.12200
H  23.29500 57.73800 41.68000
H  22.65500 56.10700 41.59800
H  25.52300 52.86000 38.49800
H  26.87900 48.98500 40.20200
H  25.15000 48.81500 39.66900
H  25.49900 49.39800 41.26400
Mg 6.76200 52.82100 40.98700
C  6.05100 49.31900 41.03300
C  9.79900 52.24600 39.58600
C  7.14200 56.06200 40.53200
C  3.46900 53.32000 42.10000
N  7.70100 50.98500 40.31500
C  7.28500 49.66100 40.50400
C  8.41800 48.68900 39.91300
C  9.62200 49.60600 39.75800
C  9.03700 51.06100 39.91300
C  10.79700 49.46500 40.82000
C  7.99600 47.97300 38.63600
C  7.16200 48.73600 37.58400
H  7.83000 49.35600 36.32200
N  8.29500 53.97400 40.21300
C  9.48800 53.56600 39.72200
C  10.39800 54.67500 39.45600
C  9.70700 55.87200 39.73400
C  8.28100 55.38700 40.13500
C  11.85500 54.48600 39.01300
C  10.23700 57.24200 39.50500
O  11.40700 57.50600 39.06100
C  9.34200 58.46400 39.76700
N  5.45100 54.33600 40.97700
C  5.88400 55.65400 40.83400
C  4.85800 56.68100 41.24500
C  3.68500 55.77200 41.73000
C  4.20900 54.34300 41.50400
C  5.27300 57.75100 42.29300
C  2.39000 56.10900 40.99800
C  1.07600 55.69300 41.68600
N  5.03600 51.64600 41.45500
C  3.84700 52.01000 42.10000
C  3.12300 50.85900 42.63600
C  3.94700 49.77600 42.16200
C  5.04500 50.36500 41.43100
C  1.79400 50.85100 43.38600
C  4.08700 48.32600 42.15000
O  3.28800 47.48900 42.54600
C  5.42900 48.01700 41.47600
C  5.06400 47.18400 40.31000
O  4.59100 47.53700 39.19700
O  5.44500 45.91200 40.57100
C  5.32800 44.98000 39.41500
H  10.78100 51.92300 39.23300
H  7.27200 57.13700 40.39200
H  2.51200 53.42900 42.61500
H  8.58800 48.02700 40.76200
H  10.18600 49.54400 38.82800
H  10.92100 50.34800 41.44600
H  11.75100 49.22500 40.35100
H  10.60100 48.70700 41.57900
H  7.58900 46.99200 38.88200
H  8.98000 47.79000 38.20400
H  6.56800 49.54700 38.00600
H  6.55400 47.91700 37.20000
H  12.05700 55.06900 38.11400
H  12.21500 53.47400 38.82800
H  12.36600 54.86200 39.89900
H  9.84800 59.39000 39.49500
H  9.03900 58.38200 40.81100
H  8.51700 58.28600 39.07700
H  4.54400 57.33400 40.43000
H  3.55800 55.82500 42.81100
H  6.30200 57.61800 42.62700
H  4.66100 57.77800 43.19400
H  5.25700 58.70400 41.76400
H  2.27100 55.77200 39.96900
H  2.23600 57.16500 40.77900
H  1.13200 55.63900 42.77300
H  0.89900 54.69700 41.28000
H  0.28700 56.42100 41.49800
H  1.02200 50.63000 42.64900
H  1.69600 51.84600 43.81900
H  1.92500 50.19700 44.24800
H  6.10200 47.54300 42.19000
H  6.14800 45.03800 38.70000
H  4.43100 45.13400 38.81600
H  5.29300 43.97500 39.83400

