158

Mg 43.97500 3.99800 47.17300
C  41.93100 6.72500 46.71800
C  41.37300 1.84400 46.57500
C  46.16200 1.31800 47.21200
C  46.69500 6.22500 47.17100
N  41.96600 4.26500 46.76400
C  41.28300 5.46600 46.59500
C  39.82800 5.28600 46.17900
C  39.66200 3.72200 46.55000
C  41.09500 3.23200 46.64900
C  38.76900 3.52000 47.77800
C  39.59800 5.56900 44.66400
C  38.37800 6.45400 44.34600
H  37.67900 6.19800 43.03700
N  43.82100 1.88600 47.03400
C  42.64400 1.18700 46.82400
C  42.85000 -0.22600 46.90500
C  44.28200 -0.37500 46.90400
C  44.87200 0.96700 47.07300
C  41.71200 -1.25900 46.82000
C  45.03400 -1.70900 46.71500
O  44.33000 -2.77800 46.65800
C  46.40800 -1.82000 46.33600
N  46.18000 3.82200 47.25300
C  46.81100 2.60700 47.31100
C  48.31700 2.81000 47.41000
C  48.42600 4.30200 47.67700
C  47.04100 4.86300 47.22200
C  48.93400 1.90000 48.55500
C  49.75600 4.88600 47.08800
C  50.77100 5.52600 48.04600
N  44.31100 6.02400 46.95000
C  45.45500 6.79800 46.92200
C  45.12300 8.21300 46.91400
C  43.71100 8.26400 46.87900
C  43.30800 6.93100 46.83300
C  46.05300 9.42000 46.90200
C  42.56600 9.07500 46.69500
O  42.53000 10.29600 46.64500
C  41.31400 8.16900 46.68000
C  40.44500 8.53900 47.79700
O  40.48600 8.00800 48.87000
O  39.53800 9.47400 47.55500
C  38.52500 9.81700 48.57500
H  40.50600 1.19900 46.41500
H  46.93900 0.55200 47.24400
H  47.51600 6.94400 47.12400
H  39.32200 5.97500 46.85400
H  39.26400 3.10000 45.74800
H  38.13800 4.38400 47.98900
H  39.34000 3.26100 48.66900
H  38.04500 2.75300 47.50100
H  39.40100 4.56600 44.28600
H  40.45500 5.98000 44.13000
H  38.54500 7.52600 44.45200
H  37.67700 6.30600 45.16700
H  41.90400 -1.80300 45.89500
H  40.69900 -0.86300 46.74500
H  41.73100 -1.93100 47.67800
H  47.16100 -1.84800 47.12400
H  46.76000 -1.16200 45.54200
H  46.49800 -2.81300 45.89600
H  48.77300 2.49800 46.47100
H  48.56000 4.43000 48.75100
H  48.24300 1.38100 49.21900
H  49.58800 2.44200 49.23900
H  49.54100 1.10600 48.12100
H  49.51600 5.65400 46.35300
H  50.24700 4.15900 46.44200
H  51.15600 6.43200 47.57800
H  51.63000 4.94800 48.38900
H  50.30900 5.65800 49.02400
H  46.75700 9.47600 46.07200
H  46.53200 9.30900 47.87400
H  45.39900 10.28100 46.76800
H  40.86500 8.23800 45.68900
H  38.86300 10.33900 49.46900
H  37.96800 8.97100 48.97600
H  37.78600 10.38600 48.01000
Mg 42.40700 42.04200 27.00300
C  41.57600 44.30100 29.64400
C  43.29300 39.71000 29.40600
C  43.88100 40.19900 24.58100
C  41.95200 44.74000 24.69000
N  42.35100 42.03600 29.29400
C  42.06100 43.07000 30.15300
C  42.21100 42.62800 31.65200
C  42.70800 41.21600 31.46700
C  42.84600 40.97300 29.96800
C  43.96200 40.71700 32.31600
C  40.96900 42.88800 32.59800
C  40.92000 42.06900 33.86700
H  40.92400 42.75800 35.24600
N  43.27900 40.18100 26.99600
C  43.48600 39.38800 28.06800
C  44.15000 38.22900 27.60100
C  44.41400 38.30800 26.21200
C  43.89700 39.61400 25.83200
C  44.49500 37.07500 28.42200
C  45.05200 37.38100 25.17800
O  44.97900 37.50800 23.96700
C  45.98200 36.24100 25.70600
N  42.98200 42.43000 24.98400
C  43.47300 41.44100 24.21100
C  43.65200 41.93600 22.78800
C  42.63900 43.18600 22.74900
C  42.53000 43.51900 24.26200
C  45.08800 42.35500 22.39100
C  41.34700 42.96400 21.94900
C  40.28900 42.04800 22.62900
N  41.78700 44.04000 27.08100
C  41.69300 45.02400 26.05500
C  41.30000 46.28000 26.66000
C  41.20300 46.01400 28.09900
C  41.54100 44.66600 28.23900
C  41.00600 47.55900 25.94900
C  40.94600 46.68400 29.39500
O  40.62600 47.83800 29.61900
C  41.17400 45.53800 30.47200
C  42.02900 46.13100 31.42900
O  43.17000 46.44000 31.15900
O  41.37000 46.52700 32.58800
C  41.95200 47.38200 33.62100
H  43.69700 38.94900 30.07700
H  44.20900 39.63800 23.70300
H  41.84100 45.60500 24.03400
H  42.93400 43.29600 32.12000
H  42.01000 40.51800 31.92900
H  44.10200 41.52500 33.03500
H  44.79500 40.58400 31.62600
H  43.79000 39.79300 32.86800
H  40.03300 42.63200 32.10200
H  41.06900 43.90500 32.97600
H  41.79500 41.42700 33.97300
H  40.03100 41.43900 33.90100
H  44.01400 37.01800 29.39900
H  45.55300 36.91100 28.63100
H  44.00700 36.22000 27.95400
H  46.59700 35.96000 24.85100
H  45.45000 35.31700 25.93200
H  46.70900 36.61200 26.42900
H  43.40400 41.26900 21.96200
H  43.16200 44.06600 22.37600
H  45.48700 41.85600 21.50800
H  45.76900 42.26700 23.23700
H  45.10100 43.38100 22.02300
H  41.57900 42.65400 20.93000
H  40.81800 43.91200 21.85000
H  40.89100 41.55000 23.38900
H  39.70800 41.38200 21.99200
H  39.58700 42.73900 23.09600
H  41.76100 47.89100 25.23500
H  40.86200 48.42500 26.59500
H  40.00500 47.47500 25.52600
H  40.20200 45.34400 30.92600
H  42.45800 46.63800 34.23700
H  41.11500 47.72400 34.23000
H  42.60900 48.01700 33.02600

