158

Mg -2.06500 17.07300 27.31400
C  -2.68500 14.85800 30.01700
C  -2.75300 19.66800 29.39000
C  -1.81700 19.09500 24.66800
C  -2.31900 14.29100 25.17500
N  -2.59100 17.16000 29.41400
C  -2.82900 16.19000 30.36000
C  -3.18800 16.76500 31.71500
C  -3.13900 18.29000 31.44200
C  -2.91700 18.36800 29.96700
C  -4.35400 19.16700 31.94600
C  -2.27000 16.46700 32.90100
C  -2.89700 15.45400 33.87300
H  -2.10300 15.22600 35.14000
N  -2.12500 19.16200 27.11100
C  -2.32200 20.09600 28.09800
C  -1.98700 21.39600 27.61800
C  -1.80300 21.26200 26.20900
C  -1.88800 19.81700 25.91500
C  -2.08700 22.65400 28.45900
C  -1.59600 22.35100 25.15500
O  -1.50500 21.99000 24.02100
C  -1.55400 23.82300 25.58200
N  -2.13500 16.64800 25.13900
C  -1.84600 17.69400 24.37000
C  -1.75100 17.16500 22.89300
C  -1.78900 15.59900 23.06500
C  -2.17000 15.48900 24.54300
C  -2.83300 17.75000 21.94000
C  -0.40100 14.94300 22.68700
C  0.83300 15.32900 23.47900
N  -2.30400 14.96300 27.51200
C  -2.39600 13.98900 26.57000
C  -2.65800 12.70200 27.15900
C  -2.67200 12.95600 28.55700
C  -2.48600 14.33800 28.67600
C  -2.85400 11.34600 26.43800
C  -2.89400 12.40200 29.79000
O  -3.15700 11.25600 30.10500
C  -2.66000 13.51100 30.81600
C  -1.34000 13.14000 31.49200
O  -0.36300 13.84300 31.45500
O  -1.51600 12.01600 32.33300
C  -0.40800 11.63400 33.31700
H  -2.84600 20.46600 30.12900
H  -1.66700 19.63200 23.72900
H  -2.58600 13.54100 24.42700
H  -4.22900 16.48700 31.88100
H  -2.25100 18.74800 31.87800
H  -4.63400 19.89500 31.18500
H  -4.02400 19.60900 32.88600
H  -5.10100 18.38500 32.08300
H  -1.91800 17.34400 33.44400
H  -1.47700 15.89200 32.42300
H  -2.99300 14.49100 33.37100
H  -3.90800 15.74000 34.16400
H  -2.78200 23.38100 28.03900
H  -1.13600 23.15600 28.63800
H  -2.33000 22.44800 29.50100
H  -0.79500 24.01900 26.33900
H  -2.51700 23.99000 26.06500
H  -1.43200 24.43000 24.68500
H  -0.76900 17.47300 22.53500
H  -2.51500 15.14800 22.38900
H  -3.53300 18.26800 22.59500
H  -3.44400 17.04200 21.38200
H  -2.31000 18.47800 21.32000
H  -0.18300 15.24400 21.66200
H  -0.58500 13.87300 22.78300
H  1.22700 14.51200 24.08300
H  0.82500 16.23100 24.09100
H  1.54000 15.53400 22.67500
H  -1.99900 11.04600 25.83300
H  -3.69900 11.54400 25.77800
H  -3.17100 10.59600 27.16300
H  -3.62800 13.49100 31.31500
H  -0.24500 10.55700 33.27900
H  -0.73100 11.86400 34.33300
H  0.53700 12.16500 33.20300
Mg 43.67800 5.36900 46.95800
C  41.81500 8.15200 45.90100
C  40.93800 3.34100 46.55000
C  45.73300 2.70800 47.28100
C  46.55800 7.46000 46.74900
N  41.61800 5.66300 46.14000
C  41.06900 6.96500 45.98400
C  39.58000 6.75500 45.65900
C  39.22900 5.32800 46.15300
C  40.65100 4.70900 46.27500
C  38.26400 5.21500 47.38800
C  39.15500 7.00600 44.21200
C  38.26900 8.15200 43.89200
H  38.72400 9.11100 42.66900
N  43.38300 3.22500 46.97700
C  42.12500 2.63000 46.82900
C  42.41900 1.23500 46.81300
C  43.77400 1.01400 47.07200
C  44.38900 2.32100 47.10600
C  41.40700 0.15300 46.64800
C  44.46900 -0.39300 47.09300
O  43.78400 -1.45100 47.00800
C  45.89000 -0.41600 47.22400
N  45.87300 5.11400 46.77100
C  46.43700 3.90400 47.10300
C  47.98100 3.92300 47.17700
C  48.24100 5.47400 47.19600
C  46.85700 6.16100 46.86500
C  48.65400 3.22400 48.38100
C  49.31200 6.00300 46.15600
C  50.07700 7.18900 46.77300
N  44.13200 7.32600 46.55700
C  45.30800 8.04700 46.56200
C  45.04200 9.42100 46.24100
C  43.65900 9.48700 46.04200
C  43.17200 8.20800 46.15900
C  45.96200 10.56500 46.30800
C  42.52200 10.32100 45.67300
O  42.55500 11.52600 45.48000
C  41.18200 9.51700 45.77900
C  40.40000 10.02100 46.89400
O  40.11400 9.39700 47.90300
O  39.80700 11.16700 46.61800
C  38.88100 11.61400 47.55100
H  40.04400 2.71400 46.51700
H  46.48000 1.92900 47.44400
H  47.46100 8.06900 46.66400
H  39.06700 7.45300 46.32100
H  38.89000 4.63300 45.38500
H  38.06500 6.19000 47.83400
H  38.85300 4.75800 48.18400
H  37.40600 4.57600 47.18000
H  38.60200 6.09900 43.96800
H  40.05200 7.13600 43.60800
H  38.14800 8.80600 44.75500
H  37.24600 7.83700 43.68300
H  41.51400 -0.53500 47.48600
H  41.54500 -0.34500 45.68800
H  40.43400 0.64500 46.64100
H  46.36800 0.13800 46.41600
H  46.25900 -1.43800 47.14400
H  46.08600 0.07400 48.17800
H  48.40600 3.46700 46.28300
H  48.37900 5.93100 48.17600
H  48.86100 2.18200 48.13800
H  47.92000 3.21500 49.18700
H  49.60800 3.65900 48.67700
H  48.75900 6.33500 45.27800
H  49.97200 5.16200 45.94300
H  50.20800 8.04500 46.11100
H  51.07400 6.85000 47.05200
H  49.71000 7.62100 47.70400
H  46.93800 10.22000 46.65000
H  45.66800 11.23700 47.11500
H  46.25300 11.00800 45.35600
H  40.68600 9.66300 44.81900
H  38.71200 12.67600 47.37500
H  39.11700 11.64700 48.61400
H  38.00600 10.96500 47.49800

