158

Mg 46.10400 5.15500 48.97700
C  44.08000 7.92200 47.98500
C  43.43800 3.12700 48.06400
C  48.14700 2.64100 49.05700
C  48.82600 7.45700 49.13800
N  44.07700 5.52900 48.03400
C  43.45800 6.70400 47.75000
C  42.03400 6.57000 47.20900
C  41.78800 5.07700 47.43900
C  43.15500 4.51000 47.93900
C  40.62200 4.72700 48.43000
C  42.00600 7.06000 45.67700
C  40.80200 8.03000 45.41400
H  39.87500 7.63100 44.21400
N  45.79900 3.12200 48.71000
C  44.62900 2.51400 48.40100
C  44.87200 1.06000 48.52400
C  46.26000 0.81300 48.72900
C  46.81900 2.19100 48.80200
C  43.85500 -0.01400 48.45500
C  47.02800 -0.50000 48.84000
O  46.47700 -1.59300 48.87500
C  48.48600 -0.72400 48.88900
N  48.17200 5.08200 48.70700
C  48.78500 3.88400 49.06100
C  50.28900 4.07900 49.35400
C  50.40300 5.64300 49.20300
C  48.99100 6.12800 48.99900
C  50.68800 3.58900 50.79000
C  51.30800 6.05900 47.94600
C  52.69000 6.66900 48.16100
N  46.38600 7.29300 48.87000
C  47.51500 8.02000 49.00800
C  47.18300 9.38300 49.03400
C  45.82700 9.42700 48.62700
C  45.37900 8.13100 48.51700
C  48.12200 10.46400 49.22000
C  44.66900 10.30500 48.32700
O  44.56600 11.48400 48.42500
C  43.49000 9.35600 47.77600
C  42.44800 9.67300 48.76500
O  42.39800 9.27600 49.90100
O  41.34800 10.32200 48.17100
C  40.09700 10.20100 48.95800
H  42.59800 2.53700 47.69100
H  48.78400 1.80900 49.36700
H  49.74000 8.04600 49.23800
H  41.39000 7.25200 47.76400
H  41.52400 4.53600 46.53000
H  41.03300 4.38100 49.37800
H  39.91800 4.03200 47.97400
H  40.07500 5.64500 48.64500
H  41.82000 6.18200 45.05800
H  42.90900 7.63000 45.45600
H  41.20800 9.03800 45.32600
H  40.14900 8.14200 46.27900
H  42.89900 0.39900 48.13300
H  43.68500 -0.44900 49.44000
H  43.94400 -0.72900 47.63600
H  48.95900 -0.12600 48.11000
H  48.83300 -1.75400 48.80200
H  48.70100 -0.35200 49.89100
H  50.89500 3.48700 48.66800
H  50.83700 6.04600 50.11800
H  49.93800 3.78000 51.55600
H  51.60600 4.06400 51.13700
H  50.98000 2.55000 50.63600
H  50.69400 6.77700 47.40200
H  51.36300 5.18900 47.29300
H  53.31800 6.28000 47.35900
H  53.15000 6.48600 49.13200
H  52.57700 7.74200 48.00700
H  49.04500 10.32800 48.65700
H  48.17600 10.64600 50.29400
H  47.60300 11.27700 48.71200
H  43.24600 9.67700 46.76300
H  39.22000 10.62700 48.47000
H  40.23900 10.59400 49.96500
H  39.83200 9.14400 48.97100
Mg 28.23500 55.84800 39.98900
C  25.95500 53.33200 39.24600
C  30.69400 53.61900 39.02300
C  30.41900 58.34700 39.84700
C  25.61600 58.03300 40.19200
N  28.31300 53.72400 39.19500
C  27.25600 52.88000 39.03100
C  27.66700 51.46100 38.69500
C  29.24800 51.54100 38.90500
C  29.45200 53.02900 39.12700
C  29.90100 50.74000 40.11700
C  27.19300 51.10700 37.29300
C  27.92500 51.68800 36.11000
H  27.10300 52.33000 34.91200
N  30.29500 55.94500 39.68600
C  31.13300 54.89200 39.37200
C  32.47500 55.31700 39.41700
C  32.45900 56.69100 39.70000
C  31.06100 57.06300 39.71900
C  33.70600 54.41300 39.20600
C  33.60400 57.56000 39.88500
O  34.79000 57.17100 39.71400
C  33.50000 59.09000 40.20600
N  28.05100 57.94300 39.86700
C  29.06700 58.76600 40.03000
C  28.58800 60.24600 40.18400
C  27.06300 60.10900 40.48400
C  26.84600 58.64100 40.07700
C  29.39200 61.15100 41.15000
C  26.17100 61.11300 39.70900
C  25.27300 62.06500 40.53900
N  26.21600 55.77900 39.87900
C  25.28300 56.78100 39.88700
C  23.95100 56.22100 39.86100
C  24.15800 54.88000 39.62700
C  25.58200 54.68300 39.46100
C  22.64200 56.98100 40.22600
C  23.54500 53.58900 39.50100
O  22.36900 53.22000 39.60000
C  24.68100 52.52600 39.23100
C  24.65200 51.50900 40.27300
O  24.13900 50.39500 40.08200
O  25.51500 51.79200 41.34000
C  25.92300 50.68000 42.19000
H  31.49700 52.91400 38.79600
H  31.16500 59.14100 39.92300
H  24.79200 58.70900 40.42700
H  27.16200 50.82800 39.42400
H  29.62300 51.12800 37.96900
H  29.14700 49.95400 40.15100
H  29.80500 51.38500 40.99000
H  30.91100 50.42500 39.85500
H  26.11700 51.13000 37.12200
H  27.49300 50.06300 37.21400
H  28.55600 50.86500 35.77400
H  28.57200 52.51300 36.40600
H  33.90700 54.39600 38.13500
H  33.41900 53.45600 39.64300
H  34.47400 54.78500 39.88400
H  32.81000 59.36500 41.00300
H  33.24900 59.69000 39.33100
H  34.50600 59.37700 40.51500
H  28.66300 60.60600 39.15800
H  26.98100 60.20400 41.56700
H  30.27000 60.64600 41.55300
H  28.81300 61.55700 41.98000
H  29.71700 62.04400 40.61600
H  25.55300 60.58200 38.98400
H  26.86200 61.65100 39.06000
H  25.93100 62.74800 41.07700
H  24.64800 61.52700 41.25100
H  24.68700 62.62500 39.81000
H  22.33000 57.59600 39.38200
H  22.91700 57.59000 41.08700
H  21.84100 56.30000 40.51500
H  24.46100 52.15800 38.22900
H  27.00400 50.67700 42.32400
H  25.73600 49.65900 41.86000
H  25.48900 50.69800 43.19000

