158

Mg 7.99300 2.95000 27.11800
C  9.15600 1.74400 30.19200
C  6.01900 5.15000 28.91300
C  6.80100 4.05800 24.17800
C  9.45100 0.28200 25.55900
N  7.50100 3.30000 29.30100
C  8.19400 2.73900 30.31200
C  7.87200 3.51100 31.63600
C  6.72800 4.47300 31.21100
C  6.73700 4.26600 29.73500
C  5.32000 4.15300 31.87700
C  9.03400 4.26900 32.36500
C  8.69700 5.09500 33.56800
H  9.28100 4.57300 34.91500
N  6.48600 4.37200 26.64700
C  5.87400 5.19700 27.53400
C  5.19000 6.17500 26.76800
C  5.36600 5.88000 25.37700
C  6.25900 4.67700 25.34500
C  4.35800 7.31200 27.38700
C  4.88300 6.70400 24.08700
O  5.39400 6.48900 22.97200
C  3.98100 7.87000 24.17200
N  8.07100 2.11700 25.10300
C  7.57400 2.79100 24.08100
C  7.68800 1.93100 22.78200
C  8.64400 0.81400 23.21900
C  8.62800 1.03500 24.71700
C  6.28200 1.44200 22.18700
C  10.04100 0.87900 22.58000
C  11.01900 1.78600 23.38200
N  9.19100 1.44700 27.64800
C  9.80900 0.44500 26.92600
C  10.62100 -0.41900 27.75400
C  10.41000 0.08500 29.01100
C  9.50600 1.20700 28.95200
C  11.43900 -1.58300 27.33100
C  10.81400 -0.11700 30.37900
O  11.63700 -0.93200 30.80400
C  10.14500 1.04900 31.19100
C  9.51000 0.48100 32.41500
O  8.54100 -0.27700 32.47600
O  10.21200 1.00000 33.47800
C  9.55500 0.58900 34.72000
H  5.55900 5.96500 29.47700
H  6.54900 4.36500 23.16000
H  9.94700 -0.53100 25.02400
H  7.51500 2.78900 32.37000
H  7.07700 5.49800 31.33600
H  4.53600 3.99900 31.13600
H  5.17500 5.07000 32.44700
H  5.36900 3.36100 32.62500
H  9.54000 4.86500 31.60500
H  9.72600 3.54100 32.78900
H  7.62700 5.26000 33.69200
H  9.15800 6.07700 33.45800
H  4.39500 7.48000 28.46400
H  3.31000 7.28300 27.08800
H  4.68400 8.22400 26.88800
H  3.54600 8.16100 23.21500
H  4.60200 8.72200 24.45000
H  3.17900 7.73300 24.89700
H  8.21600 2.51800 22.03000
H  8.19700 -0.12500 22.89200
H  6.15100 1.82100 21.17400
H  5.48900 1.71900 22.88300
H  6.12000 0.36700 22.11700
H  10.04000 1.17800 21.53200
H  10.51500 -0.10200 22.56600
H  11.72200 1.12700 23.89200
H  10.54800 2.51100 24.04500
H  11.58500 2.43900 22.71700
H  12.51200 -1.39500 27.37100
H  11.34500 -1.79400 26.26500
H  11.13600 -2.44300 27.92800
H  10.84600 1.85200 31.41500
H  8.50400 0.88000 34.71400
H  10.17700 0.96500 35.53200
H  9.49800 -0.49700 34.78400
Mg 49.32100 47.02500 42.53400
C  46.05500 47.61000 41.24800
C  49.24300 43.95900 40.71300
C  52.61900 46.62000 43.00300
C  49.41000 50.32200 43.54600
N  47.81400 45.96500 41.08800
C  46.56000 46.37600 40.75100
C  45.75100 45.34600 39.89200
C  46.80800 44.15700 39.93200
C  48.03800 44.66600 40.68800
C  46.29500 42.66800 40.18600
C  45.34400 45.81200 38.42400
C  44.20900 45.02500 37.72300
H  44.48600 43.88400 36.77200
N  50.70800 45.38200 42.12200
C  50.49800 44.28700 41.29300
C  51.75700 43.55700 41.10100
C  52.76100 44.35200 41.71100
C  52.04100 45.51500 42.32400
C  51.85400 42.28800 40.34300
C  54.31300 44.02300 41.72100
O  54.68300 42.89000 41.28700
C  55.36400 44.97300 42.35100
N  50.87200 48.29000 43.15100
C  52.08600 47.84500 43.49700
C  52.93600 49.08200 44.01800
C  51.87700 50.18000 44.19800
C  50.57800 49.54200 43.61700
C  53.83300 48.91900 45.29600
C  52.23100 51.47100 43.50100
C  52.12500 52.62000 44.48600
N  48.03400 48.62000 42.52700
C  48.14400 49.80200 43.12800
C  46.94900 50.59000 43.00100
C  46.06600 49.72600 42.32900
C  46.78000 48.57800 41.96400
C  46.85700 52.03000 43.32700
C  44.78800 49.56200 41.76800
O  43.86500 50.36200 41.94900
C  44.69300 48.29800 40.89900
C  43.57000 47.57200 41.40300
O  43.27600 47.42200 42.55500
O  43.01500 46.97600 40.31200
C  41.91300 46.03800 40.51200
H  49.14600 43.07000 40.08600
H  53.68900 46.65500 43.22100
H  49.46800 51.28800 44.05200
H  44.83200 45.07400 40.41200
H  47.12500 44.09900 38.89000
H  46.74100 42.26300 41.09400
H  46.59200 42.03000 39.35400
H  45.22300 42.82100 40.31500
H  46.26200 45.75500 37.83900
H  45.02500 46.85300 38.46900
H  43.54800 45.82400 37.38900
H  43.58100 44.68100 38.54500
H  51.97800 41.44400 41.02200
H  52.74800 42.33600 39.72200
H  51.04500 42.05700 39.65000
H  56.37900 44.57800 42.31900
H  55.03600 44.88200 43.38600
H  55.26300 45.99300 41.98200
H  53.51900 49.29500 43.12300
H  51.64700 50.40500 45.24000
H  54.02600 47.84700 45.28400
H  53.40800 49.30200 46.22400
H  54.81500 49.38500 45.20500
H  51.57600 51.63500 42.64500
H  53.23700 51.50400 43.08300
H  53.13600 52.88900 44.79200
H  51.43900 52.36600 45.29400
H  51.69900 53.48000 43.96900
H  47.13100 52.33500 44.33700
H  45.79900 52.29400 43.31400
H  47.30800 52.70700 42.60200
H  44.65100 48.53700 39.83600
H  41.91700 45.69900 41.54800
H  41.94200 45.16400 39.86200
H  40.99400 46.58800 40.31300

