158

Mg 47.38000 25.41700 29.02200
C  47.91000 28.00900 31.35200
C  46.00800 23.58000 31.51100
C  47.01600 23.10100 26.77700
C  48.94500 27.51600 26.53300
N  47.01500 25.73700 31.20200
C  47.35000 26.88500 31.96500
C  46.83100 26.76800 33.38300
C  46.42500 25.28100 33.44700
C  46.47800 24.81400 31.96600
C  47.16900 24.38500 34.48500
C  45.72600 27.85400 33.81900
C  45.89900 28.33500 35.30400
H  46.73100 27.49400 36.31500
N  46.58100 23.61800 29.11600
C  46.10000 23.00100 30.26100
C  45.65900 21.66800 29.92000
C  45.95300 21.45300 28.49400
C  46.57800 22.70300 28.09700
C  44.96700 20.71800 30.91200
C  45.75500 20.27400 27.62200
O  46.24800 20.19200 26.50000
C  44.94600 19.13900 28.15800
N  47.77300 25.41100 26.85500
C  47.53100 24.24800 26.14900
C  48.02000 24.26700 24.64800
C  48.42400 25.85300 24.63800
C  48.40000 26.32400 26.04400
C  49.22600 23.30000 24.43500
C  47.60300 26.72100 23.62500
C  48.45600 27.40900 22.57500
N  48.23600 27.41400 28.82900
C  48.82600 28.13400 27.80300
C  49.18600 29.50400 28.25600
C  48.75700 29.52000 29.63300
C  48.25000 28.19900 29.96200
C  49.97100 30.67100 27.49900
C  48.68700 30.30600 30.85500
O  49.07200 31.45300 31.08900
C  48.34300 29.29700 32.06100
C  49.67600 29.12000 32.74800
O  50.70000 28.91000 32.15100
O  49.45300 29.05700 34.13000
C  50.55900 28.70900 34.88600
H  45.61000 22.94400 32.30500
H  46.91300 22.30900 26.03200
H  49.14700 28.23700 25.73800
H  47.73100 27.02800 33.94000
H  45.36600 25.33600 33.70000
H  46.42200 23.90800 35.12000
H  47.91500 24.96600 35.02700
H  47.69000 23.56400 33.99400
H  44.72000 27.48000 33.62600
H  45.76700 28.76600 33.22400
H  44.90600 28.29000 35.75100
H  46.30600 29.34300 35.22200
H  43.90900 20.58300 30.68500
H  44.90600 21.09600 31.93200
H  45.43300 19.73400 30.87900
H  45.27500 18.80800 29.14300
H  45.07700 18.24400 27.55000
H  43.89300 19.40800 28.23800
H  47.19400 24.11400 23.95400
H  49.49400 25.93400 24.45100
H  49.28600 22.66200 25.31600
H  50.14400 23.88600 24.48600
H  49.15000 22.76800 23.48600
H  47.16100 27.54000 24.19300
H  46.88500 25.97600 23.28100
H  49.51300 27.14100 22.56700
H  48.46200 28.48700 22.73000
H  48.19400 27.18500 21.54000
H  49.49100 31.56500 27.89700
H  49.94300 30.52400 26.41900
H  50.98600 30.86100 27.84700
H  47.62700 29.76200 32.73900
H  50.97600 29.63200 35.29000
H  51.42000 28.26100 34.39100
H  50.31500 27.99100 35.66800
Mg 42.74700 41.92000 25.97000
C  41.83400 44.21300 28.43500
C  43.82700 39.82700 28.29700
C  43.43400 39.83500 23.44500
C  42.05600 44.42400 23.65400
N  42.74400 42.09200 28.15000
C  42.22900 42.99300 28.94100
C  42.37700 42.68800 30.43400
C  43.27900 41.39400 30.35200
C  43.26800 41.03000 28.86100
C  44.73400 41.64600 30.87200
C  41.01100 42.34300 31.14000
C  41.13400 41.86300 32.63000
H  40.36000 42.54900 33.76200
N  43.47100 40.06200 25.88400
C  43.86500 39.31000 26.93900
C  44.31600 38.02400 26.56600
C  44.07700 37.90000 25.13600
C  43.61500 39.29500 24.73100
C  44.73400 36.98000 27.60600
C  44.21200 36.74500 24.20900
O  44.08200 36.76000 22.95300
C  44.50100 35.37100 24.82600
N  42.77700 42.10700 23.81200
C  43.07600 41.11200 22.95600
C  42.85700 41.40200 21.44900
C  42.14800 42.80400 21.63700
C  42.36800 43.18500 23.09600
C  44.18000 41.33100 20.57700
C  40.67100 42.72200 21.17500
C  39.73600 41.71900 21.87000
N  42.25300 44.00900 25.97500
C  41.99300 44.83200 24.94000
C  41.48200 46.05400 25.39600
C  41.42800 45.89600 26.79000
C  41.80500 44.60400 27.09500
C  41.06700 47.24400 24.52500
C  41.00100 46.53800 28.06000
O  40.53700 47.60400 28.30900
C  41.24500 45.43700 29.17300
C  42.20800 45.96900 30.18600
O  43.41800 45.77600 30.29200
O  41.48600 46.67200 31.08400
C  41.80900 46.34200 32.44800
H  44.26000 39.20600 29.08400
H  43.60400 39.14300 22.61800
H  41.86700 45.12800 22.84000
H  42.76200 43.55500 30.97100
H  42.91600 40.61700 31.02500
H  44.90700 42.72200 30.89000
H  45.54100 41.26600 30.24600
H  44.83700 41.31500 31.90500
H  40.47300 41.55600 30.61100
H  40.48700 43.29700 31.17600
H  42.14800 41.74900 33.01300
H  40.71100 40.86600 32.50800
H  44.08000 36.11400 27.50500
H  44.62300 37.36200 28.62100
H  45.77800 36.66800 27.64500
H  45.20400 35.53600 25.64300
H  44.98200 34.70700 24.10700
H  43.55700 34.97300 25.19800
H  42.09300 40.72200 21.07300
H  42.66600 43.53700 21.01900
H  45.07000 41.15900 21.18100
H  44.33900 42.29200 20.08600
H  44.07600 40.68300 19.70600
H  40.71900 42.34600 20.15200
H  40.32200 43.75400 21.17100
H  38.94400 42.20600 22.44000
H  40.30000 41.03200 22.50100
H  39.30600 41.10500 21.07900
H  40.45000 46.93100 23.68400
H  42.00700 47.69300 24.20300
H  40.61700 47.98900 25.18100
H  40.28900 45.23500 29.65600
H  40.93500 45.80600 32.82000
H  41.86700 47.27600 33.00700
H  42.75700 45.81300 32.54200

