158

Mg 35.44700 2.52400 30.26100
C  32.83300 3.57400 32.48500
C  37.63200 2.86200 32.83900
C  37.83600 1.96900 28.07500
C  33.03300 2.66800 27.69700
N  35.23000 3.13700 32.38400
C  34.03400 3.30700 33.07000
C  34.31200 3.26400 34.57200
C  35.85200 3.38300 34.62200
C  36.27400 3.04500 33.24500
C  36.39100 4.75400 35.13900
C  33.86300 1.98500 35.26800
C  33.99700 2.08700 36.77800
H  34.60800 3.20900 37.55500
N  37.50600 2.50800 30.43700
C  38.24700 2.58800 31.59500
C  39.63300 2.29900 31.30200
C  39.72300 2.05000 29.88100
C  38.32300 2.17700 29.36500
C  40.67000 2.10000 32.35400
C  40.91900 1.58300 28.99200
O  40.85100 1.44400 27.78000
C  42.27600 1.30000 29.62300
N  35.46400 2.35800 28.15200
C  36.55800 2.03500 27.50600
C  36.32100 1.76900 26.03100
C  34.71800 1.99900 25.93700
C  34.36100 2.32600 27.35000
C  37.14800 2.58300 24.97500
C  34.01700 0.72800 25.37500
C  33.31800 0.90100 23.93500
N  33.30900 2.90500 30.04900
C  32.47000 3.01100 28.94200
C  31.10900 3.38400 29.31800
C  31.26300 3.68700 30.73100
C  32.56500 3.39900 31.09800
C  29.94300 3.55500 28.38500
C  30.55100 4.12500 31.96800
O  29.44500 4.65200 32.02100
C  31.47000 3.88900 33.16000
C  31.51800 5.09100 34.03400
O  31.90900 6.22200 33.72400
O  31.06500 4.78800 35.33700
C  31.00500 5.83200 36.40400
H  38.45400 2.89700 33.55800
H  38.51300 1.46200 27.38400
H  32.34400 2.65900 26.84900
H  33.85200 4.05000 35.17200
H  36.31300 2.57100 35.18500
H  35.65100 5.55000 35.21200
H  37.03100 5.06800 34.31500
H  37.04800 4.52300 35.97700
H  34.62700 1.29500 34.91000
H  32.83600 1.73600 34.99900
H  34.24700 1.07100 37.08500
H  32.94200 2.11300 37.05200
H  40.96500 1.05100 32.36900
H  40.26900 2.29000 33.34900
H  41.58500 2.68700 32.27900
H  42.78800 2.21600 29.92100
H  42.79400 0.68100 28.89200
H  42.19800 0.66900 30.50800
H  36.53500 0.70700 25.91300
H  34.36000 2.80000 25.29000
H  36.59100 3.24100 24.30900
H  37.80500 1.96300 24.36500
H  37.71800 3.23900 25.63300
H  33.31700 0.49800 26.17700
H  34.73200 -0.09400 25.33900
H  32.28100 0.59800 24.08100
H  33.78300 0.17000 23.27300
H  33.38900 1.85900 23.42000
H  29.98700 2.82100 27.58000
H  30.09200 4.54600 27.95700
H  28.99100 3.34900 28.87500
H  31.01800 3.03700 33.66800
H  31.14900 5.41400 37.40000
H  30.04100 6.28500 36.63700
H  31.68700 6.66700 36.24600
Mg 51.01100 46.02300 42.12000
C  47.82600 46.88500 40.65800
C  50.39900 42.76400 41.06300
C  54.17500 45.36800 42.63100
C  51.63600 49.40100 42.36200
N  49.23900 45.01600 40.90100
C  48.03700 45.47300 40.62900
C  47.08400 44.43400 40.13200
C  47.94100 43.05400 40.29200
C  49.23200 43.61000 40.94900
C  47.27900 41.87600 41.04300
C  46.55800 44.61400 38.63600
C  45.05300 44.80400 38.44700
H  44.52000 43.73800 37.44200
N  52.06100 44.28800 42.04100
C  51.65700 43.07800 41.59800
C  52.73800 42.09100 41.79200
C  53.85700 42.83600 42.25300
C  53.43200 44.24500 42.33000
C  52.62500 40.58300 41.66300
C  55.18400 42.28100 42.57900
O  55.30300 41.09000 42.33000
C  56.25900 43.03300 43.19700
N  52.66300 47.21200 42.53300
C  53.85600 46.74100 42.76700
C  54.86600 47.81900 42.88900
C  54.07300 49.15400 42.81200
C  52.68300 48.56000 42.56600
C  55.76000 47.59000 44.12400
C  54.47800 50.21600 41.78800
C  54.98900 51.53000 42.30900
N  49.92300 47.81500 41.77400
C  50.34200 49.12700 41.90800
C  49.33300 50.03500 41.51400
C  48.34900 49.16000 40.98700
C  48.76700 47.81200 41.18900
C  49.24400 51.48700 41.67900
C  47.04100 49.18800 40.32200
O  46.28200 50.07100 39.91800
C  46.58800 47.70300 40.19000
C  45.44500 47.36300 41.07600
O  45.44600 46.94800 42.18600
O  44.30200 47.69400 40.41900
C  42.98900 47.62300 41.10600
H  50.32500 41.71000 40.78500
H  55.26000 45.24800 42.60300
H  51.93700 50.43900 42.51900
H  46.28500 44.33300 40.86700
H  48.28900 42.62500 39.35200
H  47.30700 41.08400 40.29400
H  46.23200 42.11700 41.22700
H  47.82600 41.67200 41.96300
H  46.86500 43.85400 37.91800
H  47.02100 45.48500 38.17200
H  44.81100 45.84500 38.23100
H  44.51800 44.58600 39.37100
H  51.55700 40.39000 41.57000
H  53.12200 40.12400 42.51800
H  53.14800 40.18800 40.79200
H  56.10600 43.57100 44.13200
H  56.69200 43.78800 42.54100
H  57.12200 42.40200 43.40600
H  55.46600 47.60300 42.00600
H  54.11000 49.61800 43.79700
H  55.39600 46.66300 44.56800
H  55.70000 48.35300 44.90000
H  56.77000 47.53500 43.71800
H  53.63200 50.49900 41.16200
H  55.26500 49.79500 41.16400
H  54.91700 51.75100 43.37400
H  54.50600 52.33000 41.74700
H  56.05200 51.67300 42.11800
H  50.20800 51.98100 41.79400
H  48.69100 51.68200 42.59800
H  48.75800 51.89800 40.79300
H  46.30000 47.49900 39.15800
H  42.73000 48.68100 41.13400
H  42.92500 47.19600 42.10600
H  42.46400 46.94000 40.43800

