158

Mg 8.72600 2.85400 27.37500
C  10.05000 1.36900 30.33500
C  6.74800 4.82400 29.42200
C  7.35200 4.11300 24.52400
C  10.36300 0.27400 25.55000
N  8.40300 2.92300 29.58600
C  9.13700 2.37200 30.56700
C  8.83700 2.95500 31.90100
C  7.77000 3.97700 31.59300
C  7.55500 3.90200 30.09200
C  6.38900 3.79400 32.31400
C  10.01900 3.44600 32.82600
C  9.77800 4.29400 34.08300
H  10.45200 4.00900 35.41900
N  7.44000 4.38300 27.06100
C  6.68800 5.07700 28.00000
C  5.80200 5.91000 27.33400
C  5.99700 5.78500 25.92900
C  6.98200 4.69100 25.75100
C  4.89900 6.81900 28.08700
C  5.36600 6.61700 24.81200
O  5.62500 6.39100 23.61100
C  4.51200 7.80900 25.14800
N  8.95200 2.33000 25.37400
C  8.30500 3.03300 24.34500
C  8.51800 2.36000 22.97300
C  9.66600 1.35500 23.30800
C  9.55000 1.22100 24.82200
C  7.15700 1.83600 22.44700
C  11.14700 1.73000 22.95500
C  11.75300 0.85400 21.85200
N  9.97000 1.16400 27.78600
C  10.62400 0.26200 26.96100
C  11.37900 -0.70200 27.68100
C  11.21200 -0.26100 29.01200
C  10.35900 0.84000 29.02600
C  12.33300 -1.67900 27.07600
C  11.66900 -0.49300 30.36400
O  12.44700 -1.38600 30.79400
C  10.93100 0.52900 31.29100
C  10.23900 -0.18000 32.36200
O  9.41400 -0.95900 32.22700
O  10.78900 0.23200 33.54800
C  10.28300 -0.38700 34.76400
H  6.18900 5.47600 30.09600
H  6.93900 4.43400 23.56600
H  11.00300 -0.38900 24.96500
H  8.29300 2.18500 32.44900
H  8.00900 5.02000 31.80000
H  5.79900 3.08000 31.74000
H  5.89000 4.76000 32.38900
H  6.46500 3.32000 33.29200
H  10.65300 4.00200 32.13500
H  10.62100 2.64800 33.26100
H  8.70300 4.24200 34.25400
H  9.99500 5.29500 33.70800
H  5.11900 7.84600 27.79400
H  4.79500 6.66100 29.16000
H  3.99400 6.60700 27.51700
H  3.59900 7.46900 25.63800
H  4.18900 8.16400 24.16900
H  5.00600 8.62800 25.66900
H  8.86800 3.09200 22.24500
H  9.46800 0.38500 22.85300
H  6.87900 2.40800 21.56200
H  6.35600 1.99300 23.16900
H  7.19900 0.78700 22.15200
H  11.77600 1.97100 23.81200
H  11.03000 2.67600 22.42800
H  12.01500 1.35500 20.92000
H  11.11400 -0.00100 21.63600
H  12.60200 0.27800 22.22000
H  11.84400 -2.65100 27.02200
H  13.08900 -1.94300 27.81400
H  12.73800 -1.33800 26.12200
H  11.67600 1.16900 31.76500
H  9.23900 -0.69400 34.70000
H  10.35200 0.27600 35.62600
H  10.90700 -1.21700 35.09500
Mg 47.60900 34.67200 27.03300
C  45.65100 33.28500 29.71200
C  47.83500 37.48700 28.91700
C  48.64200 36.03000 24.34700
C  46.44200 31.79000 25.14900
N  46.85500 35.27800 29.07200
C  46.24400 34.52700 29.99600
C  46.57400 35.09300 31.41300
C  47.00500 36.53700 31.14100
C  47.22700 36.48900 29.62300
C  46.01900 37.60700 31.61600
C  47.64800 34.32400 32.24200
C  47.39000 34.25200 33.73700
H  46.58600 35.26100 34.43500
N  48.40600 36.43100 26.77600
C  48.42400 37.46900 27.62000
C  49.06900 38.56200 26.95200
C  49.54300 38.09000 25.69600
C  48.87800 36.79100 25.54800
C  49.17100 39.82300 27.70700
C  50.34700 38.88000 24.57400
O  50.49400 38.37400 23.46400
C  51.06900 40.18500 24.94700
N  47.39100 34.05000 24.91500
C  48.06100 34.76400 24.04600
C  48.21800 34.12700 22.67600
C  47.43500 32.76800 22.92700
C  47.05600 32.85100 24.40500
C  47.78900 35.02000 21.41500
C  48.15300 31.37100 22.75600
C  49.21000 31.06200 23.76000
N  46.29800 32.86700 27.24000
C  45.92700 31.85400 26.45500
C  45.12500 30.87200 27.08100
C  44.95400 31.43000 28.37300
C  45.70300 32.61700 28.45900
C  44.70800 29.54400 26.51900
C  44.26000 31.23400 29.63900
O  43.40700 30.39700 29.94900
C  44.62800 32.46100 30.62200
C  44.95000 31.91300 32.01600
O  46.03700 31.50300 32.40100
O  43.85200 31.92400 32.78200
C  44.02600 31.50800 34.20000
H  48.02100 38.39000 29.50200
H  49.11800 36.56200 23.52100
H  46.07100 30.85900 24.71400
H  45.65400 35.19100 31.98900
H  47.98400 36.77500 31.55700
H  46.49500 38.40800 32.18100
H  45.20000 37.32400 32.27700
H  45.46200 38.02800 30.77900
H  48.56000 34.89500 32.07100
H  47.87500 33.30900 31.91400
H  48.40000 34.30800 34.14200
H  46.97000 33.26300 33.92100
H  49.55000 40.65300 27.11200
H  49.68500 39.70900 28.66100
H  48.17300 40.16800 27.97600
H  51.65200 40.60000 24.12500
H  51.69700 40.04100 25.82600
H  50.23800 40.87800 25.08300
H  49.29000 33.95400 22.58200
H  46.49000 32.76700 22.38300
H  47.10800 34.51900 20.72700
H  48.78300 35.12600 20.98000
H  47.40100 36.00900 21.66000
H  48.64800 31.47800 21.79000
H  47.35800 30.63900 22.61200
H  49.12700 30.07100 24.20600
H  49.26400 31.81200 24.54900
H  50.16800 31.13600 23.24600
H  45.54800 28.85000 26.54100
H  44.36300 29.64500 25.48900
H  43.94900 29.04500 27.12100
H  43.66400 32.94500 30.78400
H  43.41500 30.66400 34.52000
H  43.78800 32.25200 34.96100
H  45.01000 31.13100 34.47700

