158

Mg 46.74900 15.36000 27.93800
C  44.96100 15.22500 30.99400
C  48.84500 17.59500 29.52100
C  48.35600 15.69900 25.13300
C  44.33500 13.49400 26.55900
N  46.91700 16.17000 30.07700
C  46.15100 15.93400 31.16000
C  46.61900 16.65900 32.39200
C  47.65500 17.68600 31.86900
C  47.85400 17.17700 30.38600
C  47.30000 19.15900 31.87100
C  47.18900 15.60500 33.38800
C  47.12700 16.02600 34.85700
H  48.43100 15.88500 35.65500
N  48.44400 16.35800 27.46100
C  49.20900 17.14000 28.24500
C  50.34200 17.59100 27.47700
C  50.25200 17.05000 26.19600
C  48.93700 16.40300 26.23200
C  51.38000 18.61300 28.01800
C  51.19800 17.04700 25.01300
O  51.12800 16.23300 24.08500
C  52.37300 17.92200 25.01800
N  46.21300 14.91200 26.04500
C  47.19000 14.95900 25.08100
C  46.79500 14.09400 23.82200
C  45.70900 13.18800 24.41900
C  45.35200 13.87500 25.79800
C  46.50300 14.95400 22.53400
C  46.12400 11.70600 24.53800
C  46.01000 10.97000 23.22300
N  44.90200 14.62700 28.52200
C  43.97200 13.92500 27.80600
C  42.90400 13.60200 28.60800
C  43.19100 14.23300 29.84800
C  44.44600 14.77700 29.82600
C  41.74400 12.73000 28.30300
C  42.65100 14.37300 31.12800
O  41.56200 14.03100 31.61500
C  43.86800 15.01300 31.99600
C  43.18100 16.22000 32.66500
O  42.90800 17.23700 32.03600
O  42.94000 16.07100 34.02300
C  42.53700 17.26900 34.79200
H  49.56700 18.22800 30.04100
H  48.88100 15.82900 24.18500
H  43.67200 12.76300 26.09300
H  45.78400 17.17100 32.87000
H  48.61500 17.54500 32.36600
H  46.75500 19.45800 30.97600
H  48.21400 19.70300 32.11100
H  46.59100 19.32200 32.68200
H  48.20300 15.30500 33.12600
H  46.46900 14.80200 33.22800
H  46.35700 15.44400 35.36300
H  46.76000 17.04400 34.98700
H  52.42500 18.32200 27.90800
H  51.24900 18.78500 29.08600
H  51.13900 19.54600 27.50900
H  52.01600 18.94100 24.86800
H  52.89100 17.52300 24.14600
H  53.11000 17.89000 25.82100
H  47.65000 13.53800 23.43600
H  44.83000 13.25100 23.77800
H  46.94800 14.41800 21.69500
H  46.95600 15.93800 22.65600
H  45.44600 15.14500 22.35400
H  45.56500 11.16900 25.30500
H  47.17800 11.61400 24.80000
H  45.99700 11.69700 22.41000
H  45.02300 10.51100 23.15900
H  46.87300 10.31300 23.11600
H  41.44900 12.13900 29.17000
H  41.94500 12.00500 27.51400
H  40.84100 13.25900 28.00000
H  44.17400 14.30000 32.76200
H  42.61500 16.89500 35.81200
H  41.53500 17.67900 34.66200
H  43.33800 18.00800 34.81700
Mg -0.91100 34.30100 26.55500
C  -2.59600 32.52900 29.21200
C  0.54400 36.27800 28.79600
C  -0.00200 36.26800 24.04000
C  -2.76600 32.30300 24.30700
N  -1.13700 34.33400 28.71500
C  -1.75600 33.57400 29.71200
C  -1.34100 33.96700 31.07800
C  -0.42100 35.21800 30.80300
C  -0.37500 35.33900 29.30600
C  -0.94200 36.54800 31.49700
C  -0.70800 32.81800 31.98900
C  -1.47700 32.47400 33.28400
H  -0.78000 32.27500 34.63800
N  0.33300 35.93500 26.37200
C  0.76900 36.68000 27.47100
C  1.67500 37.65100 27.00200
C  1.61600 37.66400 25.59200
C  0.61300 36.59300 25.29700
C  2.51800 38.52400 28.05400
C  2.36200 38.47600 24.58500
O  2.20200 38.31900 23.38900
C  3.39900 39.41000 25.05600
N  -1.37800 34.37100 24.53800
C  -0.88300 35.27200 23.67300
C  -1.21100 34.97500 22.21500
C  -1.77000 33.55100 22.34400
C  -2.03300 33.36500 23.84600
C  -2.25100 35.97600 21.52700
C  -0.82500 32.50400 21.74700
C  0.37400 32.04900 22.59000
N  -2.37600 32.70600 26.69300
C  -3.01300 32.00400 25.67000
C  -3.98800 31.11900 26.26400
C  -3.82100 31.23200 27.66700
C  -2.84300 32.21100 27.85700
C  -4.94700 30.30400 25.57300
C  -4.18700 30.70100 28.96700
O  -5.14300 29.94500 29.23500
C  -3.36900 31.48900 30.00200
C  -4.27100 32.08100 31.06900
O  -4.93500 33.09100 30.93900
O  -4.33800 31.21800 32.14700
C  -5.29200 31.49000 33.19700
H  1.23700 36.75000 29.49500
H  0.40000 36.85800 23.21400
H  -3.21900 31.65900 23.55100
H  -2.13600 34.40000 31.68500
H  0.59500 34.96000 31.10000
H  -1.47900 37.12500 30.74400
H  -0.02800 37.11800 31.66400
H  -1.56900 36.42400 32.38000
H  0.23400 33.22500 32.35700
H  -0.45600 31.88800 31.48000
H  -1.98100 31.51500 33.16100
H  -2.34100 33.13700 33.33100
H  3.58800 38.56200 27.84700
H  2.39200 38.27800 29.10800
H  2.17200 39.55300 27.95600
H  3.39700 40.26500 24.38000
H  4.36000 38.89600 25.08200
H  3.16300 39.79800 26.04600
H  -0.24500 34.92900 21.71300
H  -2.70100 33.49200 21.78000
H  -2.60300 36.69500 22.26700
H  -3.17700 35.47800 21.24100
H  -1.77100 36.32300 20.61200
H  -0.52200 32.74900 20.72900
H  -1.50500 31.65700 21.65400
H  0.00800 31.71000 23.55800
H  1.04400 32.87800 22.82200
H  0.85100 31.28300 21.97900
H  -5.69000 31.00500 25.19300
H  -5.41300 29.50800 26.15400
H  -4.46100 29.93200 24.67100
H  -2.74200 30.71500 30.44500
H  -4.79600 31.46800 34.16700
H  -5.97000 30.63900 33.11900
H  -5.98200 32.33300 33.17100

