158

Mg 26.78200 50.16700 26.03300
C  24.66000 51.21700 28.82900
C  29.05500 49.27400 28.34200
C  28.45200 49.23500 23.51900
C  24.32400 51.57600 24.00200
N  26.83500 50.24000 28.31700
C  25.85700 50.55500 29.20600
C  26.34800 50.27500 30.66600
C  27.86900 49.82800 30.49200
C  27.93000 49.77100 28.96000
C  28.86200 50.72100 31.31000
C  25.34600 49.08300 31.27600
C  25.57100 48.70300 32.75900
H  26.52100 49.42600 33.74800
N  28.56300 49.52400 25.93900
C  29.36700 49.14800 26.93100
C  30.58200 48.62600 26.39900
C  30.41000 48.59000 24.98300
C  29.11300 49.17500 24.74600
C  31.76200 48.12600 27.28900
C  31.41400 48.11000 23.93200
O  31.19000 48.22900 22.75800
C  32.68600 47.47800 24.37800
N  26.44200 50.41300 23.99600
C  27.24600 49.80500 23.13800
C  26.49600 49.56200 21.76500
C  25.17600 50.33000 21.92000
C  25.34700 50.87900 23.36200
C  27.35500 49.94200 20.51700
C  23.89700 49.53800 21.70100
C  22.80200 50.03500 20.71700
N  24.96800 51.27400 26.31200
C  24.12200 51.79100 25.34400
C  23.06100 52.45100 26.02900
C  23.24200 52.31500 27.39700
C  24.39800 51.48300 27.50900
C  21.81100 53.09000 25.43100
C  22.62700 52.60800 28.69400
O  21.55000 53.22800 29.01800
C  23.68500 51.90900 29.67400
C  24.19500 53.01200 30.46200
O  24.89600 53.95000 30.16200
O  23.73800 52.90800 31.74400
C  24.11900 53.89800 32.70800
H  29.65200 48.86900 29.16100
H  28.85800 48.75800 22.62500
H  23.44400 51.82800 23.40700
H  26.30300 51.26900 31.11100
H  27.95000 48.87800 31.02000
H  29.43700 49.98700 31.87500
H  28.47100 51.51600 31.94700
H  29.61800 51.16300 30.66200
H  25.62600 48.17200 30.74700
H  24.30400 49.33700 31.08000
H  25.83800 47.64700 32.78100
H  24.60500 48.84400 33.24400
H  32.01300 47.08300 27.09400
H  31.62600 48.39800 28.33500
H  32.63500 48.69100 26.96100
H  32.53100 46.56700 24.95700
H  33.38400 48.16200 24.86100
H  33.20000 47.25400 23.44300
H  26.28600 48.49300 21.75400
H  25.29700 51.20000 21.27500
H  28.01900 50.78100 20.72400
H  26.80200 50.16000 19.60300
H  27.96200 49.04500 20.40200
H  23.36800 49.60200 22.65200
H  24.13500 48.47600 21.63100
H  23.16100 50.99900 20.35800
H  21.81400 50.21300 21.14100
H  22.62400 49.32400 19.91000
H  22.19800 53.86200 24.76600
H  21.29500 53.45500 26.32000
H  21.30100 52.38300 24.77700
H  23.08900 51.27700 30.33200
H  23.83100 54.89800 32.38600
H  25.17700 53.74000 32.92000
H  23.54100 53.82500 33.63000
Mg 0.64900 43.01000 25.34700
C  2.56000 43.08700 28.27400
C  -2.13800 42.81900 27.26600
C  -1.11400 42.72600 22.57000
C  3.58000 43.48200 23.41700
N  0.29900 43.02200 27.52400
C  1.19200 43.01000 28.63000
C  0.56100 42.87600 29.99800
C  -0.95200 42.68500 29.54400
C  -0.93200 42.89700 28.02900
C  -1.53400 41.29100 29.91400
C  0.90200 44.03000 30.94700
C  1.11800 43.72200 32.44100
H  0.75700 42.27900 32.85600
N  -1.34000 42.65300 24.98600
C  -2.33000 42.72600 25.91200
C  -3.58400 42.73800 25.21600
C  -3.43300 42.58800 23.79200
C  -1.92700 42.59700 23.73000
C  -4.91500 42.68800 25.95500
C  -4.41800 42.42000 22.67700
O  -4.09600 42.18300 21.51800
C  -5.87800 42.56400 23.02600
N  1.10000 43.17600 23.26700
C  0.21200 42.96800 22.32400
C  0.74500 43.31500 20.88000
C  2.20300 43.73600 21.22300
C  2.33300 43.46700 22.75300
C  0.71100 42.03700 19.93500
C  2.44900 45.22300 20.85800
C  3.76900 45.51000 20.09400
N  2.65400 43.26400 25.76200
C  3.71600 43.41800 24.84800
C  4.94800 43.54500 25.63500
C  4.57700 43.32800 27.02200
C  3.16300 43.20700 26.96300
C  6.36100 43.63100 25.08100
C  5.08300 43.10600 28.33000
O  6.21000 43.10600 28.77400
C  3.81300 42.94900 29.21400
C  3.88000 41.77000 30.13200
O  3.57600 40.65100 29.76100
O  4.51200 42.01700 31.33300
C  5.03600 40.89000 32.10600
H  -2.96600 42.63700 27.95500
H  -1.72500 42.77600 21.66600
H  4.41800 43.55300 22.72000
H  0.87700 41.90700 30.38700
H  -1.57800 43.45000 30.00400
H  -2.42300 41.40700 30.53300
H  -0.85900 40.78000 30.60000
H  -1.70100 40.64100 29.05500
H  0.12000 44.78300 30.84800
H  1.75500 44.58800 30.56000
H  0.44700 44.36000 33.01500
H  2.15000 44.03100 32.60700
H  -5.43500 43.41000 25.32500
H  -4.94200 43.01900 26.99300
H  -5.31500 41.69300 25.76100
H  -6.20700 41.96200 23.87400
H  -6.46000 42.17700 22.19000
H  -6.24600 43.58900 23.07300
H  0.09600 44.10200 20.49700
H  2.94500 43.04300 20.82600
H  0.30000 41.17600 20.46200
H  1.65700 41.84500 19.42900
H  -0.09000 42.20200 19.21500
H  2.42300 45.85400 21.74600
H  1.75200 45.69800 20.16600
H  4.38500 44.62100 20.23200
H  4.25000 46.39500 20.50900
H  3.56900 45.69700 19.03900
H  6.81100 44.60200 25.28500
H  6.38700 43.39600 24.01700
H  6.91400 42.78900 25.49700
H  3.85100 43.81500 29.87500
H  6.10200 41.03800 32.28200
H  4.82400 39.91700 31.66300
H  4.53400 40.93700 33.07200

