158

Mg 40.84100 7.84200 29.79600
C  42.56300 9.08100 32.58400
C  38.38500 6.63500 31.86600
C  39.38200 6.39600 27.16500
C  43.73900 8.45200 27.83700
N  40.44400 7.83500 32.04600
C  41.19800 8.57400 32.93000
C  40.42100 8.71100 34.26700
C  39.15300 7.71000 34.07900
C  39.30700 7.36000 32.62500
C  39.01000 6.46500 35.06400
C  40.17200 10.18600 34.50200
C  39.83400 10.50300 36.01000
H  40.88000 11.32100 36.80700
N  39.07800 6.81200 29.54100
C  38.18000 6.43700 30.47300
C  37.00500 5.74900 29.91900
C  37.32900 5.59500 28.54500
C  38.64800 6.26200 28.36200
C  35.84100 5.12000 30.69000
C  36.61100 4.79700 27.50400
O  37.12900 4.53100 26.40800
C  35.21800 4.14100 27.74900
N  41.45700 7.41600 27.79600
C  40.69700 6.74300 26.90000
C  41.44600 6.70300 25.55200
C  42.79600 7.27700 25.80300
C  42.67800 7.75600 27.24600
C  41.59000 5.20000 24.91800
C  43.14800 8.44000 24.80100
C  42.29900 9.69300 24.99300
N  42.76300 8.51600 30.10200
C  43.82200 8.81000 29.25600
C  44.95800 9.41000 29.92300
C  44.50200 9.58800 31.18600
C  43.16500 8.94400 31.32200
C  46.26400 9.85200 29.27800
C  44.77700 10.14400 32.51600
O  45.76500 10.68900 32.95100
C  43.59500 9.75100 33.50300
C  44.09300 8.90500 34.66900
O  45.12700 8.25000 34.65400
O  43.20200 8.90200 35.69100
C  43.52500 8.05100 36.84500
H  37.51000 6.38600 32.47000
H  38.91400 6.04800 26.24200
H  44.59100 8.74500 27.22000
H  40.95800 8.24700 35.09500
H  38.19600 8.23000 34.03800
H  38.18100 6.63600 35.75000
H  39.88700 6.26900 35.68200
H  38.83900 5.58700 34.44200
H  39.30500 10.49000 33.91600
H  41.06200 10.74500 34.21500
H  39.72700 9.59800 36.61000
H  38.94900 11.12000 36.16400
H  34.85800 5.13600 30.21900
H  35.65900 5.55100 31.67400
H  36.14700 4.08800 30.86000
H  34.55800 4.90100 28.16800
H  35.37500 3.15300 28.18400
H  34.65300 3.97300 26.83200
H  40.82400 7.27100 24.86000
H  43.63000 6.57800 25.85100
H  41.29500 4.52700 25.72300
H  42.62800 4.96100 24.68800
H  41.06400 5.06200 23.97300
H  42.99800 8.08100 23.78300
H  44.22500 8.59700 24.85900
H  41.71900 9.80600 24.07700
H  42.93400 10.56900 25.12600
H  41.55900 9.59800 25.78800
H  46.49900 9.26500 28.39000
H  46.96300 9.44500 30.00900
H  46.29500 10.93900 29.20400
H  43.24100 10.66800 33.97400
H  43.37100 6.98700 36.67000
H  42.93700 8.39500 37.69600
H  44.55300 8.09600 37.20500
Mg -10.84900 15.94400 43.42200
C  -7.53400 16.69700 43.12900
C  -11.75100 19.20300 42.80200
C  -14.20400 15.05700 43.59900
C  -10.02300 12.61700 43.69800
N  -9.78100 17.74400 42.97900
C  -8.40800 17.83200 42.94800
C  -7.96900 19.25000 42.71200
C  -9.40800 20.01100 42.61300
C  -10.42700 18.90600 42.87900
C  -9.54800 21.12000 43.61400
C  -7.12300 19.62400 41.42100
C  -5.76200 20.37900 41.58500
H  -4.99200 20.70800 40.37200
N  -12.74700 16.97600 43.12900
C  -12.85400 18.29300 42.94900
C  -14.21500 18.59000 42.77000
C  -15.04600 17.44800 42.96900
C  -14.00200 16.42700 43.25800
C  -14.58300 20.05100 42.59700
C  -16.61500 17.32200 42.88000
O  -17.19800 18.38100 42.51300
C  -17.34000 16.12400 43.25100
N  -12.00700 14.04400 43.29900
C  -13.29500 14.03000 43.73200
C  -13.68900 12.65500 44.25100
C  -12.35900 11.79600 44.21900
C  -11.41200 12.87100 43.65200
C  -14.45800 12.61700 45.61900
C  -12.23300 10.53500 43.31300
C  -12.12100 9.12500 43.98900
N  -9.13400 14.77200 43.38400
C  -8.94300 13.46700 43.52200
C  -7.51400 13.22900 43.57900
C  -6.87400 14.43300 43.37100
C  -7.94700 15.38900 43.24000
C  -6.97700 11.85000 43.82500
C  -5.59900 15.10600 43.25500
O  -4.48900 14.69100 43.21700
C  -5.93100 16.62000 43.06300
C  -5.27800 17.47300 44.06700
O  -5.85700 17.85700 45.08900
O  -3.91500 17.59300 43.86700
C  -3.14200 18.16800 44.96100
H  -11.90700 20.27100 42.63500
H  -15.17500 14.59500 43.79200
H  -9.68400 11.63100 44.02300
H  -7.39900 19.56700 43.58500
H  -9.69400 20.40700 41.63800
H  -8.60300 21.47700 44.02400
H  -10.22300 20.85700 44.42900
H  -10.03700 21.99700 43.19000
H  -7.67200 20.21200 40.68500
H  -6.89500 18.70600 40.87800
H  -5.07400 19.63300 41.98200
H  -5.91000 21.17700 42.31300
H  -15.62500 20.26500 42.83400
H  -14.35300 20.29100 41.55900
H  -14.05200 20.72300 43.27100
H  -18.38400 16.37000 43.05800
H  -17.19900 15.80800 44.28400
H  -17.01300 15.33300 42.57500
H  -14.34900 12.34700 43.44000
H  -11.95900 11.48600 45.18500
H  -14.09600 13.46000 46.20700
H  -14.07500 11.70700 46.08100
H  -15.52800 12.77100 45.47800
H  -11.40900 10.71300 42.62200
H  -13.13900 10.48700 42.70900
H  -11.57900 9.25700 44.92500
H  -11.67500 8.41100 43.29500
H  -13.11900 8.74100 44.20000
H  -7.32400 11.19900 43.02300
H  -7.23400 11.38700 44.77800
H  -5.89900 11.91800 43.68100
H  -5.49000 16.85500 42.09500
H  -2.36400 18.80200 44.53400
H  -2.61300 17.38600 45.50600
H  -3.65900 18.72800 45.74100

