158

Mg 45.24000 5.37700 48.21100
C  42.83500 7.90900 47.64900
C  42.60900 3.10000 48.12200
C  47.54100 2.90400 48.29000
C  47.74500 7.75400 48.02300
N  43.04900 5.44500 47.85200
C  42.35300 6.59900 47.57500
C  40.89500 6.27800 47.22500
C  40.73100 4.81100 47.60200
C  42.18600 4.39300 47.95200
C  39.76600 4.64600 48.83300
C  40.59200 6.68200 45.75700
C  39.19200 7.37100 45.68500
H  38.50500 6.91300 44.46900
N  45.07200 3.28400 48.19600
C  43.92000 2.51400 48.19000
C  44.31900 1.14100 48.16100
C  45.77800 1.08000 48.16500
C  46.21900 2.45600 48.22500
C  43.32000 -0.00800 48.22000
C  46.57300 -0.30100 48.10100
O  45.91900 -1.36100 47.98200
C  48.06400 -0.43800 48.26200
N  47.32300 5.35000 48.04400
C  48.01900 4.21400 48.19700
C  49.53600 4.47700 48.32500
C  49.64500 6.00000 48.27900
C  48.16600 6.43500 48.10100
C  50.41000 3.82500 49.49800
C  50.64100 6.50900 47.13400
C  52.11900 6.61700 47.55400
N  45.34000 7.43200 47.92800
C  46.42800 8.26600 47.89800
C  45.97200 9.68500 47.85700
C  44.60600 9.56600 47.80100
C  44.26400 8.19500 47.79700
C  46.70800 10.96600 47.87100
C  43.38500 10.24700 47.64000
O  43.12600 11.42800 47.50700
C  42.20500 9.19600 47.43300
C  41.30300 9.57000 48.58200
O  41.25100 9.03400 49.68900
O  40.31800 10.45700 48.02000
C  39.15200 10.69200 48.83500
H  41.87900 2.30100 47.97500
H  48.25700 2.08100 48.34400
H  48.47900 8.56100 48.08000
H  40.39300 7.05400 47.80400
H  40.34500 4.27900 46.73300
H  39.16500 5.54600 48.95700
H  40.43800 4.57300 49.68800
H  39.14400 3.76900 48.65000
H  40.74200 5.84000 45.08100
H  41.38400 7.31300 45.35400
H  39.27200 8.45200 45.57300
H  38.56600 7.10300 46.53600
H  43.71700 -0.80800 48.84400
H  43.39000 -0.48400 47.24200
H  42.29900 0.32700 48.40400
H  48.54000 0.31300 47.63100
H  48.25500 -1.48800 48.03900
H  48.38800 -0.23300 49.28300
H  49.92300 4.08800 47.38300
H  49.91000 6.36900 49.27000
H  49.77400 3.21100 50.13600
H  50.80700 4.58700 50.16900
H  51.21200 3.28700 48.99100
H  50.35800 7.54500 46.94500
H  50.54900 5.81900 46.29500
H  52.79300 6.39700 46.72700
H  52.26900 6.02600 48.45800
H  52.35000 7.64300 47.84200
H  46.94100 11.06200 48.93100
H  46.17600 11.83400 47.48000
H  47.61800 10.83300 47.28500
H  41.61000 9.27200 46.52300
H  39.15900 10.09900 49.75000
H  38.27200 10.44600 48.23900
H  39.10900 11.74400 49.11700
Mg 50.43900 46.21300 40.81000
C  47.28400 47.38900 39.96800
C  49.56200 43.11900 39.60700
C  53.53800 45.20100 41.34400
C  51.42800 49.57800 41.42000
N  48.66300 45.36400 39.97000
C  47.46500 46.04200 39.60000
C  46.45000 45.07900 38.96000
C  47.08500 43.74000 39.21600
C  48.55000 44.10300 39.60600
C  46.42300 42.88800 40.38700
C  46.15700 45.43100 37.43500
C  45.12700 44.50800 36.79200
H  45.68500 43.77700 35.54800
N  51.46200 44.40100 40.55300
C  50.86200 43.25800 40.11800
C  51.84800 42.17700 40.17300
C  53.00000 42.73800 40.72800
C  52.72800 44.15900 40.90800
C  51.55400 40.77400 39.81500
C  54.26800 41.95000 41.01900
O  54.33500 40.79400 40.67200
C  55.45700 42.52400 41.74400
N  52.29500 47.32500 41.14400
C  53.34400 46.57200 41.56200
C  54.51000 47.51900 41.88800
C  53.89100 48.92000 41.97300
C  52.45100 48.61900 41.49900
C  55.33000 46.99300 43.13400
C  54.54700 49.94000 40.98900
C  54.79800 51.22900 41.67600
N  49.48800 48.13000 40.77700
C  50.06200 49.37100 41.04000
C  49.01200 50.40900 40.86800
C  47.89600 49.62300 40.43000
C  48.25100 48.30700 40.42200
C  49.13400 51.88600 41.02300
C  46.49600 49.68900 40.02700
O  45.74100 50.63900 40.12400
C  46.15500 48.21300 39.55700
C  44.87300 47.69600 40.28800
O  44.79300 47.23100 41.41800
O  43.80100 47.97500 39.56100
C  42.45500 47.61100 40.02300
H  49.27500 42.11100 39.30100
H  54.60100 44.98600 41.46600
H  51.59300 50.61700 41.71200
H  45.54200 45.20800 39.55000
H  47.17400 43.19500 38.27600
H  45.79100 43.51900 41.01100
H  47.24600 42.56900 41.02600
H  45.85800 42.05500 39.96700
H  47.11300 45.56100 36.92700
H  45.61300 46.37200 37.35400
H  44.27800 45.14600 36.54500
H  44.70800 43.66200 37.33700
H  50.72500 40.78000 39.10800
H  51.27500 40.26300 40.73600
H  52.34300 40.18500 39.34700
H  54.95300 42.94200 42.61600
H  55.99200 43.29600 41.19100
H  56.09500 41.69000 42.03700
H  55.17100 47.47500 41.02300
H  53.72700 49.08400 43.03800
H  54.87400 46.13500 43.62700
H  55.58300 47.66700 43.95300
H  56.31800 46.61000 42.87800
H  53.89500 50.10500 40.13200
H  55.47100 49.53700 40.57400
H  54.74600 51.06300 42.75200
H  54.02700 51.91400 41.32200
H  55.76100 51.63300 41.36400
H  48.79400 52.17800 42.01600
H  48.64000 52.47300 40.24900
H  50.19400 52.10500 40.89900
H  46.11000 48.24200 38.46800
H  41.85900 47.45600 39.12300
H  41.92200 48.25400 40.72300
H  42.64200 46.63400 40.46900

