158

Mg 1.64400 -0.98300 43.23800
C  5.16000 -0.54400 42.69000
C  1.20900 2.01200 41.65200
C  -1.62600 -1.75800 43.15500
C  2.39300 -4.34500 44.28000
N  2.99500 0.43300 42.20600
C  4.39300 0.44200 42.15000
C  4.85600 1.46400 41.18200
C  3.68500 2.49600 41.21400
C  2.56100 1.57400 41.70000
C  3.87200 3.71500 42.21200
C  5.12100 0.90000 39.73600
C  6.50300 1.24200 39.17200
H  6.55000 1.71200 37.71000
N  -0.06600 0.00800 42.56800
C  0.01600 1.31200 42.03200
C  -1.28700 1.76400 41.79300
C  -2.13500 0.70700 42.37100
C  -1.33900 -0.41400 42.72400
C  -1.64900 3.12600 41.16100
C  -3.66300 0.83900 42.44100
O  -4.18800 1.93900 42.26700
C  -4.57900 -0.24800 42.81700
N  0.52800 -2.79100 43.75600
C  -0.78000 -2.82900 43.56800
C  -1.30300 -4.21400 43.82300
C  -0.07000 -5.04300 44.25300
C  1.06000 -4.02900 44.10600
C  -2.34700 -4.26900 44.94600
C  0.30300 -6.20900 43.35900
C  0.73600 -7.45700 44.09300
N  3.40400 -2.21200 43.61000
C  3.52400 -3.52300 44.03700
C  4.93600 -3.84000 44.20700
C  5.60300 -2.67400 43.68900
C  4.65900 -1.74400 43.32300
C  5.42500 -5.13400 44.75500
C  6.91500 -2.09700 43.44700
O  7.99800 -2.52600 43.73400
C  6.71400 -0.67000 42.69300
C  7.49200 0.36300 43.37900
O  7.63300 0.42800 44.59200
O  7.93500 1.21900 42.41200
C  8.53400 2.41400 42.97000
H  1.09700 2.99600 41.19200
H  -2.70300 -1.93100 43.19600
H  2.72100 -5.28400 44.73000
H  5.74300 2.00000 41.52000
H  3.43000 2.92900 40.24700
H  4.33900 3.40000 43.14600
H  2.87400 4.07300 42.46700
H  4.44100 4.53700 41.77800
H  4.31600 1.26100 39.09500
H  4.99300 -0.17900 39.82000
H  7.12600 0.34800 39.15300
H  6.98600 1.99500 39.79500
H  -0.83000 3.61700 40.63600
H  -2.03200 3.81500 41.91400
H  -2.53900 3.01800 40.54100
H  -5.58600 0.11900 42.61800
H  -4.51400 -0.49100 43.87800
H  -4.53400 -1.08200 42.11800
H  -1.63100 -4.52600 42.83100
H  -0.04600 -5.35300 45.29700
H  -2.08800 -3.67600 45.82400
H  -2.34400 -5.31000 45.27100
H  -3.32200 -4.12600 44.48200
H  1.05100 -5.88400 42.63600
H  -0.61700 -6.48600 42.84300
H  0.42600 -8.43500 43.72500
H  0.40400 -7.34500 45.12400
H  1.82600 -7.45400 44.07600
H  5.12600 -6.04100 44.23000
H  5.08100 -5.18100 45.78900
H  6.51400 -5.09400 44.76900
H  7.08500 -0.74400 41.67100
H  9.40300 2.14300 43.57000
H  7.86900 3.02900 43.57600
H  8.79100 3.00300 42.09000
Mg 25.79600 -8.03000 47.56100
C  27.66600 -5.51600 46.41200
C  23.36100 -7.19700 45.18100
C  24.02300 -10.84100 48.40000
C  28.27500 -8.92400 49.94800
N  25.65000 -6.57100 45.86600
C  26.53000 -5.59800 45.67800
C  26.11800 -4.65500 44.50500
C  24.62600 -5.16800 44.11900
C  24.46100 -6.33700 45.17300
C  23.53300 -4.08100 44.19700
C  27.14000 -4.73500 43.37800
C  27.62000 -3.35100 42.81100
H  27.21600 -3.02200 41.38400
N  23.86400 -8.86900 46.93700
C  23.03100 -8.29300 46.01300
C  21.75500 -9.04100 46.05100
C  21.98800 -10.13700 46.96100
C  23.31600 -10.02000 47.50700
C  20.58500 -8.62900 45.11300
C  20.89100 -11.16400 47.18300
O  19.76900 -10.94300 46.80000
C  21.10400 -12.40200 48.03700
N  26.16900 -9.63500 48.87300
C  25.24000 -10.62700 49.09700
C  25.53900 -11.45900 50.29700
C  27.00500 -11.08000 50.63000
C  27.18200 -9.83600 49.74500
C  24.49400 -11.14900 51.47500
C  28.03400 -12.13400 50.15200
C  28.28900 -13.23500 51.17500
N  27.72600 -7.48900 48.05800
C  28.50900 -7.77600 49.13400
C  29.65200 -6.78800 49.11900
C  29.29500 -5.85800 48.08500
C  28.18300 -6.35900 47.47400
C  30.75000 -6.72100 50.11100
C  29.81300 -4.70700 47.42300
O  30.80700 -4.05500 47.57400
C  28.74100 -4.34700 46.35600
C  28.12300 -3.03000 46.64500
O  27.35300 -2.81800 47.59900
O  28.34100 -2.22000 45.58000
C  27.68000 -0.93800 45.72400
H  22.58800 -6.87000 44.48200
H  23.51900 -11.71500 48.81700
H  28.91100 -9.15000 50.80600
H  26.17500 -3.59300 44.74700
H  24.52300 -5.72000 43.18500
H  22.95300 -4.16700 43.27900
H  24.05900 -3.12800 44.13500
H  22.87200 -4.20600 45.05500
H  26.60700 -5.33100 42.63700
H  28.02000 -5.26200 43.74700
H  28.68300 -3.24500 43.03000
H  27.12900 -2.52700 43.32800
H  20.05800 -9.53000 44.80000
H  20.89800 -8.03000 44.25800
H  19.85400 -8.02500 45.65100
H  21.89800 -13.10900 47.79800
H  20.15200 -12.88600 47.81900
H  21.06100 -12.23100 49.11300
H  25.50900 -12.46200 49.87100
H  27.07300 -10.81900 51.68600
H  23.96600 -12.08600 51.65300
H  23.74600 -10.43400 51.13200
H  25.00800 -10.86700 52.39400
H  28.97300 -11.60800 49.98400
H  27.77000 -12.59500 49.19900
H  29.28700 -13.12200 51.59700
H  28.32500 -14.24100 50.75700
H  27.64200 -13.14200 52.04700
H  30.39000 -7.06500 51.08100
H  31.12400 -5.69900 50.04500
H  31.56800 -7.37100 49.80200
H  29.32100 -4.30700 45.43400
H  26.61400 -1.16100 45.67800
H  28.04900 -0.20200 45.01000
H  28.01300 -0.51800 46.67300

