158

Mg -0.67600 -3.08400 43.63200
C  2.94600 -3.19500 43.39300
C  -0.53400 -0.33200 41.87400
C  -4.00500 -3.26400 43.56300
C  -0.50800 -6.34600 45.06800
N  1.07100 -1.85500 42.78900
C  2.40200 -2.03800 42.76700
C  3.13700 -0.79500 42.13400
C  1.93900 0.19800 41.86000
C  0.76300 -0.70200 42.26400
C  1.96500 1.54800 42.79200
C  4.02900 -1.20200 40.89700
C  5.23000 -0.22400 40.80300
H  5.37500 0.68900 39.55700
N  -2.07200 -1.93900 42.80500
C  -1.82700 -0.80500 42.08000
C  -3.02500 -0.27600 41.64000
C  -4.03900 -1.22100 42.00500
C  -3.33800 -2.24700 42.82500
C  -3.32000 1.03300 41.03500
C  -5.52800 -1.14000 41.67500
O  -6.02000 -0.06300 41.22500
C  -6.44900 -2.22300 41.96700
N  -2.12200 -4.71700 44.04400
C  -3.45500 -4.43400 44.11300
C  -4.22500 -5.55000 44.80800
C  -3.07400 -6.41800 45.35300
C  -1.79700 -5.81100 44.80700
C  -5.12500 -5.00000 45.98200
C  -3.20000 -7.89200 45.03200
C  -3.66400 -8.73900 46.19400
N  0.82100 -4.53500 44.04900
C  0.67600 -5.80500 44.64500
C  1.95200 -6.27300 44.97200
C  2.87700 -5.35100 44.40000
C  2.15800 -4.29700 43.92000
C  2.19500 -7.56000 45.74600
C  4.30500 -4.95300 44.26900
O  5.32100 -5.37400 44.75500
C  4.35200 -3.67200 43.42700
C  5.35100 -2.71400 44.02300
O  5.37700 -2.31000 45.18800
O  6.33100 -2.41500 43.12800
C  7.39700 -1.57800 43.59700
H  -0.71700 0.59200 41.32200
H  -5.09400 -3.21400 43.63200
H  -0.51700 -7.29900 45.60100
H  3.81400 -0.41900 42.90200
H  1.71300 0.41200 40.81500
H  1.16300 1.54200 43.53000
H  2.05100 2.43100 42.15800
H  2.79400 1.38900 43.48100
H  3.54300 -1.13000 39.92400
H  4.32300 -2.24900 40.98100
H  6.10800 -0.86600 40.86400
H  5.34000 0.34500 41.72600
H  -4.27900 1.52200 41.20700
H  -3.16000 0.97000 39.95900
H  -2.52000 1.73600 41.26900
H  -5.95700 -3.18200 41.80600
H  -7.15000 -2.20900 41.13300
H  -6.92300 -2.14600 42.94600
H  -4.78800 -6.08400 44.04200
H  -2.94000 -6.19700 46.41200
H  -5.34600 -3.94200 45.83900
H  -4.63200 -5.08500 46.95100
H  -6.12100 -5.42800 46.09300
H  -2.18200 -8.21400 44.81200
H  -3.89000 -8.04800 44.20300
H  -3.98800 -8.16700 47.06300
H  -2.87100 -9.32400 46.66100
H  -4.52300 -9.34000 45.89600
H  3.22100 -7.65300 46.10200
H  1.98900 -8.33200 45.00500
H  1.49100 -7.54900 46.57800
H  4.60000 -3.96800 42.40700
H  6.96200 -0.59100 43.43900
H  8.30600 -1.60500 42.99700
H  7.70000 -1.76500 44.62700
Mg 47.50400 25.06500 29.32800
C  48.77300 27.23200 31.67500
C  46.30400 23.05800 31.82800
C  46.85600 22.77000 26.92200
C  48.95300 27.10800 26.85600
N  47.44000 25.19200 31.53300
C  48.07000 26.13400 32.33500
C  47.66000 25.94000 33.77800
C  47.01200 24.56700 33.76400
C  46.86900 24.23400 32.28400
C  47.65300 23.40700 34.63400
C  46.63600 27.05300 34.37100
C  47.00800 27.73200 35.61400
H  45.88300 27.95600 36.63700
N  46.55800 23.21800 29.34000
C  46.15100 22.59700 30.46600
C  45.57500 21.29300 29.96500
C  45.64800 21.28900 28.53300
C  46.37100 22.47400 28.18600
C  45.05300 20.19000 30.91300
C  45.05300 20.22600 27.60200
O  45.25800 20.31200 26.41000
C  44.07800 19.09100 28.15600
N  47.96700 24.83300 27.17500
C  47.64700 23.76300 26.41000
C  47.94400 23.98300 24.98200
C  48.39200 25.50900 24.90600
C  48.44300 25.83700 26.39900
C  48.97400 22.96200 24.49300
C  47.51600 26.54700 24.21200
C  48.13000 27.29300 23.02200
N  48.60900 26.83500 29.25700
C  49.15900 27.55700 28.15900
C  49.98500 28.66300 28.68300
C  49.72200 28.66500 30.05900
C  48.98700 27.42800 30.34600
C  50.93600 29.63500 27.93400
C  49.99400 29.34900 31.27100
O  50.65600 30.36500 31.47200
C  49.37000 28.46600 32.37200
C  50.42800 28.18600 33.32200
O  51.42000 27.51400 33.02800
O  50.08500 28.74300 34.54800
C  51.11400 28.53300 35.55600
H  46.01100 22.37100 32.62400
H  46.73400 22.07300 26.09000
H  49.24600 27.82700 26.08800
H  48.49800 25.92900 34.47600
H  46.04500 24.52900 34.26500
H  48.08900 22.60200 34.04200
H  46.86600 22.92700 35.21500
H  48.54600 23.84500 35.08000
H  45.64400 26.60100 34.39300
H  46.54200 27.83800 33.62100
H  47.47500 28.65400 35.26800
H  47.82500 27.17000 36.06500
H  45.15600 20.53600 31.94200
H  45.60000 19.24900 30.96800
H  44.05000 20.11900 30.49300
H  44.52800 18.47800 28.93600
H  43.76200 18.49300 27.30200
H  43.17600 19.61000 28.48000
H  47.04100 23.87600 24.38100
H  49.39000 25.67100 24.50100
H  49.15800 22.28400 25.32700
H  49.88600 23.23300 23.96200
H  48.48700 22.28000 23.79600
H  47.24700 27.30200 24.95100
H  46.71400 25.95000 23.77800
H  47.61600 27.20600 22.06500
H  49.15300 26.95200 22.86200
H  48.11400 28.36200 23.23500
H  51.02900 29.28500 26.90600
H  51.92900 29.56600 28.38000
H  50.48400 30.62600 27.92900
H  48.50900 28.96600 32.81700
H  51.61300 27.56900 35.46200
H  50.76500 28.78600 36.55700
H  51.96900 29.20600 35.48800

