158

Mg 47.83500 34.50500 26.83500
C  46.11000 33.26800 29.70800
C  48.25100 37.46600 28.38200
C  49.12000 35.58300 24.06100
C  46.96700 31.38900 25.22500
N  47.28900 35.18300 28.85600
C  46.63600 34.56600 29.85800
C  46.59100 35.46300 31.11200
C  47.07800 36.86200 30.53900
C  47.55200 36.50800 29.14100
C  45.94700 37.90100 30.44400
C  47.53000 34.99800 32.34100
C  46.86000 35.15800 33.76900
H  47.84800 35.56400 34.81700
N  48.71000 36.23400 26.31400
C  48.79100 37.36100 27.08800
C  49.69500 38.24900 26.47400
C  49.89900 37.77200 25.10300
C  49.21200 36.49200 25.11900
C  50.31500 39.46100 27.19300
C  50.72900 38.41300 23.93500
O  50.79200 37.88600 22.82400
C  51.60300 39.62400 24.28000
N  48.05500 33.49700 24.91300
C  48.60400 34.24100 23.94800
C  48.81900 33.37700 22.64200
C  48.19300 31.96800 23.05900
C  47.63300 32.33300 24.43200
C  48.27400 34.00700 21.30100
C  49.18900 30.74000 23.07200
C  50.19900 30.65200 24.17000
N  46.83000 32.61100 27.35400
C  46.52500 31.50800 26.56600
C  45.82200 30.52700 27.43200
C  45.54700 31.16900 28.63800
C  46.20800 32.44000 28.54700
C  45.24700 29.23500 26.92300
C  44.80500 31.20800 29.82500
O  43.96300 30.43800 30.30200
C  45.01600 32.60100 30.54500
C  45.22300 32.35800 31.97000
O  46.23600 31.95900 32.50500
O  43.94600 32.47100 32.55300
C  43.93400 32.00000 33.95600
H  48.45700 38.41700 28.87900
H  49.58700 35.96400 23.15000
H  46.69200 30.43300 24.77500
H  45.54300 35.41200 31.40600
H  47.81000 37.27600 31.23300
H  46.39500 38.89200 30.50500
H  45.25700 37.85800 31.28600
H  45.42100 37.76500 29.49900
H  48.47200 35.54700 32.34800
H  47.87200 33.98300 32.14200
H  46.39900 34.22000 34.07800
H  46.08800 35.92600 33.72600
H  49.99500 40.38200 26.70600
H  51.40500 39.45600 27.19000
H  49.97500 39.56800 28.22300
H  50.97400 40.36700 24.77300
H  51.87900 39.99900 23.29500
H  52.40800 39.17900 24.86500
H  49.89600 33.26700 22.52000
H  47.27800 31.85900 22.47600
H  49.10700 34.49000 20.79100
H  47.46500 34.73400 21.35400
H  47.87100 33.22700 20.65600
H  49.62300 30.72500 22.07200
H  48.55400 29.85400 23.07100
H  51.15100 30.49800 23.66100
H  49.88800 29.75400 24.70300
H  50.26500 31.47900 24.87700
H  44.21400 29.31100 26.58100
H  45.26200 28.55100 27.77200
H  45.88800 28.81700 26.14700
H  44.04200 33.06700 30.39300
H  44.46600 32.71300 34.58600
H  44.34800 30.99600 34.04600
H  42.89000 32.07000 34.26300
Mg 30.52600 58.93000 39.74200
C  27.51000 57.16800 38.97400
C  32.26300 56.19000 38.42000
C  33.25300 60.68900 39.76000
C  28.56000 61.73900 40.50300
N  29.91700 56.95900 38.78300
C  28.67300 56.42900 38.63700
C  28.74100 55.05500 37.95500
C  30.14400 54.59400 38.34600
C  30.85700 56.00300 38.49800
C  30.35200 53.55200 39.54600
C  28.37600 55.15800 36.44600
C  26.98400 54.68400 35.94200
H  26.34800 55.52400 34.82300
N  32.45000 58.50400 39.10200
C  33.02100 57.29900 38.60200
C  34.43100 57.47400 38.46800
C  34.79000 58.73200 38.92700
C  33.51600 59.38700 39.28200
C  35.28600 56.39500 37.79700
C  36.19700 59.21700 39.09400
O  37.13900 58.51000 38.75900
C  36.43800 60.53200 39.61000
N  30.84000 60.96500 39.86000
C  32.12500 61.42600 39.92700
C  32.15000 62.86200 40.53800
C  30.65500 63.21900 40.64300
C  29.99000 61.90900 40.38300
C  32.85000 63.01400 41.87600
C  30.10100 64.46000 39.86500
C  29.14600 65.36200 40.63700
N  28.46600 59.39200 39.81800
C  27.76200 60.59400 40.22800
C  26.32800 60.39100 40.18000
C  26.21000 59.04000 39.77500
C  27.51500 58.55800 39.47800
C  25.31700 61.49700 40.54300
C  25.22900 58.05100 39.40700
O  23.99200 58.06500 39.36500
C  26.04600 56.77000 38.80400
C  25.55700 55.63500 39.63700
O  26.00500 55.31900 40.73300
O  24.58300 54.94700 39.00400
C  23.94100 53.85900 39.82100
H  32.71700 55.23300 38.15700
H  34.10400 61.32800 40.00400
H  28.16100 62.62100 41.00900
H  28.04300 54.36500 38.42900
H  30.58800 54.06400 37.50400
H  29.45400 53.19500 40.05000
H  30.88700 54.23800 40.20300
H  31.04800 52.76900 39.24500
H  29.09600 54.48400 35.98200
H  28.52900 56.18800 36.12300
H  26.33800 54.58300 36.81400
H  27.16900 53.69300 35.52500
H  35.75200 55.66200 38.45600
H  36.11900 56.85800 37.26800
H  34.77600 55.85000 37.00300
H  36.06300 60.65900 40.62500
H  35.95000 61.22700 38.92600
H  37.49800 60.77200 39.52300
H  32.57100 63.45600 39.72600
H  30.25500 63.32600 41.65100
H  32.23800 63.52900 42.61600
H  33.76900 63.50900 41.56000
H  33.07200 62.00200 42.21200
H  29.45000 64.07500 39.08000
H  30.90100 65.03400 39.39800
H  29.68300 66.20100 41.08100
H  28.63500 64.86000 41.45900
H  28.34400 65.74300 40.00600
H  24.40300 61.36400 39.96400
H  25.59300 62.53600 40.36600
H  25.06900 61.39300 41.59900
H  25.64900 56.75600 37.78900
H  24.35600 52.86400 39.66000
H  22.91000 53.95000 39.48000
H  24.01100 54.07300 40.88800

