158

Mg 48.65300 15.85600 29.34000
C  46.38900 15.30300 31.92400
C  50.83000 17.23300 31.59800
C  50.77500 16.29100 26.71400
C  46.30200 14.44200 27.12100
N  48.54100 16.30200 31.57300
C  47.60000 15.84000 32.42100
C  48.10200 15.99400 33.86500
C  49.34100 16.94500 33.71300
C  49.67300 16.76600 32.19100
C  49.18100 18.41500 34.16300
C  48.50500 14.60500 34.45400
C  48.36100 14.26300 36.00700
H  48.08200 15.52200 36.84300
N  50.53200 16.65600 29.18700
C  51.23300 17.21900 30.20100
C  52.43200 17.70100 29.63600
C  52.48800 17.38900 28.25700
C  51.19500 16.82000 27.98400
C  53.45000 18.47600 30.46700
C  53.50500 17.77400 27.14900
O  53.26500 17.68100 25.91100
C  54.83100 18.25600 27.61400
N  48.53100 15.38800 27.15100
C  49.47300 15.81200 26.31900
C  49.11300 15.54900 24.83400
C  47.77400 14.77100 25.02900
C  47.49500 14.86200 26.48900
C  48.92400 16.85600 24.07900
C  47.79700 13.24000 24.66000
C  47.00600 12.71600 23.48200
N  46.69900 15.21600 29.41100
C  45.85400 14.63100 28.45500
C  44.62000 14.18700 29.01000
C  44.84100 14.42700 30.39200
C  46.04900 15.13900 30.56700
C  43.56300 13.29400 28.28900
C  44.27000 14.26500 31.72400
O  43.28500 13.63600 32.04600
C  45.22000 14.84100 32.75400
C  44.44200 15.78500 33.60600
O  44.26300 16.92600 33.26800
O  44.16800 15.20700 34.80900
C  43.40200 16.07200 35.76900
H  51.55100 17.67100 32.29200
H  51.41200 16.32000 25.82800
H  45.58600 14.03700 26.40300
H  47.28700 16.43200 34.44100
H  50.24600 16.65000 34.24500
H  49.63900 19.18100 33.53700
H  49.69300 18.52300 35.11900
H  48.13400 18.70300 34.25900
H  49.54400 14.48300 34.14700
H  47.93700 13.90400 33.84300
H  49.27900 13.72800 36.25000
H  47.51800 13.58100 36.11900
H  53.99900 19.19500 29.85800
H  54.09900 17.73800 30.93900
H  52.86100 19.05400 31.17900
H  54.62400 19.32100 27.72200
H  55.62400 18.04500 26.89600
H  55.01200 17.72400 28.54700
H  49.81200 14.95300 24.24700
H  46.95700 15.16700 24.42700
H  49.13700 16.59300 23.04300
H  49.53900 17.68400 24.43400
H  47.90500 17.23600 24.15000
H  47.47300 12.61200 25.49000
H  48.84200 12.97900 24.49200
H  46.85700 13.55300 22.79900
H  45.98700 12.43000 23.74400
H  47.50900 11.88200 22.99300
H  42.92200 13.93300 27.68200
H  42.96300 12.68100 28.96100
H  44.04400 12.61300 27.58700
H  45.59600 14.01300 33.35500
H  42.39600 15.65300 35.76700
H  43.35800 17.14000 35.55200
H  43.92600 16.08700 36.72500
Mg -12.68900 15.80400 42.47400
C  -9.66100 14.08800 42.15400
C  -11.08300 18.47000 41.05000
C  -15.81100 17.15100 41.64500
C  -14.25500 12.92100 43.39600
N  -10.54400 16.20700 41.76000
C  -9.50600 15.33000 41.62500
C  -8.23300 16.06100 41.07300
C  -8.65700 17.56300 41.12000
C  -10.18100 17.44300 41.30900
C  -7.96500 18.50800 42.14400
C  -7.78000 15.47200 39.69700
C  -6.39400 15.50300 39.32000
H  -6.14100 16.32100 38.11300
N  -13.34000 17.68800 41.47400
C  -12.45800 18.65600 41.02900
C  -13.26400 19.76100 40.61800
C  -14.66700 19.48900 40.97000
C  -14.66800 18.05900 41.35800
C  -12.65000 21.04900 40.03100
C  -15.84600 20.36700 40.82100
O  -15.72100 21.54000 40.35600
C  -17.20800 20.09900 41.26300
N  -14.72500 15.10600 42.34000
C  -15.85100 15.83000 42.16700
C  -17.16800 15.08500 42.44300
C  -16.56600 13.81600 43.21700
C  -15.09000 13.95800 42.94100
C  -18.34600 15.88900 43.11200
C  -17.17600 12.38100 42.63200
C  -17.94700 11.50100 43.68800
N  -12.05700 13.85800 42.87600
C  -12.81900 12.81600 43.32600
C  -11.98400 11.76600 43.64600
C  -10.69200 12.20200 43.20400
C  -10.79100 13.51700 42.74300
C  -12.28000 10.42600 44.24600
C  -9.28800 11.77900 43.05600
O  -8.62800 10.80300 43.45100
C  -8.58600 12.97400 42.31900
C  -7.38600 13.38900 43.01400
O  -7.35900 14.11500 44.05300
O  -6.31300 12.96900 42.30900
C  -4.99900 13.69500 42.68600
H  -10.44300 19.29300 40.72500
H  -16.79100 17.54800 41.37000
H  -14.73900 12.19600 44.05200
H  -7.49200 15.90000 41.85600
H  -8.43100 18.08900 40.19300
H  -7.81300 17.94900 43.06700
H  -8.65500 19.32600 42.35100
H  -7.01200 18.95000 41.85200
H  -8.37500 16.06500 39.00300
H  -8.16100 14.45100 39.73100
H  -5.98800 14.49600 39.22200
H  -5.73400 15.92300 40.07900
H  -12.56200 21.85800 40.75600
H  -13.21400 21.41700 39.17400
H  -11.62800 20.77000 39.77300
H  -17.75600 19.53000 40.51200
H  -17.69100 21.06000 41.44000
H  -17.14000 19.52300 42.18600
H  -17.51300 14.72500 41.47400
H  -16.87700 13.91800 44.25600
H  -18.11800 16.95200 43.02800
H  -18.53200 15.68500 44.16700
H  -19.32300 15.71000 42.66300
H  -16.38000 11.80200 42.16300
H  -17.79700 12.43700 41.73800
H  -17.44500 10.54300 43.82300
H  -18.98300 11.42800 43.35500
H  -17.96800 11.99900 44.65700
H  -13.03200 10.50300 45.03100
H  -11.40500 10.00600 44.74200
H  -12.49500 9.59200 43.57800
H  -8.35400 12.65000 41.30400
H  -4.30300 13.35800 41.91700
H  -4.63700 13.56400 43.70500
H  -5.14800 14.77300 42.62600

