158

Mg 40.60500 8.84300 28.96500
C  42.60300 10.23200 31.67400
C  38.78600 7.29700 31.53200
C  38.87300 7.72200 26.63200
C  43.12600 9.97900 26.79300
N  40.65300 8.89000 31.34000
C  41.44200 9.60500 32.17700
C  40.91300 9.62100 33.56100
C  39.90400 8.40700 33.49600
C  39.76800 8.13800 32.03400
C  40.21000 7.10500 34.32500
C  40.28800 11.08300 33.79100
C  39.56700 11.30400 35.18300
H  39.96500 12.48400 36.00800
N  39.03700 7.68400 29.02500
C  38.40800 7.13100 30.16200
C  37.18700 6.47600 29.78600
C  37.15600 6.54300 28.30700
C  38.37000 7.33400 27.92500
C  36.11100 5.96500 30.76300
C  36.24900 5.89000 27.31700
O  36.28300 6.12000 26.13000
C  35.23200 4.77000 27.91600
N  41.10200 8.71400 26.94400
C  40.03700 8.34300 26.15800
C  40.34700 8.61700 24.73900
C  41.66200 9.44900 24.82700
C  41.98900 9.38200 26.26200
C  40.46600 7.24200 23.85500
C  41.46200 10.94100 24.33600
C  40.43800 11.86700 25.10300
N  42.43500 9.78100 29.13800
C  43.37700 10.13400 28.16200
C  44.57300 10.77300 28.76300
C  44.23900 10.86600 30.06400
C  42.94100 10.31600 30.25900
C  45.76200 11.24900 28.10900
C  44.79300 11.35600 31.33500
O  45.85000 11.84400 31.65700
C  43.71000 10.94200 32.42900
C  44.38800 9.99100 33.41900
O  44.73000 8.83200 33.13800
O  44.52700 10.63000 34.56600
C  45.08500 9.80400 35.63100
H  38.20500 6.73000 32.26300
H  38.34900 7.41200 25.72600
H  43.97800 10.39400 26.25100
H  41.57300 9.33600 34.38000
H  38.98300 8.75300 33.96600
H  40.49600 6.18600 33.81300
H  39.44400 6.92000 35.07900
H  41.14000 7.32300 34.84900
H  39.57800 11.27000 32.98500
H  41.11800 11.78800 33.73800
H  39.62100 10.33500 35.68000
H  38.54600 11.55400 34.89600
H  36.06700 6.43700 31.74400
H  36.31400 4.92200 31.00700
H  35.08000 5.86200 30.42300
H  35.83000 4.23200 28.65200
H  34.94600 4.07500 27.12600
H  34.41800 5.27700 28.43200
H  39.55800 9.24200 24.32200
H  42.37700 8.89100 24.22200
H  40.52900 6.36900 24.50400
H  41.42900 7.37700 23.36300
H  39.69500 7.09400 23.09900
H  41.20000 11.00100 23.28000
H  42.48200 11.32100 24.28500
H  40.90300 12.83900 25.27000
H  40.29000 11.33900 26.04400
H  39.54600 11.84900 24.47700
H  46.33000 11.87100 28.80100
H  45.62700 11.72900 27.14000
H  46.47600 10.45500 27.89100
H  43.43600 11.88900 32.89400
H  45.66500 10.38900 36.34600
H  45.84100 9.07800 35.33300
H  44.30100 9.34500 36.23300
Mg -11.77700 38.21300 41.93900
C  -9.58300 35.63500 40.89600
C  -9.50900 40.44100 40.53400
C  -14.13100 40.47100 41.92800
C  -13.94600 35.79200 43.13000
N  -9.68000 38.09200 41.03500
C  -9.01200 36.96600 40.72800
C  -7.79100 37.23400 39.91100
C  -7.59800 38.83400 40.12200
C  -9.00100 39.17200 40.63700
C  -6.51900 39.11700 41.19100
C  -7.95800 36.86200 38.38800
C  -6.91300 35.92500 37.75500
H  -5.99900 36.56000 36.70300
N  -11.82400 40.15700 41.40200
C  -10.78700 40.94600 40.83100
C  -11.19400 42.29700 40.67500
C  -12.58800 42.30700 40.97000
C  -12.88600 40.94400 41.49600
C  -10.34000 43.39200 40.06700
C  -13.44700 43.55800 40.80500
O  -12.99300 44.59400 40.27800
C  -14.93000 43.54400 41.10700
N  -13.79800 38.12000 42.29700
C  -14.45900 39.27500 42.53600
C  -15.87700 39.05000 43.17200
C  -15.97500 37.50400 43.26000
C  -14.48600 37.10100 42.98500
C  -16.08200 39.89600 44.54200
C  -16.86000 36.83400 42.16100
C  -17.33600 35.42200 42.47800
N  -11.90400 36.11000 41.95400
C  -12.74100 35.29100 42.60400
C  -12.28100 33.88900 42.46000
C  -11.06100 33.98400 41.72300
C  -10.84600 35.40000 41.54700
C  -13.08500 32.70300 42.76900
C  -10.04800 33.21000 40.99200
O  -9.94400 31.99000 40.77300
C  -9.19600 34.32400 40.31000
C  -7.69800 33.91900 40.37400
O  -6.89700 34.24700 41.25300
O  -7.36900 33.22400 39.23300
C  -6.06800 32.52500 39.33200
H  -8.81200 41.18900 40.14800
H  -14.97900 41.13900 41.76400
H  -14.62300 35.08100 43.60800
H  -6.97700 36.63900 40.32500
H  -7.34700 39.33600 39.18800
H  -5.74600 38.36100 41.32500
H  -7.00000 39.41200 42.12400
H  -5.99800 39.99000 40.79800
H  -7.92400 37.77500 37.79400
H  -8.95900 36.49400 38.16400
H  -7.31500 35.08800 37.18400
H  -6.28700 35.49600 38.53700
H  -10.80300 43.82500 39.18100
H  -9.38000 43.05000 39.68000
H  -10.14600 44.15500 40.82200
H  -15.47100 42.86400 40.44800
H  -15.28000 44.55400 40.89300
H  -15.09500 43.51100 42.18400
H  -16.71200 39.31000 42.52200
H  -16.32800 37.06100 44.19200
H  -16.68400 39.32400 45.24700
H  -16.65800 40.77700 44.25800
H  -15.11300 40.00700 45.03000
H  -16.24900 36.81500 41.25900
H  -17.73000 37.45300 41.94100
H  -17.73600 35.10800 43.44200
H  -16.66800 34.60300 42.21100
H  -18.18800 35.19200 41.83800
H  -14.14100 32.86400 42.55300
H  -13.04900 32.53400 43.84500
H  -12.88500 31.79200 42.20600
H  -9.51300 34.46100 39.27600
H  -5.52000 32.51200 40.27400
H  -5.37500 32.90300 38.58000
H  -6.28700 31.50500 39.01800

