158

Mg 17.07900 -2.08600 27.68900
C  16.15500 -0.06800 30.24300
C  19.18300 -3.84200 29.83100
C  18.45000 -3.81900 25.03200
C  15.77000 0.16200 25.40200
N  17.56300 -1.98600 29.79100
C  16.97700 -1.09800 30.69600
C  17.45900 -1.33300 32.15100
C  18.63700 -2.30600 31.88700
C  18.41600 -2.77300 30.38600
C  20.08800 -1.71500 32.05000
C  16.21200 -1.91700 32.91000
C  16.13500 -1.40800 34.41600
H  17.23300 -0.75600 35.19900
N  18.51200 -3.70400 27.43300
C  19.14000 -4.34800 28.44100
C  19.91200 -5.46100 27.96600
C  19.79100 -5.38800 26.57100
C  18.93000 -4.26700 26.25900
C  20.71900 -6.44900 28.85100
C  20.50600 -6.28800 25.47800
O  20.59200 -6.00000 24.29800
C  21.14900 -7.57200 25.97700
N  16.99700 -2.00300 25.52100
C  17.72300 -2.73300 24.65800
C  17.82600 -2.08500 23.24600
C  16.94500 -0.81700 23.35000
C  16.47200 -0.92000 24.85100
C  19.28300 -1.78000 22.78200
C  15.70200 -0.78900 22.37400
C  14.66400 -1.93400 22.42000
N  16.16100 -0.37800 27.69800
C  15.64000 0.53400 26.77600
C  14.95900 1.66100 27.35600
C  15.07900 1.39400 28.77800
C  15.86900 0.21600 28.89600
C  14.09700 2.63000 26.60600
C  14.76400 1.90000 30.08300
O  14.12200 2.89300 30.33600
C  15.53600 1.09000 31.11700
C  16.36100 2.07400 31.85900
O  17.51300 2.37300 31.54100
O  15.65700 2.48800 32.97300
C  16.43100 3.21500 33.99400
H  19.84700 -4.43800 30.46100
H  18.88400 -4.33700 24.17400
H  15.42100 0.94000 24.72000
H  17.88700 -0.41400 32.55000
H  18.49900 -3.01400 32.70300
H  20.61100 -2.03000 31.14700
H  20.46800 -2.28500 32.89800
H  20.03000 -0.65900 32.31200
H  16.15200 -3.00500 32.92400
H  15.22700 -1.77500 32.46500
H  15.83500 -2.26700 35.01700
H  15.30000 -0.71800 34.29600
H  21.74100 -6.07600 28.77900
H  20.59300 -7.48000 28.51800
H  20.27900 -6.48400 29.84700
H  21.60700 -8.20300 25.21500
H  20.30700 -8.05600 26.47100
H  21.94800 -7.16000 26.59400
H  17.33700 -2.86200 22.65900
H  17.47400 0.11300 23.14400
H  19.41800 -2.18000 21.77700
H  19.97000 -2.27400 23.46900
H  19.43000 -0.70000 22.75700
H  16.05900 -0.45500 21.40000
H  15.15300 0.09400 22.70000
H  15.10000 -2.80700 22.90500
H  14.47300 -2.22900 21.38900
H  13.69000 -1.71500 22.86000
H  13.69400 2.19600 25.69000
H  14.61200 3.45000 26.10500
H  13.38400 3.09500 27.28700
H  14.83500 0.49700 31.70600
H  15.73200 3.64500 34.71100
H  17.08200 3.94300 33.51000
H  17.02800 2.49000 34.54700
Mg -4.39600 25.12200 26.29700
C  -3.23800 26.90500 29.10800
C  -6.25900 23.25400 28.37400
C  -5.47600 23.38600 23.54700
C  -2.76100 27.27600 24.25600
N  -4.74600 25.15700 28.51200
C  -4.13600 25.88000 29.50900
C  -4.77400 25.61800 30.84200
C  -5.49400 24.23600 30.53600
C  -5.60600 24.26800 29.05900
C  -4.65000 23.09200 31.02700
C  -5.68900 26.82600 31.20600
C  -5.76300 27.00500 32.73400
H  -5.39900 25.86700 33.62900
N  -5.63100 23.42900 26.00200
C  -6.34600 22.91300 26.96900
C  -7.28700 21.91000 26.42000
C  -7.04600 21.90900 24.95600
C  -5.95200 22.91600 24.76600
C  -8.27500 21.21200 27.30900
C  -7.67100 21.00000 23.95800
O  -7.30500 20.85900 22.79400
C  -8.90300 20.23200 24.36800
N  -4.14500 25.25800 24.17000
C  -4.63400 24.43000 23.23100
C  -4.26000 24.79200 21.77700
C  -3.57700 26.18000 22.09500
C  -3.49100 26.27500 23.61400
C  -3.31400 23.72400 21.03300
C  -4.28100 27.42400 21.55100
C  -3.68600 28.13400 20.32700
N  -3.10200 26.62700 26.60300
C  -2.48700 27.39600 25.63800
C  -1.63500 28.39200 26.30000
C  -1.95500 28.27100 27.63800
C  -2.79500 27.17700 27.75000
C  -0.78200 29.40900 25.58800
C  -1.76600 28.84800 28.98100
O  -1.10900 29.89100 29.33100
C  -2.40800 27.79100 29.96000
C  -1.27600 27.11800 30.78600
O  -0.51000 26.20000 30.33500
O  -1.43700 27.44300 32.07200
C  -0.79000 26.59900 33.02300
H  -6.83900 22.66200 29.08600
H  -5.87200 22.85200 22.68100
H  -2.19900 27.93700 23.59300
H  -3.93000 25.47300 31.51600
H  -6.51700 24.13900 30.89900
H  -5.21700 22.42300 31.67400
H  -3.67200 23.33500 31.44300
H  -4.41300 22.39300 30.22500
H  -6.72600 26.66000 30.91300
H  -5.33800 27.72700 30.70300
H  -6.77600 27.29300 33.01300
H  -5.14500 27.87900 32.94100
H  -7.95600 21.00500 28.33100
H  -8.34000 20.17400 26.98200
H  -9.12200 21.89400 27.22600
H  -9.59300 20.69400 25.07300
H  -8.51800 19.26700 24.69900
H  -9.52200 19.91100 23.53000
H  -5.17800 24.88000 21.19600
H  -2.59900 26.13700 21.61600
H  -3.28600 22.83400 21.66200
H  -2.29100 24.09600 20.97400
H  -3.87300 23.57100 20.11000
H  -4.39400 28.23500 22.27100
H  -5.25600 27.23000 21.10500
H  -4.38000 28.55100 19.59700
H  -3.02700 27.39500 19.87100
H  -3.01400 28.93700 20.63000
H  0.20200 29.01200 25.83600
H  -0.85900 30.38700 26.06300
H  -1.07300 29.36400 24.53900
H  -2.97600 28.24300 30.77400
H  0.12300 27.07800 33.37800
H  -0.51500 25.61700 32.63700
H  -1.40500 26.46400 33.91200

