158

Mg 1.88800 41.99400 26.08400
C  3.59800 42.49000 28.96900
C  -0.86000 41.13800 27.87100
C  0.43000 40.89400 23.32300
C  4.81500 42.76900 24.25300
N  1.48900 41.79100 28.21300
C  2.25000 42.17800 29.22800
C  1.56900 42.10000 30.58100
C  0.11300 41.47300 30.10800
C  0.21100 41.46900 28.62800
C  -0.28900 40.09000 30.87900
C  1.52100 43.48000 31.41000
C  1.97600 43.41900 32.86800
H  1.75900 42.15300 33.69600
N  -0.03000 41.26400 25.65100
C  -1.03700 41.08200 26.50400
C  -2.25400 40.63800 25.83800
C  -1.89500 40.59200 24.41000
C  -0.45500 40.91800 24.43900
C  -3.58100 40.32400 26.56000
C  -2.78200 40.28300 23.20200
O  -2.46300 40.31200 22.02600
C  -4.29000 40.13700 23.58700
N  2.55300 41.76000 24.16200
C  1.78500 41.20200 23.19600
C  2.50200 40.92400 21.92100
C  3.78900 41.78600 22.07500
C  3.71900 42.19900 23.57400
C  2.58000 39.45600 21.45900
C  3.75000 43.15600 21.32600
C  5.24000 43.75700 20.95000
N  3.82100 42.55400 26.44400
C  4.87100 42.92200 25.64300
C  5.94900 43.35700 26.42900
C  5.54000 43.10000 27.74600
C  4.19100 42.69400 27.74000
C  7.29500 43.73100 25.96000
C  6.05000 42.92000 29.07000
O  7.21900 42.88100 29.52500
C  4.70800 42.65600 29.97500
C  5.03500 41.40500 30.71500
O  4.97600 40.27300 30.22200
O  5.37300 41.64800 32.06400
C  5.70700 40.45800 32.88700
H  -1.77000 41.03100 28.46500
H  -0.10900 40.58700 22.42400
H  5.67200 43.07400 23.65000
H  2.19900 41.40400 31.13500
H  -0.54400 42.25100 30.49700
H  -0.69500 39.34400 30.19600
H  -1.13300 40.35500 31.51600
H  0.55600 39.77600 31.49200
H  0.54800 43.96200 31.50700
H  2.06300 44.20900 30.80900
H  1.53900 44.29200 33.35300
H  3.06100 43.52400 32.89600
H  -4.25600 41.11500 26.23300
H  -3.49300 40.25400 27.64500
H  -3.94800 39.31500 26.37300
H  -4.51900 39.07300 23.64600
H  -4.88500 40.49600 22.74700
H  -4.70000 40.70500 24.42200
H  1.93900 41.52500 21.20700
H  4.78300 41.34000 22.03100
H  3.59400 39.07600 21.58500
H  2.22400 39.44000 20.42900
H  2.09500 38.75200 22.13500
H  3.18800 43.79300 22.00900
H  3.13700 43.27400 20.43300
H  5.37100 43.75100 19.86800
H  6.08200 43.15700 21.29700
H  5.48700 44.71800 21.40000
H  7.21000 44.11300 24.94300
H  7.96800 42.87500 26.00100
H  7.71200 44.38800 26.72300
H  4.46900 43.53800 30.57000
H  5.69500 40.89500 33.88500
H  6.68000 39.98200 32.76400
H  5.03100 39.63000 32.67200
Mg -11.98000 16.47500 40.93200
C  -8.85200 15.08100 40.43300
C  -10.75100 19.58200 39.77100
C  -15.16600 17.74600 40.71400
C  -13.29900 13.42100 41.52200
N  -10.07100 17.16300 39.97600
C  -8.89000 16.43400 39.92300
C  -7.74900 17.38900 39.33600
C  -8.32100 18.78600 39.44900
C  -9.83700 18.53700 39.76300
C  -7.58900 19.72300 40.45800
C  -7.10100 16.93000 37.99100
C  -5.58500 17.02500 37.84300
H  -5.07300 16.88400 36.40100
N  -12.80800 18.41900 40.51200
C  -12.13400 19.52900 40.07400
C  -13.06500 20.64200 39.96600
C  -14.36900 20.15900 40.32200
C  -14.15000 18.71900 40.54100
C  -12.61400 22.08800 39.71300
C  -15.71000 20.98000 40.44700
O  -15.69100 22.19500 40.27500
C  -17.06100 20.43000 40.85700
N  -14.00600 15.64800 41.13100
C  -15.14300 16.40000 41.05800
C  -16.37900 15.49600 41.27500
C  -15.68300 14.12000 41.68200
C  -14.21800 14.38000 41.36900
C  -17.42900 15.96000 42.23900
C  -16.27500 12.97100 40.92800
C  -16.50800 11.66400 41.74500
N  -11.25900 14.66400 40.97600
C  -11.91200 13.51500 41.33400
C  -10.98700 12.38100 41.35500
C  -9.77300 13.00300 41.07800
C  -10.00700 14.38100 40.83500
C  -11.18200 10.88000 41.62900
C  -8.33100 12.73300 41.10400
O  -7.64800 11.70400 41.31700
C  -7.72700 14.11500 40.57300
C  -6.76600 14.63500 41.61200
O  -6.88100 15.64500 42.30600
O  -5.67800 13.71300 41.78000
C  -4.72400 13.84300 42.88900
H  -10.46800 20.59900 39.49300
H  -16.18700 18.12700 40.65000
H  -13.66200 12.40700 41.70500
H  -7.00700 17.33600 40.13200
H  -8.29300 19.36000 38.52200
H  -7.39000 20.61500 39.86400
H  -6.66500 19.22000 40.74400
H  -8.20300 19.80900 41.35500
H  -7.55900 17.51900 37.19800
H  -7.46600 15.95500 37.66600
H  -5.24200 16.15600 38.40600
H  -5.25900 17.95600 38.30600
H  -13.34900 22.62000 39.10800
H  -11.58400 22.24900 39.39500
H  -12.73200 22.46700 40.72800
H  -17.72100 21.29500 40.92100
H  -16.93100 19.86700 41.78100
H  -17.37500 19.81900 40.01100
H  -16.83800 15.29500 40.30700
H  -15.66500 13.96300 42.76100
H  -18.40800 15.89400 41.76300
H  -17.17800 17.00900 42.39300
H  -17.46600 15.29200 43.10000
H  -15.60200 12.68800 40.11900
H  -17.19100 13.25000 40.40700
H  -15.66300 11.02000 41.49900
H  -17.45000 11.14100 41.58500
H  -16.41200 11.88200 42.80900
H  -11.23800 10.39100 40.65700
H  -12.11700 10.73000 42.16800
H  -10.30700 10.52300 42.17300
H  -7.14500 13.97900 39.66100
H  -3.67000 13.72600 42.63700
H  -4.98300 13.12700 43.66800
H  -4.90500 14.83200 43.31100

