158

Mg 1.98200 -0.97000 44.17000
C  5.36000 -0.20100 43.53600
C  1.13200 1.90300 42.47400
C  -1.16300 -2.27900 43.98400
C  3.20700 -4.17000 45.36800
N  3.10600 0.54300 43.01000
C  4.47900 0.68600 43.01100
C  4.89400 2.04200 42.29800
C  3.52800 2.84700 42.39500
C  2.50300 1.72000 42.66600
C  3.52900 3.93300 43.42200
C  5.33700 1.75000 40.85600
C  6.35000 2.79700 40.34200
H  5.82800 3.68000 39.18400
N  0.23500 -0.29400 43.40700
C  0.08600 0.93900 42.77300
C  -1.34300 1.09400 42.47200
C  -2.04600 -0.05200 42.98500
C  -0.96400 -0.95600 43.45900
C  -1.96600 2.31400 41.70300
C  -3.57600 -0.27700 43.07100
O  -4.35200 0.56000 42.57500
C  -4.23900 -1.39700 43.80800
N  1.16200 -2.92600 44.62900
C  -0.24200 -3.15600 44.58100
C  -0.55200 -4.61300 45.09400
C  0.83700 -5.17400 45.51000
C  1.81500 -4.03900 45.10900
C  -1.68200 -4.75700 46.11300
C  1.25900 -6.54000 44.87300
C  2.26800 -7.37000 45.55800
N  3.84400 -1.98500 44.57900
C  4.14800 -3.25600 45.00400
C  5.55600 -3.34900 45.19000
C  6.06500 -2.23300 44.55700
C  5.01000 -1.42500 44.18600
C  6.28300 -4.45200 45.71600
C  7.29400 -1.59400 44.16800
O  8.49900 -1.97900 44.30400
C  6.92500 -0.21300 43.49400
C  7.68200 0.83600 44.23000
O  7.74100 0.94600 45.45500
O  8.25700 1.81100 43.39600
C  8.96600 2.91800 44.03200
H  0.77900 2.83700 42.03200
H  -2.15900 -2.72600 44.02300
H  3.54300 -5.12200 45.78400
H  5.69600 2.49100 42.88400
H  3.34700 3.37200 41.45700
H  4.25900 3.94100 44.23200
H  2.58300 3.91900 43.96300
H  3.64800 4.83000 42.81500
H  4.53900 1.58100 40.13200
H  5.83300 0.78300 40.77400
H  7.29400 2.30800 40.10100
H  6.59000 3.48400 41.15300
H  -1.20300 2.60700 40.98200
H  -1.98900 3.11100 42.44600
H  -2.92700 2.26000 41.19100
H  -5.25600 -1.10400 44.07000
H  -3.66600 -1.70000 44.68400
H  -4.10400 -2.30100 43.21500
H  -0.94500 -5.19700 44.26200
H  0.79500 -5.19200 46.59900
H  -2.15300 -5.71000 45.87100
H  -2.40800 -3.95700 45.96900
H  -1.23300 -4.78100 47.10600
H  1.78400 -6.15400 43.99900
H  0.43700 -7.07300 44.39500
H  2.05800 -8.43600 45.47000
H  2.30100 -7.13300 46.62100
H  3.22300 -7.13700 45.08700
H  5.60100 -4.99700 46.36900
H  7.20800 -4.19400 46.23100
H  6.64500 -5.19600 45.00500
H  7.28100 -0.20000 42.46400
H  10.01800 2.75200 43.80400
H  8.77900 3.06400 45.09600
H  8.70600 3.83300 43.50000
Mg 24.72500 -5.88100 45.41500
C  26.95600 -3.62700 43.90500
C  22.39200 -4.85400 43.03100
C  22.74800 -8.39100 46.23500
C  27.38600 -7.27300 47.12700
N  24.73400 -4.47000 43.64400
C  25.76500 -3.62500 43.23400
C  25.33800 -2.70900 42.11800
C  23.78000 -2.96100 42.03500
C  23.61200 -4.18700 42.93600
C  22.82700 -1.80600 42.46800
C  25.98200 -2.99200 40.77500
C  26.35100 -1.79300 39.81700
H  25.61300 -1.80400 38.51500
N  22.76900 -6.44600 44.85200
C  22.00000 -5.89900 43.89900
C  20.72700 -6.55300 43.89700
C  20.72200 -7.57900 44.88000
C  22.06000 -7.53600 45.42800
C  19.49300 -6.15400 43.01500
C  19.52400 -8.39200 45.20600
O  18.49600 -8.18200 44.58200
C  19.52600 -9.37500 46.28600
N  24.96900 -7.52100 46.64000
C  24.02400 -8.49800 46.70600
C  24.44500 -9.70600 47.49600
C  26.01900 -9.44200 47.67500
C  26.18300 -7.96900 47.11500
C  23.61800 -10.14300 48.71100
C  26.83700 -10.36400 46.72500
C  26.82900 -11.84300 47.05000
N  26.68500 -5.47600 45.62400
C  27.63600 -6.10100 46.46500
C  28.86100 -5.29000 46.38000
C  28.61600 -4.26300 45.45300
C  27.30800 -4.50700 44.97100
C  30.11800 -5.48400 47.15600
C  29.12400 -3.12600 44.78600
O  30.21900 -2.55100 44.84900
C  28.13100 -2.75100 43.61400
C  27.73200 -1.34500 43.59400
O  26.92300 -0.79600 44.29500
O  28.64300 -0.68200 42.86300
C  28.57000 0.72800 42.74000
H  21.58400 -4.43900 42.42500
H  22.15900 -9.27300 46.49500
H  28.27800 -7.68900 47.60000
H  25.29600 -1.66500 42.43000
H  23.40500 -3.01200 41.01300
H  22.06300 -2.27000 43.09300
H  22.28300 -1.41900 41.60600
H  23.42100 -1.05600 42.99000
H  25.34300 -3.61800 40.15300
H  26.82600 -3.65500 40.96500
H  27.42500 -1.97300 39.75900
H  26.15100 -0.82600 40.27700
H  19.24800 -6.85700 42.21900
H  19.71000 -5.24600 42.45200
H  18.69100 -6.00300 43.73800
H  20.00500 -8.92900 47.15800
H  20.13300 -10.21100 45.93800
H  18.53100 -9.81800 46.34900
H  24.25900 -10.46400 46.73500
H  26.34600 -9.56100 48.70800
H  24.20800 -10.46300 49.57100
H  22.95400 -10.94500 48.38800
H  22.95900 -9.32600 49.00400
H  27.88000 -10.05200 46.79400
H  26.51000 -10.33000 45.68600
H  26.40800 -12.36100 46.18800
H  26.21300 -11.96300 47.94100
H  27.83200 -12.17700 47.31500
H  29.85000 -5.24400 48.18500
H  30.95400 -4.83900 46.88700
H  30.47100 -6.51500 47.15600
H  28.61200 -2.96900 42.66000
H  27.60700 1.06000 42.35400
H  29.30700 1.16300 42.06300
H  28.53200 1.31000 43.66000

