158

Mg 0.10500 7.83900 27.02000
C  0.80900 9.90400 29.81800
C  0.57200 5.23400 28.83500
C  -0.04500 6.11400 24.18700
C  0.57600 10.82100 25.02500
N  0.48100 7.66600 29.04300
C  0.60000 8.55800 30.09500
C  0.55900 7.94300 31.46200
C  0.83500 6.42200 31.08200
C  0.66100 6.44000 29.51700
C  2.17900 5.76200 31.51200
C  -0.76600 8.33100 32.13300
C  -0.69200 8.76400 33.61900
H  0.53000 8.28200 34.46400
N  0.24500 5.86600 26.54800
C  0.32300 4.92300 27.51700
C  0.16800 3.59800 26.92800
C  0.09600 3.84700 25.50200
C  0.05100 5.33800 25.36000
C  0.44800 2.29700 27.67400
C  0.08100 2.89900 24.32600
O  -0.10100 3.20700 23.10400
C  0.26800 1.39700 24.62800
N  0.21000 8.36800 24.95300
C  0.04700 7.45500 23.93000
C  0.28100 8.07400 22.54500
C  0.13500 9.61700 22.81700
C  0.40000 9.58800 24.35100
C  1.62800 7.51000 22.04600
C  -1.26900 10.22900 22.48900
C  -1.23200 11.09000 21.28200
N  0.53600 10.00600 27.29900
C  0.68600 11.07100 26.41500
C  0.85600 12.28800 27.12700
C  0.87700 11.87700 28.46700
C  0.75300 10.50600 28.52000
C  1.13100 13.71500 26.42100
C  1.11800 12.41000 29.79200
O  1.33200 13.65400 30.10000
C  0.91000 11.17600 30.81700
C  2.02500 11.24000 31.76500
O  3.11000 10.67200 31.72000
O  1.57300 11.89800 32.90700
C  2.41600 11.77100 34.11400
H  0.77200 4.35700 29.45500
H  -0.09500 5.57500 23.23900
H  0.59900 11.68600 24.35800
H  1.32800 8.45800 32.03800
H  0.14700 5.81200 31.66800
H  2.73000 6.37400 32.22700
H  2.82700 5.45300 30.69200
H  1.98700 4.87800 32.12100
H  -1.44000 7.47400 32.10900
H  -1.19100 9.17300 31.58700
H  -1.56600 8.36500 34.13300
H  -0.70100 9.85200 33.68300
H  -0.20200 1.50400 27.30500
H  0.34900 2.39800 28.75400
H  1.48800 2.06800 27.43800
H  -0.72900 1.17100 25.00800
H  1.07100 1.24900 25.35000
H  0.38900 0.82200 23.71000
H  -0.44000 7.73500 21.80100
H  0.91500 10.23700 22.37600
H  1.95100 8.08200 21.17600
H  1.57800 6.46800 21.73100
H  2.34700 7.56300 22.86400
H  -1.61000 10.88500 23.29100
H  -2.02700 9.48600 22.23900
H  -0.37300 10.88900 20.64200
H  -1.11300 12.13900 21.55400
H  -2.11400 10.82900 20.69800
H  1.70500 13.47100 25.52700
H  1.78800 14.31600 27.05000
H  0.24000 14.26200 26.11500
H  -0.07400 11.24400 31.28000
H  3.28600 11.14900 33.90200
H  1.84000 11.30800 34.91400
H  2.87000 12.72600 34.38000
Mg 56.08900 24.03900 43.93100
C  53.57300 26.19400 42.67700
C  54.46300 21.36800 42.78400
C  59.01600 22.17800 44.33200
C  57.89900 26.87200 44.82300
N  54.28700 23.84700 42.75500
C  53.37400 24.84900 42.28800
C  52.38100 24.18300 41.35000
C  52.36000 22.74500 41.96100
C  53.79000 22.60800 42.60200
C  51.30200 22.44800 43.06100
C  52.77500 24.18400 39.82300
C  51.81600 25.03900 38.88000
H  51.42400 24.47100 37.55800
N  56.63700 22.00500 43.66800
C  55.77900 21.09400 43.27800
C  56.42900 19.77200 43.35100
C  57.76700 19.97600 43.70200
C  57.86100 21.46200 43.90600
C  55.65300 18.56000 42.89200
C  58.80900 18.83900 43.85100
O  58.55600 17.67200 43.53400
C  60.22600 19.17300 44.40800
N  58.11700 24.43200 44.67600
C  59.10900 23.47100 44.73800
C  60.45300 24.11200 45.07300
C  60.08700 25.64300 45.22400
C  58.57800 25.66500 44.95500
C  61.08000 23.44100 46.31100
C  60.84500 26.53200 44.22600
C  62.25900 26.83100 44.74900
N  55.77600 26.10000 43.95800
C  56.56500 27.12800 44.48200
C  55.81700 28.36000 44.35500
C  54.67500 27.98300 43.69800
C  54.65000 26.62800 43.51600
C  56.19500 29.71900 44.72800
C  53.50000 28.61600 43.07600
O  53.18000 29.77300 43.01400
C  52.83100 27.47800 42.28800
C  52.77900 27.80700 40.96200
O  53.74600 27.74700 40.21400
O  51.51500 28.19200 40.59500
C  51.48700 28.69600 39.19200
H  53.82500 20.52700 42.50400
H  59.90500 21.57200 44.51900
H  58.51500 27.72300 45.12100
H  51.48500 24.79900 41.42900
H  52.36700 21.91800 41.25100
H  51.51100 22.99700 43.97900
H  51.34700 21.38100 43.28200
H  50.29800 22.68800 42.71300
H  52.67200 23.16600 39.44700
H  53.81200 24.45500 39.62500
H  52.38500 25.96000 38.74900
H  50.93700 25.14500 39.51600
H  55.69000 18.60500 41.80400
H  54.61000 18.71000 43.17100
H  55.89600 17.66500 43.46600
H  60.79300 19.79000 43.71000
H  60.73600 18.24100 44.65100
H  60.06400 19.79000 45.29200
H  61.15700 23.91600 44.26500
H  60.20200 26.01800 46.24100
H  60.30500 22.91500 46.87000
H  61.43800 24.21500 46.98900
H  61.94700 22.84000 46.03600
H  60.40700 27.52900 44.18300
H  61.00400 26.04700 43.26200
H  62.54900 27.87500 44.85800
H  63.02100 26.43300 44.07900
H  62.36300 26.20600 45.63700
H  55.39100 30.36000 44.36600
H  57.14200 30.02900 44.28600
H  56.36200 29.74400 45.80500
H  51.85400 27.43700 42.77100
H  50.62700 28.29100 38.65700
H  52.33500 28.42500 38.56200
H  51.51400 29.78500 39.15600

