158

Mg 35.12900 2.50000 29.74700
C  32.76900 3.16600 32.07200
C  37.58900 2.73000 32.23900
C  37.37700 1.84900 27.32500
C  32.63300 2.74900 27.27700
N  35.10700 2.90800 31.89700
C  34.09000 3.09600 32.68500
C  34.40400 3.15300 34.16800
C  35.96400 3.31100 34.04200
C  36.26200 2.90500 32.64200
C  36.45000 4.74600 34.43600
C  34.04600 1.88600 34.94900
C  33.83200 2.07500 36.45800
H  34.25600 3.42400 37.02500
N  37.18700 2.18900 29.79600
C  38.04800 2.30400 30.89600
C  39.35900 1.97000 30.53500
C  39.32000 1.63900 29.07400
C  37.91200 1.84700 28.63700
C  40.51600 2.06000 31.39800
C  40.46200 1.18200 28.11900
O  40.20800 0.80500 26.96600
C  41.90700 1.23600 28.61400
N  35.07700 2.34400 27.62800
C  36.13300 2.08900 26.85100
C  35.82400 2.09400 25.35700
C  34.28000 2.39500 25.34800
C  33.95000 2.41400 26.84300
C  36.62000 3.11900 24.41600
C  33.40700 1.49700 24.38800
C  32.46200 0.46000 25.01300
N  32.99100 2.87600 29.65600
C  32.11700 2.97700 28.60800
C  30.86200 3.25200 29.13400
C  31.03300 3.40500 30.52000
C  32.36300 3.10500 30.78100
C  29.61000 3.44000 28.34500
C  30.36600 3.72800 31.81400
O  29.16900 4.05400 32.04900
C  31.54500 3.48300 32.90600
C  31.67100 4.70400 33.72700
O  32.15100 5.75900 33.30100
O  30.96800 4.54600 34.90800
C  31.05200 5.76500 35.64500
H  38.31300 2.72500 33.05600
H  38.07000 1.64900 26.50600
H  31.88300 2.75900 26.48500
H  33.94300 4.04500 34.59300
H  36.45900 2.61000 34.71400
H  37.08400 4.63100 35.31500
H  35.65100 5.43200 34.71800
H  37.13500 5.15900 33.69700
H  34.82900 1.14900 34.77200
H  33.23700 1.45500 34.35900
H  34.39600 1.29100 36.96300
H  32.77000 2.03300 36.70000
H  40.15900 2.41100 32.36600
H  41.17300 2.80400 30.94700
H  40.91000 1.05100 31.52000
H  42.51000 1.32400 27.71100
H  42.16300 0.34400 29.18600
H  42.01500 2.19600 29.12000
H  35.98200 1.09500 24.95300
H  34.15100 3.42700 25.02300
H  37.31100 3.63200 25.08400
H  35.93700 3.87200 24.02300
H  37.13100 2.80100 23.50600
H  34.02400 0.92300 23.69700
H  32.74800 2.21400 23.89900
H  32.34400 -0.38500 24.33500
H  31.47400 0.89500 25.17000
H  32.97500 -0.01000 25.85200
H  29.64800 2.90700 27.39500
H  29.62300 4.46900 27.98600
H  28.64900 3.20900 28.80500
H  31.24900 2.60200 33.47600
H  30.47800 6.61200 35.26700
H  32.08700 6.07400 35.79300
H  30.62900 5.59600 36.63500
Mg -6.36800 24.99700 25.96900
C  -4.45500 26.27200 28.68600
C  -7.72500 22.65400 28.16600
C  -7.30600 23.18300 23.34300
C  -4.47100 27.02100 23.90000
N  -5.95400 24.46600 28.12300
C  -5.29600 25.20800 29.08600
C  -5.71800 24.81700 30.50100
C  -6.52000 23.46800 30.21900
C  -6.75300 23.49300 28.73100
C  -5.88100 22.14700 30.83000
C  -6.71100 25.95000 31.06700
C  -6.50700 26.24800 32.57100
H  -5.76500 25.17800 33.38300
N  -7.51500 23.33400 25.77200
C  -8.11000 22.59200 26.79700
C  -8.91700 21.53200 26.21000
C  -8.70600 21.55100 24.80600
C  -7.84800 22.68200 24.58700
C  -9.86600 20.78100 27.06400
C  -9.30100 20.72600 23.68500
O  -9.12800 21.04600 22.49400
C  -9.94000 19.47500 24.05000
N  -5.94200 25.12000 23.89100
C  -6.43700 24.17600 23.03500
C  -5.96100 24.47800 21.58800
C  -5.28000 25.88700 21.77600
C  -5.26000 26.07900 23.26500
C  -4.94800 23.36800 21.12300
C  -6.13900 27.00600 21.08600
C  -5.62000 27.55500 19.76300
N  -4.85500 26.54500 26.20600
C  -4.24900 27.24000 25.22300
C  -3.32500 28.19100 25.80300
C  -3.42500 27.87900 27.19300
C  -4.37500 26.83000 27.32600
C  -2.35700 29.20800 25.17400
C  -2.97200 28.18800 28.54700
O  -2.12800 28.99900 28.95200
C  -3.64700 27.11700 29.56500
C  -2.54200 26.37800 30.24700
O  -1.51100 26.03600 29.67800
O  -2.73000 26.43200 31.59200
C  -1.57300 26.09500 32.40800
H  -8.18800 21.94300 28.85300
H  -7.37700 22.51500 22.48200
H  -4.05200 27.73100 23.18400
H  -4.88300 24.49700 31.12400
H  -7.47300 23.56600 30.74000
H  -5.91500 21.37700 30.05900
H  -6.39400 21.87200 31.75200
H  -4.82300 22.27700 31.05600
H  -7.72500 25.62900 30.82800
H  -6.55400 26.90300 30.56200
H  -7.49500 26.57700 32.89100
H  -5.82700 27.09500 32.66900
H  -10.86300 20.67700 26.63600
H  -9.93400 21.32700 28.00500
H  -9.40300 19.83500 27.34600
H  -10.79400 19.55600 24.72300
H  -9.17700 18.83700 24.49600
H  -10.36500 18.97200 23.18200
H  -6.72500 24.45000 20.81100
H  -4.25800 25.93100 21.40000
H  -3.95400 23.76300 20.91000
H  -5.36800 22.86800 20.25000
H  -4.83800 22.54800 21.83300
H  -6.28300 27.80400 21.81400
H  -7.13500 26.57600 20.98400
H  -6.33100 27.25300 18.99400
H  -4.59600 27.26000 19.53500
H  -5.75100 28.63700 19.77400
H  -2.23600 30.07100 25.82900
H  -2.72200 29.57700 24.21600
H  -1.42900 28.71800 24.88000
H  -4.20800 27.52300 30.40700
H  -1.96500 26.23200 33.41600
H  -0.67200 26.69000 32.26400
H  -1.39100 25.02100 32.40300

