158

Mg 47.06000 16.65900 28.21200
C  44.96500 16.22200 30.94200
C  49.09500 18.60500 30.32900
C  48.77200 17.66100 25.48500
C  44.61100 15.23000 26.22900
N  46.93200 17.44200 30.37100
C  46.09000 16.95800 31.27300
C  46.46600 17.41500 32.69400
C  47.66200 18.40700 32.43500
C  47.96600 18.18200 30.92800
C  47.64800 19.89300 32.81400
C  46.83800 16.21100 33.63900
C  46.22300 16.21700 34.92700
H  45.73800 17.60100 35.56800
N  48.79300 17.82400 27.99100
C  49.49000 18.51700 28.94600
C  50.58800 19.21000 28.30100
C  50.58200 18.83400 26.90100
C  49.35100 18.06400 26.76600
C  51.64200 19.88600 29.14500
C  51.59300 19.18200 25.82000
O  51.42900 18.89900 24.65600
C  52.90200 19.82700 26.14300
N  46.78200 16.43800 26.19000
C  47.60700 16.88500 25.23100
C  47.04600 16.70200 23.83500
C  45.85800 15.75700 24.12200
C  45.70800 15.76700 25.58400
C  46.52900 18.11100 23.26500
C  46.08100 14.31300 23.65200
C  44.86300 13.42700 23.35100
N  45.18100 15.76000 28.57600
C  44.30400 15.21600 27.63000
C  43.19600 14.59500 28.31300
C  43.43500 14.93000 29.69400
C  44.60900 15.76200 29.67800
C  42.07900 13.87300 27.75200
C  42.84600 14.92100 31.05300
O  41.81800 14.40600 31.45800
C  43.85800 15.81200 31.92800
C  43.06800 16.98600 32.43300
O  42.76800 17.94300 31.77300
O  42.67700 16.81100 33.74400
C  41.89200 17.89200 34.38700
H  49.70400 19.19600 31.01700
H  49.29200 17.92100 24.56000
H  43.79400 14.83500 25.62200
H  45.70900 18.07700 33.11500
H  48.57300 18.06000 32.92200
H  46.79300 20.31200 33.34500
H  47.82700 20.59400 31.99900
H  48.50200 19.95000 33.48900
H  47.90200 16.01600 33.78000
H  46.46800 15.32100 33.13000
H  46.91800 15.77000 35.63800
H  45.41100 15.49100 34.96700
H  52.67100 19.72800 28.82200
H  51.69600 19.60500 30.19700
H  51.47900 20.96400 29.15400
H  52.74100 20.76500 26.67400
H  53.37400 20.11000 25.20200
H  53.46800 19.08400 26.70600
H  47.80900 16.28300 23.17900
H  44.93800 16.10400 23.65100
H  46.33500 18.87400 24.01800
H  45.66500 17.84700 22.65400
H  47.29300 18.57800 22.64300
H  46.70900 13.77000 24.35900
H  46.69000 14.32200 22.74800
H  43.94800 13.74600 23.84800
H  45.15400 12.42400 23.66500
H  44.71400 13.39600 22.27100
H  41.50800 13.56000 28.62600
H  42.28700 13.08800 27.02400
H  41.39800 14.55500 27.24400
H  44.01900 15.20500 32.81900
H  42.24700 18.88500 34.11300
H  42.15200 17.75200 35.43700
H  40.80400 17.83800 34.35500
Mg 48.60500 44.93600 42.96200
C  45.16300 45.04400 42.10600
C  48.61100 41.59800 42.12700
C  51.98900 45.01400 43.36800
C  48.45400 48.40900 43.51200
N  47.10700 43.52100 41.95100
C  45.74600 43.81000 41.89900
C  44.94600 42.54500 41.58700
C  46.02400 41.47000 41.50300
C  47.34200 42.15700 42.00700
C  45.68800 40.20200 42.33200
C  44.11900 42.71300 40.22800
C  44.92700 43.42900 39.16700
H  44.87500 42.72400 37.72800
N  50.10300 43.53700 42.55000
C  49.86700 42.27200 42.30700
C  51.10100 41.52500 42.39400
C  52.15100 42.42200 42.67600
C  51.43700 43.73400 42.87500
C  51.23300 40.03000 42.11900
C  53.66800 42.17500 42.73700
O  53.96800 40.99300 42.54300
C  54.65100 43.20600 42.99800
N  50.12500 46.62100 42.96800
C  51.38400 46.31200 43.37200
C  52.08400 47.62100 43.82400
C  51.03200 48.65900 43.86800
C  49.77200 47.87100 43.45800
C  52.87400 47.44500 45.19200
C  51.18100 49.89500 42.84000
C  52.00600 51.09800 43.24200
N  47.18300 46.47600 42.89700
C  47.24500 47.78600 43.25900
C  45.95400 48.45400 43.15300
C  45.12700 47.42000 42.71400
C  45.85900 46.20800 42.63800
C  45.79200 49.94100 43.30100
C  43.77100 47.13400 42.22800
O  42.77500 47.85300 42.14700
C  43.70700 45.55500 41.85800
C  42.60600 44.87400 42.65600
O  41.71100 44.17700 42.27200
O  42.78500 45.24900 43.98500
C  41.80000 44.74100 44.91200
H  48.56900 40.51300 42.00900
H  53.02000 44.97900 43.72600
H  48.28400 49.48600 43.57000
H  44.21400 42.37100 42.37600
H  46.16800 41.09600 40.48900
H  44.61600 40.26500 42.51700
H  46.32000 40.19400 43.22000
H  45.92600 39.30600 41.75800
H  43.20000 43.24500 40.47200
H  43.83500 41.72200 39.87300
H  45.92800 43.67300 39.52400
H  44.47500 44.41600 39.06900
H  51.96300 39.79100 41.34600
H  50.32100 39.53600 41.78300
H  51.53200 39.56100 43.05600
H  54.59200 44.13100 42.42500
H  55.59900 42.71400 42.78300
H  54.82200 43.31300 44.06900
H  52.80300 47.79700 43.02400
H  50.96000 48.95700 44.91400
H  53.89600 47.66000 44.87800
H  52.65900 46.40100 45.41600
H  52.67200 48.21000 45.94200
H  50.17600 50.16300 42.51500
H  51.72000 49.45500 42.00000
H  52.89700 51.19500 42.62100
H  52.19300 51.01100 44.31200
H  51.31800 51.92500 43.06700
H  46.30400 50.43400 42.47400
H  46.16900 50.27300 44.26800
H  44.71300 50.06600 43.21100
H  43.40500 45.56000 40.81100
H  41.66100 43.66900 44.77600
H  40.83400 45.24700 44.89900
H  42.13300 44.93700 45.93100

