158

Mg 0.70700 7.87600 25.23100
C  1.55900 9.86600 28.17600
C  1.04800 5.07900 27.17700
C  0.00000 6.32000 22.56900
C  0.88000 10.97100 23.41200
N  1.14200 7.51200 27.44000
C  1.54100 8.51200 28.42800
C  1.71400 7.77300 29.82200
C  1.76700 6.24300 29.37200
C  1.36300 6.28500 27.89100
C  3.22900 5.56800 29.60100
C  0.39600 8.07400 30.74000
C  0.65800 8.46900 32.18000
H  1.80000 7.74700 32.88100
N  0.61600 5.99100 24.85300
C  0.70600 4.91600 25.77700
C  0.36000 3.73000 25.08000
C  0.04600 4.01900 23.71600
C  0.15200 5.52200 23.62200
C  0.28400 2.39800 25.92500
C  -0.24500 3.04100 22.57900
O  -0.44700 3.34900 21.44200
C  -0.02900 1.61600 22.84800
N  0.35300 8.56800 23.32400
C  0.06000 7.74200 22.36000
C  -0.37100 8.46800 21.05100
C  -0.19700 9.97700 21.42600
C  0.39600 9.83400 22.78700
C  0.42500 8.05600 19.76100
C  -1.61100 10.74300 21.45300
C  -1.71600 12.08900 20.79500
N  1.07200 10.02100 25.64100
C  1.08800 11.10000 24.77800
C  1.38800 12.32000 25.51500
C  1.52800 11.86900 26.86000
C  1.31700 10.43300 26.88200
C  1.42200 13.61100 24.86900
C  1.81700 12.25000 28.17300
O  2.02000 13.34500 28.62200
C  1.81800 11.01600 29.12000
C  3.16500 10.86600 29.62400
O  4.27200 10.90100 29.07500
O  2.97700 10.93900 30.97200
C  4.17900 11.19700 31.86400
H  0.92900 4.15100 27.73900
H  -0.34600 5.75200 21.70200
H  0.78100 11.87100 22.80200
H  2.68900 7.96300 30.27000
H  1.05000 5.54300 29.80100
H  3.84500 6.21100 30.23000
H  3.74700 5.27400 28.68800
H  3.05100 4.61900 30.10700
H  -0.33600 7.28100 30.58800
H  -0.05400 8.93300 30.24100
H  -0.28400 8.32200 32.70800
H  0.85000 9.53900 32.25700
H  1.04200 1.67600 25.62500
H  -0.63200 1.82400 25.78800
H  0.47400 2.62400 26.97400
H  -0.13300 1.14500 21.87000
H  -0.76200 1.28400 23.58300
H  1.00200 1.34600 23.07700
H  -1.38500 8.29900 20.68600
H  0.48500 10.53600 20.78500
H  1.09400 7.25200 20.06700
H  0.96300 8.90700 19.34400
H  -0.18300 7.66700 18.94500
H  -1.96900 10.87200 22.47500
H  -2.41400 10.13800 21.03200
H  -2.56300 12.13700 20.11100
H  -0.78000 12.13800 20.23900
H  -1.65900 12.97000 21.43400
H  1.17300 14.33200 25.64800
H  0.73600 13.71600 24.02800
H  2.45100 13.79700 24.56300
H  1.03800 11.21100 29.85600
H  4.59500 12.20400 31.83700
H  4.96600 10.47200 31.65700
H  3.85200 10.95200 32.87400
Mg 47.10900 33.79900 27.53400
C  45.33600 32.50200 30.09400
C  47.65600 36.69800 29.37300
C  48.24500 35.37600 24.74600
C  46.36100 31.03600 25.57000
N  46.53000 34.42300 29.52700
C  45.94600 33.73700 30.48900
C  46.11900 34.34400 31.90000
C  46.55900 35.83300 31.45200
C  47.00800 35.60600 30.03600
C  45.45000 36.95700 31.42000
C  47.27100 33.53600 32.71000
C  47.23800 33.70300 34.26400
H  46.31400 34.71400 34.93600
N  47.81400 35.74500 27.08900
C  48.10100 36.75800 28.02400
C  48.84000 37.81200 27.40700
C  48.88100 37.54200 25.99100
C  48.23100 36.17500 25.87500
C  49.27200 39.15500 28.12100
C  49.57700 38.30900 24.89200
O  49.61900 37.96900 23.73100
C  50.43900 39.50500 25.34400
N  47.22300 33.33100 25.45100
C  47.70400 34.11600 24.52700
C  47.96800 33.41200 23.18800
C  47.54000 31.91700 23.51400
C  46.93600 32.08900 24.94900
C  47.18200 34.01700 21.96500
C  48.68100 30.93400 23.61200
C  48.42400 29.50700 23.15100
N  46.11000 32.07100 27.78900
C  45.99400 30.98800 26.95300
C  45.28400 29.88500 27.67000
C  45.02700 30.47900 28.92700
C  45.51000 31.82000 28.90400
C  44.73100 28.52500 27.04100
C  44.35500 30.30400 30.17100
O  43.77800 29.26500 30.51500
C  44.36300 31.66200 30.84400
C  44.56500 31.51600 32.33900
O  45.39700 30.78800 32.85700
O  43.51700 32.03300 33.07200
C  43.38000 31.57200 34.46700
H  47.85600 37.55500 30.01800
H  48.82700 35.72300 23.88900
H  45.98300 30.22100 24.94900
H  45.18000 34.46000 32.44100
H  47.41800 36.14100 32.04900
H  45.17800 37.22600 30.39900
H  45.83900 37.84800 31.91300
H  44.53500 36.58800 31.88200
H  48.25000 33.77600 32.29700
H  47.13800 32.46700 32.53900
H  48.24700 33.88600 34.63300
H  47.09500 32.77100 34.81000
H  50.35400 39.21800 28.23600
H  48.81100 39.15400 29.10800
H  48.93000 40.01800 27.55000
H  51.21600 39.25000 26.06500
H  49.82000 40.33700 25.67700
H  50.81800 39.96400 24.43100
H  49.03700 33.44900 22.98000
H  46.80800 31.55800 22.79100
H  46.58800 34.86200 22.31400
H  46.64900 33.21600 21.45300
H  47.95200 34.49100 21.35600
H  48.91000 30.79400 24.66900
H  49.60400 31.26600 23.13700
H  47.36100 29.33100 22.98700
H  48.75000 28.85800 23.96400
H  49.02100 29.18900 22.29600
H  44.61700 28.67400 25.96700
H  43.84600 28.07400 27.49100
H  45.54600 27.80200 27.05500
H  43.45200 32.25500 30.75800
H  43.81700 30.60600 34.72000
H  42.31200 31.37300 34.55900
H  43.78000 32.35600 35.11000

