158

Mg 46.94900 24.56800 27.71200
C  47.58300 26.79300 30.33800
C  45.69200 22.31000 30.10300
C  46.41800 22.40600 25.28100
C  48.47300 26.73100 25.47700
N  46.55000 24.58400 29.98200
C  46.89600 25.62500 30.78700
C  46.59800 25.30100 32.25000
C  46.05900 23.83400 32.12800
C  46.11300 23.53400 30.64400
C  46.91800 22.74900 32.86200
C  45.64300 26.31800 32.91500
C  46.13700 26.99800 34.23400
H  45.28000 26.87800 35.52600
N  46.08600 22.66300 27.67600
C  45.59300 21.94500 28.72400
C  45.07200 20.71400 28.25300
C  45.27800 20.64000 26.86500
C  45.91300 21.93400 26.51900
C  44.35400 19.60600 29.19000
C  45.00200 19.49100 25.82900
O  45.32200 19.48200 24.69700
C  44.30600 18.21600 26.34200
N  47.58900 24.50000 25.71000
C  47.00800 23.58800 24.86100
C  47.47700 23.84600 23.41800
C  47.86800 25.32900 23.48800
C  47.99300 25.52400 24.95400
C  48.64100 22.87100 23.06200
C  46.85800 26.30400 22.86800
C  45.45600 26.39900 23.46100
N  47.87200 26.42600 27.80200
C  48.44600 27.19300 26.79400
C  49.10900 28.31100 27.43300
C  48.80400 28.17500 28.85600
C  48.00100 27.04900 28.97000
C  50.06800 29.30300 26.92700
C  48.98200 28.78500 30.09400
O  49.63800 29.80200 30.41100
C  48.19100 27.91800 31.11500
C  49.10500 27.43900 32.13800
O  49.94800 26.60500 31.91400
O  48.96100 28.11500 33.30700
C  50.03300 28.10400 34.32200
H  45.48200 21.58400 30.89100
H  46.00300 21.71600 24.54400
H  48.97900 27.40700 24.78600
H  47.56100 25.18500 32.74800
H  45.07100 23.77200 32.58400
H  46.35700 22.11400 33.54800
H  47.78500 23.15600 33.38200
H  47.36400 22.06600 32.13800
H  44.65100 25.87000 32.98600
H  45.47800 27.19100 32.28500
H  46.26500 28.06000 34.02000
H  47.09600 26.51400 34.41700
H  44.58600 19.72100 30.24800
H  44.56900 18.54900 29.03400
H  43.27000 19.70900 29.13100
H  44.87100 17.68800 27.11000
H  44.11800 17.47700 25.56300
H  43.41000 18.56900 26.85200
H  46.66500 23.81500 22.69100
H  48.80000 25.52800 22.95900
H  48.39200 21.81100 23.10700
H  49.56800 23.10400 23.58500
H  48.88300 23.12300 22.03000
H  46.77400 26.13400 21.79500
H  47.29300 27.28800 23.04600
H  45.40000 27.19800 24.20000
H  45.31300 25.44400 23.96600
H  44.71500 26.52400 22.67200
H  50.56700 29.74600 27.78800
H  49.55000 30.06400 26.34400
H  50.87100 28.92800 26.29300
H  47.45100 28.55800 31.59700
H  50.25900 27.07800 34.61400
H  49.56900 28.65700 35.13800
H  50.95600 28.58800 34.00500
Mg 0.14300 43.11400 26.58600
C  2.56400 42.85000 29.20900
C  -2.12500 41.79700 28.74600
C  -1.91600 43.01000 23.98200
C  2.93200 43.66800 24.37800
N  0.20800 42.40800 28.78800
C  1.24400 42.44700 29.64800
C  0.68000 42.49400 31.03400
C  -0.78800 41.77700 30.92600
C  -0.90000 41.95100 29.39000
C  -0.79900 40.26400 31.23400
C  0.70100 43.95300 31.63200
C  1.20600 44.03100 33.11100
H  0.88700 42.81500 34.04300
N  -1.75400 42.62400 26.44700
C  -2.57400 42.05600 27.42000
C  -3.84900 41.83100 26.88900
C  -3.86800 42.32200 25.54900
C  -2.41000 42.67600 25.27200
C  -4.93600 41.32600 27.80100
C  -5.10900 42.37600 24.55900
O  -4.96400 42.89400 23.47100
C  -6.49300 41.84600 24.95200
N  0.52400 43.04500 24.40700
C  -0.57000 43.23500 23.64800
C  -0.14900 43.86400 22.33200
C  1.30100 44.25800 22.49800
C  1.60300 43.63700 23.86200
C  -0.47000 42.90100 21.13400
C  1.55600 45.78600 22.41800
C  1.80800 46.39400 21.03800
N  2.25900 43.13100 26.68800
C  3.22400 43.33800 25.73700
C  4.58200 43.30000 26.37500
C  4.32600 43.12000 27.72500
C  2.94600 43.08100 27.84100
C  5.93200 43.30300 25.69300
C  4.98000 43.03700 29.05200
O  6.17800 43.10500 29.25400
C  3.84300 42.97800 30.05800
C  4.00400 41.83300 31.03400
O  3.97700 40.61200 30.72100
O  4.34800 42.26800 32.27100
C  4.36900 41.27700 33.32400
H  -2.92300 41.46800 29.41400
H  -2.68300 43.20000 23.22900
H  3.71900 43.91800 23.66300
H  1.38600 41.94000 31.65300
H  -1.54600 42.32000 31.49100
H  -1.06400 39.64100 30.38000
H  -1.49600 39.84800 31.96100
H  0.17800 39.95700 31.60700
H  -0.34600 44.24400 31.72700
H  1.28700 44.68400 31.07600
H  0.64200 44.81500 33.61600
H  2.26600 44.28100 33.08600
H  -5.29800 40.45900 27.24900
H  -5.77500 42.02000 27.85700
H  -4.69300 41.00500 28.81400
H  -7.22100 42.05200 24.16800
H  -6.73600 42.43200 25.83800
H  -6.36300 40.77800 25.12700
H  -0.76000 44.75000 22.16000
H  1.88600 43.74000 21.73800
H  0.39200 42.59900 20.54000
H  -1.25100 43.38800 20.55000
H  -0.90400 41.96000 21.47400
H  2.40700 46.07300 23.03700
H  0.77300 46.31000 22.96700
H  0.90000 46.83800 20.62800
H  2.25500 45.71700 20.31100
H  2.56100 47.13000 21.32100
H  6.12700 44.29200 25.27900
H  5.90300 42.47400 24.98600
H  6.70900 43.05500 26.41600
H  3.89100 43.76600 30.80900
H  5.31500 40.73700 33.34500
H  3.46000 40.67600 33.29800
H  4.26200 41.81900 34.26400

