158

Mg 40.66800 9.11000 29.61500
C  42.56100 10.31700 32.30900
C  38.41000 7.67800 31.80600
C  39.08600 7.98600 26.87300
C  43.27500 10.04900 27.48900
N  40.55800 8.95300 31.80900
C  41.41100 9.60800 32.73200
C  40.88300 9.42200 34.11100
C  39.51500 8.63700 33.94300
C  39.50000 8.36300 32.43000
C  39.22700 7.37900 34.81800
C  40.77200 10.76700 34.92000
C  39.47400 11.16700 35.72100
H  39.41700 12.05100 36.89600
N  39.04200 7.86900 29.36200
C  38.21000 7.40800 30.39400
C  37.12300 6.69000 29.80300
C  37.38100 6.72800 28.37700
C  38.49100 7.62200 28.13500
C  36.12400 5.93900 30.63500
C  36.56700 6.05000 27.25600
O  36.85500 6.04000 26.08500
C  35.44800 5.15100 27.56000
N  41.14500 8.97400 27.43000
C  40.25100 8.66500 26.49100
C  40.80500 8.72100 24.99900
C  42.24500 9.34800 25.26000
C  42.21900 9.55000 26.83000
C  40.81700 7.37700 24.22800
C  42.49900 10.70500 24.54700
C  41.75100 11.90700 25.08800
N  42.46000 10.05800 29.72800
C  43.43100 10.34800 28.82600
C  44.58900 10.92400 29.43900
C  44.29400 10.95500 30.78900
C  43.00300 10.41000 30.93600
C  45.82500 11.25500 28.65100
C  44.75900 11.28400 32.10200
O  45.79700 11.82000 32.43100
C  43.59700 11.00000 33.22000
C  44.25800 10.12800 34.15500
O  44.41000 8.90200 34.00800
O  44.70800 10.88000 35.13400
C  45.47800 10.33400 36.20100
H  37.61100 7.28800 32.43900
H  38.61200 7.61800 25.96000
H  44.21900 10.09200 26.94200
H  41.60100 8.74600 34.57600
H  38.68100 9.33800 33.90700
H  38.25300 7.38500 35.30900
H  40.06700 7.25400 35.50200
H  39.14800 6.55200 34.11200
H  40.92300 11.54900 34.17600
H  41.58900 10.93000 35.62300
H  39.08400 10.20700 36.05700
H  38.75600 11.58900 35.01800
H  35.95000 6.28700 31.65300
H  36.43400 4.90200 30.76800
H  35.23600 5.81900 30.01500
H  34.49200 5.59200 27.84300
H  35.72200 4.52900 28.41200
H  35.27700 4.35800 26.83200
H  40.07200 9.38500 24.54100
H  42.99600 8.60000 25.00700
H  40.02000 7.27200 23.49200
H  40.74200 6.63000 25.01800
H  41.74800 7.35100 23.66200
H  42.38000 10.69400 23.46300
H  43.55100 10.97800 24.63000
H  42.34100 12.62400 25.66000
H  40.91200 11.60700 25.71500
H  41.33300 12.47700 24.25800
H  46.22400 10.45000 28.03400
H  46.48900 11.55200 29.46300
H  45.62700 12.06100 27.94400
H  43.26000 11.97200 33.57900
H  46.14600 9.50900 35.95000
H  44.88100 9.85300 36.97500
H  46.12300 11.10300 36.62600
Mg 0.61000 43.50200 26.56600
C  2.98500 43.29400 29.13500
C  -1.72100 42.62100 28.81400
C  -1.52200 42.93400 23.99800
C  3.25300 43.91200 24.26900
N  0.64900 43.08200 28.83800
C  1.66400 43.07600 29.68100
C  1.20700 42.88800 31.16300
C  -0.34600 42.59600 30.97900
C  -0.45300 42.68300 29.43000
C  -0.87200 41.28100 31.52100
C  1.66200 44.07900 32.05300
C  1.94100 43.71500 33.51800
H  1.41800 42.39300 34.07300
N  -1.36100 43.12900 26.43300
C  -2.16000 42.69000 27.47800
C  -3.54000 42.51300 27.02300
C  -3.42700 42.58100 25.60500
C  -2.05000 42.86300 25.30900
C  -4.69200 42.03100 27.96700
C  -4.51600 42.31400 24.61800
O  -4.31600 42.35500 23.40300
C  -5.83700 41.98500 25.04400
N  0.77000 43.62700 24.43800
C  -0.25000 43.25000 23.57700
C  0.19000 43.52100 22.13600
C  1.65700 44.07200 22.25100
C  1.93600 43.82100 23.71000
C  0.18800 42.28100 21.24400
C  1.82600 45.54000 21.79900
C  1.55100 45.69400 20.26600
N  2.60600 43.60200 26.63800
C  3.58900 43.76900 25.64000
C  4.88800 43.64600 26.22200
C  4.66700 43.39500 27.56000
C  3.30200 43.50900 27.76300
C  6.16500 43.65400 25.42000
C  5.36200 43.04000 28.79100
O  6.54900 42.68300 28.99500
C  4.32700 43.24000 29.94400
C  4.50900 42.15100 30.96200
O  4.14200 41.03100 30.82400
O  5.15000 42.69100 32.04600
C  5.47400 41.65900 33.08900
H  -2.52600 42.38100 29.51200
H  -2.05900 42.88600 23.04900
H  4.13600 44.14000 23.66900
H  1.61700 41.93600 31.50000
H  -0.99600 43.40800 31.30500
H  -1.88300 41.43500 31.90100
H  -0.20200 41.05900 32.35200
H  -0.88100 40.46600 30.79700
H  0.91700 44.87100 31.97700
H  2.65400 44.36600 31.70500
H  1.76600 44.54100 34.20700
H  3.02100 43.63000 33.64300
H  -4.35500 42.32000 28.96300
H  -4.80600 40.94700 27.93700
H  -5.71100 42.40400 27.85900
H  -5.81500 41.04500 25.59700
H  -6.45000 41.88900 24.14800
H  -6.11900 42.79900 25.71100
H  -0.26600 44.37900 21.64300
H  2.36400 43.41000 21.75000
H  0.17700 41.39100 21.87200
H  0.93500 42.25100 20.45100
H  -0.82300 42.32000 20.83800
H  2.78500 45.94700 22.11800
H  1.01700 46.01700 22.35400
H  0.54200 45.98200 19.97100
H  1.75100 44.77000 19.72300
H  2.22200 46.46600 19.88800
H  6.11800 43.07500 24.49800
H  6.87900 43.12900 26.05500
H  6.46900 44.68800 25.25900
H  4.46100 44.25600 30.31700
H  6.27900 41.99700 33.74100
H  5.73100 40.73400 32.57300
H  4.65800 41.43900 33.77800

