158

Mg 46.24400 17.06200 28.61300
C  44.35300 16.51100 31.47300
C  48.21800 19.27800 30.51200
C  47.65700 18.19400 25.79500
C  43.92400 15.19700 26.80100
N  46.37500 17.66700 30.73500
C  45.63000 17.16200 31.74100
C  46.12200 17.53200 33.14000
C  47.24300 18.59400 32.76700
C  47.35000 18.44900 31.23000
C  46.88500 20.05500 33.28100
C  46.60600 16.24900 33.86000
C  46.92300 16.26300 35.36100
H  46.86100 17.55300 36.10200
N  47.59400 18.63400 28.21100
C  48.31900 19.40200 29.13200
C  49.16300 20.33800 28.38200
C  49.00200 20.01400 27.03900
C  47.96200 18.91100 26.99500
C  50.00400 21.45000 29.02100
C  49.68200 20.66300 25.77000
O  49.35600 20.41600 24.62900
C  50.68800 21.73000 25.98800
N  45.89600 16.78700 26.57600
C  46.70200 17.19000 25.59400
C  46.26600 16.70300 24.21200
C  45.07000 15.73300 24.57700
C  44.93300 15.92500 26.10800
C  45.79700 17.82200 23.28400
C  45.35500 14.31600 24.02800
C  44.55700 13.69700 22.82700
N  44.49900 15.97000 28.97400
C  43.60000 15.33700 28.18700
C  42.36300 14.97800 28.90200
C  42.68900 15.40500 30.20100
C  43.95400 16.00400 30.20700
C  41.13900 14.47300 28.26600
C  42.13300 15.56500 31.57400
O  41.04000 15.26500 32.04000
C  43.34100 15.99000 32.38900
C  42.83300 17.05500 33.31700
O  42.15100 18.03200 32.96300
O  43.19400 16.85800 34.61200
C  42.67300 17.90600 35.52200
H  48.79700 19.97300 31.12300
H  48.15700 18.49000 24.87100
H  43.22800 14.59000 26.21900
H  45.45300 18.09900 33.78800
H  48.11500 18.31000 33.35600
H  45.90100 20.26300 33.70300
H  46.90400 20.64500 32.36500
H  47.54100 20.40100 34.08000
H  47.45400 15.86400 33.29400
H  45.74800 15.59200 33.71400
H  47.95800 15.96400 35.52900
H  46.37300 15.50700 35.92100
H  49.58700 21.67000 30.00300
H  49.96600 22.37600 28.44800
H  51.01700 21.07200 29.16500
H  51.47700 21.60500 26.72900
H  49.99800 22.52300 26.27500
H  51.04100 22.12500 25.03500
H  47.18000 16.26600 23.81000
H  44.13400 16.05700 24.12200
H  44.74500 17.66500 23.04700
H  46.42500 17.72400 22.39900
H  45.85900 18.79200 23.77900
H  45.26300 13.61500 24.85800
H  46.42000 14.22500 23.81600
H  44.01100 12.83600 23.21300
H  45.31700 13.32400 22.14100
H  43.88900 14.42500 22.36700
H  41.27300 13.39800 28.14400
H  40.92100 14.86900 27.27400
H  40.39700 14.64200 29.04700
H  43.56700 15.14900 33.04600
H  41.60000 18.09100 35.58700
H  43.15500 18.80500 35.13900
H  42.88400 17.84400 36.59000
Mg -5.42000 24.68700 25.96300
C  -4.09400 26.08100 28.84100
C  -7.17500 22.41700 27.96400
C  -6.43900 23.21500 23.30500
C  -3.39100 26.77200 24.12300
N  -5.63600 24.42100 28.17700
C  -5.01600 25.13500 29.14900
C  -5.55600 24.78700 30.55900
C  -6.32000 23.41200 30.26300
C  -6.36500 23.36900 28.70000
C  -5.67700 22.10500 30.86300
C  -6.48200 25.81600 31.24300
C  -6.21200 26.12500 32.72800
H  -7.19400 25.41400 33.69100
N  -6.70300 23.20000 25.68200
C  -7.39100 22.43200 26.57400
C  -8.39400 21.72000 25.94200
C  -8.24000 21.92400 24.55400
C  -7.03500 22.79500 24.45700
C  -9.44100 20.93700 26.60600
C  -9.01200 21.35500 23.40000
O  -8.59200 21.40000 22.22400
C  -10.33600 20.54600 23.54000
N  -4.76500 24.79300 24.01400
C  -5.41900 24.10800 23.09500
C  -4.89700 24.48500 21.72400
C  -4.09100 25.72500 21.96800
C  -4.05500 25.79700 23.44300
C  -4.20800 23.37500 20.91600
C  -4.41900 27.05200 21.14300
C  -3.24000 27.85100 20.56400
N  -3.89100 26.10700 26.34200
C  -3.24900 26.99300 25.51900
C  -2.30500 27.86600 26.22900
C  -2.70000 27.57200 27.57700
C  -3.65500 26.51700 27.59200
C  -1.27300 28.87600 25.65700
C  -2.51800 28.07000 28.96400
O  -1.82800 28.98200 29.41100
C  -3.40600 27.13300 29.84300
C  -2.53800 26.49200 30.92800
O  -1.68400 25.64600 30.77100
O  -2.79800 27.18900 32.10200
C  -1.79600 26.91600 33.15800
H  -7.64500 21.65400 28.58700
H  -6.70800 22.65600 22.40600
H  -2.81400 27.43600 23.47700
H  -4.65200 24.53900 31.11500
H  -7.38700 23.55600 30.43400
H  -6.46400 21.52000 31.33900
H  -4.98900 22.39100 31.65900
H  -5.06900 21.51700 30.17600
H  -7.49600 25.42700 31.14500
H  -6.44600 26.74900 30.68000
H  -6.28700 27.19700 32.90900
H  -5.23000 25.73500 32.99800
H  -10.41900 21.14800 26.17400
H  -9.43300 21.10900 27.68300
H  -9.27900 19.87100 26.44100
H  -10.78900 20.37400 22.56300
H  -11.00600 21.28300 23.98200
H  -10.27000 19.62500 24.11800
H  -5.80500 24.68800 21.15500
H  -3.08200 25.41300 21.70000
H  -4.45700 22.40500 21.34700
H  -3.12500 23.49100 20.94700
H  -4.48200 23.41900 19.86100
H  -5.15300 27.71200 21.60400
H  -5.06100 26.59800 20.38900
H  -3.53900 27.97200 19.52200
H  -2.34000 27.23600 20.55600
H  -2.98700 28.82700 20.97800
H  -0.63400 29.18100 26.48600
H  -1.79000 29.80800 25.43100
H  -0.71200 28.44100 24.83000
H  -4.06300 27.80700 30.39200
H  -2.10900 26.08200 33.78500
H  -1.94900 27.77200 33.81600
H  -0.77400 26.78800 32.80100

