158

Mg 0.22900 7.77900 27.37900
C  1.08400 9.81700 30.13100
C  0.25800 5.12200 29.50700
C  -0.06000 5.80200 24.69800
C  0.79000 10.57600 25.32100
N  0.71400 7.58500 29.58700
C  0.94200 8.47300 30.49600
C  0.73100 7.99300 31.94000
C  0.71000 6.48200 31.77900
C  0.49100 6.37100 30.20300
C  1.99700 5.66200 32.20600
C  -0.66500 8.43700 32.45600
C  -0.81200 8.37600 33.96300
H  0.41500 8.01100 34.86500
N  -0.00100 5.69500 27.22100
C  -0.02300 4.80500 28.17300
C  -0.33600 3.53100 27.62500
C  -0.44000 3.69200 26.23600
C  -0.18800 5.12000 25.99100
C  -0.42200 2.36900 28.53100
C  -0.71700 2.66300 25.16400
O  -0.74300 2.97200 24.02800
C  -0.98400 1.22900 25.53000
N  0.24700 8.18800 25.43100
C  0.10000 7.21200 24.44900
C  0.13100 7.72900 22.98200
C  0.15400 9.31100 23.20400
C  0.47900 9.37700 24.71000
C  1.35200 7.18600 22.28400
C  -1.22800 10.08000 23.03100
C  -1.31600 10.91500 21.70200
N  0.80600 9.78800 27.62500
C  0.89400 10.83600 26.71500
C  1.26500 12.06600 27.38700
C  1.31300 11.66900 28.71100
C  1.00900 10.31100 28.85200
C  1.38900 13.47800 26.79100
C  1.65400 12.21300 30.00200
O  2.13500 13.31600 30.30400
C  1.16000 11.05800 31.00600
C  2.09500 10.95600 32.21600
O  3.07600 10.23700 32.26700
O  1.77100 11.92400 33.18000
C  2.86800 12.25200 34.13100
H  0.26500 4.27100 30.19100
H  -0.37800 5.27800 23.79400
H  0.97400 11.45400 24.69800
H  1.58100 8.24100 32.57500
H  -0.12100 5.94000 32.22900
H  1.82200 4.62600 31.91500
H  2.30900 5.86300 33.23100
H  2.82300 5.93500 31.54900
H  -1.42400 7.76500 32.05400
H  -0.67700 9.47000 32.10700
H  -1.66600 7.75800 34.24200
H  -1.12500 9.35200 34.33400
H  -0.75600 2.65600 29.52800
H  0.50400 1.82800 28.72100
H  -1.11200 1.56400 28.27700
H  -1.87400 1.18400 26.15700
H  -0.21800 0.89000 26.22800
H  -1.04400 0.61200 24.63400
H  -0.73600 7.38500 22.41800
H  0.92400 9.78900 22.59700
H  1.05900 6.42600 21.55900
H  2.08700 6.77800 22.97700
H  1.84400 8.02000 21.78200
H  -1.44700 10.76200 23.85300
H  -2.06100 9.37700 23.06600
H  -0.63500 10.38300 21.03700
H  -0.93100 11.92000 21.87200
H  -2.32100 10.98000 21.28600
H  1.78300 13.33900 25.78400
H  2.18300 13.92700 27.38800
H  0.43800 14.00200 26.88600
H  0.13300 11.34100 31.23700
H  3.75900 12.46600 33.54100
H  3.01400 11.30200 34.64600
H  2.72400 13.15600 34.72200
Mg 48.98700 25.12800 28.22100
C  49.96400 27.30100 30.78700
C  48.05500 22.80800 30.59200
C  48.19300 22.93100 25.71200
C  50.54700 27.17200 25.94500
N  48.86900 25.13500 30.38800
C  49.22900 26.16900 31.27600
C  48.74600 25.85900 32.72200
C  48.56500 24.38300 32.59900
C  48.49000 24.02300 31.07500
C  49.40600 23.47000 33.56800
C  47.45300 26.73400 33.00700
C  47.70000 27.89000 33.96100
H  46.78200 27.92200 35.13000
N  48.21200 23.07800 28.20500
C  47.91600 22.33400 29.29200
C  47.41800 21.04700 28.88100
C  47.30700 21.08300 27.42300
C  47.92600 22.35800 27.05700
C  46.97100 19.85900 29.80300
C  46.61700 20.07600 26.49700
O  46.63000 20.17000 25.27300
C  45.70300 18.86400 27.01600
N  49.40600 25.03900 26.15200
C  48.80000 24.15100 25.32900
C  49.13600 24.50100 23.85800
C  49.82700 25.92700 23.93200
C  49.92800 26.10300 25.37400
C  50.10400 23.50300 23.03600
C  49.10400 27.00100 23.19900
C  49.82800 28.28400 22.65600
N  50.02000 26.86500 28.26800
C  50.59300 27.61800 27.27000
C  51.21800 28.81800 27.73700
C  51.04100 28.75900 29.13000
C  50.29500 27.54800 29.42000
C  52.05500 29.77300 26.95500
C  51.21800 29.45300 30.45600
O  51.71400 30.57500 30.71100
C  50.44000 28.53100 31.52600
C  51.38600 28.16700 32.61400
O  52.13900 27.22500 32.63400
O  51.36800 29.08000 33.61000
C  51.89800 28.75800 35.00000
H  47.84700 22.02800 31.32600
H  48.03600 22.30300 24.83300
H  51.09300 27.67700 25.14600
H  49.54300 26.17500 33.39600
H  47.57400 24.14000 32.98300
H  50.13400 24.10000 34.08000
H  49.95800 22.78700 32.92200
H  48.72500 23.08300 34.32600
H  46.62400 26.07700 33.27200
H  47.22700 27.12600 32.01500
H  47.81100 28.88800 33.53700
H  48.64400 27.78000 34.49500
H  45.92500 19.58100 29.67300
H  47.12000 20.18200 30.83300
H  47.68600 19.04000 29.73200
H  46.19700 18.17600 27.70200
H  45.31700 18.28100 26.18000
H  44.85600 19.20600 27.61100
H  48.24800 24.45200 23.22600
H  50.88000 25.78400 23.68700
H  49.51100 22.73500 22.53900
H  50.79700 22.94600 23.66600
H  50.73700 23.97900 22.28700
H  48.32400 27.36100 23.87000
H  48.53900 26.57000 22.37300
H  49.40100 29.06700 23.28200
H  49.48300 28.39800 21.62800
H  50.91700 28.31200 22.71100
H  52.58000 29.10900 26.26800
H  52.62100 30.32700 27.70400
H  51.40300 30.43100 26.38100
H  49.55500 29.07700 31.85400
H  52.96000 28.99200 34.92500
H  51.65800 27.70900 35.17500
H  51.40500 29.38700 35.74100

