158

Mg 1.04700 7.87100 26.14400
C  1.77500 9.77900 28.88700
C  1.34000 5.02300 28.12800
C  0.44100 5.94200 23.37900
C  1.53300 10.61800 23.96400
N  1.39600 7.53000 28.25500
C  1.61400 8.41800 29.24400
C  1.75800 7.79900 30.62400
C  2.02200 6.30400 30.26700
C  1.57900 6.27700 28.78200
C  3.38300 5.63500 30.68200
C  0.44200 8.06800 31.42700
C  0.61000 8.18200 32.91900
H  1.68300 7.40800 33.65500
N  0.75200 5.78300 25.82800
C  0.91600 4.79500 26.76600
C  0.52600 3.55800 26.17300
C  0.25900 3.76800 24.74000
C  0.49200 5.23300 24.63300
C  0.46800 2.27200 27.00800
C  -0.16800 2.73800 23.65200
O  -0.50900 3.12600 22.54800
C  -0.21600 1.29000 23.91400
N  0.92100 8.23600 23.94600
C  0.65900 7.25700 23.02500
C  0.59300 7.87000 21.61800
C  0.63100 9.37200 21.89800
C  1.00000 9.48600 23.37600
C  1.79500 7.45900 20.70400
C  -0.68300 10.13300 21.57800
C  -1.03700 10.47000 20.15400
N  1.57300 9.79400 26.34000
C  1.80200 10.78300 25.30300
C  1.89700 12.04600 26.09900
C  1.96300 11.76400 27.43500
C  1.77100 10.34800 27.58900
C  1.96300 13.47000 25.57400
C  2.11300 12.30400 28.77100
O  2.25100 13.44200 29.21000
C  1.98300 11.02500 29.76500
C  3.10900 10.92200 30.82500
O  4.22900 10.42500 30.78500
O  2.62200 11.57200 31.92300
C  3.46800 11.57200 33.12500
H  1.32900 4.15700 28.79400
H  0.13800 5.39700 22.48200
H  1.52500 11.49100 23.30900
H  2.61700 8.28800 31.08200
H  1.30600 5.78100 30.90100
H  4.09700 5.47000 29.87600
H  3.10300 4.69900 31.16600
H  3.91900 6.26000 31.39600
H  -0.30100 7.37800 31.02700
H  0.02400 9.02900 31.12700
H  -0.37000 8.10600 33.39100
H  0.78400 9.23500 33.14000
H  -0.02500 1.44400 26.49900
H  -0.20400 2.40500 27.85600
H  1.39900 2.00100 27.50600
H  -0.98300 1.09800 24.66400
H  0.69700 0.87600 24.34300
H  -0.52400 0.75900 23.01300
H  -0.35900 7.55000 21.19600
H  1.43700 9.93700 21.42900
H  2.19100 6.49700 21.02800
H  2.61700 8.17100 20.78300
H  1.50200 7.55700 19.65900
H  -0.65100 11.02800 22.20000
H  -1.53300 9.61000 22.01500
H  -0.14500 10.20900 19.58500
H  -1.12600 11.55000 20.03300
H  -1.87400 9.89500 19.75800
H  1.55500 14.12700 26.34200
H  1.31100 13.39300 24.70400
H  2.97000 13.71600 25.23500
H  1.03200 11.27400 30.23600
H  4.45400 12.01700 32.99300
H  3.55600 10.53400 33.44400
H  2.90900 12.19700 33.82100
Mg 16.55900 -3.15100 27.65000
C  16.01500 -0.84300 30.31200
C  18.34800 -5.08400 29.79800
C  17.79700 -4.97000 24.93400
C  15.05900 -0.87900 25.47500
N  17.27900 -2.85700 29.79100
C  16.77100 -1.95200 30.71300
C  17.40700 -2.20100 32.09800
C  18.25600 -3.51900 31.88700
C  17.88100 -3.89000 30.40400
C  19.80200 -3.38800 32.12600
C  16.34900 -2.39000 33.16600
C  16.79100 -2.16200 34.55700
H  18.12500 -1.49800 34.96100
N  17.71000 -4.96800 27.43600
C  18.36300 -5.57100 28.44900
C  19.00400 -6.78800 27.90500
C  18.93300 -6.73800 26.48700
C  18.09100 -5.55200 26.24900
C  19.70200 -7.84800 28.74000
C  19.43100 -7.71900 25.36500
O  19.18300 -7.52600 24.21700
C  20.29600 -8.99300 25.65500
N  16.60300 -2.84000 25.52500
C  17.18400 -3.74000 24.64900
C  16.86300 -3.35300 23.17400
C  15.88700 -2.03200 23.39200
C  15.80800 -1.90300 24.92900
C  18.16000 -3.06500 22.36100
C  14.49900 -2.11700 22.64100
C  14.08000 -0.94200 21.72500
N  15.61700 -1.28500 27.81200
C  15.01900 -0.50600 26.84300
C  14.52800 0.65400 27.47700
C  14.88600 0.58800 28.82900
C  15.54800 -0.65200 28.99200
C  13.77400 1.64900 26.85300
C  14.74800 1.30700 30.10400
O  14.36000 2.40600 30.44300
C  15.47200 0.35400 31.14300
C  16.52300 1.08200 31.92900
O  17.68300 1.26300 31.58200
O  15.92100 1.44600 33.09900
C  16.78300 2.29400 33.99200
H  18.90600 -5.62500 30.56400
H  18.16500 -5.41700 24.00800
H  14.58900 -0.12400 24.84100
H  18.10500 -1.41900 32.39800
H  17.80700 -4.27400 32.53200
H  20.42100 -3.21900 31.24500
H  20.19200 -4.33900 32.48800
H  20.00700 -2.67600 32.92600
H  15.92200 -3.38900 33.08800
H  15.55800 -1.65900 33.00000
H  16.62800 -3.06300 35.14900
H  16.06700 -1.44200 34.93900
H  19.67500 -7.44500 29.75300
H  20.72000 -8.02100 28.39200
H  19.24000 -8.83300 28.67600
H  19.93200 -9.60600 26.48000
H  21.29800 -8.60000 25.82600
H  20.51500 -9.54900 24.74300
H  16.13200 -4.00300 22.69300
H  16.52000 -1.19300 23.10200
H  19.02200 -3.52900 22.84100
H  18.36500 -2.03300 22.07500
H  18.08500 -3.56000 21.39300
H  13.69900 -2.30100 23.35800
H  14.54800 -2.96300 21.95500
H  13.82700 -1.38700 20.76300
H  14.83800 -0.17500 21.56600
H  13.12900 -0.54600 22.08100
H  12.83400 1.17500 26.57000
H  14.31000 2.15200 26.04800
H  13.52100 2.41000 27.59200
H  14.79400 -0.00600 31.91700
H  16.19500 3.09100 34.44700
H  17.59100 2.80800 33.47100
H  17.20300 1.70000 34.80400

