158

Mg -1.69300 16.89800 25.82100
C  -2.10100 14.40400 28.34400
C  -2.24800 19.31400 28.18900
C  -1.71700 19.17800 23.30800
C  -1.80400 14.28000 23.50400
N  -2.09500 16.76700 28.09700
C  -2.25300 15.71800 28.92400
C  -2.60600 16.15200 30.33300
C  -2.78200 17.70400 30.17900
C  -2.28400 17.97200 28.77500
C  -4.13600 18.37500 30.63400
C  -1.52600 15.66800 31.43100
C  -1.30100 16.71200 32.55600
H  -1.03200 16.14400 33.99500
N  -1.90100 18.98300 25.78700
C  -2.13300 19.80000 26.85800
C  -2.08500 21.15400 26.39300
C  -1.95500 21.10700 24.97900
C  -1.81100 19.68700 24.63100
C  -2.29900 22.30800 27.35700
C  -1.91100 22.32400 23.97800
O  -1.65700 22.20400 22.81800
C  -2.07900 23.68500 24.48600
N  -1.81000 16.71400 23.73900
C  -1.67900 17.79500 22.90300
C  -1.72600 17.34700 21.40200
C  -1.88300 15.82500 21.52100
C  -1.79300 15.57000 22.99600
C  -2.66600 18.17400 20.49600
C  -0.98000 14.92500 20.54000
C  -1.80400 13.94100 19.65100
N  -1.79500 14.73000 25.90600
C  -1.84900 13.81600 24.84800
C  -2.03200 12.55700 25.37000
C  -2.04000 12.68100 26.75700
C  -1.96500 14.04900 27.00400
C  -2.17000 11.31300 24.54800
C  -2.07500 11.98300 28.01200
O  -2.06100 10.79100 28.27100
C  -2.23000 13.10800 29.12300
C  -1.27600 12.78600 30.15600
O  -0.08600 13.12200 30.16700
O  -1.88400 12.06800 31.15900
C  -1.02200 11.73500 32.29800
H  -2.41800 19.97200 29.04400
H  -1.66100 19.91000 22.50000
H  -1.82800 13.46200 22.78200
H  -3.58500 15.69400 30.47300
H  -2.06200 18.21700 30.81700
H  -4.88100 17.66000 30.98300
H  -4.60200 19.04200 29.90800
H  -3.84700 19.08800 31.40600
H  -0.52700 15.53400 31.01600
H  -1.62500 14.70900 31.93900
H  -2.20800 17.31000 32.64000
H  -0.52000 17.45000 32.36900
H  -3.32400 22.66000 27.24500
H  -1.71100 23.18100 27.07400
H  -2.11000 22.10900 28.41200
H  -2.97500 23.69300 25.10600
H  -2.25000 24.34000 23.63100
H  -1.20600 24.08000 25.00500
H  -0.70600 17.62100 21.13400
H  -2.90500 15.58000 21.23100
H  -3.42500 18.65000 21.11800
H  -3.14300 17.57700 19.72000
H  -2.02200 18.88600 19.97900
H  -0.08700 14.46800 20.96500
H  -0.60900 15.62800 19.79400
H  -1.65500 12.92900 20.02800
H  -1.49600 13.92200 18.60500
H  -2.86100 14.16200 19.50600
H  -1.27600 11.17300 23.94100
H  -3.10300 11.47200 24.00600
H  -2.32000 10.43300 25.17300
H  -3.23400 13.07700 29.54700
H  -1.15100 12.44200 33.11800
H  0.02500 11.56300 32.05000
H  -1.39500 10.80200 32.72200
Mg 36.35400 48.85300 25.05900
C  36.72500 47.05700 28.15800
C  35.14200 51.61500 26.74500
C  35.62700 50.24000 22.07900
C  37.65500 46.01700 23.49600
N  35.97200 49.24100 27.12500
C  36.26400 48.41700 28.27800
C  36.05100 49.18200 29.58900
C  35.20100 50.41400 29.12700
C  35.54500 50.46900 27.56500
C  33.67500 50.33300 29.54800
C  37.38200 49.37000 30.53200
C  37.22100 48.84300 31.97000
H  35.94500 49.18200 32.74700
N  35.59100 50.66500 24.53700
C  35.24900 51.64500 25.37900
C  34.93600 52.86000 24.58100
C  34.93700 52.46400 23.18100
C  35.38600 51.06900 23.20100
C  34.76100 54.22600 25.29800
C  34.66700 53.34000 21.91300
O  34.67500 52.83100 20.75000
C  34.13200 54.73600 22.08700
N  36.53400 48.13900 23.11900
C  36.16000 48.94700 22.03000
C  36.55300 48.36500 20.70500
C  37.56200 47.16500 21.12800
C  37.25200 47.05500 22.65300
C  35.44300 47.96000 19.70800
C  39.03600 47.39000 20.73100
C  39.90500 46.22600 20.34200
N  36.97700 46.90300 25.61100
C  37.47900 45.87200 24.85400
C  37.70700 44.74800 25.66100
C  37.45400 45.19200 26.98000
C  37.04000 46.48300 26.87500
C  38.13100 43.33700 25.11300
C  37.41400 44.75500 28.33800
O  37.68400 43.69400 28.81900
C  37.01800 46.00900 29.20000
C  35.93600 45.69300 30.15500
O  34.71800 45.68300 29.96600
O  36.39800 45.33100 31.37200
C  35.46700 45.15800 32.52300
H  34.64800 52.37200 27.35800
H  35.48000 50.71100 21.10500
H  37.97300 45.17600 22.87600
H  35.37100 48.43800 30.00400
H  35.62300 51.34000 29.51600
H  33.08500 50.30300 28.63200
H  33.27600 51.27300 29.93000
H  33.39900 49.57100 30.27700
H  37.80100 50.37600 30.50100
H  38.11300 48.74400 30.02100
H  38.09400 49.27400 32.46000
H  37.63900 47.84300 32.08500
H  35.44600 54.92500 24.81800
H  35.12200 54.13500 26.32200
H  33.73600 54.58200 25.18900
H  34.94800 55.35800 22.45300
H  33.30300 54.75800 22.79400
H  33.85200 55.33900 21.22300
H  37.09100 49.18700 20.23200
H  37.19200 46.20400 20.77100
H  35.47700 46.97300 19.24700
H  35.51100 48.68200 18.89500
H  34.43000 47.93900 20.11100
H  39.55000 47.70200 21.64000
H  39.07500 48.16100 19.96200
H  40.28700 45.71800 21.22700
H  40.69000 46.81900 19.87500
H  39.39700 45.59900 19.60900
H  38.04500 43.27500 24.02800
H  37.67300 42.48100 25.60800
H  39.18800 43.37800 25.37600
H  37.91900 46.24700 29.76700
H  35.67900 44.16300 32.91300
H  34.39200 45.21200 32.34600
H  35.80900 45.90000 33.24400

