158

Mg 35.16500 3.28200 30.41500
C  32.76500 4.17400 32.74100
C  37.52600 3.15400 33.09000
C  37.75200 2.94400 28.34200
C  32.99300 3.72700 27.84800
N  35.16500 3.65500 32.66900
C  34.00600 3.96200 33.34800
C  34.27100 3.83100 34.87600
C  35.83200 3.75000 34.98300
C  36.20200 3.49400 33.49500
C  36.58900 5.05000 35.49100
C  33.53700 2.57500 35.50500
C  32.94300 2.74100 36.87000
H  33.51900 3.74500 37.90600
N  37.21800 2.77100 30.69700
C  38.01800 2.79600 31.81100
C  39.40900 2.44800 31.47300
C  39.49600 2.33000 30.04600
C  38.13300 2.67500 29.65000
C  40.48200 2.33600 32.49500
C  40.68200 1.98100 29.12100
O  40.64200 1.94400 27.87600
C  42.05600 1.76900 29.63200
N  35.35000 3.14500 28.39400
C  36.52200 3.17800 27.72400
C  36.28000 3.24200 26.16800
C  34.65600 3.08500 26.08600
C  34.29000 3.26400 27.53200
C  36.74600 4.56600 25.62200
C  34.16800 1.81100 25.45500
C  32.91800 1.88300 24.63600
N  33.26100 3.81700 30.30300
C  32.46700 3.94700 29.16700
C  31.16000 4.34500 29.57300
C  31.20000 4.38700 31.00800
C  32.52000 4.12800 31.41400
C  30.06900 4.54100 28.60900
C  30.47900 4.70300 32.19800
O  29.33000 5.06800 32.24600
C  31.40100 4.45400 33.40100
C  31.42500 5.71900 34.25400
O  31.93000 6.80200 33.94700
O  30.73900 5.48800 35.43200
C  30.81100 6.63700 36.36200
H  38.33500 3.17400 33.82300
H  38.54600 2.92000 27.59200
H  32.37500 3.74400 26.94800
H  33.83800 4.68100 35.40400
H  36.23900 2.95200 35.60400
H  35.88200 5.75400 35.93000
H  37.03400 5.58500 34.65200
H  37.24300 4.73300 36.30400
H  34.24500 1.74600 35.50400
H  32.67400 2.30600 34.89700
H  33.09900 1.79200 37.38300
H  31.87200 2.92900 36.78600
H  41.21700 1.54600 32.34100
H  40.00100 1.90700 33.37400
H  40.91500 3.31000 32.72400
H  42.24200 2.57500 30.34100
H  42.87600 1.67600 28.91900
H  41.94900 0.84700 30.20300
H  36.86400 2.38000 25.84700
H  34.30600 3.80800 25.34800
H  37.19600 5.24700 26.34500
H  35.92300 5.10600 25.15300
H  37.47500 4.41100 24.82700
H  34.03400 1.03400 26.20800
H  34.89800 1.38400 24.76800
H  32.12200 1.28500 25.08100
H  33.19800 1.64600 23.60900
H  32.49500 2.88800 24.64500
H  29.63100 3.54300 28.59600
H  30.40500 4.84700 27.61800
H  29.35800 5.26400 29.00900
H  31.11100 3.57400 33.97600
H  30.64400 7.55700 35.80200
H  31.83000 6.66400 36.74700
H  30.06600 6.36900 37.11200
Mg 47.07400 25.63400 28.90400
C  47.84400 27.80400 31.44300
C  46.37500 23.22500 31.34700
C  46.59600 23.41600 26.43900
C  48.44700 27.82000 26.64600
N  47.20500 25.53100 31.16700
C  47.33800 26.64400 31.99300
C  47.06300 26.24900 33.51500
C  46.77700 24.69200 33.36100
C  46.77900 24.48000 31.85300
C  47.82800 23.74300 34.04900
C  45.94300 27.13200 34.14900
C  46.24000 27.56300 35.59900
H  45.14000 27.64100 36.67900
N  46.44300 23.67300 28.87900
C  46.22400 22.84600 29.92200
C  45.71500 21.56800 29.41100
C  45.94000 21.62300 28.02400
C  46.34100 22.95600 27.72400
C  45.17700 20.42700 30.26700
C  45.66300 20.51200 26.96700
O  45.93200 20.61400 25.79500
C  45.19300 19.17500 27.49100
N  47.39900 25.63800 26.75000
C  47.07400 24.60200 25.89300
C  47.27300 24.85400 24.42400
C  47.81000 26.35300 24.48000
C  47.83300 26.69100 26.01500
C  48.28100 23.84300 23.73200
C  46.97800 27.51600 23.76600
C  47.85700 28.20600 22.62100
N  47.98100 27.40900 28.99300
C  48.60300 28.12500 27.98900
C  49.24100 29.29600 28.48400
C  48.96100 29.22100 29.84600
C  48.21800 28.02600 30.12100
C  49.92000 30.42200 27.71800
C  48.94600 30.00700 31.07900
O  49.20600 31.20200 31.33300
C  48.34300 29.01000 32.18000
C  49.34600 28.70300 33.24000
O  50.25100 27.88400 33.07700
O  49.14800 29.49800 34.35300
C  49.90300 29.25600 35.59700
H  45.99100 22.48600 32.05300
H  46.37100 22.71400 25.63400
H  48.96000 28.49400 25.95700
H  48.01200 26.31000 34.04700
H  45.79800 24.42600 33.75900
H  48.46700 23.23600 33.32600
H  47.25200 22.91200 34.45500
H  48.36500 24.19800 34.88200
H  45.02500 26.55100 34.05800
H  45.79500 28.03900 33.56200
H  46.62600 28.58300 35.58500
H  47.05800 26.88600 35.84400
H  44.08900 20.40700 30.32700
H  45.47800 20.59800 31.30000
H  45.73700 19.50000 30.14000
H  46.01000 18.81100 28.11400
H  44.95900 18.51200 26.65800
H  44.35100 19.39500 28.14700
H  46.30100 24.83400 23.93100
H  48.83500 26.46500 24.12500
H  48.44700 22.94500 24.32800
H  49.26700 24.26400 23.53300
H  47.89800 23.50600 22.76900
H  46.38200 28.24400 24.31800
H  46.23200 26.96700 23.19200
H  47.51700 29.22800 22.44800
H  47.88800 27.53600 21.76300
H  48.93500 28.15700 22.77300
H  49.19700 31.22500 27.57700
H  50.38500 30.05700 26.80200
H  50.65900 30.74400 28.45200
H  47.51600 29.47000 32.72200
H  49.23600 29.04100 36.43100
H  50.55600 30.09500 35.83400
H  50.38000 28.28600 35.45300

