158

Mg 16.54100 -2.32000 27.77300
C  15.65700 -0.38400 30.43000
C  18.96200 -3.82600 29.93500
C  17.97100 -3.77400 25.12000
C  14.77100 -0.17600 25.58900
N  17.24500 -2.06700 29.89700
C  16.61900 -1.31600 30.80900
C  17.12700 -1.51500 32.24100
C  18.26600 -2.64400 32.05200
C  18.17800 -2.85500 30.50700
C  19.68400 -2.27100 32.64800
C  15.90600 -1.88700 33.21700
C  15.99800 -1.39200 34.68400
H  17.31600 -0.63200 35.16400
N  18.12900 -3.77700 27.56200
C  18.90800 -4.29500 28.57800
C  19.67300 -5.38200 27.99900
C  19.41800 -5.38700 26.54400
C  18.53900 -4.27800 26.31000
C  20.36900 -6.38900 28.92400
C  20.01300 -6.36200 25.53800
O  19.67900 -6.28600 24.42500
C  21.00800 -7.41100 25.98800
N  16.45600 -2.00400 25.71300
C  17.09500 -2.77500 24.82800
C  16.70200 -2.45800 23.31800
C  15.58600 -1.43400 23.54600
C  15.53400 -1.18700 25.05500
C  17.84800 -1.93200 22.50800
C  14.20100 -1.90000 22.92600
C  13.34600 -2.71200 23.93300
N  15.33700 -0.76600 27.92000
C  14.59100 0.00400 26.97500
C  13.84400 1.05000 27.61500
C  14.23000 0.93700 28.99700
C  15.13400 -0.17700 29.09500
C  13.03800 2.12500 26.85700
C  14.03400 1.53700 30.27900
O  13.19700 2.30200 30.68800
C  14.98900 0.72100 31.21200
C  15.92900 1.79500 31.68700
O  16.71000 2.37300 31.02800
O  15.76900 2.04000 33.02500
C  16.68700 3.00600 33.60600
H  19.63800 -4.33900 30.62100
H  18.29100 -4.33300 24.23800
H  14.20800 0.54900 24.99800
H  17.44100 -0.50000 32.48500
H  17.87600 -3.57700 32.46000
H  20.49800 -2.11700 31.94000
H  19.92900 -3.14000 33.25900
H  19.76500 -1.32600 33.18600
H  15.72100 -2.94900 33.05300
H  14.98600 -1.42700 32.85500
H  15.94100 -2.26300 35.33700
H  15.19400 -0.68200 34.87500
H  19.94700 -7.37900 28.75100
H  20.46900 -6.20200 29.99300
H  21.39700 -6.37900 28.56200
H  20.58700 -8.08600 26.73200
H  21.89400 -6.81500 26.20900
H  21.23700 -8.00800 25.10500
H  16.29700 -3.29000 22.74200
H  15.78600 -0.43500 23.15800
H  18.59100 -1.48400 23.16700
H  17.37900 -1.17900 21.87400
H  18.14100 -2.74700 21.84600
H  14.45000 -2.55000 22.08700
H  13.64900 -1.02600 22.57900
H  12.85400 -1.91700 24.49300
H  13.90000 -3.30300 24.66200
H  12.57700 -3.30100 23.43400
H  12.35200 2.66300 27.51100
H  12.45900 1.66700 26.05400
H  13.65600 2.90200 26.40800
H  14.31300 0.26800 31.93700
H  16.45000 3.97600 33.17000
H  17.65700 2.57400 33.36200
H  16.45000 3.19000 34.65500
Mg 6.99100 52.93700 40.33000
C  6.83100 49.45800 39.98900
C  10.39400 52.71100 39.78900
C  7.09400 56.36500 39.68500
C  3.61400 53.01600 40.54300
N  8.38600 51.24900 39.64600
C  8.13200 49.86100 39.68000
C  9.35500 49.06300 39.50900
C  10.46300 50.07200 40.00600
C  9.70000 51.47500 39.70100
C  10.97700 50.02400 41.48600
C  9.55400 48.55400 38.03800
C  8.98800 49.39000 36.87900
H  7.68800 48.97200 36.20500
N  8.48900 54.37000 39.83400
C  9.87000 54.03300 39.66000
C  10.63100 55.21300 39.57700
C  9.68000 56.29600 39.46200
C  8.32300 55.71600 39.60800
C  12.08800 55.24400 39.39500
C  10.00200 57.80700 39.38900
O  11.19000 58.16400 39.49300
C  9.03200 58.90000 39.14400
N  5.53500 54.50400 40.14600
C  5.75800 55.83600 40.01400
C  4.41500 56.66800 40.02300
C  3.36400 55.59800 40.30300
C  4.19800 54.24600 40.32300
C  4.49900 57.75500 41.07000
C  2.34100 55.52100 39.06000
C  0.85300 55.59900 39.51700
N  5.55200 51.54700 40.46600
C  4.14700 51.73500 40.58500
C  3.50700 50.45000 40.81900
C  4.57500 49.56000 40.61000
C  5.79600 50.25900 40.39700
C  2.02800 50.15700 40.97700
C  4.82300 48.17700 40.63600
O  4.08400 47.23900 40.88400
C  6.25000 48.04600 40.07900
C  6.21400 47.28100 38.77400
O  5.48500 47.50300 37.82000
O  7.00500 46.18100 38.93600
C  6.75900 45.14900 37.93500
H  11.47400 52.65600 39.93600
H  7.08800 57.37300 39.26500
H  2.56400 53.05100 40.84000
H  9.42500 48.24300 40.22400
H  11.36800 50.04700 39.39900
H  10.53900 50.80300 42.10900
H  12.03500 50.27200 41.39600
H  10.76800 49.04100 41.90900
H  8.98600 47.63000 37.93200
H  10.62100 48.51900 37.82000
H  9.79400 49.57800 36.17000
H  8.75300 50.40800 37.19100
H  12.27200 55.88900 38.53500
H  12.57100 54.30000 39.14300
H  12.50200 55.73200 40.27700
H  8.22200 58.96500 39.87100
H  8.53200 58.60700 38.22100
H  9.47700 59.87900 38.96700
H  4.25200 57.09800 39.03500
H  2.79900 55.65100 41.23400
H  3.84400 57.68500 41.93900
H  4.23400 58.66500 40.53000
H  5.49500 57.86800 41.49900
H  2.40500 54.56300 38.54500
H  2.39800 56.26400 38.26400
H  0.75700 55.47900 40.59600
H  0.34900 54.73100 39.09200
H  0.39500 56.51700 39.14700
H  1.61700 50.09100 39.97000
H  1.41400 50.91000 41.47200
H  1.93700 49.21300 41.51400
H  6.66200 47.36300 40.82200
H  7.44100 44.33100 38.16900
H  6.78600 45.45000 36.88800
H  5.79500 44.66400 38.08900

