158

Mg 1.35500 7.63200 25.95200
C  1.92700 9.55500 28.84900
C  1.32600 4.78100 27.96000
C  1.28300 5.79400 23.16600
C  1.53600 10.49000 24.11900
N  1.89100 7.18400 28.14900
C  1.87800 8.21500 29.11200
C  1.60200 7.53300 30.47700
C  1.70300 6.03400 30.19500
C  1.65100 5.97300 28.69500
C  3.01500 5.24200 30.72500
C  0.33000 8.00300 31.15700
C  0.32800 8.16800 32.75300
H  1.58100 7.74700 33.52000
N  1.41300 5.52600 25.61800
C  1.33600 4.53300 26.57700
C  0.91500 3.30000 25.93500
C  0.87300 3.55300 24.59900
C  1.19100 4.99500 24.35500
C  0.58700 2.03000 26.72000
C  0.52500 2.61800 23.45200
O  0.43500 3.06100 22.34000
C  0.10600 1.13500 23.71800
N  1.56600 8.03400 23.91200
C  1.44500 7.16400 22.92000
C  1.30100 7.85700 21.51500
C  1.28400 9.30100 21.89100
C  1.43700 9.31100 23.45900
C  2.42900 7.43200 20.47000
C  0.04900 10.09700 21.38000
C  0.52700 10.76100 20.13100
N  1.66700 9.61800 26.39400
C  1.79500 10.66000 25.47400
C  2.13400 11.92700 26.17200
C  2.17400 11.51500 27.48000
C  1.88600 10.16700 27.60100
C  2.29800 13.28600 25.55800
C  2.43400 12.06800 28.85000
O  2.82600 13.18600 29.29300
C  2.13500 10.81000 29.74200
C  3.14900 10.71400 30.83700
O  4.27600 10.19200 30.72900
O  2.65800 11.29400 31.99200
C  3.57300 11.82000 32.96100
H  1.22400 3.90100 28.59900
H  1.07400 5.25100 22.24200
H  1.38700 11.40900 23.54900
H  2.50800 7.81200 31.01500
H  0.80700 5.54900 30.58200
H  3.59500 5.76900 31.48200
H  3.69000 4.97700 29.91100
H  2.72500 4.23400 31.02100
H  -0.51300 7.32600 31.02300
H  0.19700 8.99700 30.72900
H  -0.54200 7.71900 33.23000
H  0.20200 9.22900 32.97100
H  -0.21900 1.47300 26.24300
H  0.28000 2.28600 27.73400
H  1.51400 1.46600 26.82500
H  0.69700 0.71200 24.53100
H  0.35800 0.60700 22.79800
H  -0.92600 1.10200 24.06700
H  0.31400 7.59800 21.13100
H  2.20300 9.78000 21.55700
H  3.03900 8.31400 20.27500
H  2.02700 7.22900 19.47700
H  3.03400 6.59900 20.82700
H  -0.35700 10.84800 22.05800
H  -0.76500 9.43000 21.09700
H  0.79700 10.06400 19.33800
H  1.34800 11.44600 20.34600
H  -0.28100 11.32900 19.67200
H  2.46100 14.08700 26.27900
H  1.33800 13.46000 25.07200
H  3.11100 13.37600 24.83700
H  1.23400 11.04300 30.31000
H  4.29200 12.27900 32.28200
H  4.03700 11.04800 33.57500
H  3.12800 12.57500 33.60900
Mg 17.01000 51.49800 26.56600
C  19.02500 50.33100 29.11500
C  14.66200 52.55000 28.90700
C  15.07400 52.78400 24.11300
C  19.42600 50.55400 24.23600
N  16.90400 51.54500 28.68400
C  17.88300 51.04600 29.54400
C  17.40900 51.32300 30.98400
C  15.85600 51.48700 30.91400
C  15.74300 51.80200 29.38800
C  14.98300 50.29200 31.29500
C  18.18600 52.45100 31.69200
C  18.14700 52.42400 33.18900
H  17.10800 51.65400 33.90300
N  15.03800 52.58500 26.56300
C  14.26900 52.88200 27.66300
C  13.11700 53.50400 27.10600
C  13.21400 53.71300 25.70900
C  14.48700 52.99300 25.38400
C  12.07300 54.02700 28.14000
C  12.29600 54.28400 24.71900
O  12.52300 54.34500 23.53600
C  11.11400 55.02400 25.20000
N  17.17400 51.56000 24.44600
C  16.22400 52.04900 23.73500
C  16.74700 52.22600 22.25700
C  18.12800 51.55100 22.30300
C  18.27700 51.20500 23.73000
C  15.85400 51.53000 21.12600
C  19.29500 52.44000 21.78600
C  20.16800 51.96000 20.52500
N  18.74800 50.49800 26.59500
C  19.57600 50.12400 25.57300
C  20.80700 49.49900 26.13500
C  20.58900 49.50900 27.60200
C  19.32600 50.14200 27.76000
C  22.02200 49.01200 25.32000
C  21.07200 49.17000 28.93000
O  22.04300 48.53900 29.30300
C  20.10700 49.69500 29.88700
C  19.61300 48.56500 30.62400
O  18.90400 47.66000 30.17400
O  19.89100 48.73700 31.96600
C  19.39500 47.85800 32.97600
H  14.05000 53.00700 29.68800
H  14.60600 53.33500 23.29500
H  20.23300 50.29900 23.54600
H  17.64700 50.44100 31.57900
H  15.63500 52.39700 31.47300
H  14.07700 50.64500 31.78800
H  15.64200 49.62300 31.84800
H  14.55700 49.88200 30.37900
H  17.84900 53.45800 31.44400
H  19.19300 52.45900 31.27600
H  18.10500 53.43700 33.59100
H  19.08500 51.93500 33.44900
H  12.24500 53.72800 29.17400
H  11.13000 53.57100 27.83800
H  12.10400 55.11700 28.13700
H  10.37000 55.27200 24.44300
H  11.30900 56.00200 25.64000
H  10.59400 54.33600 25.86600
H  16.66600 53.30600 22.13300
H  18.18100 50.60100 21.77200
H  15.50800 52.33200 20.47400
H  15.01700 51.01200 21.59300
H  16.35500 50.88600 20.40300
H  19.91500 52.60500 22.66700
H  18.97300 53.46700 21.61100
H  20.36000 52.73800 19.78600
H  19.58000 51.20200 20.00700
H  21.16500 51.61600 20.80000
H  22.25200 49.65900 24.47300
H  21.93300 47.95900 25.05300
H  22.91900 49.17800 25.91700
H  20.47900 50.49000 30.53400
H  18.60700 47.18700 32.63500
H  19.07200 48.39800 33.86700
H  20.20500 47.22500 33.34100

