158

Mg 17.56300 -1.03200 28.04800
C  16.25500 1.04000 30.54500
C  19.06400 -2.90200 30.50700
C  19.24200 -2.69200 25.66900
C  16.29400 1.22400 25.62100
N  17.66700 -0.87800 30.32300
C  16.91900 -0.04500 31.08200
C  17.01000 -0.43500 32.60200
C  18.16400 -1.52600 32.50100
C  18.28400 -1.85400 31.07100
C  19.52000 -1.10200 33.24000
C  15.58800 -0.88200 33.18800
C  15.39400 -0.58900 34.64700
H  16.47800 -0.03400 35.52800
N  19.00000 -2.58000 28.07000
C  19.37300 -3.28000 29.18100
C  20.31200 -4.31100 28.85200
C  20.46800 -4.23100 27.42500
C  19.57600 -3.09400 26.98200
C  20.94100 -5.15200 29.89400
C  21.38500 -5.07300 26.50100
O  21.36400 -4.85400 25.30400
C  22.23300 -6.15000 27.02900
N  17.84100 -0.65100 25.96100
C  18.43300 -1.62500 25.21300
C  18.35700 -1.24500 23.69200
C  17.37200 -0.02000 23.71400
C  17.13500 0.20200 25.23900
C  19.67700 -0.85500 22.98200
C  16.00800 0.00200 22.90400
C  15.90900 0.88200 21.58600
N  16.37400 0.77400 28.01000
C  15.98400 1.58300 27.00500
C  15.23100 2.65200 27.55500
C  15.35300 2.50400 28.98200
C  16.04200 1.38000 29.17600
C  14.35800 3.63100 26.81200
C  14.97100 3.14300 30.23300
O  14.37900 4.21500 30.46000
C  15.46800 2.17500 31.28400
C  16.35000 2.93000 32.10200
O  17.56400 2.76100 32.18700
O  15.62300 3.66200 33.06800
C  16.30700 4.48900 34.07000
H  19.47700 -3.56700 31.26800
H  19.76400 -3.23700 24.88000
H  15.90400 1.90500 24.86100
H  17.37800 0.47600 33.07400
H  17.70000 -2.38600 32.98400
H  19.44700 -0.04200 33.48600
H  20.39800 -1.27200 32.61600
H  19.51800 -1.57300 34.22200
H  15.51800 -1.94900 32.97900
H  14.75000 -0.42500 32.66200
H  14.92000 -1.45600 35.10600
H  14.73100 0.27600 34.64300
H  20.19300 -5.57600 30.56400
H  21.59700 -4.56000 30.53300
H  21.44000 -6.02200 29.46700
H  22.77300 -5.84700 27.92600
H  23.01300 -6.40700 26.31200
H  21.61200 -7.03700 27.15100
H  17.96100 -2.07500 23.10700
H  17.91900 0.90700 23.54400
H  19.59500 0.12200 22.50600
H  19.76600 -1.48700 22.09900
H  20.52000 -0.91100 23.67200
H  15.16400 0.24000 23.55200
H  15.95100 -1.04100 22.59200
H  15.22600 1.73000 21.53300
H  15.72000 0.19200 20.76400
H  16.89000 1.31400 21.38700
H  13.32300 3.35000 27.01100
H  14.57000 3.52800 25.74700
H  14.65100 4.61900 27.16500
H  14.55800 1.88100 31.80800
H  16.03100 5.54000 33.98400
H  17.38800 4.35500 34.11500
H  15.89600 4.22800 35.04600
Mg 41.70400 41.64800 26.98300
C  41.21700 43.96200 29.42900
C  43.17200 39.44500 29.45400
C  42.24900 39.31100 24.64100
C  41.03600 44.01900 24.51000
N  42.07100 41.67600 29.13400
C  41.69800 42.74200 29.94600
C  41.88500 42.39600 31.42700
C  42.78100 41.10800 31.39300
C  42.60500 40.66800 29.94200
C  44.32800 41.24100 31.78300
C  40.49900 42.30300 32.18000
C  40.32100 43.12800 33.45500
H  39.76800 42.36600 34.64900
N  42.59300 39.68400 26.98900
C  43.10900 38.95600 28.09400
C  43.57500 37.60600 27.62800
C  43.16900 37.49700 26.21200
C  42.61100 38.90100 25.89200
C  44.10000 36.47500 28.51800
C  43.28700 36.31900 25.26700
O  43.03000 36.44400 24.10600
C  43.89400 35.05000 25.66000
N  42.05100 41.79800 24.83500
C  42.07700 40.65200 24.09600
C  41.66500 40.93700 22.58700
C  41.42100 42.43900 22.54500
C  41.51400 42.81700 24.03600
C  42.82300 40.43900 21.61300
C  40.18700 42.87200 21.77200
C  40.21600 44.08400 20.88700
N  41.20700 43.67200 26.86900
C  40.77600 44.43900 25.86600
C  40.35200 45.70000 26.43100
C  40.45000 45.51900 27.81400
C  41.05700 44.30300 28.03800
C  39.87500 46.83100 25.59500
C  40.22900 46.16500 29.08800
O  39.64000 47.22900 29.36400
C  40.69100 45.16800 30.18200
C  41.72400 45.80000 31.01300
O  42.74400 46.23000 30.52600
O  41.37000 45.86200 32.33900
C  42.21800 46.70500 33.23500
H  43.61200 38.79300 30.21100
H  42.21100 38.51600 23.89400
H  40.82800 44.76600 23.74200
H  42.42800 43.17000 31.96900
H  42.26100 40.38500 32.02300
H  44.50800 42.24300 32.17100
H  44.93600 41.10100 30.88900
H  44.62400 40.62400 32.63200
H  40.27900 41.27300 32.46200
H  39.74500 42.62900 31.46300
H  39.65300 43.97100 33.27800
H  41.26100 43.59600 33.74700
H  45.11400 36.22000 28.20900
H  43.44400 35.61100 28.41300
H  44.16700 36.78500 29.56100
H  43.19900 34.54400 26.33000
H  44.79200 35.27700 26.23500
H  44.22400 34.37600 24.86900
H  40.72200 40.45500 22.33200
H  42.35500 42.89700 22.22100
H  43.61100 41.14500 21.35200
H  42.35000 40.22300 20.65500
H  43.18000 39.48100 21.99300
H  39.41800 42.96900 22.53800
H  39.73800 42.13000 21.11100
H  39.97200 43.85500 19.84900
H  41.24700 44.43400 20.84800
H  39.38500 44.72000 21.19200
H  40.27300 46.83000 24.58000
H  40.06600 47.76100 26.13000
H  38.79300 46.71200 25.53700
H  39.84600 44.97600 30.84300
H  43.20500 46.93400 32.83400
H  42.23500 46.16400 34.18100
H  41.70000 47.65800 33.35200

