158

Mg 17.42000 51.40600 26.02300
C  19.32400 49.55700 28.16100
C  15.11200 51.98400 28.49400
C  15.33900 52.81400 23.62400
C  19.48600 50.39200 23.32500
N  17.25300 50.77600 28.11800
C  18.22300 50.12300 28.80500
C  18.08300 50.36500 30.28000
C  16.56300 50.77600 30.37700
C  16.30100 51.23700 28.94300
C  15.57300 49.63800 30.83500
C  19.10700 51.33900 30.93900
C  19.44700 51.28200 32.44200
H  18.48900 50.53000 33.34500
N  15.39800 52.22200 26.05900
C  14.70800 52.49500 27.22200
C  13.44800 53.08800 26.83000
C  13.50500 53.30700 25.37700
C  14.82700 52.72400 24.96900
C  12.39000 53.47100 27.85500
C  12.48000 53.90600 24.41100
O  12.62100 54.11100 23.21100
C  11.13500 54.35400 24.92500
N  17.43400 51.57800 23.83000
C  16.50800 52.29900 23.07100
C  16.82300 52.45300 21.62300
C  18.12200 51.62600 21.40500
C  18.41000 51.20300 22.94800
C  15.63300 51.92500 20.69500
C  19.24600 52.42500 20.67600
C  20.42100 51.61700 20.14900
N  19.11400 50.36000 25.79000
C  19.74800 49.89500 24.64900
C  20.86100 49.06100 24.98400
C  20.78700 48.93500 26.43600
C  19.66100 49.64200 26.82800
C  21.86000 48.53200 24.00400
C  21.40500 48.39300 27.61000
O  22.33400 47.61700 27.62000
C  20.60600 48.88900 28.82000
C  20.23700 47.71500 29.66100
O  19.47700 46.85000 29.42400
O  20.76800 47.92200 30.91100
C  20.35200 46.94700 31.99800
H  14.46700 52.22300 29.34300
H  14.76600 53.34500 22.86100
H  20.15200 50.10200 22.50900
H  18.18700 49.38900 30.75300
H  16.44200 51.59000 31.09200
H  15.33700 49.58700 31.89800
H  16.02600 48.67300 30.60700
H  14.66500 49.64600 30.23300
H  18.90500 52.34400 30.57000
H  20.07600 51.08300 30.51000
H  19.60200 52.26500 32.88600
H  20.44500 50.87700 32.61100
H  11.31000 53.37300 27.74800
H  12.55100 54.54100 27.98900
H  12.59600 53.03700 28.83300
H  11.23600 55.22200 25.57700
H  10.54900 53.51100 25.28900
H  10.55100 54.64900 24.05300
H  17.09300 53.50000 21.48800
H  17.99000 50.66600 20.90500
H  15.20900 51.06800 21.22000
H  16.08500 51.66400 19.73900
H  14.86200 52.64600 20.42300
H  19.63700 53.10400 21.43400
H  18.78900 52.99700 19.86800
H  21.40100 51.86000 20.55700
H  20.40500 51.66800 19.06000
H  20.38900 50.54700 20.35400
H  21.28400 48.08600 23.19400
H  22.48100 47.88400 24.62300
H  22.46200 49.36000 23.62900
H  21.19400 49.62200 29.37300
H  19.29300 46.71100 31.90200
H  20.34800 47.59600 32.87400
H  21.11600 46.18100 32.12900
Mg 9.82600 47.69400 26.09200
C  8.15800 47.53800 29.22400
C  12.61700 48.71000 27.80200
C  11.32000 47.76700 23.14600
C  6.76900 46.82500 24.53600
N  10.34500 48.00600 28.32100
C  9.49900 47.84400 29.35100
C  10.12800 48.32000 30.68300
C  11.53500 48.86000 30.21800
C  11.50900 48.60500 28.68600
C  11.71600 50.38300 30.59700
C  10.25900 47.18800 31.78200
C  9.87900 47.58000 33.23300
H  10.00600 46.43300 34.26300
N  11.70600 48.27500 25.51000
C  12.68700 48.54100 26.34600
C  13.94600 48.52700 25.62000
C  13.58900 48.34300 24.25500
C  12.16300 48.17000 24.25300
C  15.35700 48.60200 26.25300
C  14.42800 48.07800 22.99900
O  13.95000 48.06800 21.85700
C  15.90000 48.15100 23.10200
N  9.09000 47.57400 24.10000
C  9.95900 47.50100 23.05200
C  9.23100 47.00000 21.76700
C  7.87400 46.52000 22.25900
C  7.88200 46.97400 23.69800
C  9.27600 48.01200 20.53800
C  7.55600 45.01000 22.11600
C  8.61900 44.14800 22.77900
N  7.93700 47.26000 26.72000
C  6.75100 46.94000 25.97300
C  5.62200 46.71500 26.81800
C  6.11000 46.94000 28.10100
C  7.55500 47.19800 28.00200
C  4.26800 46.33500 26.43700
C  5.74000 47.04800 29.47500
O  4.67300 47.04800 30.03200
C  7.08000 47.28600 30.31600
C  7.30700 45.92400 31.01800
O  7.95100 44.97100 30.59000
O  6.51600 45.87300 32.14400
C  6.65900 44.70400 33.03100
H  13.52600 48.98900 28.33900
H  11.72900 47.62400 22.14400
H  5.83300 46.37300 24.20200
H  9.45800 49.06100 31.11900
H  12.33000 48.20600 30.57500
H  12.66200 50.45200 31.13300
H  10.92300 50.76000 31.24400
H  11.81000 51.04200 29.73400
H  11.26200 46.79900 31.95600
H  9.76800 46.25100 31.51900
H  8.82600 47.85200 33.16200
H  10.55700 48.37800 33.53500
H  15.35000 48.86100 27.31200
H  15.96800 49.39400 25.82000
H  15.99100 47.71600 26.22900
H  16.19600 47.41800 23.85300
H  16.25200 49.10400 23.49800
H  16.41900 47.84000 22.19600
H  9.81300 46.16900 21.36600
H  6.97800 46.88800 21.75900
H  9.68700 48.95300 20.90500
H  8.23400 48.32300 20.45700
H  9.59900 47.58100 19.59100
H  7.47700 44.80400 21.04800
H  6.57400 44.85000 22.56100
H  8.22100 43.66100 23.67000
H  9.43800 44.75300 23.16900
H  9.08100 43.47800 22.05400
H  3.74300 47.28400 26.33600
H  3.97700 45.76600 27.32000
H  4.09700 45.75600 25.53000
H  6.97800 48.11900 31.01200
H  5.94300 43.90600 32.83500
H  6.28500 45.03100 34.00100
H  7.70400 44.39900 33.08000

