158

Mg 41.13900 9.38400 29.04800
C  43.03000 10.57700 31.66700
C  38.86000 7.96200 31.21500
C  39.39500 7.82600 26.43500
C  43.56700 10.30600 26.84200
N  40.89200 9.36700 31.14900
C  41.83900 9.87900 32.03800
C  41.30000 9.73800 33.42900
C  40.07200 8.77900 33.27900
C  39.93200 8.70100 31.81800
C  40.43300 7.35400 33.88100
C  40.92700 11.09100 34.15900
C  39.96000 10.97300 35.35000
H  40.32000 11.94800 36.54700
N  39.19900 8.24500 28.85500
C  38.46400 7.75400 29.90300
C  37.35700 7.03000 29.36500
C  37.46900 7.09500 27.89200
C  38.74300 7.74400 27.65400
C  36.36000 6.41200 30.23200
C  36.46500 6.72400 26.85100
O  36.60000 6.94600 25.60600
C  35.10300 6.38100 27.30600
N  41.41700 9.14300 26.91000
C  40.65300 8.42500 26.05700
C  41.35600 8.33700 24.62000
C  42.20200 9.63700 24.76600
C  42.49400 9.70800 26.27800
C  42.18900 6.99800 24.40400
C  41.55700 10.99800 24.24000
C  40.97600 12.00000 25.16200
N  42.93500 10.29200 29.16000
C  43.78700 10.62300 28.18000
C  44.88700 11.35400 28.75800
C  44.64000 11.42600 30.13200
C  43.46300 10.71700 30.31700
C  46.04200 11.93800 28.00100
C  45.13400 11.77600 31.48900
O  46.16700 12.35500 31.83200
C  44.08300 11.36300 32.49600
C  44.63100 10.58500 33.59100
O  45.09600 9.48500 33.50200
O  44.39600 11.31500 34.78600
C  44.69500 10.56600 36.05300
H  38.15000 7.51500 31.91400
H  39.00300 7.24600 25.59600
H  44.31200 10.70700 26.15100
H  42.09400 9.12900 33.86100
H  39.10500 9.10000 33.66500
H  40.14600 7.12000 34.90600
H  41.49900 7.12500 33.85900
H  39.89900 6.63800 33.25600
H  40.57800 11.71400 33.33600
H  41.87000 11.47400 34.54800
H  39.89400 9.93700 35.68400
H  38.94400 11.28400 35.10700
H  36.72500 6.16800 31.23000
H  36.03900 5.45300 29.82500
H  35.40700 6.93700 30.29000
H  34.40800 6.31500 26.46900
H  34.76400 7.26100 27.85300
H  34.99200 5.42000 27.80800
H  40.60900 8.45900 23.83600
H  43.16100 9.49700 24.26800
H  41.85200 6.67300 23.41900
H  41.83600 6.28700 25.15100
H  43.26200 7.18400 24.42500
H  40.77800 10.68500 23.54400
H  42.33600 11.49100 23.65900
H  40.69800 11.51700 26.09800
H  40.19000 12.51400 24.60800
H  41.78500 12.70500 25.35500
H  45.72400 12.67300 27.26200
H  46.52700 11.18400 27.38000
H  46.69800 12.54800 28.62200
H  43.68500 12.25900 32.97200
H  43.72000 10.35300 36.49300
H  45.37700 11.19200 36.62900
H  45.17200 9.59900 35.89200
Mg 28.94400 57.50200 40.56000
C  26.07600 55.70600 39.65300
C  30.83800 55.03300 39.24900
C  31.52600 59.64400 40.25200
C  26.91800 60.30900 41.16400
N  28.42000 55.60800 39.38700
C  27.22000 55.10500 39.14000
C  27.29100 53.75600 38.52600
C  28.84700 53.51900 38.44900
C  29.43200 54.76700 39.15500
C  29.43800 52.23200 39.02800
C  26.54500 53.50400 37.18100
C  26.50200 54.61000 36.09800
H  26.72000 54.32800 34.55200
N  30.98700 57.27700 40.00600
C  31.56000 56.17300 39.57300
C  32.97500 56.38600 39.47800
C  33.26300 57.72300 39.85600
C  31.87400 58.25900 40.03300
C  33.95700 55.24600 39.11300
C  34.58100 58.39600 39.96800
O  35.61300 57.89600 39.55400
C  34.70800 59.72700 40.51500
N  29.21300 59.70900 40.81600
C  30.37600 60.32100 40.58000
C  30.37900 61.81800 40.96100
C  28.86100 61.97900 41.38300
C  28.27900 60.61000 41.09300
C  31.39500 62.21800 42.00100
C  28.12000 63.19400 40.74000
C  27.68200 64.27500 41.79100
N  27.05800 57.87600 40.79700
C  26.37900 59.03300 41.06800
C  24.96100 58.70300 41.28100
C  24.82000 57.41000 40.77000
C  26.10200 56.96300 40.39000
C  23.95100 59.59800 41.82400
C  23.80200 56.40700 40.43700
O  22.60700 56.34200 40.65500
C  24.60400 55.36700 39.53600
C  24.10400 53.98700 40.07700
O  23.32000 53.17400 39.54800
O  24.65000 53.79700 41.30200
C  24.31500 52.58800 41.94800
H  31.53400 54.24000 38.96800
H  32.34200 60.35500 40.10900
H  26.29300 61.17900 41.37600
H  26.93600 52.97400 39.19700
H  29.18000 53.54100 37.41100
H  30.33000 52.53700 39.57500
H  29.66500 51.49500 38.25700
H  28.73200 51.73700 39.69400
H  25.49500 53.30700 37.39700
H  27.02300 52.59300 36.82200
H  27.33400 55.29600 36.25700
H  25.57600 55.15500 36.27700
H  33.96000 54.51900 39.92400
H  34.98700 55.59900 39.05500
H  33.73900 54.80700 38.13900
H  34.09200 60.10500 41.33100
H  34.44000 60.35900 39.66800
H  35.78200 59.83200 40.66500
H  30.52200 62.26400 39.97700
H  28.70100 61.94800 42.46100
H  31.88000 61.32600 42.39700
H  30.96300 62.88600 42.74600
H  32.03500 62.93100 41.48000
H  27.28200 62.98000 40.07700
H  28.88900 63.74900 40.20300
H  27.34500 63.81100 42.71700
H  26.77100 64.74000 41.41300
H  28.51100 64.96500 41.94800
H  23.47300 60.16700 41.02700
H  24.38100 60.34300 42.49400
H  23.13200 59.09200 42.33500
H  24.34900 55.43000 38.47800
H  25.21900 52.24300 42.45000
H  23.91800 51.77300 41.34200
H  23.61900 52.95400 42.70300

