158

Mg -1.40800 17.70600 27.24000
C  -2.17200 15.36200 29.71400
C  -1.79700 20.20500 29.51400
C  -1.18500 19.95300 24.69100
C  -1.51300 15.09700 24.81000
N  -2.01000 17.73400 29.36900
C  -2.03900 16.65700 30.18800
C  -1.95300 17.04600 31.65500
C  -2.00200 18.63700 31.55300
C  -1.90100 18.90900 30.04300
C  -3.01700 19.46100 32.35500
C  -0.68200 16.41700 32.47000
C  -0.24900 17.11200 33.73100
H  -0.23400 16.32300 35.13900
N  -1.50800 19.80600 27.14900
C  -1.70200 20.62100 28.20400
C  -1.59400 21.98900 27.73500
C  -1.47000 21.97600 26.31100
C  -1.39200 20.53500 25.95400
C  -1.77600 23.14500 28.74600
C  -1.30400 23.09500 25.29500
O  -1.03900 22.90900 24.12000
C  -1.30500 24.47600 25.80800
N  -1.37500 17.51700 25.08800
C  -1.28900 18.61300 24.29600
C  -1.17300 18.25100 22.72100
C  -1.16700 16.71600 22.79900
C  -1.35200 16.40000 24.29300
C  -2.25100 18.90900 21.72300
C  0.12900 16.10200 22.26800
C  1.32400 16.47100 23.11500
N  -1.72800 15.61600 27.22400
C  -1.76300 14.76000 26.13000
C  -2.09700 13.41100 26.65500
C  -2.22700 13.60400 28.05600
C  -2.04700 14.94400 28.35800
C  -2.35700 12.09300 25.87900
C  -2.46000 12.92300 29.25800
O  -2.71200 11.76100 29.48900
C  -2.52200 14.02300 30.40400
C  -1.52700 13.54700 31.38600
O  -0.31700 13.53000 31.25000
O  -2.12300 12.88900 32.41500
C  -1.24900 12.18400 33.35200
H  -1.56800 20.94000 30.28900
H  -1.14200 20.55900 23.78400
H  -1.47800 14.31000 24.05300
H  -2.82100 16.70500 32.21800
H  -1.01100 18.96500 31.86700
H  -3.80000 19.75400 31.65600
H  -2.57200 20.41000 32.65400
H  -3.46300 18.94000 33.20300
H  0.25500 16.21300 31.95100
H  -0.98900 15.43600 32.83300
H  -0.95400 17.90700 33.97600
H  0.61300 17.73900 33.50500
H  -1.53700 22.88600 29.77700
H  -2.80900 23.49000 28.68400
H  -1.17300 23.99900 28.43800
H  -1.27800 25.23700 25.02700
H  -0.44400 24.57000 26.46900
H  -2.17000 24.71100 26.42800
H  -0.17300 18.60900 22.47700
H  -2.00300 16.25700 22.27200
H  -2.99400 18.23200 21.30300
H  -1.64400 19.19800 20.86500
H  -2.68100 19.78100 22.21600
H  0.27100 16.52900 21.27500
H  0.04800 15.01600 22.21900
H  1.57500 15.61900 23.74700
H  1.17500 17.40800 23.65100
H  2.16600 16.73900 22.47800
H  -1.51300 11.44200 26.10800
H  -2.51000 12.27300 24.81500
H  -3.28900 11.62600 26.19600
H  -3.55800 13.89800 30.72200
H  -0.40900 11.73200 32.82400
H  -1.80500 11.40900 33.88000
H  -0.73200 12.89300 34.00000
Mg 48.36100 35.21400 27.44100
C  46.39900 33.50000 29.78900
C  48.86400 37.72100 29.50800
C  49.67100 36.92100 24.78400
C  47.60100 32.57700 25.12300
N  47.83400 35.36400 29.45700
C  47.09300 34.59200 30.29600
C  46.92400 35.27600 31.66300
C  47.36000 36.83400 31.44400
C  48.15100 36.58100 30.08000
C  46.22000 37.88600 31.30500
C  47.69700 34.56000 32.81000
C  48.38900 35.36000 34.03600
H  47.53600 36.50600 34.62800
N  49.29900 37.07800 27.23100
C  49.51900 37.96200 28.25400
C  50.28800 39.07100 27.74100
C  50.48400 38.85300 26.35000
C  49.79800 37.59300 26.05100
C  50.77700 40.23000 28.59200
C  51.16300 39.73700 25.33100
O  51.20500 39.42100 24.20500
C  51.76900 41.04200 25.76900
N  48.59700 34.82300 25.32300
C  49.17600 35.67400 24.42000
C  49.24700 35.12500 22.95900
C  48.71900 33.67300 23.15900
C  48.27000 33.64600 24.63500
C  48.41000 36.00900 22.12400
C  49.68800 32.51100 22.72700
C  49.07700 31.29800 21.91800
N  47.33900 33.36200 27.43600
C  47.02900 32.46000 26.44200
C  46.15800 31.34300 26.86300
C  45.91900 31.77500 28.22200
C  46.63000 32.96400 28.48000
C  45.70800 30.08900 26.09300
C  45.18300 31.48600 29.42900
O  44.42400 30.52000 29.62600
C  45.37800 32.63000 30.44600
C  45.94400 32.11900 31.65800
O  47.07400 31.72400 31.90400
O  44.93800 32.12200 32.57600
C  45.18200 31.46400 33.87300
H  48.84600 38.59500 30.16200
H  49.95400 37.46100 23.87800
H  47.38000 31.70500 24.50400
H  45.86000 35.19800 31.88600
H  47.98200 37.37300 32.15800
H  45.37400 37.40000 31.79000
H  45.92900 38.05100 30.26800
H  46.50500 38.83400 31.76200
H  48.55500 33.96100 32.50500
H  46.88900 33.99700 33.27700
H  49.32900 35.68400 33.59000
H  48.71300 34.74700 34.87700
H  50.54600 41.20100 28.15400
H  51.84600 40.12900 28.78000
H  50.38200 40.20200 29.60800
H  50.95400 41.73400 25.98200
H  52.30700 41.36200 24.87700
H  52.44900 41.07300 26.62000
H  50.32200 35.15500 22.78000
H  47.76600 33.64000 22.63100
H  49.11900 36.61600 21.56200
H  47.70900 36.66700 22.63700
H  47.96100 35.40900 21.33300
H  50.22200 32.11100 23.58900
H  50.45300 32.96500 22.09700
H  47.99000 31.30800 21.84200
H  49.46100 30.36300 22.32600
H  49.32900 31.38200 20.86100
H  46.46100 29.41200 25.69000
H  45.19400 30.46200 25.20600
H  44.88700 29.54700 26.56200
H  44.44700 33.16300 30.64200
H  45.97600 32.10400 34.25800
H  45.62500 30.47600 33.74800
H  44.28900 31.41900 34.49700

