158

Mg 48.92400 36.32100 28.16300
C  46.83900 34.52300 30.32700
C  48.87200 39.06700 30.25700
C  50.83100 38.04100 25.98000
C  48.54200 33.75000 25.89300
N  48.00400 36.69600 30.05800
C  47.32700 35.75100 30.83400
C  47.21900 36.29100 32.26100
C  47.56500 37.82500 32.17200
C  48.23300 37.89800 30.75000
C  46.28200 38.74900 32.21600
C  48.33100 35.60100 33.14200
C  47.84100 35.34300 34.61100
H  46.75600 36.24500 35.17000
N  49.63900 38.33300 28.04200
C  49.54900 39.29500 29.04400
C  50.12600 40.51100 28.57900
C  50.79100 40.24100 27.38400
C  50.44800 38.78800 27.09600
C  50.13500 41.78400 29.38500
C  51.80000 41.08800 26.62700
O  52.52300 40.58600 25.77600
C  51.95800 42.55500 26.92800
N  49.66300 35.88900 26.28000
C  50.41500 36.75600 25.57600
C  50.96000 36.11900 24.32900
C  50.32100 34.65600 24.36300
C  49.39000 34.81400 25.54700
C  50.64700 36.89900 22.96200
C  51.31200 33.42200 24.46600
C  51.17500 32.23100 23.41500
N  47.92000 34.47300 28.08200
C  47.85600 33.52500 27.11400
C  47.10500 32.36700 27.66000
C  46.67800 32.73100 28.92800
C  47.16800 34.03400 29.07700
C  46.87900 31.06500 27.00600
C  45.85200 32.32600 30.05300
O  45.28300 31.28300 30.28600
C  45.88100 33.60100 30.96100
C  46.07800 33.24500 32.41500
O  46.98000 32.51300 32.74900
O  44.90500 33.58500 33.16500
C  44.76300 32.78100 34.42300
H  49.00200 39.92200 30.92400
H  51.53700 38.45500 25.25800
H  48.47900 32.93100 25.17400
H  46.22500 35.94500 32.54300
H  48.20200 38.16200 32.99000
H  46.17900 39.43500 33.05700
H  45.34800 38.18800 32.22500
H  46.21800 39.28800 31.27000
H  49.19000 36.27100 33.19900
H  48.76200 34.72000 32.66700
H  48.68200 35.36900 35.30300
H  47.61400 34.27800 34.63100
H  50.09000 42.77800 28.94000
H  51.08900 41.79700 29.91300
H  49.40000 41.77800 30.18900
H  52.33100 42.75600 27.93200
H  51.00800 43.08500 26.85300
H  52.63900 42.82200 26.12000
H  52.01700 35.92800 24.51000
H  49.71900 34.47600 23.47300
H  50.03400 37.77500 23.17500
H  50.12500 36.26600 22.24500
H  51.47500 37.37200 22.43400
H  51.26600 33.05100 25.49000
H  52.34000 33.77600 24.37700
H  50.41400 32.40100 22.65200
H  50.92800 31.29300 23.91400
H  52.14900 32.09900 22.94400
H  47.15100 30.23400 27.65700
H  47.41000 30.81600 26.08700
H  45.81200 30.88700 26.86500
H  44.92300 34.10100 30.82200
H  45.56800 32.11400 34.73000
H  43.79100 32.28900 34.45000
H  44.75100 33.46300 35.27300
Mg 30.22400 59.83200 40.01700
C  27.60100 57.94000 38.70700
C  32.44300 57.39400 38.87700
C  32.81700 61.93500 40.75800
C  27.91500 62.34100 40.72700
N  30.02400 57.93600 38.83700
C  28.87500 57.39100 38.46400
C  29.06600 56.06800 37.73700
C  30.54500 55.68100 38.16700
C  31.09300 57.07600 38.69600
C  30.63100 54.60300 39.25200
C  28.97300 56.27300 36.18800
C  28.47900 54.99400 35.30800
H  27.62800 55.32400 34.11400
N  32.36300 59.65400 39.95800
C  33.06400 58.55000 39.44300
C  34.47000 58.80500 39.61000
C  34.59200 60.07400 40.15700
C  33.20800 60.66400 40.28300
C  35.57500 57.88000 39.10100
C  35.90700 60.66400 40.58100
O  36.88300 59.93200 40.71300
C  36.10100 62.16200 40.80200
N  30.37600 61.83100 40.50100
C  31.50300 62.43300 40.90600
C  31.22500 63.87700 41.35900
C  29.64800 64.07600 41.35900
C  29.21000 62.63800 40.85800
C  31.91000 64.21500 42.65100
C  29.14700 65.19600 40.44100
C  28.05700 66.08400 41.09900
N  28.14900 60.11800 39.89500
C  27.34100 61.17200 40.20100
C  25.96000 60.80000 39.87000
C  26.03900 59.48900 39.38000
C  27.40000 59.18400 39.29800
C  24.78100 61.64400 40.27500
C  25.27200 58.34400 38.86000
O  24.03700 58.27200 38.71500
C  26.28200 57.35200 38.34600
C  25.94900 55.99900 38.97300
O  26.09400 55.67700 40.12100
O  25.56200 55.14200 37.98200
C  25.26700 53.78700 38.36100
H  33.02400 56.51100 38.60100
H  33.53900 62.71400 41.01000
H  27.22200 63.11100 41.07100
H  28.34600 55.27400 37.93400
H  31.11600 55.22400 37.35900
H  31.17000 53.74000 38.86100
H  29.61700 54.32000 39.53500
H  31.22500 54.85200 40.13100
H  29.99400 56.53200 35.90800
H  28.43800 57.19600 35.96700
H  27.93100 54.23700 35.86900
H  29.33600 54.44500 34.91800
H  36.09200 57.42900 39.94800
H  36.38800 58.35200 38.54900
H  35.18000 57.09700 38.45300
H  35.67000 62.79200 40.02400
H  37.18500 62.25600 40.85800
H  35.62700 62.40500 41.75300
H  31.74800 64.44300 40.58800
H  29.40200 64.17800 42.41600
H  32.93600 64.51900 42.44200
H  31.92700 63.36000 43.32600
H  31.42200 65.02200 43.19700
H  28.72300 64.80700 39.51500
H  30.06800 65.76800 40.32700
H  27.89000 66.00300 42.17300
H  27.18500 65.84800 40.48900
H  28.29700 67.13900 40.96800
H  23.93200 60.96800 40.37100
H  24.61400 62.38200 39.49200
H  25.03100 62.04800 41.25600
H  26.27900 57.33500 37.25600
H  24.20900 53.73500 38.62000
H  25.94000 53.44300 39.14600
H  25.34500 53.13000 37.49500

