158

Mg 36.62800 49.44200 25.12300
C  36.39200 47.63400 28.11600
C  35.15200 52.15900 26.75100
C  36.15500 51.05300 22.21000
C  37.77000 46.69100 23.55900
N  35.80700 49.77900 27.23500
C  35.92100 48.94300 28.29000
C  35.53400 49.62700 29.60200
C  35.12000 51.05000 29.15900
C  35.34000 51.00100 27.57200
C  33.59100 51.43700 29.55200
C  36.76800 49.72300 30.61400
C  36.51900 49.21000 32.05100
H  35.03600 49.15700 32.47800
N  35.79500 51.33500 24.64000
C  35.38100 52.31400 25.41900
C  35.30900 53.61900 24.70700
C  35.41700 53.26900 23.32200
C  35.76800 51.82300 23.35100
C  34.97100 54.92700 25.33700
C  35.30000 54.12200 22.05600
O  35.48900 53.71700 20.93400
C  35.08100 55.69200 22.17700
N  36.83700 48.92300 23.19900
C  36.63300 49.75700 22.14900
C  37.02300 49.09700 20.83400
C  37.82700 47.83000 21.33100
C  37.54700 47.82000 22.79200
C  35.82600 48.81900 19.84000
C  39.34800 47.78800 20.87200
C  40.25700 48.66600 21.68700
N  37.12400 47.61800 25.72700
C  37.64900 46.61100 24.95800
C  37.94400 45.41700 25.85100
C  37.48500 45.83300 27.06000
C  36.98100 47.13900 26.92500
C  38.61600 44.08500 25.54500
C  37.33100 45.31400 28.42300
O  37.70900 44.30200 29.00000
C  36.62000 46.50500 29.17500
C  35.33900 46.06100 29.81600
O  34.24900 46.09200 29.28500
O  35.59000 45.58400 31.06100
C  34.58100 44.66200 31.50500
H  34.74000 53.06700 27.19700
H  36.13700 51.49100 21.21000
H  38.24800 45.86900 23.02200
H  34.75300 48.93300 29.91300
H  35.74600 51.80300 29.63700
H  33.05900 50.64300 30.07400
H  32.93500 51.70100 28.72200
H  33.65200 52.18400 30.34300
H  37.12600 50.73900 30.77800
H  37.57200 49.17300 30.12500
H  37.00800 49.82200 32.80900
H  36.84500 48.17300 32.12200
H  34.00800 55.19800 24.90500
H  35.82700 55.55500 25.09000
H  34.95800 54.93200 26.42700
H  34.08400 55.78100 22.60700
H  35.01000 56.11900 21.17700
H  35.74100 56.26400 22.82800
H  37.72500 49.84200 20.45900
H  37.37900 46.91000 20.95600
H  34.87500 49.30400 20.06100
H  35.57100 47.76100 19.88400
H  36.17900 49.04700 18.83500
H  39.32800 48.07700 19.82100
H  39.70000 46.75700 20.92300
H  40.76100 49.33200 20.98700
H  41.11100 48.09600 22.05300
H  39.79500 49.26500 22.47200
H  37.99100 43.39200 24.98100
H  39.01900 43.54200 26.40000
H  39.45600 44.34200 24.89900
H  37.40400 46.73400 29.89700
H  33.91900 44.21500 30.76300
H  34.04700 45.22200 32.27200
H  35.17600 43.95200 32.08100
Mg -2.23100 34.03100 28.22500
C  -4.21300 32.55900 30.63900
C  -1.01400 36.18000 30.78700
C  -0.53000 35.63600 25.86100
C  -3.58700 31.87100 25.77600
N  -2.71700 34.38100 30.33500
C  -3.42200 33.52900 31.21800
C  -3.27000 33.94300 32.63500
C  -2.64600 35.31200 32.61000
C  -2.09600 35.31900 31.14400
C  -3.59200 36.46300 32.84600
C  -2.58300 32.90700 33.50400
C  -3.41800 32.25000 34.54500
H  -3.13900 32.53800 36.00100
N  -0.89000 35.65300 28.28400
C  -0.45800 36.33100 29.47100
C  0.64800 37.18100 29.08000
C  0.68500 37.22900 27.64700
C  -0.25800 36.14100 27.18000
C  1.31100 38.05700 30.09100
C  1.52800 38.02000 26.73600
O  1.51000 37.98400 25.48700
C  2.46200 39.03800 27.33000
N  -2.19600 33.83000 26.08800
C  -1.36900 34.61700 25.39000
C  -1.38600 34.21600 23.92500
C  -2.12100 32.82300 23.93900
C  -2.63800 32.78500 25.35500
C  -1.96000 35.28000 22.86500
C  -1.07900 31.62900 23.66800
C  0.43200 31.93200 24.03500
N  -3.60200 32.49600 28.22800
C  -4.05500 31.72900 27.13900
C  -5.12300 30.82800 27.62300
C  -5.21400 31.11500 29.01800
C  -4.28500 32.17200 29.30900
C  -5.90100 29.91200 26.83700
C  -5.88000 30.77700 30.29600
O  -6.81200 30.08800 30.55600
C  -5.16700 31.56600 31.36100
C  -6.24700 32.34700 32.10200
O  -6.53800 33.53400 31.88100
O  -6.79600 31.60400 33.13200
C  -7.73500 32.36100 34.03100
H  -0.60800 36.77800 31.60500
H  0.15000 35.95100 25.06700
H  -3.94100 31.21300 24.98000
H  -4.29600 34.03900 32.99100
H  -1.78700 35.45300 33.26600
H  -3.49600 37.29000 32.14200
H  -3.50300 36.86900 33.85400
H  -4.60200 36.07100 32.72600
H  -1.63100 33.27800 33.88500
H  -2.19200 32.26300 32.71600
H  -3.56500 31.17200 34.48300
H  -4.47400 32.43100 34.34400
H  0.78100 38.09700 31.04300
H  1.35000 39.10300 29.79000
H  2.31000 37.63800 30.21700
H  3.16400 39.37600 26.56700
H  2.97900 38.36600 28.01500
H  1.98100 39.88100 27.82500
H  -0.35600 34.15300 23.57600
H  -2.91800 32.74400 23.20000
H  -2.72200 35.94800 23.26500
H  -2.32100 34.62400 22.07200
H  -1.11100 35.78500 22.40600
H  -1.20000 31.35000 22.62100
H  -1.36100 30.76100 24.26400
H  1.00700 31.03800 24.27600
H  0.36800 32.56400 24.92100
H  0.88300 32.41200 23.16700
H  -6.16900 29.02700 27.41500
H  -5.41700 29.54600 25.93200
H  -6.78300 30.43400 26.46600
H  -4.57000 30.96900 32.05000
H  -7.23900 33.15600 34.58600
H  -8.14100 31.61800 34.71800
H  -8.54500 32.83300 33.47500

