158

Mg 47.90900 44.75600 42.29800
C  44.44600 43.98100 42.61500
C  48.52600 41.44600 41.72900
C  50.98000 45.65000 41.86300
C  46.98600 48.21300 42.74100
N  46.59300 42.95400 42.26700
C  45.23000 42.86400 42.30200
C  44.78800 41.39500 41.99300
C  46.10800 40.66200 42.26700
C  47.17400 41.78600 42.06300
C  46.19100 40.16000 43.79300
C  44.09600 41.33200 40.54400
C  44.89400 40.82700 39.33200
H  44.29400 40.44800 37.93000
N  49.58500 43.69100 41.77100
C  49.61200 42.29500 41.60700
C  51.03600 41.96500 41.30500
C  51.81200 43.19100 41.36800
C  50.80000 44.25400 41.70100
C  51.55500 40.57600 40.94600
C  53.30300 43.32600 41.14300
O  53.94900 42.45100 40.61900
C  54.06400 44.51200 41.61400
N  48.87700 46.67800 42.28300
C  50.23100 46.75000 42.17300
C  50.80600 48.16400 42.33000
C  49.54600 48.98400 42.73200
C  48.38600 47.94100 42.56400
C  51.90000 48.24000 43.49000
C  49.22200 50.39100 42.05200
C  48.89900 51.50600 43.02900
N  46.13500 45.80600 42.55200
C  45.94600 47.20300 42.68500
C  44.53400 47.47800 42.86200
C  43.94500 46.21000 42.94000
C  44.97000 45.23700 42.82000
C  43.85900 48.81500 42.73800
C  42.68600 45.58800 42.87200
O  41.53500 46.00700 42.84500
C  42.90900 44.08500 42.76400
C  42.51200 43.33900 43.96800
O  41.64800 42.44700 44.09500
O  43.20000 43.77400 45.11400
C  42.85800 43.18000 46.43900
H  48.78600 40.38600 41.74500
H  52.05100 45.77900 41.69600
H  46.69500 49.22300 43.03500
H  43.89400 41.26900 42.60300
H  46.33400 39.81200 41.62400
H  45.24500 40.37800 44.28800
H  47.07000 40.62300 44.24100
H  46.25900 39.07500 43.71800
H  43.83000 42.35500 40.28000
H  43.21400 40.70000 40.64200
H  45.38400 39.90100 39.63400
H  45.67600 41.54800 39.09300
H  50.87900 39.79300 41.29100
H  52.46500 40.43200 41.52800
H  51.82700 40.38300 39.90800
H  53.80900 45.33800 40.95000
H  55.12300 44.26400 41.54300
H  53.79100 44.74100 42.64400
H  51.09600 48.61900 41.38300
H  49.48900 49.12000 43.81200
H  52.89800 48.09000 43.07800
H  51.76600 47.41100 44.18500
H  51.81600 49.26600 43.84700
H  48.44700 50.34600 41.28700
H  50.09400 50.72700 41.49200
H  48.94400 51.12500 44.04900
H  47.90100 51.93900 43.08600
H  49.59600 52.34400 43.04400
H  43.43600 48.77900 41.73400
H  44.63700 49.57400 42.82600
H  43.01700 48.93800 43.41900
H  42.51500 43.70600 41.82100
H  42.39000 42.19700 46.39200
H  42.26400 43.80300 47.10800
H  43.78700 42.85200 46.90300
Mg -4.83900 25.22600 25.30800
C  -3.28900 26.73200 28.01000
C  -6.44000 23.07000 27.44400
C  -5.99300 23.64400 22.59600
C  -2.93200 27.34700 23.19600
N  -4.84700 24.86700 27.41800
C  -4.16700 25.68600 28.37200
C  -4.57800 25.34300 29.75900
C  -5.40900 24.02500 29.57600
C  -5.58300 23.97300 28.07900
C  -4.78000 22.76700 30.18300
C  -5.23300 26.52600 30.51700
C  -4.89100 26.75900 32.01200
H  -4.80700 25.36800 32.75800
N  -6.08300 23.61400 25.05600
C  -6.67500 22.89800 26.03800
C  -7.55300 21.93100 25.46600
C  -7.41300 21.97400 24.03400
C  -6.50700 23.15700 23.83300
C  -8.42700 21.04400 26.29000
C  -8.08500 21.19600 22.89600
O  -7.90000 21.43500 21.70200
C  -8.95800 20.05800 23.22900
N  -4.54500 25.53200 23.13600
C  -5.11000 24.68200 22.26500
C  -4.53300 24.91900 20.83500
C  -3.79000 26.33200 20.95700
C  -3.71800 26.42400 22.50900
C  -3.65600 23.74700 20.32800
C  -4.63100 27.50100 20.33400
C  -4.15500 28.03400 18.98700
N  -3.53700 26.88900 25.51400
C  -2.77200 27.51100 24.58300
C  -1.90000 28.45100 25.24400
C  -2.04400 28.19000 26.62500
C  -3.02500 27.19100 26.71600
C  -1.02200 29.46300 24.52700
C  -1.54800 28.53100 27.93300
O  -0.67100 29.30800 28.36000
C  -2.36300 27.61600 28.86700
C  -1.49400 26.87900 29.94100
O  -1.05400 25.75800 29.81800
O  -1.51000 27.61700 31.08800
C  -0.88700 26.95600 32.23300
H  -7.02900 22.38200 28.05300
H  -6.18600 23.11900 21.65800
H  -2.41400 28.13700 22.65000
H  -3.68100 25.16100 30.35000
H  -6.41700 24.08900 29.98600
H  -5.53200 22.13400 30.65400
H  -4.12800 23.02000 31.01900
H  -4.32100 22.15700 29.40400
H  -6.31700 26.41400 30.54300
H  -5.11100 27.46300 29.97400
H  -5.61400 27.34900 32.57600
H  -3.94200 27.28700 32.10100
H  -8.12300 19.99700 26.30300
H  -9.34600 21.10400 25.70700
H  -8.59700 21.38600 27.31100
H  -8.40600 19.39200 23.89200
H  -9.28300 19.60400 22.29300
H  -9.90600 20.33200 23.69300
H  -5.41700 24.94100 20.19700
H  -2.80300 26.31800 20.49400
H  -4.27600 22.85400 20.40600
H  -2.75100 23.67600 20.93100
H  -3.39400 23.82700 19.27300
H  -4.60700 28.39500 20.95700
H  -5.64300 27.10500 20.24000
H  -4.02600 29.11600 19.03000
H  -5.03400 27.87400 18.36300
H  -3.28500 27.50600 18.59600
H  -1.41600 30.47600 24.61500
H  -0.96300 29.34000 23.44500
H  -0.08100 29.46300 25.07700
H  -3.12400 28.17200 29.41500
H  -0.79800 25.87300 32.14700
H  -1.41000 27.08800 33.18000
H  0.07900 27.45400 32.31200

