158

Mg 8.98700 3.97900 27.99400
C  10.34200 2.22200 30.67800
C  7.13700 5.80700 30.18200
C  7.67700 5.37700 25.33600
C  10.51400 1.46700 25.87900
N  8.75000 3.98500 30.20800
C  9.44600 3.22600 31.10600
C  9.18800 3.73100 32.57700
C  7.98700 4.78900 32.35800
C  8.02100 4.98700 30.82500
C  6.62900 4.23100 32.85500
C  10.50000 4.25800 33.39100
C  10.76600 3.71900 34.74400
H  11.10200 4.77500 35.82400
N  7.74800 5.43300 27.79900
C  7.04900 6.00200 28.81100
C  6.28100 7.11400 28.22100
C  6.58500 7.17000 26.79800
C  7.35300 5.89600 26.54200
C  5.51900 8.18100 28.98500
C  6.28700 8.21700 25.77700
O  6.71900 8.15900 24.63300
C  5.39500 9.46000 26.14900
N  8.97200 3.39300 25.90900
C  8.40800 4.21900 25.00200
C  8.68400 3.77500 23.55200
C  9.63000 2.54200 23.69400
C  9.72100 2.39900 25.24100
C  7.38700 3.54700 22.71000
C  10.99200 2.57100 22.99700
C  11.44200 1.29400 22.27100
N  10.15700 2.21000 28.15000
C  10.72900 1.31000 27.28100
C  11.37900 0.21500 27.96000
C  11.35900 0.55600 29.31800
C  10.64400 1.73500 29.36800
C  12.13000 -0.98000 27.32500
C  11.87300 0.18500 30.63500
O  12.62700 -0.74700 30.95300
C  11.17400 1.21700 31.58600
C  10.39000 0.38800 32.48700
O  9.27700 -0.07300 32.20500
O  11.04900 0.30400 33.68000
C  10.36900 -0.35300 34.76900
H  6.41800 6.32000 30.82400
H  7.33300 5.85400 24.41600
H  10.91800 0.68900 25.22900
H  8.76900 2.92800 33.18400
H  8.09000 5.72800 32.90300
H  6.48600 4.70600 33.82600
H  6.64600 3.15000 32.98800
H  5.76300 4.52900 32.26400
H  10.38000 5.33700 33.48900
H  11.41500 3.94800 32.88800
H  11.67700 3.13700 34.61200
H  9.96000 3.11900 35.16700
H  4.63800 8.38900 28.37800
H  6.04300 9.12900 29.11100
H  5.08200 7.93600 29.95400
H  4.37500 9.20500 26.43600
H  5.28500 9.98800 25.20200
H  5.83600 10.12500 26.89200
H  9.17900 4.65000 23.13100
H  9.00800 1.71600 23.34900
H  6.59100 4.13800 23.16400
H  7.11100 2.53100 22.42500
H  7.68300 4.04700 21.78800
H  11.77300 2.90200 23.68100
H  10.91800 3.30200 22.19200
H  12.12300 1.50600 21.44700
H  10.55700 0.76900 21.91100
H  11.85500 0.65900 23.05400
H  12.13200 -1.83100 28.00600
H  13.04800 -0.65500 26.83500
H  11.48600 -1.34600 26.52600
H  12.01800 1.70600 32.07300
H  11.01800 -0.85900 35.48400
H  9.62600 -1.08900 34.46200
H  9.90600 0.42800 35.37200
Mg 27.05500 50.26400 27.01200
C  25.16500 51.65600 29.59100
C  29.53900 49.83700 29.17800
C  28.79200 49.14400 24.41200
C  24.56400 51.41900 24.73900
N  27.27400 50.74300 29.13800
C  26.38800 51.07000 30.04200
C  26.90400 50.98700 31.45700
C  28.40900 50.91300 31.30700
C  28.46900 50.46800 29.74200
C  29.02000 52.25800 31.46400
C  26.39200 49.71000 32.19400
C  25.13300 49.90200 33.03100
H  25.25600 49.88000 34.55500
N  28.90500 49.50000 26.83300
C  29.73200 49.27700 27.88900
C  30.88600 48.49700 27.42600
C  30.76600 48.42400 26.01800
C  29.44200 49.04400 25.64300
C  31.97300 48.09000 28.30900
C  31.77800 47.92600 25.05900
O  31.59900 47.89700 23.85400
C  33.13000 47.51400 25.48200
N  26.80900 50.58100 24.79400
C  27.62000 49.77500 24.02800
C  27.04700 49.53700 22.68100
C  25.68000 50.19700 22.80300
C  25.69400 50.86600 24.15200
C  28.06000 50.11100 21.55700
C  24.45000 49.25900 22.70900
C  23.46400 49.62300 21.60200
N  25.23600 51.36200 27.11800
C  24.28500 51.69900 26.09900
C  23.16300 52.38400 26.70800
C  23.48400 52.42700 28.01900
C  24.70800 51.71400 28.22300
C  21.98600 52.95600 26.00300
C  22.96500 52.81500 29.31400
O  21.91100 53.35400 29.59200
C  24.02400 52.28000 30.45100
C  24.49600 53.50900 31.21700
O  25.43400 54.25400 30.86500
O  23.63600 53.68100 32.27100
C  23.88300 54.92100 33.11900
H  30.39200 49.71900 29.85000
H  29.21200 48.48400 23.65000
H  23.76300 51.57700 24.01400
H  26.62800 51.88300 32.01300
H  28.80900 50.18600 32.01500
H  28.38800 53.00800 30.98800
H  29.95900 52.43700 30.93900
H  29.09300 52.44300 32.53500
H  27.08200 49.21800 32.88000
H  26.21500 48.96300 31.42000
H  24.44700 49.13100 32.68100
H  24.76200 50.87800 32.71500
H  31.65900 48.13400 29.35200
H  32.93000 48.60000 28.20000
H  32.21300 47.04700 28.10200
H  33.74400 48.36700 25.77100
H  33.66300 47.08400 24.63400
H  32.88300 46.76400 26.23300
H  26.86700 48.46400 22.61600
H  25.58800 50.93200 22.00300
H  28.93300 50.37200 22.15600
H  27.80900 50.99400 20.97000
H  28.26100 49.35100 20.80200
H  23.82700 49.04100 23.57600
H  24.90400 48.30900 22.42600
H  23.48300 50.70900 21.50800
H  22.43200 49.34700 21.81700
H  23.67100 49.13200 20.65200
H  22.13000 54.02600 25.85300
H  21.04500 52.76100 26.51600
H  21.93900 52.45400 25.03600
H  23.48100 51.55800 31.06200
H  24.78700 54.74400 33.70100
H  23.01800 55.02200 33.77400
H  23.81200 55.86700 32.58300

