158

Mg 36.04200 48.59800 24.83600
C  36.04500 46.67500 27.85700
C  34.14200 50.84000 26.47600
C  35.10100 49.93100 21.84000
C  37.13200 45.78800 23.18500
N  35.08500 48.63700 26.95800
C  35.34900 47.88900 28.01700
C  35.05300 48.68300 29.32000
C  34.25000 49.88300 28.76700
C  34.56100 49.82900 27.33000
C  32.69200 49.94600 29.18500
C  36.35000 49.13600 30.02700
C  36.29600 49.64900 31.54300
H  34.96900 49.64700 32.36100
N  34.99700 50.37200 24.22900
C  34.33900 51.14200 25.06300
C  33.83800 52.35900 24.37200
C  34.18400 52.05800 23.02300
C  34.71400 50.69200 22.96700
C  33.00500 53.49900 24.92600
C  34.15300 52.97300 21.83500
O  34.58600 52.60400 20.73700
C  33.68600 54.43300 22.02700
N  35.92500 47.92200 22.87600
C  35.57400 48.66000 21.85400
C  35.72800 47.91100 20.41400
C  36.52800 46.69800 20.87100
C  36.55500 46.76600 22.42400
C  34.31600 47.58000 19.82400
C  37.96100 46.65000 20.22800
C  38.89900 47.83900 20.57400
N  36.47700 46.59500 25.37600
C  37.08000 45.65000 24.59700
C  37.41100 44.51400 25.42200
C  37.09300 44.90100 26.76500
C  36.54300 46.19400 26.61700
C  37.97400 43.20400 24.99300
C  36.99700 44.53900 28.13300
O  37.22100 43.45000 28.64700
C  36.49900 45.77800 28.96600
C  35.54700 45.34600 30.07300
O  34.54800 44.71200 29.90600
O  36.04600 45.89300 31.20600
C  35.15000 45.61000 32.39900
H  33.44900 51.58500 26.87200
H  34.89300 50.36000 20.85800
H  37.47900 44.87500 22.69700
H  34.48500 48.08900 30.03500
H  34.55900 50.85500 29.15100
H  32.47700 49.10000 29.83700
H  32.06600 49.85500 28.29700
H  32.52300 50.90900 29.66600
H  36.78700 49.89000 29.37200
H  37.11800 48.36900 30.13000
H  36.55300 50.70800 31.52300
H  37.12400 49.21600 32.10500
H  33.56400 54.42700 25.04200
H  32.71000 53.30400 25.95700
H  32.10400 53.53400 24.31300
H  33.75600 54.96100 21.07500
H  34.46300 54.78600 22.70500
H  32.69000 54.44300 22.46800
H  36.28400 48.49400 19.67900
H  36.08500 45.74600 20.58000
H  34.33400 46.51100 19.61300
H  34.11300 48.12500 18.90200
H  33.58700 47.82100 20.59700
H  37.97500 46.58700 19.14000
H  38.48900 45.76200 20.57700
H  38.89300 48.51500 19.71900
H  39.88100 47.37500 20.67500
H  38.70300 48.49700 21.42000
H  38.57100 43.42900 24.10900
H  37.13600 42.58300 24.67900
H  38.63900 42.88800 25.79700
H  37.39100 46.09200 29.50800
H  35.22200 44.65100 32.91300
H  34.12500 45.70000 32.04100
H  35.34300 46.36800 33.15700
Mg 0.96000 42.47900 25.31700
C  1.92000 42.44600 28.78000
C  -1.84200 41.01000 26.24200
C  0.64000 41.88400 22.13900
C  4.11500 43.91200 24.61900
N  0.06600 42.00400 27.30000
C  0.58200 42.22600 28.55200
C  -0.47500 42.02000 29.59400
C  -1.68200 41.31200 28.79800
C  -1.16500 41.45600 27.33900
C  -2.03300 39.84600 29.23800
C  -0.99600 43.30600 30.24800
C  -1.44500 43.39400 31.71800
H  -1.84900 42.07800 32.38700
N  -0.46000 41.68700 24.32200
C  -1.47900 41.07100 24.85400
C  -2.30500 40.45800 23.83200
C  -1.64400 40.69000 22.59400
C  -0.41700 41.46900 22.94400
C  -3.47600 39.65700 24.31100
C  -1.98300 40.27500 21.17500
O  -1.22900 40.50200 20.22000
C  -3.45700 39.68100 20.91100
N  2.17000 42.97800 23.62800
C  1.77600 42.59100 22.38100
C  2.62700 43.12800 21.24200
C  3.63300 43.96500 22.13600
C  3.34300 43.58200 23.52300
C  3.28600 42.07900 20.30900
C  3.56500 45.49400 21.92600
C  4.11900 45.85900 20.55900
N  2.72800 42.95800 26.38900
C  3.97300 43.48900 25.93000
C  4.91300 43.57000 27.07800
C  4.12800 43.13800 28.18800
C  2.84900 42.73500 27.67300
C  6.29700 44.25300 27.02200
C  4.12600 42.99600 29.61500
O  5.05100 43.02300 30.43600
C  2.71200 42.73300 30.02300
C  2.68300 41.57100 30.91400
O  2.87700 40.42900 30.59800
O  2.38100 41.99200 32.18100
C  2.19600 40.88500 33.12300
H  -2.83400 40.64700 26.51800
H  0.58000 41.69000 21.06600
H  5.06100 44.40400 24.38100
H  -0.19700 41.33200 30.39200
H  -2.52900 41.99500 28.73500
H  -1.77700 39.23000 28.37600
H  -3.05800 39.63500 29.54300
H  -1.41300 39.53000 30.07800
H  -1.75700 43.81000 29.65200
H  -0.16500 44.00700 30.17800
H  -2.09100 44.27100 31.74400
H  -0.52000 43.71900 32.19500
H  -3.98700 38.97800 23.62900
H  -4.06200 40.44700 24.78100
H  -3.10700 38.89000 24.99200
H  -4.14700 40.30200 21.48200
H  -3.51200 38.69700 21.37700
H  -3.90400 39.75800 19.91900
H  2.12400 43.91700 20.68200
H  4.67900 43.70600 21.97200
H  4.36400 42.10400 20.47000
H  3.04700 42.05300 19.24600
H  3.02000 41.08200 20.66100
H  4.36700 45.86800 22.56200
H  2.62100 45.95200 22.22400
H  4.99800 46.50100 20.60900
H  3.41400 46.54300 20.08700
H  4.19600 45.04700 19.83700
H  6.98400 43.81400 27.74600
H  6.16600 45.31800 27.21500
H  6.78100 44.17200 26.04900
H  2.26100 43.56700 30.56000
H  3.19900 40.78700 33.53900
H  1.89700 39.97500 32.60200
H  1.49300 41.22900 33.88100

