158

Mg 0.07700 7.02800 26.01400
C  0.82900 9.16800 28.63600
C  -0.43200 4.50000 28.23200
C  -0.49300 5.04400 23.47800
C  0.96400 9.64400 23.76000
N  0.11300 6.94800 28.25400
C  0.49100 7.88300 29.15400
C  0.32600 7.44700 30.63200
C  0.32400 5.85400 30.32500
C  -0.02800 5.72800 28.79100
C  1.58900 5.07100 30.62200
C  -0.85500 8.19800 31.35000
C  -0.94500 7.77900 32.83900
H  0.12100 6.91200 33.52900
N  -0.56600 5.10600 25.92300
C  -0.66000 4.23800 26.92300
C  -1.02600 2.90600 26.37000
C  -0.99000 3.06800 24.95300
C  -0.67400 4.47500 24.74600
C  -1.20000 1.64800 27.22300
C  -1.16000 1.97200 23.88200
O  -1.02200 2.21000 22.71300
C  -1.46400 0.56300 24.36700
N  0.30000 7.28200 23.90100
C  -0.01800 6.24400 23.09800
C  0.23400 6.67300 21.63400
C  0.53700 8.24200 21.69000
C  0.59300 8.43900 23.17900
C  1.15400 5.83400 20.84000
C  -0.42500 9.22300 20.89000
C  -1.87200 9.38900 21.39100
N  0.74300 8.96000 26.10300
C  1.00100 9.89200 25.13300
C  1.39200 11.14500 25.72800
C  1.39700 10.91400 27.12400
C  0.98200 9.53700 27.24200
C  1.64600 12.35200 25.00100
C  1.63300 11.48100 28.39400
O  2.01800 12.62900 28.69500
C  1.29800 10.37200 29.42100
C  2.42400 10.20200 30.31600
O  3.57500 9.95900 30.13300
O  1.92500 10.60500 31.56800
C  2.80700 10.92600 32.63900
H  -0.56400 3.65900 28.91500
H  -0.75800 4.45000 22.60000
H  1.27900 10.47300 23.12300
H  1.25600 7.67700 31.15100
H  -0.54900 5.42200 30.81500
H  1.87200 4.42000 29.79500
H  1.32400 4.43000 31.46300
H  2.43100 5.65000 31.00000
H  -1.78100 8.06900 30.79100
H  -0.56000 9.24800 31.37300
H  -1.93800 7.33700 32.91600
H  -0.86300 8.68200 33.44500
H  -0.37200 0.94500 27.31000
H  -2.07300 1.11400 26.84700
H  -1.49100 1.90800 28.24000
H  -0.62200 0.22600 24.97100
H  -1.51900 -0.07100 23.48200
H  -2.39000 0.40200 24.91900
H  -0.72400 6.60100 21.11900
H  1.51500 8.52200 21.29800
H  1.17000 4.84000 21.28900
H  2.13300 6.31300 20.84500
H  0.92400 5.84800 19.77500
H  -0.63000 8.69400 19.95900
H  0.06000 10.18600 20.72800
H  -2.51100 8.64200 20.92100
H  -2.23700 10.40400 21.23400
H  -1.85900 9.21200 22.46600
H  1.94800 13.27600 25.49500
H  0.70400 12.73000 24.60500
H  2.38300 12.25500 24.20300
H  0.38700 10.66900 29.94200
H  2.76000 10.04600 33.28000
H  2.35200 11.79800 33.10900
H  3.79900 11.15900 32.25200
Mg 47.10600 15.90100 28.60200
C  44.80500 15.77300 31.31500
C  49.12600 17.81500 30.74100
C  48.92800 16.71000 25.89700
C  44.53600 14.72000 26.52800
N  46.83700 16.89100 30.71600
C  45.95900 16.49300 31.66500
C  46.38600 16.85600 33.11900
C  47.58700 17.82300 32.75900
C  47.93600 17.46900 31.30100
C  47.36300 19.36500 32.86300
C  46.86400 15.55300 33.83200
C  46.63600 15.59800 35.36000
H  46.37900 16.98100 35.96700
N  48.87100 16.95700 28.38100
C  49.54700 17.72100 29.33500
C  50.77200 18.20700 28.79100
C  50.75900 17.88200 27.38000
C  49.56100 17.05200 27.13500
C  51.69900 19.13600 29.65500
C  51.67500 18.30600 26.28800
O  51.76100 17.76000 25.19900
C  52.80000 19.24400 26.63200
N  46.81200 15.59900 26.47300
C  47.69700 16.15400 25.58500
C  47.12400 15.97200 24.09400
C  45.79000 15.29700 24.30100
C  45.70200 15.09400 25.86600
C  47.04000 17.34300 23.46300
C  45.61900 14.00200 23.51100
C  46.20400 12.69300 23.98400
N  45.20100 15.15700 28.89200
C  44.29900 14.73200 27.91400
C  43.02900 14.39500 28.59800
C  43.21500 14.71500 29.94300
C  44.54500 15.22300 30.10400
C  41.74500 13.94700 28.02500
C  42.54100 14.84400 31.32900
O  41.39500 14.62800 31.65300
C  43.61500 15.49500 32.23200
C  43.06300 16.69500 32.92100
O  42.74700 17.76900 32.43200
O  42.96600 16.27500 34.31100
C  42.43600 17.33000 35.16000
H  49.82200 18.26000 31.45600
H  49.51400 16.96100 25.01000
H  43.67800 14.59500 25.86400
H  45.47700 17.25300 33.57200
H  48.46300 17.62500 33.37600
H  48.16500 19.95000 33.31200
H  46.42700 19.69300 33.31600
H  47.28200 19.75100 31.84700
H  47.94100 15.58200 33.67200
H  46.41000 14.63400 33.46200
H  47.54700 15.24500 35.84200
H  45.83600 14.92600 35.67200
H  52.64100 18.67200 29.94900
H  51.23800 19.25100 30.63600
H  51.95400 20.09900 29.21400
H  53.27900 19.07500 27.59600
H  52.39600 20.24800 26.50700
H  53.57300 18.93200 25.92900
H  47.87500 15.33300 23.62900
H  44.97500 15.99400 24.10800
H  45.99700 17.41000 23.15200
H  47.60900 17.44400 22.53900
H  47.40800 18.12900 24.12200
H  46.17900 14.16400 22.59000
H  44.61500 13.91700 23.09600
H  46.45900 12.01400 23.17100
H  45.42800 12.17100 24.54400
H  47.04300 12.86600 24.65900
H  41.72700 14.11000 26.94700
H  40.93300 14.46700 28.53200
H  41.68600 12.86700 28.15700
H  43.84200 14.65200 32.88500
H  42.92200 18.30200 35.07600
H  42.39100 16.93300 36.17400
H  41.42500 17.44300 34.76900

