158

Mg 46.94900 24.56800 27.71200
C  47.58300 26.79300 30.33800
C  45.69200 22.31000 30.10300
C  46.41800 22.40600 25.28100
C  48.47300 26.73100 25.47700
N  46.55000 24.58400 29.98200
C  46.89600 25.62500 30.78700
C  46.59800 25.30100 32.25000
C  46.05900 23.83400 32.12800
C  46.11300 23.53400 30.64400
C  46.91800 22.74900 32.86200
C  45.64300 26.31800 32.91500
C  46.13700 26.99800 34.23400
H  45.28000 26.87800 35.52600
N  46.08600 22.66300 27.67600
C  45.59300 21.94500 28.72400
C  45.07200 20.71400 28.25300
C  45.27800 20.64000 26.86500
C  45.91300 21.93400 26.51900
C  44.35400 19.60600 29.19000
C  45.00200 19.49100 25.82900
O  45.32200 19.48200 24.69700
C  44.30600 18.21600 26.34200
N  47.58900 24.50000 25.71000
C  47.00800 23.58800 24.86100
C  47.47700 23.84600 23.41800
C  47.86800 25.32900 23.48800
C  47.99300 25.52400 24.95400
C  48.64100 22.87100 23.06200
C  46.85800 26.30400 22.86800
C  45.45600 26.39900 23.46100
N  47.87200 26.42600 27.80200
C  48.44600 27.19300 26.79400
C  49.10900 28.31100 27.43300
C  48.80400 28.17500 28.85600
C  48.00100 27.04900 28.97000
C  50.06800 29.30300 26.92700
C  48.98200 28.78500 30.09400
O  49.63800 29.80200 30.41100
C  48.19100 27.91800 31.11500
C  49.10500 27.43900 32.13800
O  49.94800 26.60500 31.91400
O  48.96100 28.11500 33.30700
C  50.03300 28.10400 34.32200
H  45.48200 21.58400 30.89100
H  46.00300 21.71600 24.54400
H  48.97900 27.40700 24.78600
H  47.56100 25.18500 32.74800
H  45.07100 23.77200 32.58400
H  46.35700 22.11400 33.54800
H  47.78500 23.15600 33.38200
H  47.36400 22.06600 32.13800
H  44.65100 25.87000 32.98600
H  45.47800 27.19100 32.28500
H  46.26500 28.06000 34.02000
H  47.09600 26.51400 34.41700
H  44.58600 19.72100 30.24800
H  44.56900 18.54900 29.03400
H  43.27000 19.70900 29.13100
H  44.87100 17.68800 27.11000
H  44.11800 17.47700 25.56300
H  43.41000 18.56900 26.85200
H  46.66500 23.81500 22.69100
H  48.80000 25.52800 22.95900
H  48.39200 21.81100 23.10700
H  49.56800 23.10400 23.58500
H  48.88300 23.12300 22.03000
H  46.77400 26.13400 21.79500
H  47.29300 27.28800 23.04600
H  45.40000 27.19800 24.20000
H  45.31300 25.44400 23.96600
H  44.71500 26.52400 22.67200
H  50.56700 29.74600 27.78800
H  49.55000 30.06400 26.34400
H  50.87100 28.92800 26.29300
H  47.45100 28.55800 31.59700
H  50.25900 27.07800 34.61400
H  49.56900 28.65700 35.13800
H  50.95600 28.58800 34.00500
Mg 26.94000 49.89000 26.69300
C  24.63900 51.26400 29.03100
C  29.01500 48.96800 29.31500
C  29.23400 48.91400 24.48600
C  25.10300 51.56700 24.14100
N  26.78900 50.08400 28.83700
C  25.73900 50.60700 29.59600
C  25.97800 50.32000 31.12500
C  27.51600 49.88100 31.12900
C  27.78700 49.63200 29.65500
C  28.47600 50.96100 31.80300
C  24.93100 49.26500 31.60600
C  24.52300 49.22300 33.08300
H  25.28700 49.97000 34.23500
N  28.88000 49.07500 26.86800
C  29.55600 48.76900 28.03600
C  30.81500 48.11800 27.60400
C  30.96500 48.27800 26.19100
C  29.65000 48.78900 25.76500
C  31.79300 47.41400 28.58800
C  32.13800 48.01000 25.17600
O  32.14400 48.29100 24.01200
C  33.37100 47.27800 25.82500
N  27.13800 50.20800 24.69200
C  28.02400 49.43000 23.96500
C  27.61100 49.32200 22.43800
C  26.48700 50.47500 22.40200
C  26.19500 50.73300 23.84000
C  28.63200 49.55200 21.36100
C  25.24200 50.02300 21.53900
C  24.60900 51.10900 20.68700
N  25.21100 51.20000 26.53700
C  24.61500 51.70000 25.48000
C  23.51000 52.54600 25.91500
C  23.46400 52.39000 27.32500
C  24.50100 51.53500 27.64700
C  22.67500 53.46700 25.08700
C  22.80900 52.74100 28.59500
O  21.80700 53.38400 28.73200
C  23.45300 51.87900 29.69800
C  23.86400 52.85100 30.77800
O  24.71000 53.73600 30.71900
O  23.14700 52.52000 31.95400
C  23.53500 53.41900 33.14100
H  29.57100 48.52500 30.14400
H  29.89900 48.42100 23.77300
H  24.73200 52.22500 23.35300
H  25.82900 51.26500 31.64700
H  27.76000 48.91100 31.56300
H  27.93800 51.87100 32.06700
H  29.24500 51.15200 31.05400
H  28.87700 50.50300 32.70700
H  25.24600 48.24600 31.38200
H  24.01000 49.35600 31.03000
H  24.65000 48.17000 33.33400
H  23.46500 49.48300 33.10600
H  31.61500 46.34600 28.46400
H  31.51000 47.47600 29.63900
H  32.81400 47.78200 28.48400
H  33.72900 47.97000 26.58700
H  34.17100 47.23000 25.08600
H  33.10300 46.33800 26.30600
H  27.12100 48.38800 22.16700
H  26.87000 51.41400 22.00300
H  29.54200 49.81200 21.90200
H  28.43000 50.31200 20.60700
H  28.78000 48.57700 20.89600
H  24.52900 49.50800 22.18400
H  25.54800 49.24700 20.83800
H  23.57200 51.20600 21.00800
H  24.64000 50.89400 19.61900
H  25.12300 52.05000 20.88400
H  22.04300 52.89300 24.40900
H  23.32400 54.16900 24.56300
H  22.05800 54.08400 25.74000
H  22.80400 51.15100 30.18500
H  23.28500 54.42200 32.79700
H  24.50100 53.16400 33.57800
H  22.77000 53.45100 33.91700

