158

Mg 0.62400 -2.74700 43.43300
C  4.00000 -1.99500 42.32100
C  -0.43600 -0.22600 41.38700
C  -2.50900 -3.85200 43.79300
C  1.82100 -5.80300 44.55300
N  1.72500 -1.40100 41.93900
C  3.06700 -1.16900 41.64300
C  3.24600 -0.00400 40.67500
C  1.83100 0.67500 40.61000
C  0.96800 -0.42800 41.33100
C  1.76300 2.10800 41.24900
C  3.88600 -0.37000 39.29700
C  5.15300 0.32800 38.95300
H  5.42800 0.69800 37.47000
N  -1.25000 -1.98900 42.90600
C  -1.48900 -0.93900 42.08400
C  -2.86800 -0.68400 42.00300
C  -3.49800 -1.69200 42.77000
C  -2.42600 -2.55500 43.23400
C  -3.39000 0.50600 41.37400
C  -4.95600 -1.71100 43.00400
O  -5.69700 -0.83900 42.46900
C  -5.60700 -2.81500 43.73100
N  -0.22200 -4.69200 43.88000
C  -1.59900 -4.86100 44.02100
C  -1.86400 -6.36900 44.40400
C  -0.41900 -6.79000 44.89600
C  0.50500 -5.66800 44.46800
C  -3.01800 -6.46100 45.49300
C  0.00500 -8.20700 44.42200
C  -1.03200 -9.31400 44.39400
N  2.51000 -3.68200 43.63600
C  2.86700 -4.91800 44.15800
C  4.30900 -4.93300 44.18100
C  4.79600 -3.82700 43.50600
C  3.66400 -3.12000 43.07300
C  5.17600 -6.06700 44.83500
C  5.98500 -3.14100 43.11000
O  7.17400 -3.26100 43.43400
C  5.52500 -1.90900 42.29600
C  6.19000 -0.65900 42.68300
O  7.00500 -0.08600 41.94700
O  5.85300 -0.34200 44.00300
C  6.36700 1.02000 44.41800
H  -0.71000 0.74200 40.96100
H  -3.51600 -4.24400 43.94800
H  2.14700 -6.74300 45.00400
H  3.91700 0.63200 41.25200
H  1.51200 0.88300 39.58900
H  1.28700 2.18500 42.22700
H  1.32200 2.84200 40.57500
H  2.81500 2.31700 41.44100
H  3.20800 0.03600 38.54500
H  4.09500 -1.43300 39.18300
H  6.03700 -0.20900 39.29700
H  5.19400 1.22100 39.57600
H  -3.93600 0.29000 40.45600
H  -2.71500 1.35300 41.24800
H  -4.10100 1.03900 42.00500
H  -5.08000 -3.11900 44.63500
H  -5.63500 -3.76300 43.19600
H  -6.58700 -2.41900 43.99600
H  -2.15200 -6.97300 43.54300
H  -0.43800 -6.70700 45.98300
H  -3.23500 -5.42900 45.76700
H  -2.72000 -6.78900 46.48900
H  -3.92600 -6.94900 45.13800
H  0.79800 -8.57200 45.07400
H  0.53200 -8.18000 43.46800
H  -1.33200 -9.31000 43.34600
H  -1.93800 -9.18000 44.98400
H  -0.61900 -10.28300 44.67400
H  6.13600 -5.58100 45.01100
H  5.26800 -6.91500 44.15600
H  4.88200 -6.50300 45.79000
H  5.72800 -2.11200 41.24500
H  7.26700 1.01600 45.03300
H  5.67800 1.58000 45.05000
H  6.63400 1.68300 43.59500
Mg 7.98900 53.08800 41.81700
C  7.55900 49.63600 41.05600
C  11.06200 52.81600 40.42700
C  8.24600 56.43300 42.23000
C  4.56400 53.17000 42.56800
N  9.09900 51.46500 40.64800
C  8.70600 50.12800 40.45100
C  9.69500 49.48700 39.54200
C  11.04600 50.31700 39.83700
C  10.35100 51.57300 40.28900
C  11.89300 49.74600 40.96000
C  9.25000 49.71500 38.02400
C  9.19500 48.53200 37.08900
H  8.32100 48.56900 35.88700
N  9.43100 54.44300 41.32800
C  10.67800 54.12500 40.84700
C  11.34800 55.36200 40.67600
C  10.61400 56.34900 41.31400
C  9.34800 55.78000 41.66200
C  12.73100 55.39300 39.98300
C  11.18700 57.78200 41.54600
O  12.17100 58.07900 40.97900
C  10.42000 58.87000 42.24300
N  6.68600 54.56000 42.33900
C  6.94800 55.92400 42.40900
C  5.68000 56.80200 42.41800
C  4.55000 55.74400 42.38000
C  5.28500 54.38000 42.51000
C  5.73300 57.67700 43.74400
C  3.55800 55.79900 41.14800
C  2.06900 55.87900 41.41000
N  6.43300 51.76800 41.97800
C  5.08800 51.87700 42.39000
C  4.44700 50.56900 42.57200
C  5.43100 49.70000 42.12800
C  6.58200 50.43800 41.76100
C  3.11800 50.30500 43.19200
C  5.66300 48.29600 41.90500
O  4.98400 47.28600 42.05100
C  7.03900 48.23000 41.16400
C  6.66800 47.59800 39.82500
O  5.76700 47.86800 38.98800
O  7.55400 46.46800 39.75300
C  7.13500 45.57900 38.71200
H  12.10500 52.57900 40.20900
H  8.43900 57.46800 42.52000
H  3.47500 53.19000 42.65400
H  9.88600 48.42700 39.70700
H  11.65100 50.38800 38.93400
H  11.76100 48.66500 41.00100
H  11.66000 50.21700 41.91500
H  12.94700 49.94200 40.76400
H  9.90900 50.48200 37.61500
H  8.25100 50.14200 38.10500
H  9.10000 47.62100 37.68000
H  10.20000 48.49200 36.66900
H  12.51600 55.80000 38.99600
H  13.19200 54.41900 39.81900
H  13.56500 55.89500 40.47300
H  10.02800 58.55200 43.20900
H  9.67600 59.17600 41.50800
H  10.99500 59.79000 42.34800
H  5.62000 57.47900 41.56600
H  4.03200 55.82200 43.33600
H  5.60000 58.71400 43.43700
H  6.68900 57.49800 44.23500
H  4.99100 57.33200 44.46500
H  3.65700 55.00500 40.40800
H  3.74200 56.68000 40.53300
H  1.76500 56.77400 40.86800
H  1.80000 55.89600 42.46700
H  1.49400 55.03200 41.03600
H  2.26500 50.67700 42.62500
H  3.20100 50.82800 44.14500
H  3.06900 49.23500 43.39600
H  7.86400 47.68700 41.62500
H  7.61200 45.74300 37.74600
H  6.06500 45.47800 38.53200
H  7.50100 44.64200 39.13000

