158

Mg 40.97500 10.02700 30.20600
C  43.07000 10.95100 32.69000
C  38.76500 8.69800 32.59200
C  38.92100 8.78800 27.76400
C  43.20200 11.07300 27.79800
N  40.95400 9.80000 32.43300
C  41.89100 10.35000 33.20000
C  41.35600 10.46100 34.65800
C  40.10200 9.53100 34.64300
C  39.87000 9.31400 33.15000
C  40.19500 8.08800 35.42100
C  41.11300 11.95900 35.10200
C  41.77100 12.32400 36.48200
H  40.89000 12.74000 37.68500
N  39.18900 8.81800 30.21700
C  38.50000 8.39200 31.31100
C  37.33700 7.68000 30.88500
C  37.28900 7.71400 29.43300
C  38.50000 8.44300 29.07500
C  36.36000 6.99900 31.87400
C  36.31000 7.06500 28.38400
O  36.49400 7.05600 27.12900
C  35.28600 6.05900 28.86100
N  41.18200 9.76200 27.98500
C  40.01400 9.43000 27.29200
C  40.31900 9.62800 25.79700
C  41.73700 10.29400 25.79800
C  42.00000 10.51100 27.25800
C  40.16700 8.44200 24.88000
C  42.03100 11.48200 24.80300
C  41.21400 12.72400 25.21100
N  42.86000 10.70800 30.24000
C  43.57400 11.15400 29.19200
C  44.79800 11.76600 29.69400
C  44.64500 11.74600 31.06300
C  43.45900 11.01400 31.35600
C  45.85700 12.28000 28.78400
C  45.20700 12.16100 32.25300
O  46.30100 12.73100 32.47600
C  44.18200 11.66800 33.46200
C  44.88700 10.81200 34.45100
O  44.91200 9.58600 34.61000
O  45.50600 11.67600 35.36400
C  46.04600 11.02600 36.60000
H  38.05100 8.40400 33.36400
H  38.31200 8.29200 27.00600
H  43.84300 11.53800 27.04700
H  42.17500 9.94900 35.16400
H  39.32600 10.14400 35.10300
H  40.71300 8.34600 36.34500
H  40.68200 7.27600 34.88100
H  39.19500 7.78200 35.72900
H  40.08000 12.28600 35.22700
H  41.50500 12.59100 34.30500
H  42.49900 13.11200 36.29100
H  42.40600 11.47600 36.73900
H  36.50100 7.15300 32.94300
H  36.19900 5.94600 31.63900
H  35.43100 7.48800 31.58100
H  34.48800 6.60000 29.37100
H  35.77400 5.37800 29.55700
H  34.92300 5.37900 28.09000
H  39.55200 10.33500 25.48100
H  42.42300 9.58200 25.34100
H  40.88700 8.37300 24.06400
H  39.14100 8.38700 24.51500
H  40.33400 7.59000 25.53800
H  41.71300 11.25700 23.78500
H  43.10400 11.66400 24.75800
H  40.62300 12.53900 26.10700
H  40.55100 13.13100 24.44800
H  41.85500 13.53600 25.55500
H  45.49000 13.15800 28.25100
H  46.15800 11.56000 28.02300
H  46.75300 12.40500 29.39200
H  43.80800 12.57300 33.94300
H  46.87900 10.38300 36.31600
H  45.28700 10.45900 37.13800
H  46.65700 11.64900 37.25300
Mg 9.71000 47.97200 25.46200
C  7.58200 48.10000 28.09700
C  12.32100 49.09700 27.46400
C  11.66900 47.73500 22.89600
C  6.88300 47.78500 23.31500
N  9.90600 48.44800 27.54500
C  8.93400 48.40600 28.46500
C  9.54200 48.61000 29.88900
C  10.78900 49.39600 29.51600
C  11.07000 48.90300 28.08700
C  10.68900 50.90000 29.74300
C  9.54800 47.28400 30.72600
C  10.68300 47.08600 31.61000
H  10.41000 46.10600 32.88100
N  11.70300 48.41200 25.21100
C  12.64300 48.78600 26.15000
C  13.93600 48.82700 25.55100
C  13.78200 48.26900 24.24800
C  12.36100 48.14100 24.03100
C  15.15300 49.32900 26.26900
C  14.83700 47.91700 23.23100
O  14.61600 47.29500 22.20800
C  16.26600 48.03700 23.58700
N  9.28400 48.06900 23.31600
C  10.34100 47.75500 22.54500
C  9.89700 47.61600 21.07300
C  8.37700 47.28300 21.31100
C  8.14900 47.76300 22.69300
C  10.25800 48.91500 20.21400
C  7.85200 45.79600 21.11600
C  8.09400 44.74800 22.19900
N  7.63600 47.87200 25.63100
C  6.61500 47.76400 24.69100
C  5.30800 47.65800 25.35300
C  5.66600 47.71300 26.71100
C  7.06200 47.96800 26.80100
C  3.96700 47.39900 24.80900
C  5.18700 47.54800 28.06200
O  4.08500 47.28500 28.53100
C  6.40800 47.88000 28.96600
C  6.56400 46.73000 29.92400
O  6.87500 45.63200 29.62500
O  5.92500 47.09600 31.04400
C  5.34300 46.07700 31.90400
H  13.12200 49.48100 28.10000
H  12.24800 47.51900 21.99600
H  6.04600 47.66100 22.62400
H  8.93500 49.35800 30.39900
H  11.69500 49.14900 30.07000
H  11.27700 51.45200 29.01000
H  11.09200 51.11900 30.73200
H  9.68100 51.25100 29.52300
H  9.49900 46.42000 30.06200
H  8.69400 47.32900 31.40100
H  11.13700 48.05200 31.83100
H  11.53000 46.69800 31.04300
H  16.03300 48.69300 26.17100
H  14.94700 49.62100 27.29800
H  15.55100 50.23000 25.80300
H  16.90100 47.82300 22.72700
H  16.56100 47.35500 24.38400
H  16.43000 49.07600 23.87200
H  10.44800 46.76600 20.67200
H  7.73000 47.88900 20.67800
H  10.46200 49.72900 20.91000
H  9.45600 49.20900 19.53700
H  11.16000 48.71900 19.63300
H  8.34500 45.48200 20.19600
H  6.79400 45.83600 20.85800
H  9.12800 45.00500 22.43000
H  8.02500 43.78400 21.69600
H  7.42700 44.90100 23.04700
H  3.68900 48.05400 23.98300
H  3.24900 47.57800 25.60900
H  3.88900 46.38600 24.41300
H  6.11200 48.72700 29.58500
H  4.44100 46.55300 32.28900
H  6.05600 45.89700 32.71000
H  5.12200 45.04800 31.62000

