158

Mg 43.98100 3.46100 47.84900
C  41.38300 5.92400 46.85400
C  41.61200 1.14300 47.24100
C  46.34300 1.36100 47.83800
C  46.19000 6.25800 47.54700
N  41.79700 3.60000 47.01700
C  40.96500 4.64100 46.90100
C  39.52900 4.21700 46.62900
C  39.53700 2.70900 47.16300
C  41.04300 2.44000 47.13700
C  38.88500 2.50700 48.55400
C  39.13000 4.32400 45.15500
C  37.64900 4.42300 44.87900
H  37.20800 5.39700 43.80100
N  43.95300 1.52900 47.74000
C  42.90600 0.70500 47.48500
C  43.31500 -0.68800 47.58500
C  44.71600 -0.68400 47.84800
C  45.11300 0.78500 47.83500
C  42.39200 -1.84400 47.30400
C  45.65100 -1.90300 48.03900
O  45.16000 -3.03600 47.84400
C  47.04900 -1.85700 48.52500
N  45.97100 3.80100 47.60500
C  46.74900 2.67400 47.66300
C  48.22200 3.02600 47.90900
C  48.19500 4.59800 47.87900
C  46.76900 4.97200 47.61000
C  48.84900 2.36600 49.14300
C  49.27800 5.26900 46.93100
C  50.06800 6.56000 47.42600
N  43.86700 5.69700 47.44000
C  44.84600 6.64700 47.34500
C  44.28800 8.02100 47.11200
C  42.94500 7.77900 47.03800
C  42.72400 6.34100 47.06500
C  44.87500 9.29700 47.00800
C  41.63000 8.38200 46.82200
O  41.24900 9.57000 46.75500
C  40.58600 7.20200 46.68300
C  39.47600 7.39700 47.62000
O  39.52700 7.36600 48.81700
O  38.31100 7.61900 46.97900
C  37.07100 7.66000 47.79200
H  40.85600 0.39200 47.00000
H  47.13800 0.61400 47.88400
H  46.92600 7.06400 47.58900
H  38.82600 4.83400 47.18900
H  39.16900 1.98200 46.43900
H  38.12200 1.73200 48.49100
H  38.20400 3.26300 48.94500
H  39.69600 2.30700 49.25500
H  39.51100 3.41000 44.70200
H  39.61400 5.16500 44.65900
H  36.98900 4.61800 45.72400
H  37.43200 3.40600 44.55300
H  42.18200 -2.03400 46.25100
H  41.42100 -1.65600 47.76300
H  42.71800 -2.75900 47.79900
H  47.64600 -1.92800 47.61600
H  47.16700 -2.73500 49.15900
H  47.17600 -0.94500 49.10900
H  48.63600 2.71000 46.95100
H  48.45700 4.90500 48.89100
H  49.34800 3.09000 49.78700
H  49.45200 1.52700 48.79700
H  48.06000 1.88800 49.72300
H  48.73100 5.66800 46.07600
H  50.02900 4.52700 46.66200
H  51.12200 6.32100 47.56700
H  49.65200 7.02300 48.32000
H  50.06500 7.35200 46.67700
H  45.83900 9.40700 46.51200
H  45.14000 9.76900 47.95400
H  44.20700 9.98500 46.49100
H  40.24600 7.20000 45.64800
H  37.01100 6.84300 48.51100
H  36.26700 7.38200 47.11100
H  36.92400 8.59300 48.33700
Mg 35.59600 49.01400 25.43100
C  35.73400 47.21200 28.37600
C  34.38800 51.66600 27.25300
C  35.22600 50.63800 22.55800
C  36.60200 46.11500 23.67400
N  35.16600 49.36700 27.60300
C  35.33200 48.50100 28.65400
C  35.11700 49.19400 30.00000
C  34.58500 50.62400 29.56300
C  34.87800 50.61400 28.07400
C  33.15600 51.02800 29.93200
C  36.26600 49.22200 31.05500
C  35.93700 48.76700 32.52300
H  35.43000 49.76600 33.44500
N  34.86000 50.94900 24.93600
C  34.38500 51.87000 25.86500
C  33.91500 53.04000 25.10100
C  34.10200 52.71400 23.72000
C  34.78300 51.39100 23.67700
C  33.36300 54.26100 25.85000
C  33.67600 53.55000 22.52300
O  33.92000 53.20000 21.32000
C  33.03000 54.85800 22.67400
N  35.81100 48.40600 23.41100
C  35.77600 49.33100 22.41800
C  36.32100 48.77500 21.09400
C  36.76900 47.33700 21.50900
C  36.41300 47.28000 22.95200
C  35.33100 48.62000 19.90700
C  38.27500 47.05400 21.27600
C  38.57800 45.79900 20.46100
N  36.10700 47.06300 25.83900
C  36.40200 45.97600 25.04100
C  36.65600 44.81000 25.83500
C  36.37100 45.22400 27.11000
C  36.04300 46.64000 27.12900
C  37.09300 43.40600 25.49100
C  36.31400 44.78900 28.46000
O  36.55600 43.72900 29.00200
C  36.09500 46.09500 29.29700
C  34.76800 45.82300 30.12100
O  33.63600 45.94300 29.68500
O  35.14300 45.42900 31.44400
C  34.04300 44.98800 32.24700
H  33.95600 52.46400 27.86000
H  35.31600 51.21800 21.63700
H  36.96300 45.19900 23.20100
H  34.23700 48.73500 30.44900
H  35.21600 51.44200 29.91300
H  32.54200 50.25700 30.39900
H  32.52600 51.19800 29.06000
H  33.15900 51.90000 30.58600
H  36.76900 50.18900 31.05600
H  36.91300 48.51600 30.53400
H  36.82500 48.44800 33.07000
H  35.20000 47.96800 32.44000
H  33.60700 55.17900 25.31700
H  33.84100 54.38500 26.82200
H  32.29600 54.18000 26.05600
H  33.65900 55.57200 23.20600
H  32.15300 54.69800 23.30100
H  32.76800 55.25700 21.69400
H  37.20800 49.34500 20.81900
H  36.23800 46.55100 20.97300
H  35.79300 49.17900 19.09400
H  34.41100 49.19000 20.03800
H  35.04400 47.61600 19.59200
H  38.75300 46.98400 22.25200
H  38.76300 47.93200 20.85200
H  39.25600 45.12500 20.98400
H  39.06400 46.00700 19.50800
H  37.71900 45.12800 20.44800
H  37.85600 43.49700 24.71800
H  36.25800 42.81900 25.10800
H  37.60700 43.06800 26.39100
H  36.86600 46.23100 30.05500
H  33.71900 43.94900 32.19200
H  33.19400 45.67200 32.21400
H  34.46700 45.05100 33.24900

