158

Mg 8.47800 4.04100 27.19700
C  9.43500 2.21200 30.15900
C  6.27800 5.81400 29.24900
C  7.40200 5.35400 24.43600
C  10.30100 1.70600 25.40500
N  7.99500 4.03700 29.47200
C  8.56100 3.26300 30.43900
C  8.25800 3.79900 31.82500
C  7.08700 4.82300 31.55700
C  7.02900 4.88800 29.96000
C  5.73800 4.62200 32.23500
C  9.44800 4.52100 32.41100
C  10.07700 3.87700 33.62500
H  10.37200 4.76100 34.81500
N  7.14100 5.46400 26.91900
C  6.30500 6.05200 27.85300
C  5.63200 7.13600 27.16700
C  6.04700 7.11800 25.82000
C  6.91600 5.92900 25.67000
C  4.62400 8.01100 27.86200
C  5.75800 8.19900 24.71900
O  6.22800 8.14200 23.57100
C  4.73800 9.30500 24.86200
N  8.77200 3.51700 25.18400
C  8.27500 4.29600 24.20300
C  8.80000 3.91100 22.77600
C  9.79800 2.76000 23.15900
C  9.65700 2.70400 24.65100
C  7.77000 3.64100 21.67200
C  11.29500 2.92900 22.73000
C  12.01000 1.84000 21.83300
N  9.52100 2.21100 27.60400
C  10.32200 1.41500 26.77900
C  11.16800 0.56000 27.50800
C  10.81000 0.82700 28.88200
C  9.84500 1.86300 28.82500
C  12.14400 -0.41100 26.84000
C  11.00600 0.49800 30.30300
O  11.67600 -0.35300 30.83900
C  10.20900 1.40400 31.11200
C  9.31300 0.69100 32.08000
O  8.18300 0.42100 31.98100
O  10.05000 0.43400 33.17800
C  9.20000 0.06000 34.35500
H  5.76000 6.43800 29.98000
H  7.10000 5.82900 23.50000
H  10.91100 0.99500 24.84500
H  7.82800 3.08800 32.53000
H  7.37000 5.83000 31.86300
H  5.79000 3.79800 32.94800
H  4.91500 4.38700 31.56000
H  5.39900 5.58000 32.62900
H  9.23700 5.57000 32.62100
H  10.16400 4.56900 31.59000
H  11.03200 3.53500 33.22900
H  9.52000 3.03900 34.04400
H  4.40700 7.65000 28.86700
H  3.64600 7.99900 27.38100
H  4.92800 9.05700 27.83400
H  4.54300 9.91000 23.97600
H  5.32400 9.99100 25.47300
H  3.80100 9.12400 25.39000
H  9.43000 4.74300 22.46300
H  9.38700 1.86300 22.69600
H  6.76100 3.64800 22.08500
H  7.77100 2.60700 21.32700
H  7.89300 4.33200 20.83800
H  11.94500 2.99100 23.60200
H  11.34800 3.87300 22.18800
H  12.74500 2.25300 21.14200
H  11.26500 1.34300 21.21300
H  12.38800 1.00400 22.42100
H  12.69400 -0.02300 25.98300
H  11.53400 -1.26500 26.54700
H  12.81500 -0.90100 27.54600
H  10.80800 2.06400 31.74000
H  8.54300 0.87100 34.67000
H  9.86100 -0.36900 35.10700
H  8.53100 -0.76500 34.10700
Mg 47.96300 16.06600 28.19100
C  45.75400 15.85500 31.07700
C  49.91500 18.24100 30.19400
C  49.90500 16.70600 25.55200
C  45.67100 14.27400 26.37900
N  47.79600 16.99400 30.35700
C  46.89500 16.57300 31.38600
C  47.38000 17.16300 32.78900
C  48.54100 18.15700 32.32700
C  48.74900 17.75200 30.90300
C  48.28500 19.69100 32.39800
C  47.93300 16.10800 33.81300
C  47.69800 16.48600 35.27500
H  47.28000 17.90000 35.62500
N  49.67300 17.28800 27.91600
C  50.31900 18.04400 28.88800
C  51.50300 18.57800 28.38100
C  51.45100 18.30800 26.90300
C  50.30300 17.35800 26.72200
C  52.44000 19.45100 29.16900
C  52.34000 18.92000 25.76400
O  52.16400 18.69600 24.56400
C  53.52700 19.77800 26.12800
N  47.76300 15.61000 26.25700
C  48.74500 15.91800 25.35000
C  48.38800 15.35100 24.00200
C  47.21600 14.44000 24.28600
C  46.86700 14.74300 25.75000
C  48.16600 16.45000 22.99400
C  47.58900 12.92500 24.05100
C  46.96400 12.28700 22.79100
N  46.00100 15.27300 28.50500
C  45.20700 14.54300 27.64900
C  43.99200 14.16300 28.34800
C  44.13700 14.66000 29.70800
C  45.42700 15.32900 29.75800
C  42.87000 13.38700 27.75500
C  43.51900 14.70600 31.05200
O  42.46700 14.30900 31.48600
C  44.58500 15.38800 31.98500
C  44.00100 16.64100 32.62600
O  43.95900 17.69500 32.09900
O  43.53600 16.37500 33.87100
C  43.07300 17.55700 34.64000
H  50.59300 18.88900 30.75300
H  50.45000 16.97100 24.64400
H  45.12500 13.54500 25.77700
H  46.55100 17.80500 33.08300
H  49.46100 18.02000 32.89600
H  48.17100 20.12600 31.40500
H  49.16000 20.13200 32.87600
H  47.42600 19.94300 33.02100
H  49.00700 15.94100 33.72500
H  47.50500 15.12100 33.64000
H  48.63800 16.37100 35.81400
H  46.94200 15.81500 35.68400
H  52.94900 18.93000 29.98000
H  51.92400 20.22600 29.73500
H  53.29500 19.87700 28.64500
H  53.26600 20.75100 26.54500
H  53.98600 19.92400 25.15000
H  54.06800 19.16600 26.85000
H  49.25000 14.76100 23.69100
H  46.42200 14.73700 23.60000
H  48.94700 16.24300 22.26200
H  48.29500 17.46000 23.38500
H  47.30100 16.26900 22.35600
H  47.28100 12.31500 24.90000
H  48.67400 12.83100 24.01400
H  46.50000 11.34300 23.07600
H  47.75700 12.16900 22.05200
H  46.22100 12.89600 22.27500
H  43.11500 13.03800 26.75200
H  42.01900 14.05200 27.61000
H  42.62400 12.51400 28.35900
H  44.83400 14.66600 32.76300
H  42.01600 17.82500 34.63900
H  43.59100 18.49400 34.43700
H  43.49100 17.38600 35.63200

