158

Mg 50.22700 45.66600 42.74600
C  46.80700 46.39400 41.82800
C  49.73700 42.51000 41.59500
C  53.49500 45.17000 43.27000
C  50.65000 49.12600 43.41400
N  48.48000 44.67100 41.72100
C  47.17300 45.05500 41.57300
C  46.25900 43.97400 40.97700
C  47.21600 42.69100 41.12200
C  48.59900 43.32000 41.50800
C  46.84300 41.64100 42.23800
C  45.96900 44.33200 39.45600
C  44.46400 44.15900 39.03100
H  44.29900 43.16800 37.91200
N  51.38800 44.01700 42.54300
C  51.04000 42.81000 42.03100
C  52.17600 41.92000 41.97500
C  53.26100 42.68500 42.49300
C  52.75200 44.00400 42.73900
C  52.08400 40.49500 41.40900
C  54.69800 42.22200 42.66800
O  54.95200 41.04300 42.53500
C  55.87300 43.05200 43.13600
N  51.90700 47.05300 43.15300
C  53.11300 46.51800 43.46000
C  54.08700 47.60900 43.84400
C  53.20100 48.88800 43.73700
C  51.83100 48.36500 43.40100
C  54.80800 47.39000 45.19500
C  53.53700 50.13400 42.81200
C  55.03200 50.43200 42.65000
N  49.03200 47.37900 42.62400
C  49.35700 48.72700 42.94400
C  48.14800 49.55400 42.83900
C  47.14000 48.65100 42.44500
C  47.69800 47.35000 42.30800
C  48.09500 51.04000 43.13500
C  45.70800 48.56200 42.11500
O  44.75100 49.37100 42.14400
C  45.44300 47.02400 41.68200
C  44.38300 46.45500 42.54400
O  44.59900 46.02200 43.67700
O  43.17800 46.45200 41.86800
C  42.09100 45.84200 42.70400
H  49.60000 41.43500 41.45800
H  54.55300 45.06700 43.52100
H  50.65200 50.19100 43.65500
H  45.33700 43.81200 41.53600
H  47.25700 42.13600 40.18500
H  46.90800 40.74300 41.62300
H  45.83900 41.81300 42.62400
H  47.43500 41.66900 43.15300
H  46.52100 43.65000 38.80900
H  46.27600 45.35100 39.22200
H  43.98600 45.12100 38.84400
H  43.81400 43.70600 39.77900
H  51.31300 40.43200 40.64100
H  51.90400 39.78600 42.21600
H  53.05400 40.17700 41.02700
H  55.77000 43.42400 44.15500
H  56.10100 43.82900 42.40700
H  56.80000 42.49800 42.98700
H  54.85100 47.56700 43.06800
H  53.21500 49.28600 44.75100
H  55.68500 46.75100 45.08600
H  54.28700 46.74400 45.90200
H  55.00300 48.25700 45.82600
H  53.04000 51.02100 43.20500
H  53.17300 50.03500 41.79000
H  55.17800 50.44000 41.57000
H  55.71300 49.81100 43.23200
H  55.16100 51.47300 42.94600
H  48.78800 51.57400 42.48500
H  48.46000 51.02300 44.16200
H  47.08200 51.44300 43.13000
H  45.09900 46.95800 40.65000
H  41.11400 46.25700 42.45400
H  42.24300 45.88000 43.78300
H  42.09300 44.81400 42.34300
Mg 49.02500 35.14100 27.08900
C  47.00300 34.01300 29.81000
C  49.61200 37.95100 28.94700
C  50.05700 36.53500 24.33900
C  47.80000 32.39900 25.23000
N  48.46000 35.78200 29.25000
C  47.68700 35.15000 30.15200
C  47.67300 35.92200 31.44900
C  48.08200 37.37100 31.00500
C  48.78600 37.01600 29.65300
C  46.88500 38.46000 30.97100
C  48.60500 35.33800 32.58700
C  47.88700 35.05200 33.93800
H  46.91500 36.07800 34.41300
N  49.94600 36.89300 26.74200
C  50.10800 37.92700 27.59600
C  50.86800 39.01200 26.97700
C  50.87900 38.72600 25.55800
C  50.27400 37.36900 25.46800
C  51.26000 40.21100 27.75200
C  51.47800 39.49000 24.44300
O  51.42000 39.01600 23.31200
C  52.15900 40.78000 24.63900
N  48.98100 34.47700 25.06500
C  49.55900 35.29200 24.13400
C  49.32300 34.68000 22.76100
C  48.82500 33.20100 23.05900
C  48.56300 33.35500 24.58600
C  48.23900 35.43400 21.92700
C  49.83700 32.01500 22.79500
C  49.66300 31.26100 21.46500
N  47.75200 33.46500 27.44000
C  47.43100 32.39500 26.61000
C  46.67400 31.39700 27.34500
C  46.43100 31.98000 28.61700
C  47.07900 33.24900 28.59700
C  46.03300 30.04600 26.88900
C  45.58200 31.88500 29.80300
O  44.69600 30.99200 30.11100
C  46.02700 33.13400 30.62900
C  46.63800 32.57200 31.93100
O  47.75800 32.11200 32.04800
O  45.68000 32.39400 32.93900
C  46.06700 31.52800 34.01000
H  49.74700 38.87500 29.51300
H  50.35400 36.92600 23.36400
H  47.42900 31.60700 24.57500
H  46.62900 35.83900 31.75300
H  48.92300 37.84500 31.51100
H  47.15800 39.39700 31.45500
H  46.05500 37.97900 31.48900
H  46.58800 38.73300 29.95800
H  49.43300 35.93200 32.97200
H  48.96600 34.42100 32.12100
H  48.64500 34.96700 34.71600
H  47.34300 34.10800 33.92000
H  50.43000 40.88400 27.96900
H  51.90700 40.96500 27.30300
H  51.76300 39.81900 28.63500
H  51.43500 41.36400 25.20700
H  52.41900 41.31600 23.72700
H  53.00800 40.49200 25.26000
H  50.24100 34.61500 22.17600
H  47.83300 32.97500 22.66700
H  47.29900 34.90500 21.77100
H  48.56600 35.82000 20.96100
H  47.87600 36.24100 22.56200
H  49.76100 31.33800 23.64600
H  50.83900 32.44400 22.81000
H  50.65200 31.30100 21.01000
H  48.93100 31.67800 20.77200
H  49.40100 30.25500 21.79200
H  46.25200 29.89600 25.83200
H  44.95800 30.04500 27.07000
H  46.58900 29.31600 27.47700
H  45.16000 33.74600 30.87500
H  45.13500 31.23100 34.49100
H  46.70400 32.02900 34.73900
H  46.50000 30.57100 33.72100

