158

Mg 24.46000 -7.98100 47.81000
C  26.84200 -5.42500 46.80200
C  22.28900 -6.62700 45.55600
C  22.54100 -10.50200 48.52000
C  26.96100 -9.34400 49.93500
N  24.58800 -6.32400 46.28800
C  25.64000 -5.39500 46.08000
C  25.22200 -4.34300 45.03400
C  23.66100 -4.55500 44.88900
C  23.52300 -5.92500 45.64700
C  22.66100 -3.51800 45.50600
C  26.03200 -4.55500 43.65400
C  26.80300 -3.39000 43.07900
H  26.09100 -2.69900 41.95000
N  22.66800 -8.55400 47.11300
C  21.85000 -7.82000 46.21800
C  20.66600 -8.57400 46.01900
C  20.71700 -9.69500 46.82800
C  21.98700 -9.64800 47.57900
C  19.51800 -8.08200 45.24200
C  19.65000 -10.77100 46.93100
O  18.57000 -10.65200 46.36000
C  19.83400 -11.91800 47.76300
N  24.69200 -9.64200 49.08500
C  23.71300 -10.47500 49.25800
C  24.13300 -11.66800 50.16100
C  25.42300 -11.18200 50.70300
C  25.78400 -10.03900 49.80200
C  22.97200 -12.09600 51.12000
C  26.50700 -12.29700 50.95500
C  27.21300 -12.36900 52.32700
N  26.51000 -7.52400 48.28700
C  27.37900 -8.23800 49.14800
C  28.65300 -7.45900 49.13700
C  28.48400 -6.35900 48.24400
C  27.17200 -6.45800 47.76600
C  29.86300 -7.78800 49.91500
C  29.11900 -5.21400 47.63600
O  30.22100 -4.70900 47.79600
C  28.09500 -4.60800 46.61300
C  27.94200 -3.17400 46.89100
O  27.52300 -2.58000 47.91500
O  28.45600 -2.41400 45.90200
C  28.45500 -0.97300 45.96700
H  21.56100 -6.14700 44.89900
H  21.97900 -11.41500 48.72500
H  27.69500 -9.73500 50.64200
H  25.52400 -3.42700 45.54100
H  23.45500 -4.65900 43.82400
H  23.01900 -2.49900 45.64700
H  22.15300 -3.83800 46.41600
H  21.91900 -3.29100 44.74000
H  25.34200 -4.81100 42.85000
H  26.75400 -5.37200 43.67700
H  27.78100 -3.72800 42.73600
H  27.01900 -2.68500 43.88200
H  18.80500 -8.04400 46.06600
H  19.26200 -8.84500 44.50700
H  19.59000 -7.14500 44.68900
H  19.90100 -11.70900 48.83100
H  20.61700 -12.51800 47.30100
H  18.93600 -12.53100 47.68700
H  24.37700 -12.48700 49.48300
H  25.27600 -10.62600 51.62800
H  21.97700 -11.68200 50.95500
H  23.19800 -11.65000 52.08900
H  22.85700 -13.17100 51.25600
H  27.18200 -12.31500 50.10000
H  25.98400 -13.24800 50.84900
H  26.88900 -11.50600 52.90900
H  28.29700 -12.41100 52.22300
H  26.94500 -13.26100 52.89200
H  29.65300 -7.92000 50.97700
H  30.51600 -6.91600 49.91700
H  30.43600 -8.65200 49.58000
H  28.42500 -4.69100 45.57700
H  29.00400 -0.41500 45.20800
H  28.86600 -0.56200 46.88900
H  27.40100 -0.69400 45.96100
Mg -0.80900 44.32100 24.81100
C  1.14500 43.87100 27.56700
C  -3.33200 42.68000 26.42100
C  -2.60200 44.47300 21.96900
C  1.92700 45.53200 23.10500
N  -1.06200 43.52600 26.82400
C  -0.16900 43.51600 27.83400
C  -0.69600 43.04600 29.19800
C  -2.07400 42.46500 28.74500
C  -2.20000 42.92400 27.21600
C  -2.18200 40.95300 28.86800
C  -0.80000 44.23300 30.29900
C  -1.10500 43.84400 31.81000
H  -0.84700 42.37400 32.40500
N  -2.75600 43.70000 24.27200
C  -3.67100 43.05500 25.08400
C  -4.98600 42.91000 24.44600
C  -4.78200 43.48500 23.10700
C  -3.34200 43.93800 23.06900
C  -6.21600 42.55900 25.12400
C  -5.74300 43.48200 21.94400
O  -5.48000 44.04300 20.88200
C  -7.04600 42.86600 22.07900
N  -0.39800 44.89800 22.79700
C  -1.28600 44.86800 21.82400
C  -0.61400 45.26400 20.44100
C  0.67000 45.94500 20.88400
C  0.71400 45.50900 22.39500
C  -0.45100 44.15700 19.35100
C  0.72300 47.44100 20.57300
C  0.32800 48.47300 21.64300
N  1.18800 44.56800 25.17100
C  2.19500 45.04900 24.38100
C  3.43100 45.08700 25.10900
C  3.04600 44.61400 26.39200
C  1.70900 44.27600 26.34800
C  4.71500 45.76900 24.65600
C  3.56800 44.37600 27.76700
O  4.70300 44.38000 28.22400
C  2.25500 43.98000 28.58700
C  2.41900 42.61100 29.13400
O  2.31600 41.55200 28.58900
O  2.67200 42.82600 30.48400
C  2.92200 41.53800 31.12600
H  -4.15100 42.26600 27.01200
H  -3.10900 44.78200 21.05300
H  2.75000 45.99800 22.56000
H  -0.06000 42.23600 29.55500
H  -2.86800 42.96300 29.30000
H  -2.05700 40.41400 27.92900
H  -3.05400 40.68100 29.46300
H  -1.37400 40.52900 29.46400
H  -1.64300 44.79600 29.89900
H  0.11000 44.83200 30.27900
H  -2.11000 44.08600 32.15600
H  -0.31400 44.28800 32.41400
H  -6.88500 41.92700 24.54000
H  -6.67300 43.52600 25.33800
H  -6.01700 42.10300 26.09300
H  -7.67200 43.50200 22.70500
H  -6.87000 41.84300 22.41300
H  -7.43800 42.66200 21.08300
H  -1.22400 46.02300 19.95000
H  1.46500 45.48600 20.29600
H  -0.78100 43.19300 19.73900
H  0.57600 44.04100 19.00500
H  -1.16800 44.49800 18.60400
H  0.05300 47.78800 19.78500
H  1.69200 47.65100 20.12100
H  1.27300 48.87200 22.01200
H  -0.15600 47.93900 22.46100
H  -0.29700 49.33200 21.39700
H  5.52700 45.04300 24.64300
H  5.00200 46.58500 25.32000
H  4.51100 46.08400 23.63200
H  2.13200 44.65900 29.43100
H  3.96600 41.23800 31.03600
H  2.26000 40.69800 30.91700
H  2.76100 41.72900 32.18700

