158

Mg 44.36300 4.20200 47.56000
C  42.16000 6.77400 47.36700
C  41.75800 1.87600 47.29100
C  46.68200 1.65500 47.03400
C  46.99100 6.51500 47.10000
N  42.24800 4.30000 47.27600
C  41.56900 5.50000 47.31300
C  40.04600 5.12500 47.07200
C  40.00500 3.68400 47.69500
C  41.45700 3.27300 47.28100
C  39.54800 3.62900 49.19100
C  39.67100 5.24600 45.53700
C  38.92200 6.41300 44.90100
H  39.59700 7.33500 43.81000
N  44.23000 1.96800 47.36800
C  43.05700 1.25900 47.24000
C  43.44600 -0.16000 47.04400
C  44.89600 -0.24400 47.01400
C  45.30100 1.15000 47.15600
C  42.42500 -1.25400 46.90400
C  45.72100 -1.49400 46.86000
O  45.18700 -2.43000 46.34000
C  47.19100 -1.52900 47.19900
N  46.54500 4.06900 47.09800
C  47.23600 2.92400 47.03000
C  48.76200 3.05800 46.93600
C  48.84200 4.62900 46.84400
C  47.38600 5.12400 47.10800
C  49.47500 2.56800 48.25100
C  49.37600 5.17900 45.50000
C  50.87000 4.74700 45.21900
N  44.59300 6.22400 47.33800
C  45.69000 7.03500 47.15200
C  45.31200 8.41500 46.93500
C  43.95400 8.37200 47.12900
C  43.54500 6.99600 47.30600
C  46.16700 9.68200 46.77200
C  42.77700 9.15200 47.10400
O  42.62800 10.37000 47.02200
C  41.58800 8.13700 47.30400
C  40.88700 8.47000 48.54500
O  40.79700 7.82200 49.62800
O  40.22600 9.63400 48.25100
C  39.35200 10.14600 49.23100
H  40.86500 1.26400 47.14900
H  47.55000 1.04600 46.77400
H  47.76900 7.25000 46.88000
H  39.46700 5.84200 47.65400
H  39.31000 3.07500 47.11700
H  39.53000 4.58400 49.71600
H  40.32300 2.99700 49.62700
H  38.53100 3.24000 49.14600
H  39.16800 4.33700 45.20700
H  40.65600 5.19800 45.07200
H  38.60800 7.10800 45.67900
H  38.06600 6.04100 44.33800
H  42.79300 -2.11100 46.34100
H  41.41500 -0.86100 46.78900
H  42.32000 -1.75700 47.86600
H  47.39500 -2.60000 47.18700
H  47.21300 -1.13300 48.21400
H  47.78600 -0.94800 46.49300
H  49.24100 2.56800 46.08800
H  49.46000 5.08900 47.61500
H  49.83700 1.55800 48.05400
H  48.83400 2.48600 49.12900
H  50.20900 3.34200 48.47400
H  49.31400 6.25400 45.32800
H  48.82100 4.66800 44.71400
H  51.36100 4.21100 46.03100
H  51.44600 5.53000 44.72500
H  50.80500 4.00500 44.42300
H  47.14300 9.40400 47.16900
H  45.75000 10.41800 47.45900
H  46.19100 10.12900 45.77800
H  40.89300 8.24000 46.47000
H  39.98100 10.30800 50.10600
H  38.49500 9.53900 49.52100
H  38.96200 11.08900 48.84800
Mg 6.39500 54.40100 40.54500
C  5.92200 50.93300 40.26500
C  9.66500 53.98000 39.63300
C  6.66100 57.79200 40.19900
C  2.90200 54.77200 40.79100
N  7.61300 52.57800 39.96600
C  7.23500 51.28200 39.89300
C  8.41100 50.43100 39.48700
C  9.64200 51.39700 39.46800
C  8.95800 52.73600 39.75500
C  10.85100 51.05100 40.44600
C  8.34500 49.82900 38.03800
C  7.95100 50.81500 36.86000
H  6.71700 50.32600 36.00800
N  7.92400 55.71300 39.99700
C  9.18200 55.31000 39.72600
C  10.04400 56.48300 39.59400
C  9.20700 57.60400 39.70400
C  7.83400 57.06800 39.97500
C  11.53300 56.42000 39.44100
C  9.71500 59.00700 39.55700
O  10.79400 59.13300 39.08400
C  8.84600 60.24100 39.64100
N  4.93800 56.09600 40.48100
C  5.27700 57.41300 40.38400
C  4.13400 58.29800 40.72300
C  2.89400 57.37100 40.54800
C  3.59600 56.00000 40.69400
C  4.27600 59.02000 42.12500
C  2.13800 57.59300 39.24800
C  1.34100 58.89700 39.22000
N  4.72400 53.16000 40.59000
C  3.38300 53.44100 40.72600
C  2.62500 52.24100 40.81800
C  3.63700 51.20700 40.75900
C  4.87800 51.85200 40.49200
C  1.09000 52.10300 41.02400
C  3.84700 49.81700 40.90500
O  3.09600 48.88100 41.16000
C  5.27300 49.58200 40.41000
C  5.29600 48.68000 39.24900
O  5.01500 48.95700 38.10600
O  5.76700 47.45200 39.66600
C  5.53800 46.28400 38.80300
H  10.71400 53.76200 39.41900
H  6.76600 58.87800 40.22500
H  1.84000 54.87900 41.02500
H  8.43100 49.75900 40.34500
H  10.12200 51.36900 38.49000
H  11.78900 50.92900 39.90400
H  10.71800 50.15000 41.04600
H  10.93100 51.82700 41.20800
H  7.64100 48.99700 38.03000
H  9.35000 49.43800 37.88100
H  8.81600 50.79600 36.19700
H  7.63800 51.78000 37.25900
H  12.03100 57.28300 39.88200
H  11.62700 56.34700 38.35700
H  11.86900 55.54800 40.00200
H  8.14400 60.12400 38.81500
H  9.48300 61.11700 39.51900
H  8.34500 60.41000 40.59400
H  4.07400 59.10000 39.98800
H  2.15800 57.33000 41.35100
H  3.35700 58.74000 42.64000
H  4.44100 60.08000 41.93100
H  5.16500 58.54600 42.54000
H  1.43300 56.77400 39.10600
H  2.91500 57.49200 38.49000
H  0.27900 58.74000 39.03300
H  1.76200 59.41100 38.35600
H  1.47200 59.48000 40.13200
H  0.56200 51.97700 40.07800
H  0.68100 52.93700 41.59400
H  0.90400 51.22800 41.64600
H  5.82300 49.05900 41.19300
H  6.53400 45.86500 38.66000
H  5.10400 46.45800 37.81900
H  4.95400 45.47300 39.23800

