158

Mg -0.10700 7.95300 27.46800
C  0.75400 10.19900 30.04300
C  0.28400 5.38400 29.86200
C  -0.63200 5.82000 25.00300
C  0.24500 10.65400 25.22400
N  0.43500 7.76000 29.71800
C  0.53000 8.90100 30.56600
C  0.52500 8.50900 32.02400
C  0.79800 6.94600 31.94700
C  0.52500 6.64600 30.42900
C  2.22800 6.49600 32.33400
C  -0.86300 8.84600 32.66900
C  -0.83100 9.17700 34.22300
H  0.43400 8.86100 34.97500
N  -0.28200 5.88900 27.50000
C  -0.09200 5.01600 28.51700
C  -0.27000 3.63300 27.97500
C  -0.62800 3.75100 26.59700
C  -0.55900 5.20900 26.28800
C  -0.20300 2.41600 28.85700
C  -1.00000 2.60900 25.60300
O  -1.32400 2.80700 24.43700
C  -0.92500 1.17700 26.04200
N  -0.16600 8.23100 25.46800
C  -0.44300 7.19500 24.56200
C  -0.30300 7.68900 23.07600
C  -0.47100 9.22400 23.27400
C  -0.10700 9.41200 24.75500
C  1.02300 7.21500 22.31500
C  -1.91100 9.86000 22.85700
C  -1.98400 10.95400 21.77200
N  0.37400 9.94700 27.56100
C  0.48600 10.94000 26.54800
C  0.89400 12.14400 27.16800
C  0.93300 11.87800 28.50000
C  0.64200 10.55600 28.71900
C  1.18300 13.53300 26.49000
C  1.16500 12.52700 29.76400
O  1.42600 13.71100 29.97500
C  1.00300 11.41700 30.82800
C  2.23300 11.45700 31.64000
O  3.24600 10.86100 31.34300
O  2.06500 12.23300 32.75300
C  3.26400 12.42800 33.60300
H  0.27400 4.61500 30.63700
H  -0.74400 5.11400 24.17800
H  0.26400 11.55900 24.61400
H  1.34700 9.01000 32.53500
H  0.01500 6.54800 32.59100
H  2.92800 7.28800 32.60200
H  2.67500 6.00500 31.47000
H  2.27400 5.69900 33.07700
H  -1.64500 8.16500 32.33200
H  -1.17200 9.77000 32.18000
H  -1.73100 8.68400 34.58800
H  -1.11200 10.22400 34.33800
H  -1.18900 2.07900 29.17600
H  0.27800 2.67600 29.80000
H  0.35100 1.64300 28.32600
H  -1.68300 0.90000 26.77400
H  0.10900 1.00100 26.33900
H  -1.05300 0.50200 25.19600
H  -1.18100 7.24800 22.60300
H  0.30600 9.82400 22.80100
H  0.81300 6.58900 21.44700
H  1.61900 6.62800 23.01400
H  1.59600 8.11700 22.10400
H  -2.36600 10.26200 23.76200
H  -2.53500 9.02300 22.54600
H  -2.52100 10.56000 20.90900
H  -1.00700 11.34200 21.48200
H  -2.48300 11.83800 22.16900
H  0.54800 13.84000 25.66000
H  2.20400 13.60200 26.11500
H  0.97200 14.24300 27.28900
H  0.22600 11.75300 31.51400
H  3.06200 12.08200 34.61700
H  3.55000 13.47300 33.72100
H  4.14300 11.85800 33.30100
Mg 7.59900 3.27800 27.60500
C  9.12600 2.00800 30.52200
C  5.65700 5.37500 29.65600
C  6.19600 4.36900 24.87400
C  9.07800 0.60200 25.82900
N  7.44100 3.66000 29.82200
C  8.18700 3.04500 30.80000
C  7.89300 3.62500 32.18900
C  6.78500 4.65000 31.94000
C  6.57600 4.54700 30.36700
C  5.46200 4.33500 32.69800
C  9.12700 4.17500 32.95600
C  8.79700 4.85200 34.25700
H  9.90300 4.87100 35.38200
N  6.18100 4.74300 27.34200
C  5.45900 5.46100 28.27600
C  4.54300 6.28600 27.58000
C  4.82800 6.10100 26.20800
C  5.80600 4.99700 26.06900
C  3.51100 7.13600 28.24700
C  4.27000 6.90400 25.07800
O  4.63500 6.69900 23.93000
C  3.31100 7.97900 25.37700
N  7.49700 2.46200 25.66400
C  6.89800 3.20300 24.71900
C  6.94700 2.48700 23.37200
C  7.88500 1.26700 23.64900
C  8.20500 1.41300 25.08400
C  5.64800 2.12100 22.66200
C  9.15500 1.11700 22.73500
C  9.30300 -0.15900 21.95900
N  8.87300 1.72800 28.00100
C  9.38700 0.69900 27.20900
C  10.22400 -0.15800 27.90900
C  10.09400 0.28700 29.25500
C  9.33200 1.47300 29.23400
C  11.02900 -1.28300 27.33100
C  10.60100 0.04700 30.61600
O  11.34400 -0.81000 31.05500
C  9.92000 1.17700 31.50000
C  9.06300 0.57200 32.55600
O  7.96000 0.10100 32.27900
O  9.61900 0.59000 33.84500
C  8.80700 0.22800 35.06500
H  5.13600 6.11100 30.27200
H  5.66300 4.75700 24.00300
H  9.42400 -0.21800 25.19600
H  7.48800 2.85600 32.84700
H  7.01600 5.64200 32.32800
H  5.67600 3.76300 33.60100
H  4.79400 3.72700 32.08800
H  5.02300 5.30200 32.94500
H  9.55600 5.01200 32.40400
H  9.92600 3.47500 33.20100
H  7.84800 4.56500 34.71000
H  8.69400 5.89700 33.96500
H  3.50600 8.19100 27.97000
H  3.63200 7.14900 29.33000
H  2.53600 6.78300 27.91100
H  3.79900 8.78000 25.93200
H  2.36900 7.58000 25.75300
H  3.06100 8.38200 24.39500
H  7.41700 3.25800 22.76200
H  7.40500 0.29300 23.55500
H  5.46000 2.76600 21.80400
H  4.74700 2.40100 23.20600
H  5.61400 1.09400 22.29700
H  10.06800 1.42500 23.24400
H  9.02300 1.91500 22.00500
H  9.15900 -0.18000 20.87900
H  8.76500 -0.97400 22.44400
H  10.33400 -0.51300 21.95700
H  11.40500 -0.94800 26.36400
H  10.39500 -2.16800 27.30100
H  11.92300 -1.35600 27.95000
H  10.75500 1.79400 31.83400
H  8.60900 -0.84400 35.07200
H  7.88700 0.81200 35.04400
H  9.48400 0.42900 35.89500

