158

Mg 47.14400 34.59900 27.19300
C  45.54000 32.84100 29.87000
C  47.75300 37.09000 29.27600
C  47.87100 36.45500 24.52300
C  46.23500 31.84200 25.03300
N  46.71200 34.85300 29.35400
C  46.19800 34.01100 30.31900
C  46.51600 34.53100 31.72000
C  46.88100 36.04600 31.46500
C  47.12200 36.01400 29.92900
C  45.80700 37.05700 31.91700
C  47.67000 33.73000 32.40300
C  47.81700 33.90600 34.00300
H  46.82700 34.91000 34.63100
N  47.75200 36.56400 26.93700
C  48.04600 37.39700 27.94500
C  48.57600 38.60100 27.45800
C  48.67100 38.47200 26.04100
C  48.10800 37.13900 25.74700
C  48.83300 39.87600 28.31100
C  49.25300 39.43600 25.01700
O  49.33300 39.12800 23.83800
C  49.97800 40.76600 25.36200
N  47.10800 34.10400 25.13300
C  47.40200 35.12700 24.22800
C  47.18400 34.67700 22.85300
C  47.05100 33.18600 22.98000
C  46.70800 33.01600 24.47900
C  45.91000 35.30700 22.28500
C  48.36800 32.35900 22.72200
C  48.32700 30.97400 22.02900
N  46.16300 32.64000 27.36400
C  45.84700 31.69000 26.42300
C  45.21600 30.55000 27.03800
C  45.00800 31.00900 28.41100
C  45.61600 32.27800 28.53800
C  44.79100 29.29600 26.40200
C  44.49200 30.62100 29.67600
O  43.86800 29.62300 29.96000
C  44.68800 31.89700 30.60900
C  45.00100 31.55600 31.98300
O  45.89700 30.75500 32.34900
O  44.00500 32.16000 32.76900
C  44.16400 31.86600 34.22200
H  48.08400 37.84200 29.99600
H  48.10300 37.10000 23.67300
H  45.85400 31.00900 24.43800
H  45.56700 34.40100 32.24100
H  47.79500 36.40500 31.93800
H  44.82900 36.62700 32.13400
H  45.58300 37.69500 31.06100
H  46.18500 37.71000 32.70300
H  48.61100 33.96400 31.90600
H  47.60900 32.67900 32.12200
H  48.82800 34.13500 34.34100
H  47.42400 32.95000 34.34900
H  49.89100 39.97400 28.55000
H  48.36100 39.82900 29.29200
H  48.56400 40.82900 27.85400
H  49.38300 41.56600 25.80200
H  50.44200 41.08100 24.42700
H  50.83300 40.51500 25.99000
H  48.06800 34.89600 22.25300
H  46.19300 32.72600 22.49000
H  45.03600 34.65900 22.35900
H  46.12400 35.55500 21.24600
H  45.75200 36.21600 22.86600
H  48.92700 32.16000 23.63700
H  49.02900 32.88800 22.03600
H  48.88900 30.23600 22.60200
H  48.73200 31.07100 21.02200
H  47.27800 30.69400 21.92600
H  44.82900 29.34500 25.31300
H  43.73700 29.16900 26.64700
H  45.49700 28.59400 26.84700
H  43.66700 32.27800 30.58000
H  44.19300 30.80200 34.45900
H  43.26000 32.16400 34.75400
H  45.08400 32.15200 34.73100
Mg 6.20600 53.14800 40.38500
C  6.14200 49.53600 39.81000
C  9.59000 52.99500 39.83500
C  6.12000 56.38500 40.12200
C  2.61900 53.05600 40.53400
N  7.59500 51.45800 39.85400
C  7.47000 50.08600 39.70900
C  8.82300 49.40000 39.42200
C  9.82500 50.49200 39.92200
C  8.96800 51.76900 39.89800
C  10.39400 50.37400 41.33900
C  9.05200 48.93300 37.97600
C  8.70600 50.04500 36.91300
H  7.52600 49.81400 35.97500
N  7.66400 54.51300 40.09600
C  9.01700 54.26000 39.96500
C  9.69300 55.50900 39.94400
C  8.68200 56.55300 40.08000
C  7.43700 55.82300 40.14200
C  11.18300 55.66600 39.75800
C  8.85500 58.09400 40.06600
O  9.93600 58.64200 39.71000
C  7.90300 59.04400 40.66700
N  4.47600 54.51600 40.23100
C  4.80000 55.84200 40.18100
C  3.57600 56.69600 40.12500
C  2.38900 55.63800 40.33300
C  3.14800 54.32200 40.41400
C  3.66100 57.85600 41.27500
C  1.24800 55.76200 39.27200
C  -0.06800 55.00700 39.64100
N  4.68900 51.61000 40.22500
C  3.29300 51.78200 40.36700
C  2.72700 50.50700 40.42800
C  3.76700 49.61400 40.23000
C  4.92900 50.27700 40.07400
C  1.26900 50.23800 40.62200
C  4.08300 48.20700 40.19300
O  3.36900 47.21600 40.36800
C  5.62500 48.09800 39.83600
C  5.84800 47.42000 38.50200
O  5.20900 47.68200 37.51200
O  6.58500 46.24400 38.69800
C  6.80200 45.41000 37.57000
H  10.68100 52.93800 39.86400
H  6.08900 57.47400 40.19500
H  1.54700 53.07800 40.74100
H  8.99800 48.65700 40.19900
H  10.59100 50.71400 39.17800
H  10.16000 49.43200 41.83400
H  10.05200 51.18800 41.97800
H  11.46500 50.51600 41.19300
H  8.46200 48.02900 37.82700
H  10.08700 48.72300 37.70300
H  9.60400 50.44000 36.43800
H  8.37400 50.93600 37.44600
H  11.45300 56.70900 39.59300
H  11.49800 55.07400 38.89900
H  11.65400 55.20300 40.62500
H  8.35000 59.86600 41.22500
H  7.30500 58.56800 41.44300
H  7.13500 59.39400 39.97800
H  3.66800 57.16700 39.14600
H  1.89100 55.86400 41.27600
H  3.30700 58.75500 40.76900
H  4.57300 58.00900 41.85200
H  2.96300 57.71300 42.10000
H  1.65100 55.27000 38.38700
H  1.02200 56.82600 39.20100
H  -0.83900 55.75000 39.84300
H  0.00700 54.63900 40.66500
H  -0.41700 54.28200 38.90600
H  0.71700 51.17600 40.66900
H  1.07700 49.79600 41.60000
H  0.94500 49.66100 39.75600
H  6.02700 47.49700 40.65200
H  5.93300 45.43300 36.91300
H  6.79900 44.36600 37.88300
H  7.67600 45.73700 37.00700

