158

Mg 24.59000 -4.27800 45.64900
C  26.63000 -1.94900 44.26900
C  21.99500 -3.26100 43.70100
C  22.83600 -6.82100 46.95600
C  27.41800 -5.39500 47.63500
N  24.31700 -2.74700 44.16600
C  25.34800 -2.01800 43.65800
C  24.80500 -1.24400 42.38300
C  23.22900 -1.35800 42.59100
C  23.14800 -2.47400 43.58300
C  22.51700 -0.13500 43.07000
C  25.26100 -1.92000 41.04900
C  25.90200 -0.90800 40.07700
H  25.51900 -0.95500 38.55200
N  22.68000 -5.02600 45.35100
C  21.72800 -4.40600 44.51100
C  20.53800 -5.16700 44.55500
C  20.71300 -6.20800 45.60300
C  22.12600 -6.03900 46.02200
C  19.37800 -4.82200 43.68500
C  19.63800 -7.25700 46.08900
O  18.56000 -7.24700 45.54800
C  19.86800 -8.20000 47.27800
N  24.98200 -5.86400 47.19800
C  24.11100 -6.82200 47.46700
C  24.66500 -7.93400 48.38100
C  26.05600 -7.33500 48.80900
C  26.19000 -6.07000 47.85700
C  23.80300 -8.41900 49.55300
C  27.13800 -8.45500 48.66000
C  28.32200 -8.42000 49.61100
N  26.57000 -3.72200 45.99700
C  27.55200 -4.22300 46.85600
C  28.69900 -3.41000 46.71800
C  28.41500 -2.50000 45.69500
C  27.09900 -2.77900 45.29100
C  30.01300 -3.62700 47.43900
C  28.93700 -1.35700 44.94900
O  30.03000 -0.81300 44.96500
C  27.73700 -0.93500 43.91400
C  27.30800 0.53400 44.01600
O  26.32600 0.97700 44.54600
O  28.21800 1.26400 43.33000
C  28.30000 2.63900 43.75100
H  21.20600 -2.92200 43.02600
H  22.25700 -7.71200 47.20800
H  28.28700 -5.71900 48.21200
H  25.14000 -0.20700 42.41800
H  22.66800 -1.63300 41.69800
H  22.76900 0.74300 42.47400
H  22.89600 0.14600 44.05200
H  21.43700 -0.28500 43.06900
H  24.44100 -2.36500 40.48500
H  25.93800 -2.76700 41.16400
H  26.98600 -1.01800 40.05000
H  25.80400 0.13600 40.37400
H  19.30300 -5.31000 42.71300
H  19.31500 -3.73400 43.71300
H  18.46100 -5.12700 44.18900
H  20.37400 -7.64000 48.06400
H  20.57100 -8.95600 46.92700
H  18.93500 -8.73800 47.44200
H  24.65000 -8.76100 47.67200
H  26.22800 -7.08500 49.85600
H  24.31500 -8.29600 50.50800
H  23.72300 -9.50200 49.46100
H  22.84100 -7.90800 49.57700
H  27.36600 -8.40600 47.59500
H  26.80300 -9.46600 48.89400
H  28.19300 -8.87300 50.59500
H  28.60500 -7.37200 49.70600
H  29.20800 -8.82500 49.12100
H  30.14400 -4.70500 47.53300
H  29.98500 -3.15100 48.41900
H  30.82700 -3.19800 46.85400
H  28.15200 -1.06800 42.91500
H  29.32500 2.99400 43.86200
H  27.79100 2.85300 44.69100
H  27.91600 3.21100 42.90700
Mg 56.18300 24.74700 44.62400
C  53.88900 26.93600 43.23500
C  54.69400 22.15600 43.01000
C  59.09500 22.91900 45.07300
C  57.98400 27.72700 45.68300
N  54.58800 24.57600 43.07100
C  53.80900 25.64600 42.67800
C  52.70100 25.17200 41.72000
C  52.83100 23.58700 41.89600
C  54.09400 23.38900 42.69000
C  51.56000 22.76000 42.35100
C  53.09100 25.62200 40.19700
C  51.93500 26.06500 39.19100
H  51.72500 25.21800 37.94500
N  56.68400 22.76600 44.31500
C  55.86600 21.77100 43.76400
C  56.55100 20.55000 43.83300
C  57.79600 20.69100 44.46600
C  57.93600 22.20700 44.62500
C  55.88700 19.28800 43.35100
C  58.79900 19.58900 44.91700
O  58.64600 18.43800 44.60100
C  59.80800 19.86700 45.91000
N  58.16400 25.21400 45.41700
C  59.22000 24.25600 45.45700
C  60.41200 24.90900 46.15300
C  60.09600 26.45700 46.06400
C  58.65700 26.45000 45.78100
C  60.77700 24.41000 47.57800
C  60.88500 27.32700 44.98900
C  61.41100 28.69400 45.42800
N  55.93700 26.85700 44.72100
C  56.69100 27.90500 45.16600
C  55.95500 29.14000 45.10600
C  54.81500 28.78900 44.37500
C  54.90700 27.42500 44.11500
C  56.28500 30.50900 45.70700
C  53.51100 29.22100 43.91600
O  52.94000 30.28500 43.97700
C  52.83000 28.02400 43.09600
C  52.77800 28.69600 41.76800
O  53.74800 29.07600 41.17400
O  51.48700 28.85700 41.46000
C  51.11600 29.36500 40.14000
H  54.26100 21.29700 42.49200
H  60.03300 22.42300 45.33100
H  58.48600 28.61800 46.06600
H  51.69200 25.50800 41.95900
H  52.87000 23.14800 40.89900
H  51.58400 21.78400 41.86800
H  50.60600 23.28100 42.27200
H  51.71500 22.50300 43.39800
H  53.56800 24.82100 39.63300
H  53.90300 26.34800 40.15600
H  52.23700 27.04900 38.83300
H  51.00600 26.21100 39.74200
H  56.33000 18.77800 42.49500
H  54.87200 19.46400 42.99500
H  55.79600 18.58400 44.17800
H  60.72700 20.13600 45.38900
H  60.00600 18.99900 46.54000
H  59.45100 20.63100 46.60100
H  61.30300 24.85000 45.52800
H  60.28800 27.05100 46.95700
H  60.46200 25.08000 48.37800
H  61.84200 24.19300 47.50000
H  60.29100 23.44000 47.68600
H  60.25300 27.45700 44.11000
H  61.81100 26.85400 44.66000
H  62.49800 28.75400 45.37500
H  61.28100 28.86700 46.49700
H  60.99900 29.50900 44.83200
H  56.78400 31.12100 44.95600
H  56.95300 30.46400 46.56600
H  55.49300 31.19700 46.00500
H  51.90000 27.65400 43.52700
H  50.51000 30.23600 40.39000
H  50.53700 28.62400 39.58900
H  51.89600 29.71600 39.46400

