158

Mg 0.11900 44.27100 25.77400
C  2.30600 43.51300 28.36400
C  -2.54300 43.56100 27.82300
C  -1.95300 44.30400 23.03300
C  2.82800 44.66500 23.69100
N  0.00200 43.55100 27.75000
C  0.96400 43.33900 28.66200
C  0.36700 43.31000 30.09500
C  -1.07400 42.99400 29.78500
C  -1.22600 43.32700 28.33100
C  -1.50700 41.58000 30.17200
C  0.52200 44.67900 30.90400
C  0.54900 44.66700 32.43100
H  0.58600 43.30200 33.14400
N  -1.98100 44.17200 25.50100
C  -2.90700 43.86100 26.46400
C  -4.24100 43.91400 25.96500
C  -4.07800 44.18200 24.54200
C  -2.66100 44.23700 24.30000
C  -5.42300 43.58400 26.76700
C  -5.16800 44.28400 23.45200
O  -4.91200 44.57000 22.25800
C  -6.57600 44.11000 23.79900
N  0.34200 44.43500 23.65600
C  -0.61400 44.50900 22.73200
C  -0.10200 45.06000 21.36900
C  1.43900 45.03500 21.60100
C  1.57200 44.74400 23.06300
C  -0.57900 44.37500 20.03600
C  2.25200 46.24000 20.92800
C  2.45500 47.38900 21.84900
N  2.16900 43.95300 25.92200
C  3.20600 44.17300 24.98500
C  4.47800 44.00400 25.62500
C  4.20200 43.71300 26.93900
C  2.80100 43.75900 27.10000
C  5.73200 44.22500 24.92100
C  4.82300 43.51800 28.26000
O  6.02700 43.41600 28.57600
C  3.57600 43.42400 29.23800
C  3.63700 42.15200 30.11200
O  3.37900 41.06500 29.68800
O  4.15300 42.46600 31.36800
C  4.34800 41.25300 32.21100
H  -3.29800 43.34600 28.58200
H  -2.63700 44.30200 22.18200
H  3.69100 44.95100 23.08600
H  0.83400 42.49100 30.64200
H  -1.77200 43.63200 30.32600
H  -2.03300 41.27700 29.26700
H  -2.15000 41.63700 31.05000
H  -0.64300 40.93900 30.34200
H  -0.22400 45.41100 30.59600
H  1.49100 45.08500 30.61400
H  -0.32700 45.18400 32.82200
H  1.38700 45.25200 32.81100
H  -5.17000 43.13100 27.72500
H  -6.19600 42.97100 26.30300
H  -5.98700 44.46300 27.07700
H  -6.81300 43.09200 24.10800
H  -7.08800 44.31500 22.85800
H  -6.83200 44.88100 24.52600
H  -0.39600 46.10900 21.32800
H  1.86000 44.22600 21.00300
H  0.09500 44.51100 19.19000
H  -1.56000 44.81200 19.85300
H  -0.75700 43.31200 20.19900
H  1.77300 46.65000 20.03800
H  3.25300 45.94600 20.61200
H  2.36100 48.24000 21.17300
H  3.47100 47.60600 22.17700
H  1.69000 47.52600 22.61400
H  6.48800 43.53800 25.30000
H  6.10000 45.21400 25.19500
H  5.76000 43.98300 23.85800
H  3.59500 44.34300 29.82400
H  4.92900 40.43000 31.79600
H  3.43200 40.81900 32.61100
H  4.75700 41.60700 33.15700
Mg -5.92100 25.41900 25.84300
C  -4.09300 26.94200 28.44300
C  -7.02800 23.13300 28.12800
C  -7.07900 23.71100 23.30000
C  -3.97100 27.53900 23.62200
N  -5.51500 25.08400 28.04200
C  -4.89900 25.90800 28.86900
C  -5.18500 25.58800 30.33800
C  -5.84100 24.16500 30.13700
C  -6.21500 24.11300 28.68400
C  -4.99000 22.93600 30.69800
C  -6.14000 26.54400 30.99500
C  -6.12900 26.74800 32.57900
H  -5.73900 25.48200 33.45600
N  -6.99900 23.69300 25.74900
C  -7.49000 22.94800 26.77900
C  -8.44200 21.96500 26.25100
C  -8.49300 22.19300 24.85800
C  -7.48700 23.22300 24.57700
C  -9.19400 20.98700 27.17400
C  -9.26500 21.34400 23.87500
O  -9.10000 21.51900 22.65100
C  -10.16300 20.20600 24.26000
N  -5.56700 25.59100 23.84400
C  -6.21500 24.76300 23.01600
C  -5.70900 24.96100 21.53900
C  -4.86200 26.25000 21.62500
C  -4.75400 26.45800 23.11900
C  -5.00500 23.71500 20.94200
C  -5.54600 27.47500 20.88000
C  -5.71500 27.27600 19.32000
N  -4.33900 26.94400 25.93600
C  -3.74100 27.70000 25.02600
C  -2.95400 28.68700 25.61000
C  -3.03600 28.43900 27.01200
C  -3.87900 27.35700 27.07800
C  -2.16600 29.85900 24.99700
C  -2.57100 28.91300 28.26900
O  -1.87500 29.90200 28.63200
C  -3.31700 27.93400 29.29800
C  -2.35000 27.30300 30.19200
O  -1.34200 26.75000 29.82400
O  -2.71700 27.44700 31.51600
C  -1.75600 26.90700 32.47800
H  -7.44100 22.47900 28.90000
H  -7.49500 23.32700 22.36600
H  -3.59700 28.33700 22.97700
H  -4.22500 25.46100 30.83700
H  -6.75000 24.12900 30.73700
H  -5.37900 22.61900 31.66500
H  -4.00600 23.37200 30.86700
H  -4.98000 22.13600 29.95800
H  -7.17100 26.29300 30.74400
H  -5.88500 27.54700 30.65200
H  -7.10100 27.13800 32.88100
H  -5.38900 27.52600 32.76700
H  -8.84800 20.00400 26.85400
H  -10.26500 21.05300 26.97900
H  -8.94900 21.27900 28.19500
H  -10.99500 20.55400 24.87200
H  -9.66700 19.48800 24.91300
H  -10.51900 19.74700 23.33700
H  -6.66400 25.12200 21.03900
H  -3.86300 26.07300 21.22600
H  -5.66600 23.19700 20.24800
H  -4.64900 23.04600 21.72500
H  -4.08000 23.94100 20.41100
H  -5.00100 28.37300 21.17100
H  -6.56100 27.65500 21.23300
H  -5.47900 28.15800 18.72400
H  -6.71600 27.11000 18.92100
H  -5.13200 26.42900 18.96000
H  -2.33200 29.96400 23.92400
H  -1.07800 29.87600 25.06100
H  -2.47300 30.77200 25.50700
H  -3.93700 28.59000 29.90800
H  -0.76300 27.26200 32.20400
H  -1.99900 25.84400 32.49400
H  -1.92400 27.28900 33.48500

