158

Mg 46.96300 16.79800 27.97700
C  44.98800 16.90200 30.87800
C  49.33800 18.73900 29.69200
C  48.88800 17.08800 25.15600
C  44.45400 15.26800 26.26100
N  47.19700 17.71800 30.07000
C  46.23300 17.60700 31.05200
C  46.79100 18.11100 32.39600
C  48.01300 19.02200 31.90600
C  48.20600 18.54400 30.46600
C  47.84700 20.54600 31.98700
C  47.21700 16.98400 33.39000
C  47.43000 17.40800 34.85500
H  46.87700 18.76100 35.37000
N  48.86400 17.67100 27.50900
C  49.62400 18.43200 28.35800
C  50.83700 18.88800 27.73200
C  50.74200 18.54400 26.34600
C  49.45800 17.73900 26.25700
C  51.95800 19.69200 28.47300
C  51.61800 18.86500 25.23300
O  51.33700 18.77000 24.07200
C  52.91900 19.45300 25.51600
N  46.72400 16.33000 26.06800
C  47.63200 16.48900 25.09100
C  47.04700 16.09300 23.68400
C  45.67500 15.42100 24.05200
C  45.65000 15.56200 25.59300
C  46.95700 17.19800 22.62300
C  45.41300 13.95800 23.55800
C  44.26600 13.79100 22.53100
N  45.08100 16.31100 28.39900
C  44.18700 15.58600 27.63300
C  42.99500 15.27700 28.37000
C  43.29900 15.65700 29.66900
C  44.57200 16.32400 29.65500
C  41.78300 14.55900 27.94600
C  42.87300 15.59200 31.04900
O  41.96500 14.94100 31.58000
C  43.93400 16.50400 31.87900
C  43.24000 17.69300 32.49600
O  42.66600 18.61900 31.89400
O  43.35000 17.63200 33.86300
C  42.55200 18.64000 34.63900
H  50.14500 19.25800 30.21200
H  49.39800 17.22700 24.20000
H  43.76000 14.65000 25.68700
H  46.10200 18.81600 32.86200
H  48.84000 18.67900 32.52800
H  46.86900 20.86200 32.35100
H  47.82300 21.05400 31.02300
H  48.44900 21.03900 32.75000
H  48.12200 16.60700 32.91500
H  46.52600 16.15000 33.51000
H  48.51900 17.42500 34.89800
H  46.99900 16.65700 35.51800
H  51.98200 19.76600 29.56000
H  51.65500 20.69500 28.17300
H  52.98300 19.54600 28.13300
H  52.78400 20.37700 26.07800
H  53.41900 19.54700 24.55200
H  53.50200 18.77300 26.13600
H  47.71700 15.30000 23.34900
H  44.83600 15.99200 23.65400
H  45.93600 17.57300 22.54400
H  47.36800 16.84700 21.67600
H  47.61700 18.00100 22.94900
H  45.27400 13.32100 24.43100
H  46.24700 13.56400 22.97700
H  43.87800 12.77800 22.43000
H  44.62100 14.03800 21.53000
H  43.49800 14.52900 22.76200
H  41.59600 14.97800 26.95700
H  41.01800 14.72500 28.70400
H  41.95200 13.48200 27.95300
H  44.31100 15.90700 32.71000
H  41.75300 18.99700 33.99000
H  43.10200 19.51400 34.98600
H  42.08600 18.13200 35.48400
Mg 29.86900 57.76300 41.06300
C  27.25800 55.88200 39.80000
C  32.01300 55.37100 40.10700
C  32.42600 59.83600 41.57300
C  27.56700 60.50400 41.50200
N  29.55500 55.83400 40.17600
C  28.42900 55.23200 39.72800
C  28.62600 53.80800 39.25200
C  30.16300 53.60000 39.54500
C  30.63100 54.97600 40.04900
C  30.37400 52.47600 40.54500
C  28.25900 53.38300 37.82200
C  28.47500 54.51200 36.77100
H  28.86400 54.15900 35.24800
N  31.90800 57.57700 40.97300
C  32.59800 56.53700 40.52900
C  34.01400 56.77700 40.45400
C  34.22300 58.04400 40.93800
C  32.81800 58.56400 41.21500
C  34.89600 55.73300 39.96400
C  35.53500 58.74700 41.13800
O  36.54900 58.07400 41.00900
C  35.67100 60.20600 41.57100
N  29.93400 59.83300 41.43900
C  31.13400 60.42000 41.67300
C  31.01500 61.92700 42.05900
C  29.54200 62.07900 42.22900
C  28.96300 60.72200 41.74700
C  31.76300 62.28200 43.33300
C  28.92900 63.31100 41.37800
C  27.82000 64.02900 42.10300
N  27.81900 58.15600 40.74900
C  27.01900 59.28900 40.96700
C  25.65400 58.95400 40.74800
C  25.74900 57.66600 40.15500
C  27.08400 57.20400 40.23500
C  24.34600 59.76300 40.98600
C  24.94700 56.63800 39.48100
O  23.76600 56.66600 39.14800
C  25.90600 55.40200 39.23100
C  25.43500 54.24200 39.93500
O  25.61800 54.03100 41.12300
O  24.54000 53.39300 39.20300
C  23.79200 52.34700 39.87400
H  32.60600 54.47500 39.91400
H  33.20500 60.57500 41.77400
H  26.77900 61.19500 41.81000
H  28.03000 53.17900 39.91200
H  30.78400 53.47700 38.65700
H  31.33400 51.95900 40.51400
H  29.56100 51.75400 40.47300
H  30.29700 52.84000 41.56900
H  27.21300 53.11300 37.67900
H  28.84500 52.50100 37.56200
H  29.19300 55.20000 37.21900
H  27.52000 55.02800 36.67000
H  34.55300 55.40900 38.98100
H  34.93700 54.81700 40.55300
H  35.90300 56.10800 39.77900
H  35.16600 60.88600 40.88500
H  36.68700 60.50400 41.83000
H  35.16300 60.23600 42.53400
H  31.36700 62.63700 41.31100
H  29.21400 62.28800 43.24700
H  32.31900 61.39900 43.65000
H  31.05500 62.46000 44.14200
H  32.41300 63.15600 43.29500
H  28.48500 62.89600 40.47200
H  29.73000 64.03300 41.21900
H  28.25700 64.86900 42.64200
H  27.31200 63.53400 42.93200
H  27.03000 64.41300 41.45700
H  23.48100 59.16500 41.27200
H  23.95800 60.12400 40.03400
H  24.46800 60.59800 41.67600
H  25.88600 55.18800 38.16200
H  23.09500 52.83400 40.55500
H  24.39700 51.70000 40.51000
H  23.25100 51.75400 39.13700

