158

Mg 2.19900 -3.38200 45.33000
C  5.53700 -2.75500 44.54500
C  1.36500 -0.71700 43.25200
C  -0.97400 -4.53400 45.30700
C  3.12100 -6.20000 46.96600
N  3.32600 -2.02600 43.99100
C  4.70200 -1.95000 43.85700
C  5.08500 -0.88600 42.92200
C  3.80900 0.01300 42.87000
C  2.74600 -0.95700 43.36300
C  3.85900 1.21300 43.80100
C  5.64900 -1.40100 41.50700
C  6.99000 -1.01500 41.10300
H  7.18700 -0.47400 39.66800
N  0.45400 -2.68400 44.40900
C  0.31000 -1.53500 43.59000
C  -1.00900 -1.45100 43.11700
C  -1.72900 -2.48200 43.74000
C  -0.72600 -3.33500 44.54700
C  -1.39200 -0.42900 42.09400
C  -3.19700 -2.73200 43.50100
O  -3.89200 -1.98800 42.81200
C  -3.88600 -3.83300 44.04100
N  1.21000 -5.09800 46.04300
C  -0.09200 -5.35000 45.91500
C  -0.55000 -6.57500 46.64100
C  0.77500 -7.17500 47.19000
C  1.79300 -6.12800 46.71300
C  -1.65200 -6.29300 47.68400
C  1.07500 -8.63400 46.60300
C  0.06900 -9.78500 46.85500
N  3.97200 -4.28000 45.82600
C  4.21200 -5.39600 46.54600
C  5.60900 -5.68200 46.68800
C  6.22600 -4.64400 45.88500
C  5.16900 -3.81700 45.38900
C  6.09300 -6.90400 47.30300
C  7.46300 -4.15200 45.34000
O  8.59000 -4.47800 45.56700
C  7.03400 -2.94500 44.40200
C  7.93500 -1.87200 44.75300
O  8.93500 -1.58000 44.07000
O  7.45600 -1.09700 45.79500
C  8.03900 0.24700 45.96100
H  1.07100 0.13900 42.64200
H  -2.00400 -4.87100 45.44200
H  3.38300 -7.10500 47.51900
H  5.83400 -0.39100 43.54000
H  3.71800 0.43600 41.87000
H  3.93100 2.14100 43.23500
H  4.54700 1.10300 44.64000
H  2.85800 1.25300 44.23100
H  4.91400 -1.18200 40.73300
H  5.70800 -2.48100 41.64400
H  7.62400 -1.85700 41.38000
H  7.39400 -0.24800 41.76400
H  -2.05600 -0.83400 41.33000
H  -0.65900 0.14900 41.53100
H  -1.90400 0.35000 42.66000
H  -3.33600 -4.77200 43.98500
H  -4.88000 -4.02900 43.64000
H  -3.96800 -3.54600 45.08900
H  -0.95200 -7.16200 45.81600
H  0.86400 -7.07800 48.27200
H  -1.19000 -6.38000 48.66700
H  -2.49100 -6.97900 47.57000
H  -2.00900 -5.26400 47.62800
H  2.10700 -8.94600 46.76500
H  1.10600 -8.48100 45.52500
H  0.58500 -10.58100 47.38900
H  -0.17300 -10.16300 45.86100
H  -0.85700 -9.55800 47.38300
H  5.65100 -7.78000 46.82700
H  5.88700 -6.91400 48.37300
H  7.17500 -6.91700 47.17000
H  7.25900 -3.27400 43.38700
H  7.39700 0.89900 46.55200
H  8.07400 0.73800 44.98800
H  9.07600 0.27400 46.29500
Mg 25.14800 -4.87500 45.75500
C  26.69600 -2.14700 44.19000
C  22.36200 -4.08500 43.63500
C  24.09500 -7.95700 46.14100
C  28.30300 -5.71900 47.18400
N  24.65200 -3.27000 44.13500
C  25.44600 -2.30800 43.59800
C  24.76700 -1.43200 42.52100
C  23.32500 -1.97500 42.52300
C  23.43200 -3.16000 43.53600
C  22.18700 -0.90600 42.65900
C  25.46400 -1.40200 41.20400
C  24.74200 -0.69500 39.98000
H  25.34500 -0.98700 38.60100
N  23.44000 -5.90700 45.00700
C  22.42300 -5.37000 44.23100
C  21.35600 -6.39400 44.22300
C  21.76000 -7.54300 44.99100
C  23.16000 -7.16900 45.41500
C  19.99400 -6.08300 43.60800
C  20.88000 -8.73700 45.18900
O  19.77400 -8.80500 44.75500
C  21.45100 -9.98000 45.99200
N  25.98300 -6.54700 46.60400
C  25.29500 -7.70000 46.74000
C  26.19400 -8.77200 47.38000
C  27.55700 -8.08900 47.63000
C  27.31600 -6.70500 47.03300
C  25.55900 -9.43100 48.63900
C  28.76500 -8.84700 46.87200
C  30.09700 -9.00000 47.64200
N  27.16400 -4.12700 45.83300
C  28.26900 -4.50600 46.50500
C  29.18600 -3.42500 46.47500
C  28.67800 -2.52600 45.50900
C  27.39100 -2.98400 45.16000
C  30.49000 -3.38200 47.24400
C  28.96200 -1.28700 44.82800
O  29.88800 -0.51500 44.90100
C  27.74100 -1.08900 43.89700
C  27.21800 0.20900 44.17300
O  26.65000 0.54700 45.18300
O  27.19500 1.03800 43.10300
C  26.65200 2.40000 43.19400
H  21.47900 -3.86500 43.03200
H  23.72400 -8.95900 46.37000
H  29.24700 -5.94900 47.68200
H  24.92200 -0.41700 42.88700
H  23.15400 -2.39000 41.53000
H  21.55600 -0.77500 41.78100
H  22.62800 0.04300 42.96700
H  21.56400 -1.26500 43.47800
H  25.56500 -2.46700 40.99600
H  26.47600 -1.00500 41.28400
H  24.88300 0.37200 40.14900
H  23.67400 -0.91300 39.94600
H  20.01000 -6.31600 42.54300
H  19.85700 -5.01300 43.76300
H  19.14000 -6.65300 43.97300
H  20.67000 -10.73600 46.07600
H  21.70400 -9.63000 46.99300
H  22.25600 -10.49500 45.46700
H  26.24500 -9.61800 46.69500
H  27.68600 -8.00000 48.70900
H  26.14800 -9.23700 49.53600
H  25.53000 -10.51200 48.50300
H  24.53100 -9.10900 48.80600
H  28.96200 -8.25100 45.98100
H  28.45800 -9.85200 46.58300
H  30.19600 -10.01400 48.03000
H  30.13400 -8.32700 48.49800
H  31.05600 -8.78100 47.17200
H  31.32700 -3.07100 46.61800
H  30.74000 -4.40300 47.53000
H  30.44700 -2.65100 48.05200
H  28.06300 -1.04100 42.85600
H  25.96500 2.58900 42.36800
H  27.45300 3.13700 43.24200
H  26.02600 2.49500 44.08100

