158

Mg -11.75200 38.54800 41.97900
C  -10.09000 35.72000 40.74800
C  -9.37000 40.55400 40.67500
C  -13.75100 41.07600 42.60900
C  -14.27800 36.35100 43.29300
N  -9.99800 38.17600 40.72000
C  -9.43500 36.95500 40.42500
C  -8.13400 37.19900 39.59700
C  -7.83500 38.69900 39.88000
C  -9.12500 39.18700 40.47400
C  -6.52400 39.10300 40.71200
C  -8.27200 36.70600 38.08800
C  -7.37600 35.60600 37.56000
H  -6.18600 36.04700 36.65400
N  -11.59300 40.58800 41.64000
C  -10.53800 41.17900 41.10100
C  -10.87900 42.61200 40.90300
C  -12.18100 42.74400 41.29800
C  -12.60500 41.40000 41.78500
C  -9.99400 43.65300 40.32300
C  -12.89800 44.05500 41.23900
O  -12.35900 45.12000 40.94600
C  -14.39900 44.01900 41.61500
N  -13.77500 38.70600 42.84900
C  -14.38700 39.90600 42.92900
C  -15.69500 39.80700 43.78600
C  -15.89400 38.26000 43.92800
C  -14.56900 37.71400 43.33600
C  -15.59500 40.56500 45.09800
C  -17.16000 37.64900 43.28100
C  -17.81400 36.53100 44.24100
N  -12.11600 36.45900 42.05200
C  -13.17800 35.69200 42.65700
C  -12.88500 34.30700 42.55300
C  -11.71800 34.24000 41.82700
C  -11.28900 35.56800 41.49900
C  -13.64200 33.06900 43.03400
C  -10.74200 33.36200 41.21500
O  -10.66400 32.16200 41.36000
C  -9.64800 34.30200 40.43500
C  -8.32500 33.99000 40.95900
O  -7.42700 33.45400 40.29400
O  -8.12600 34.46000 42.20400
C  -6.75300 34.39800 42.71800
H  -8.57500 41.21600 40.32500
H  -14.47500 41.84600 42.88300
H  -15.06400 35.82200 43.83500
H  -7.32100 36.62700 40.04400
H  -7.67200 39.16400 38.90800
H  -5.74400 38.39600 40.42900
H  -6.70100 39.05100 41.78600
H  -6.17600 40.08900 40.40500
H  -8.23400 37.60400 37.47200
H  -9.28700 36.33000 37.95800
H  -7.93700 34.77300 37.13600
H  -6.87900 35.22500 38.45200
H  -9.80900 44.42600 41.06900
H  -10.32700 44.22800 39.45800
H  -9.01500 43.27100 40.03400
H  -14.87600 43.28100 40.97000
H  -14.89900 44.93400 41.29700
H  -14.63200 43.79600 42.65600
H  -16.51600 40.21500 43.19600
H  -15.82900 37.89300 44.95200
H  -14.65200 41.09600 45.22500
H  -15.64600 40.02200 46.04200
H  -16.35800 41.34300 45.12700
H  -17.04500 37.19400 42.29800
H  -17.96300 38.38600 43.28100
H  -17.64100 35.55200 43.79400
H  -18.89100 36.64300 44.36400
H  -17.29100 36.46600 45.19500
H  -14.63600 33.12900 42.59000
H  -13.77100 33.10600 44.11600
H  -13.12100 32.12800 42.85800
H  -9.63900 34.02600 39.38100
H  -6.15200 33.56500 42.35200
H  -6.74100 34.24400 43.79700
H  -6.21900 35.30700 42.44000
Mg -6.13600 25.38900 26.16500
C  -4.43300 26.34000 28.93900
C  -8.05800 23.33300 28.21100
C  -7.15000 23.75700 23.34400
C  -3.94500 27.33100 24.17600
N  -6.18200 24.85800 28.30800
C  -5.45200 25.46500 29.28300
C  -6.09800 25.29700 30.67100
C  -7.04300 24.09100 30.39200
C  -7.11100 24.04700 28.87300
C  -6.63500 22.78900 31.17700
C  -6.83300 26.58300 31.18500
C  -7.04500 26.56000 32.82400
H  -6.50500 25.44400 33.75800
N  -7.52800 23.99500 25.84100
C  -8.23000 23.23600 26.78600
C  -9.20000 22.45000 26.13200
C  -8.98500 22.59200 24.74100
C  -7.88500 23.42300 24.57300
C  -10.36600 21.66100 26.88500
C  -9.72200 21.88200 23.61600
O  -9.53700 22.09800 22.40500
C  -10.68500 20.75300 23.88100
N  -5.57400 25.53800 24.06100
C  -6.15200 24.66500 23.13200
C  -5.54800 24.96400 21.68700
C  -4.57600 26.16800 21.88300
C  -4.72900 26.37100 23.43200
C  -5.02400 23.65100 21.07900
C  -5.05500 27.40800 21.07600
C  -4.13100 28.08400 20.07600
N  -4.57600 26.66600 26.44000
C  -3.81000 27.46100 25.55200
C  -2.78600 28.12100 26.29700
C  -2.91700 27.66200 27.67000
C  -4.07800 26.84500 27.67600
C  -1.75000 28.98000 25.71200
C  -2.47800 27.76200 29.04700
O  -1.49300 28.36200 29.51100
C  -3.48100 27.07900 29.95000
C  -2.80400 26.21400 30.82800
O  -2.20700 25.25700 30.48800
O  -2.86900 26.79900 32.10200
C  -2.20200 25.95500 33.20100
H  -8.76600 22.70500 28.75500
H  -7.53100 23.27800 22.44000
H  -3.30000 27.88600 23.49200
H  -5.29900 25.06800 31.37500
H  -8.04400 24.18000 30.81500
H  -7.22800 22.82300 32.09100
H  -5.58400 22.84800 31.46000
H  -6.90300 21.91300 30.58600
H  -7.81100 26.56800 30.70600
H  -6.34100 27.39300 30.64600
H  -8.13400 26.57800 32.85500
H  -6.69400 27.51000 33.22800
H  -11.36500 21.74800 26.45900
H  -10.43700 22.01500 27.91300
H  -10.18700 20.58500 26.88600
H  -11.62500 21.06400 24.33700
H  -10.18700 20.02300 24.51900
H  -11.01900 20.27200 22.96200
H  -6.45600 25.23700 21.15000
H  -3.56400 25.91800 21.56500
H  -5.22800 22.78000 21.70100
H  -3.98700 23.74400 20.75500
H  -5.64900 23.51400 20.19600
H  -5.26800 28.19200 21.80200
H  -5.93800 27.12300 20.50300
H  -4.51100 28.25900 19.07000
H  -3.22700 27.50000 19.90300
H  -3.78700 29.09300 20.30700
H  -2.15300 29.59500 24.90700
H  -0.89400 28.46800 25.27200
H  -1.28000 29.54000 26.52000
H  -4.11000 27.75000 30.53600
H  -2.69000 24.98800 33.32000
H  -2.32100 26.51700 34.12700
H  -1.15800 25.85300 32.90500

