158

Mg 53.90500 23.60200 43.71300
C  51.31700 25.95600 43.28800
C  51.73400 21.08200 42.57700
C  56.46400 21.41800 43.76300
C  55.81300 26.16600 44.87400
N  51.82900 23.59700 42.77200
C  50.97800 24.64900 42.79500
C  49.60400 24.24300 42.10800
C  49.74400 22.68400 42.08400
C  51.21000 22.42100 42.41300
C  48.88700 22.00200 43.11700
C  49.40500 24.75900 40.61800
C  50.76900 24.98300 39.84200
H  50.50100 25.68200 38.50600
N  54.09200 21.49400 43.21200
C  53.04400 20.65900 42.85300
C  53.57100 19.31500 42.79400
C  54.96900 19.38200 43.11700
C  55.23900 20.75300 43.34500
C  52.65400 18.13800 42.43800
C  55.92800 18.14400 43.26300
O  55.48600 17.02800 43.02600
C  57.32200 18.30600 43.56800
N  55.89000 23.77900 44.18200
C  56.81700 22.79300 44.04600
C  58.21700 23.18300 44.58800
C  57.96900 24.70600 44.97900
C  56.47400 24.96800 44.62100
C  58.75200 22.33300 45.73100
C  58.89200 25.69500 44.22300
C  58.71900 26.02400 42.74500
N  53.70800 25.74100 43.96200
C  54.49100 26.63000 44.59900
C  53.86000 27.84300 45.04700
C  52.49900 27.55600 44.55900
C  52.54900 26.29700 43.87000
C  54.40600 28.93900 45.99700
C  51.16700 28.11500 44.46300
O  50.73900 29.20000 44.86700
C  50.37900 27.05400 43.53200
C  49.80300 27.62900 42.33800
O  50.42400 28.15400 41.42100
O  48.44500 27.66000 42.49300
C  47.69400 28.73700 41.82100
H  50.98600 20.32500 42.33100
H  57.30200 20.79500 44.08400
H  56.42400 26.96200 45.30400
H  48.75200 24.44900 42.75500
H  49.51300 22.26100 41.10700
H  47.82900 22.23600 42.99800
H  49.06900 22.30200 44.15000
H  48.81600 20.91600 43.05500
H  48.69700 25.56800 40.43800
H  48.99500 23.95600 40.00600
H  51.36500 24.09600 39.62300
H  51.43800 25.70400 40.31200
H  53.09500 17.19600 42.76400
H  52.41800 18.09100 41.37500
H  51.72600 18.25800 42.99800
H  57.76300 17.31000 43.59900
H  57.45600 18.86000 44.49700
H  57.83700 18.92800 42.83500
H  58.89100 23.09800 43.73500
H  58.12200 24.70000 46.05800
H  59.55200 21.62800 45.50200
H  57.97200 21.65700 46.08100
H  59.05200 22.89800 46.61300
H  59.91500 25.32300 44.15900
H  58.94100 26.61800 44.80300
H  59.51700 25.72500 42.06500
H  58.55000 27.09000 42.59400
H  57.90700 25.39300 42.38300
H  55.40600 28.73100 46.37800
H  53.86700 28.87000 46.94200
H  54.25700 29.91000 45.52500
H  49.62300 26.66800 44.21600
H  48.19400 29.69100 41.98200
H  46.70000 28.81200 42.26400
H  47.68600 28.49300 40.75900
Mg 1.29500 41.87900 25.73500
C  3.05200 42.06300 28.71100
C  -1.27100 40.58700 27.47600
C  -0.29000 41.44900 22.72400
C  4.19700 42.48300 23.91200
N  0.86400 41.67200 27.83200
C  1.71500 41.84600 28.89300
C  1.14000 41.65100 30.24800
C  -0.26300 41.02800 29.89400
C  -0.27500 41.03200 28.30500
C  -0.59000 39.57000 30.44000
C  1.10800 43.07600 30.92100
C  1.53100 43.16000 32.40100
H  1.29200 41.90200 33.34700
N  -0.53900 41.14700 25.18300
C  -1.50700 40.65100 26.01300
C  -2.72000 40.18300 25.24600
C  -2.35200 40.36500 23.87000
C  -1.00500 41.01700 23.87100
C  -4.12300 39.79500 25.79300
C  -3.05900 40.01800 22.57500
O  -2.70300 40.33000 21.41400
C  -4.36500 39.22300 22.62900
N  1.83200 42.02500 23.60200
C  0.97900 41.93600 22.64800
C  1.69900 42.01800 21.26400
C  3.11200 42.62200 21.63100
C  3.03400 42.31300 23.16500
C  1.83200 40.65500 20.46700
C  3.16200 44.20300 21.39400
C  4.03200 44.75500 20.20900
N  3.22500 42.09500 26.09300
C  4.34800 42.36800 25.30400
C  5.49000 42.54300 26.16500
C  4.97700 42.37700 27.44100
C  3.62000 42.12100 27.40200
C  6.86300 43.06300 25.73600
C  5.41100 42.51700 28.79900
O  6.58600 42.62600 29.18900
C  4.23700 42.33100 29.69100
C  4.69100 41.22200 30.62200
O  4.50800 40.03200 30.43800
O  5.22800 41.71700 31.73300
C  5.50100 40.79800 32.81800
H  -2.06700 40.02700 27.97200
H  -0.59500 41.28000 21.68900
H  5.07000 42.72000 23.30000
H  1.74700 40.86100 30.69000
H  -1.08800 41.65000 30.24100
H  0.33100 38.98700 30.43300
H  -1.30000 39.02800 29.81600
H  -0.97400 39.61400 31.45900
H  0.08000 43.43100 30.84400
H  1.67400 43.76600 30.29600
H  0.93600 44.00200 32.75400
H  2.60000 43.36000 32.46600
H  -4.48400 38.85700 25.37300
H  -4.66000 40.67200 25.43100
H  -4.31200 39.68400 26.86100
H  -5.16900 39.66300 23.21900
H  -3.95300 38.24700 22.88700
H  -4.88500 39.04800 21.68700
H  1.15100 42.78400 20.71400
H  3.93200 42.11300 21.12500
H  1.47900 39.80100 21.04400
H  2.89800 40.47800 20.32500
H  1.29600 40.74800 19.52200
H  3.51100 44.71500 22.29200
H  2.14100 44.57000 21.28500
H  3.42800 45.35400 19.52700
H  4.51100 43.95900 19.63900
H  4.79300 45.41800 20.62000
H  7.48300 42.22900 25.40600
H  7.34000 43.68200 26.49600
H  6.62300 43.74900 24.92400
H  4.10200 43.22200 30.30400
H  6.43800 40.24400 32.76000
H  4.72000 40.10500 33.13000
H  5.56100 41.51300 33.63900

