158

Mg 44.90000 4.30200 46.64500
C  42.82600 7.07200 46.49500
C  42.11800 2.23300 46.37200
C  46.85900 1.50600 46.30800
C  47.61400 6.42300 46.33700
N  42.71400 4.65100 46.40300
C  42.11800 5.83000 46.47500
C  40.56300 5.72600 46.58700
C  40.32700 4.16100 46.64000
C  41.78300 3.60100 46.48400
C  39.66900 3.67700 47.97300
C  39.80300 6.32300 45.42200
C  40.35700 6.03300 44.00000
H  40.16900 7.08300 42.90900
N  44.53300 2.17100 46.34600
C  43.30500 1.60200 46.25800
C  43.46800 0.12400 46.12000
C  44.83600 -0.14400 46.10700
C  45.48300 1.20500 46.20300
C  42.28100 -0.82100 46.05800
C  45.45200 -1.46100 45.85300
O  44.80800 -2.48300 45.94400
C  46.90200 -1.57000 45.36000
N  46.91000 4.00900 46.14400
C  47.50200 2.76200 46.18700
C  49.03100 2.92800 46.35300
C  49.23600 4.51300 46.35700
C  47.87200 5.06500 46.25200
C  49.60300 2.05000 47.53100
C  50.14700 5.05900 45.18600
C  51.48600 5.58000 45.70800
N  45.26300 6.34800 46.59100
C  46.40500 7.06600 46.40400
C  46.14100 8.44800 46.62400
C  44.73600 8.53000 46.56400
C  44.27400 7.15600 46.55700
C  47.26100 9.43500 46.63400
C  43.60800 9.36800 46.60200
O  43.55700 10.60200 46.55200
C  42.33000 8.44300 46.52500
C  41.48900 8.71300 47.70600
O  41.70100 8.28500 48.83000
O  40.44000 9.47600 47.35400
C  39.37100 9.62800 48.26200
H  41.22500 1.63900 46.58000
H  47.55900 0.67900 46.44400
H  48.43900 7.09300 46.58500
H  40.36500 6.22000 47.53900
H  39.59600 3.81400 45.91000
H  38.76400 3.09700 47.79500
H  39.39400 4.43800 48.70300
H  40.43600 3.14600 48.53600
H  39.82300 7.40600 45.54200
H  38.75300 6.03100 45.39000
H  39.78300 5.16300 43.68400
H  41.36700 5.62500 43.95800
H  42.38700 -1.37500 45.12500
H  41.29900 -0.35200 45.98600
H  42.37100 -1.57700 46.83800
H  47.48600 -1.56100 46.28000
H  47.21400 -0.80800 44.64600
H  47.00700 -2.54000 44.87500
H  49.43400 2.47300 45.44800
H  49.58400 4.88200 47.32200
H  49.88000 1.01700 47.31900
H  48.88400 1.93100 48.34200
H  50.48800 2.57100 47.89500
H  49.71200 5.86200 44.59000
H  50.16600 4.22400 44.48600
H  51.62200 6.61300 45.39000
H  52.35700 5.12500 45.23700
H  51.59400 5.59400 46.79200
H  47.94000 9.28300 47.47300
H  46.81600 10.42800 46.58800
H  47.87400 9.29500 45.74300
H  41.78200 8.77900 45.64500
H  39.06000 10.64800 48.03700
H  39.68600 9.66000 49.30500
H  38.55200 8.94700 48.03200
Mg 5.29100 53.92100 41.11200
C  4.97000 50.30800 40.60800
C  8.47700 53.66800 40.02100
C  5.13300 57.17600 40.84700
C  1.70300 53.82000 41.82200
N  6.51900 52.17500 40.28200
C  6.26300 50.86900 40.16900
C  7.48200 50.05600 39.80600
C  8.64900 51.14800 39.96200
C  7.82900 52.42800 40.14100
C  9.68800 50.89400 41.08400
C  7.47300 49.35500 38.35800
C  7.58900 50.15700 37.02100
H  6.55900 49.96800 35.85900
N  6.59600 55.26000 40.39000
C  7.88800 54.95500 40.05300
C  8.54000 56.20900 39.79500
C  7.64200 57.27000 40.05400
C  6.37800 56.62100 40.45100
C  10.02100 56.29100 39.62400
C  7.90900 58.82600 39.89600
O  9.00000 59.15700 39.51200
C  6.86900 60.00300 40.12400
N  3.64000 55.29400 41.34900
C  3.90100 56.58900 41.19100
C  2.67000 57.44400 41.55100
C  1.47800 56.36000 41.57400
C  2.33000 55.06700 41.54400
C  2.77800 58.23300 42.91700
C  0.51000 56.52300 40.30800
C  -1.01300 56.29200 40.45700
N  3.68700 52.45600 41.38600
C  2.30500 52.58600 41.67600
C  1.72000 51.27100 41.94200
C  2.74500 50.37400 41.44100
C  3.88500 51.10300 41.13300
C  0.22800 50.90400 42.45100
C  2.98800 48.97200 41.20800
O  2.21800 48.01600 41.28100
C  4.49400 48.81700 40.67200
C  4.53600 48.04900 39.39900
O  4.06000 48.37500 38.32200
O  5.15100 46.82700 39.52200
C  5.11600 45.91300 38.40600
H  9.56600 53.62700 39.95100
H  5.18800 58.26400 40.91400
H  0.63700 53.73100 42.04000
H  7.67900 49.16000 40.39300
H  9.21600 51.21400 39.03300
H  9.81100 49.82200 41.24000
H  9.37800 51.50100 41.93500
H  10.64600 51.33200 40.80400
H  6.54300 48.79100 38.28500
H  8.32700 48.67800 38.35100
H  8.59100 49.97300 36.63400
H  7.54900 51.23600 37.17400
H  10.34200 55.40900 39.06900
H  10.52000 56.47800 40.57400
H  10.29600 56.96900 38.81600
H  6.56900 59.99000 41.17200
H  5.97300 59.80400 39.53700
H  7.29600 60.86800 39.61600
H  2.59200 58.18700 40.75800
H  0.93900 56.40500 42.52000
H  2.36300 59.22600 42.74200
H  3.83100 58.36900 43.16300
H  2.19700 57.75300 43.70500
H  0.87300 55.79500 39.58200
H  0.63500 57.41400 39.69300
H  -1.40800 56.40300 41.46700
H  -1.45000 55.39900 40.01000
H  -1.44700 57.07100 39.82900
H  -0.44800 51.12900 41.62600
H  0.08600 51.45700 43.37900
H  0.09100 49.89400 42.83700
H  5.08800 48.25400 41.39300
H  4.68100 45.00100 38.81600
H  6.17300 45.82600 38.15300
H  4.41100 46.20100 37.62700

