158

Mg 8.77000 3.33800 27.83000
C  10.11500 2.01300 30.66500
C  7.22100 5.75300 29.70200
C  7.04500 4.34100 25.05400
C  10.06300 0.65500 26.01800
N  8.79100 3.88100 29.93900
C  9.47100 3.25700 30.92400
C  9.26900 3.83400 32.35800
C  8.31900 5.01300 32.05900
C  8.10500 4.93800 30.49100
C  7.03200 5.13700 32.88700
C  10.63600 4.22400 33.07300
C  10.51100 5.26600 34.19400
H  11.22800 4.87700 35.50400
N  7.40800 4.92900 27.40200
C  6.88400 5.76200 28.34600
C  6.05400 6.74900 27.69600
C  5.98600 6.41900 26.32500
C  6.78400 5.16100 26.16000
C  5.43800 7.99800 28.28900
C  5.16700 7.03500 25.24500
O  5.34400 6.77200 24.06100
C  4.08500 8.15600 25.58000
N  8.53200 2.61300 25.84400
C  7.79900 3.21900 24.89500
C  7.89400 2.42300 23.59400
C  9.05300 1.50700 23.81700
C  9.24900 1.55700 25.34900
C  6.58300 1.62600 23.15800
C  10.36200 1.88700 23.02000
C  11.32600 0.72400 22.82500
N  10.04000 1.73800 28.17100
C  10.38300 0.71200 27.39300
C  11.16400 -0.24400 28.18400
C  11.07700 0.25900 29.43900
C  10.31200 1.41400 29.38000
C  11.75900 -1.56300 27.78100
C  11.57200 -0.02200 30.78700
O  12.40100 -0.81200 31.17400
C  10.94100 1.11600 31.60200
C  10.25900 0.51800 32.80300
O  9.21300 -0.12200 32.73200
O  11.09800 0.84200 33.89400
C  10.50000 0.23700 35.10100
H  6.80100 6.62800 30.20300
H  6.45200 4.65500 24.19200
H  10.44800 -0.24100 25.52700
H  8.74600 3.07300 32.93800
H  8.77800 5.99000 32.20900
H  6.14700 5.01200 32.26400
H  7.00600 6.13200 33.33100
H  6.87300 4.43300 33.70400
H  11.27400 4.59800 32.27100
H  11.08000 3.36300 33.57100
H  9.45500 5.33300 34.45700
H  10.78300 6.20800 33.71800
H  6.04400 8.34900 29.12400
H  4.41800 7.74900 28.58000
H  5.41900 8.90700 27.68900
H  3.62900 7.89400 26.53500
H  3.55700 8.31900 24.64000
H  4.70900 9.04300 25.68200
H  8.11200 3.19200 22.85200
H  8.88000 0.47400 23.51400
H  5.74700 2.25200 22.84500
H  6.26600 0.92900 23.93300
H  6.78100 0.96700 22.31200
H  10.92400 2.62400 23.59500
H  10.18200 2.38300 22.06600
H  12.00300 0.70800 23.67900
H  11.87700 0.95900 21.91400
H  10.73400 -0.19000 22.78600
H  11.43100 -1.97000 26.82500
H  11.58900 -2.37500 28.48900
H  12.83900 -1.42500 27.73500
H  11.73000 1.77100 31.97100
H  9.88800 -0.63300 34.86600
H  9.98300 0.98000 35.70800
H  11.26500 -0.20000 35.74400
Mg 46.59400 44.93300 43.74500
C  43.33000 43.79600 43.46300
C  47.70000 41.76200 43.13000
C  49.65700 46.14100 43.26600
C  45.31000 48.20200 43.84300
N  45.59000 43.01700 43.27000
C  44.26600 42.78400 43.17200
C  43.96300 41.26000 42.89100
C  45.37500 40.60300 42.89300
C  46.30200 41.85100 43.10200
C  45.56600 39.45600 43.87500
C  43.06100 40.95900 41.62900
C  43.23800 41.93200 40.44200
H  42.70200 41.60000 38.99600
N  48.40700 44.02000 43.57200
C  48.73100 42.72400 43.37600
C  50.19800 42.55000 43.31900
C  50.78800 43.81400 43.35000
C  49.61100 44.73300 43.44300
C  50.89700 41.25500 43.20700
C  52.23200 44.16500 43.39500
O  53.03700 43.27700 43.24600
C  52.82300 45.53100 43.50500
N  47.39700 46.86200 43.61400
C  48.74700 47.15500 43.47100
C  48.98600 48.69400 43.17500
C  47.61200 49.33200 43.51900
C  46.73700 48.08300 43.69800
C  50.20900 49.41900 43.87800
C  47.11700 50.34000 42.49000
C  47.09500 51.76700 43.05400
N  44.72000 45.86700 43.88200
C  44.34500 47.18100 43.94500
C  42.96300 47.27400 44.13300
C  42.48500 45.96900 43.93300
C  43.63800 45.11900 43.71600
C  42.19400 48.54000 44.36600
C  41.31800 45.12500 43.92300
O  40.13900 45.28900 44.22700
C  41.85100 43.67900 43.53400
C  41.33800 42.60600 44.43400
O  40.66600 41.69100 44.04100
O  41.66600 42.85400 45.72900
C  41.27200 41.83700 46.76400
H  48.14600 40.83100 42.77100
H  50.53200 46.67600 42.89300
H  45.08200 49.25600 44.01700
H  43.37500 40.85600 43.71500
H  45.48200 40.22600 41.87600
H  45.88800 38.67600 43.18400
H  44.60900 39.12000 44.27500
H  46.22900 39.70900 44.70200
H  42.01600 40.91100 41.93400
H  43.36500 40.04900 41.11300
H  44.30800 42.01300 40.25400
H  43.08600 42.96400 40.76000
H  50.18700 40.51900 43.58300
H  51.81300 41.12100 43.78200
H  51.14800 41.06700 42.16300
H  52.21000 46.15800 44.15200
H  52.81400 46.12600 42.59200
H  53.80200 45.52900 43.98400
H  49.03000 48.71600 42.08600
H  47.67700 49.81900 44.49200
H  50.82600 48.72400 44.44700
H  49.87200 50.09400 44.66500
H  50.88000 49.84600 43.13300
H  46.22600 49.98900 41.96900
H  47.89500 50.44900 41.73500
H  47.01400 51.73500 44.14100
H  46.20700 52.26300 42.66100
H  47.99900 52.29600 42.75000
H  41.34900 48.22100 44.97700
H  41.86500 49.03000 43.45000
H  42.68800 49.23800 45.04100
H  41.35600 43.44800 42.59100
H  41.56400 40.82100 46.50000
H  40.18300 41.84900 46.78400
H  41.56700 42.18900 47.75300

