158

Mg 36.35400 48.85300 25.05900
C  36.72500 47.05700 28.15800
C  35.14200 51.61500 26.74500
C  35.62700 50.24000 22.07900
C  37.65500 46.01700 23.49600
N  35.97200 49.24100 27.12500
C  36.26400 48.41700 28.27800
C  36.05100 49.18200 29.58900
C  35.20100 50.41400 29.12700
C  35.54500 50.46900 27.56500
C  33.67500 50.33300 29.54800
C  37.38200 49.37000 30.53200
C  37.22100 48.84300 31.97000
H  35.94500 49.18200 32.74700
N  35.59100 50.66500 24.53700
C  35.24900 51.64500 25.37900
C  34.93600 52.86000 24.58100
C  34.93700 52.46400 23.18100
C  35.38600 51.06900 23.20100
C  34.76100 54.22600 25.29800
C  34.66700 53.34000 21.91300
O  34.67500 52.83100 20.75000
C  34.13200 54.73600 22.08700
N  36.53400 48.13900 23.11900
C  36.16000 48.94700 22.03000
C  36.55300 48.36500 20.70500
C  37.56200 47.16500 21.12800
C  37.25200 47.05500 22.65300
C  35.44300 47.96000 19.70800
C  39.03600 47.39000 20.73100
C  39.90500 46.22600 20.34200
N  36.97700 46.90300 25.61100
C  37.47900 45.87200 24.85400
C  37.70700 44.74800 25.66100
C  37.45400 45.19200 26.98000
C  37.04000 46.48300 26.87500
C  38.13100 43.33700 25.11300
C  37.41400 44.75500 28.33800
O  37.68400 43.69400 28.81900
C  37.01800 46.00900 29.20000
C  35.93600 45.69300 30.15500
O  34.71800 45.68300 29.96600
O  36.39800 45.33100 31.37200
C  35.46700 45.15800 32.52300
H  34.64800 52.37200 27.35800
H  35.48000 50.71100 21.10500
H  37.97300 45.17600 22.87600
H  35.37100 48.43800 30.00400
H  35.62300 51.34000 29.51600
H  33.08500 50.30300 28.63200
H  33.27600 51.27300 29.93000
H  33.39900 49.57100 30.27700
H  37.80100 50.37600 30.50100
H  38.11300 48.74400 30.02100
H  38.09400 49.27400 32.46000
H  37.63900 47.84300 32.08500
H  35.44600 54.92500 24.81800
H  35.12200 54.13500 26.32200
H  33.73600 54.58200 25.18900
H  34.94800 55.35800 22.45300
H  33.30300 54.75800 22.79400
H  33.85200 55.33900 21.22300
H  37.09100 49.18700 20.23200
H  37.19200 46.20400 20.77100
H  35.47700 46.97300 19.24700
H  35.51100 48.68200 18.89500
H  34.43000 47.93900 20.11100
H  39.55000 47.70200 21.64000
H  39.07500 48.16100 19.96200
H  40.28700 45.71800 21.22700
H  40.69000 46.81900 19.87500
H  39.39700 45.59900 19.60900
H  38.04500 43.27500 24.02800
H  37.67300 42.48100 25.60800
H  39.18800 43.37800 25.37600
H  37.91900 46.24700 29.76700
H  35.67900 44.16300 32.91300
H  34.39200 45.21200 32.34600
H  35.80900 45.90000 33.24400
Mg -5.27500 25.32600 25.39700
C  -3.67000 26.83300 28.32100
C  -6.96300 23.37000 27.63500
C  -6.72500 23.81400 22.82800
C  -3.24700 27.20800 23.38500
N  -5.14100 25.02200 27.61500
C  -4.51600 25.81900 28.64300
C  -5.06100 25.44700 30.07800
C  -5.91300 24.17100 29.75800
C  -6.04700 24.25700 28.23400
C  -5.34500 22.72600 30.27900
C  -5.85500 26.68900 30.72000
C  -5.68600 27.01600 32.23600
H  -5.36600 25.77000 33.12500
N  -6.65900 23.74700 25.21300
C  -7.27800 23.15900 26.29800
C  -8.14300 22.16700 25.71300
C  -8.00800 22.19600 24.30300
C  -7.11900 23.33100 24.03500
C  -8.93600 21.23700 26.63200
C  -8.71600 21.24100 23.21100
O  -8.59100 21.44300 22.04300
C  -9.59400 20.24500 23.66900
N  -4.93000 25.38900 23.45000
C  -5.81300 24.77200 22.54000
C  -5.46100 25.26000 21.11300
C  -4.52000 26.41500 21.33400
C  -4.09500 26.28100 22.78600
C  -4.81700 24.14100 20.21000
C  -4.86000 27.76200 20.72700
C  -4.45400 27.86600 19.20700
N  -3.69200 26.75200 25.72900
C  -3.02900 27.45900 24.80800
C  -2.21700 28.42800 25.55400
C  -2.41600 28.20300 26.90800
C  -3.36000 27.19400 26.97800
C  -1.30800 29.50600 24.96800
C  -1.98300 28.62800 28.25100
O  -1.05900 29.35600 28.71100
C  -2.83100 27.81600 29.10900
C  -1.96800 27.11700 30.10300
O  -1.02900 26.39300 29.82400
O  -2.25300 27.53100 31.34700
C  -1.51800 26.87600 32.43800
H  -7.48700 22.85200 28.44200
H  -7.22200 23.47500 21.91600
H  -2.70700 27.95300 22.79800
H  -4.18800 25.26100 30.70300
H  -6.92200 24.24700 30.16400
H  -5.48700 21.93600 29.54200
H  -5.95200 22.40200 31.12400
H  -4.31500 22.86600 30.60700
H  -6.90900 26.65500 30.44300
H  -5.38900 27.59000 30.32300
H  -6.62300 27.47000 32.55500
H  -4.85800 27.70900 32.38300
H  -8.60200 21.30100 27.66800
H  -9.08700 20.20300 26.32100
H  -9.90100 21.73600 26.72100
H  -8.96300 19.54400 24.21600
H  -10.13000 19.81500 22.82300
H  -10.28400 20.78000 24.32100
H  -6.38000 25.51800 20.58600
H  -3.58900 26.18400 20.81500
H  -5.19700 23.15100 20.46400
H  -3.75100 24.17800 20.43000
H  -4.97000 24.36400 19.15400
H  -4.52500 28.57600 21.37100
H  -5.94700 27.79100 20.79800
H  -4.42800 26.84700 18.82000
H  -3.48300 28.35700 19.26900
H  -5.11000 28.52800 18.64200
H  -1.89800 30.08900 24.26000
H  -0.45000 29.07700 24.45100
H  -1.00200 30.16600 25.78000
H  -3.51200 28.39100 29.73700
H  -2.01800 27.05500 33.39000
H  -0.54200 27.35400 32.52800
H  -1.47100 25.80300 32.25400

