158

Mg -1.71600 17.89700 27.38600
C  -2.53600 15.81000 29.99700
C  -2.61100 20.61900 29.37600
C  -1.19400 19.94100 24.77200
C  -1.32000 15.16000 25.28600
N  -2.37700 18.16900 29.50400
C  -2.74100 17.20400 30.35400
C  -3.10500 17.79100 31.72000
C  -3.44200 19.29700 31.29100
C  -2.80500 19.38700 29.98000
C  -4.90200 19.72500 31.25400
C  -1.95300 17.69700 32.71500
C  -2.19800 17.14000 34.12200
H  -1.01500 16.98400 35.05100
N  -1.62700 19.93300 27.20800
C  -1.97600 20.93300 28.14600
C  -1.78200 22.25000 27.56400
C  -1.40100 22.09700 26.19400
C  -1.36300 20.62400 26.02500
C  -2.19900 23.47900 28.33100
C  -1.23300 23.16600 25.03500
O  -0.81800 22.79600 23.94600
C  -1.29600 24.55300 25.45300
N  -1.40700 17.61300 25.25900
C  -1.16700 18.58000 24.39900
C  -0.97400 18.09900 23.01400
C  -0.80700 16.57700 23.22500
C  -1.21000 16.38600 24.69900
C  -2.08700 18.47800 21.97600
C  0.66600 16.00400 22.89800
C  1.85400 16.67600 23.65900
N  -1.94400 15.90100 27.53300
C  -1.72500 14.89300 26.64900
C  -1.80100 13.62900 27.34400
C  -2.09300 13.89600 28.66700
C  -2.16900 15.37100 28.72400
C  -1.85100 12.28800 26.73900
C  -2.37500 13.30000 29.92900
O  -2.34900 12.13900 30.31000
C  -2.67300 14.53400 30.82800
C  -1.65100 14.34600 31.90100
O  -0.49600 14.70000 31.78800
O  -2.16900 13.69700 32.95500
C  -1.22600 13.04600 33.88400
H  -2.88200 21.41200 30.07700
H  -0.88900 20.58000 23.94000
H  -1.11900 14.27800 24.67300
H  -3.97000 17.30300 32.16900
H  -3.00400 19.99000 32.01000
H  -5.51500 18.86200 31.51100
H  -5.17500 20.11400 30.27200
H  -5.11900 20.42400 32.06200
H  -1.66000 18.71100 32.98700
H  -1.13700 17.14100 32.25400
H  -2.50900 16.12100 33.89200
H  -2.97300 17.74400 34.59300
H  -1.35500 24.16700 28.38000
H  -2.50700 23.29600 29.36000
H  -3.06300 23.88400 27.80300
H  -2.30300 24.85100 25.74600
H  -0.98000 25.19000 24.62700
H  -0.51600 24.69800 26.20000
H  -0.02100 18.55200 22.74300
H  -1.44500 16.01500 22.54300
H  -2.80800 19.14600 22.44800
H  -2.57800 17.73000 21.35400
H  -1.52200 19.10600 21.28700
H  0.90500 16.32000 21.88300
H  0.69700 14.91500 22.88500
H  1.54100 17.20000 24.56200
H  2.56100 17.29100 23.10300
H  2.45000 15.81700 23.96900
H  -2.73800 11.76500 27.09500
H  -0.92500 11.76800 26.98500
H  -2.02500 12.45900 25.67700
H  -3.65100 14.49900 31.30900
H  -1.27900 11.97400 33.69200
H  -1.56200 13.17200 34.91300
H  -0.17700 13.31300 33.75600
Mg 47.69000 35.71900 27.06200
C  45.87300 34.23000 29.75500
C  48.07900 38.42000 28.95400
C  49.09900 37.08000 24.40900
C  46.65800 32.90400 25.11100
N  47.05200 36.19800 29.12700
C  46.47800 35.44100 30.05900
C  46.69800 36.07900 31.48200
C  47.05000 37.54800 31.05800
C  47.40400 37.40600 29.61300
C  45.94500 38.62600 31.30200
C  47.86000 35.42800 32.28200
C  47.63100 35.21300 33.80400
H  46.75400 36.28800 34.50900
N  48.52100 37.56500 26.72200
C  48.60500 38.54200 27.68200
C  49.52000 39.56000 27.17700
C  49.71700 39.26600 25.75700
C  49.10400 37.91500 25.52600
C  50.23500 40.53700 28.02200
C  50.50400 39.99800 24.58400
O  50.56200 39.52100 23.47000
C  51.05000 41.32400 24.92400
N  47.72300 35.13600 24.98400
C  48.54500 35.80900 24.17200
C  48.85900 34.94500 22.94000
C  48.13700 33.65500 23.22900
C  47.46000 33.90000 24.53200
C  48.40900 35.65000 21.59600
C  49.07400 32.41400 23.14700
C  49.81900 32.01900 21.89100
N  46.38900 33.94600 27.26500
C  46.16700 32.88300 26.40700
C  45.33800 31.97200 27.08700
C  45.17500 32.46500 28.35000
C  45.87700 33.63100 28.44200
C  44.86700 30.69400 26.57400
C  44.73400 32.15000 29.66500
O  44.23400 31.13900 30.12100
C  44.90900 33.40500 30.55100
C  45.30400 33.01700 31.91300
O  46.36700 32.49400 32.24100
O  44.31800 33.28200 32.77400
C  44.44800 32.90600 34.16100
H  48.27000 39.17600 29.71800
H  49.79600 37.35500 23.61500
H  46.51200 32.03300 24.46900
H  45.69500 36.00400 31.90200
H  47.93100 37.88700 31.60300
H  46.32200 39.42000 31.94700
H  45.06400 38.20800 31.78800
H  45.72800 38.97000 30.29100
H  48.70800 36.10900 32.35300
H  47.98900 34.40800 31.92100
H  48.65100 35.35300 34.16200
H  47.30800 34.21100 34.08700
H  49.91100 41.52900 27.70800
H  51.29900 40.42000 27.81600
H  50.01100 40.42000 29.08200
H  51.20600 41.93100 24.03200
H  52.04600 41.26900 25.36500
H  50.35300 41.92700 25.50600
H  49.93500 34.77800 22.97500
H  47.43800 33.41300 22.42900
H  47.40700 35.39200 21.25200
H  49.17400 35.43200 20.85100
H  48.37400 36.73000 21.73800
H  48.51500 31.52700 23.44600
H  49.84300 32.60700 23.89500
H  49.52900 32.72000 21.10900
H  49.60600 30.97600 21.65700
H  50.88100 32.06400 22.13400
H  44.72600 30.73700 25.49400
H  43.95300 30.42500 27.10300
H  45.68400 29.97800 26.65500
H  44.04100 34.05800 30.65300
H  45.50100 32.73500 34.38200
H  43.82400 32.09800 34.54500
H  44.12500 33.72900 34.79900

