158

Mg 16.72300 -0.68300 27.46500
C  15.81900 1.24900 30.19300
C  18.83200 -2.48900 29.41400
C  18.18600 -1.76300 24.66600
C  14.82300 1.61400 25.36900
N  17.24000 -0.65900 29.61600
C  16.79200 0.23100 30.50900
C  17.20800 -0.18100 31.96000
C  18.25700 -1.28400 31.68600
C  18.10200 -1.55000 30.16500
C  19.69100 -0.97400 32.27700
C  16.02600 -0.69500 32.79700
C  15.95100 -0.48700 34.33000
H  17.08800 0.24600 35.07500
N  18.16500 -2.09900 27.08400
C  18.80400 -2.83000 28.02300
C  19.65000 -3.85200 27.27300
C  19.46300 -3.57700 25.85500
C  18.62100 -2.40700 25.85000
C  20.57800 -4.83000 28.01300
C  19.99300 -4.37600 24.67200
O  19.83200 -4.04800 23.52600
C  20.81700 -5.57400 24.92700
N  16.56300 -0.09000 25.35700
C  17.29900 -0.74500 24.42700
C  17.05500 -0.14700 23.05600
C  15.76600 0.71900 23.22300
C  15.67200 0.70900 24.73100
C  18.22400 0.59700 22.38800
C  14.49000 0.02800 22.64100
C  13.66100 0.93700 21.69600
N  15.47700 1.03800 27.67700
C  14.72400 1.84100 26.78400
C  13.92600 2.80600 27.50200
C  14.36100 2.62100 28.87500
C  15.33800 1.58900 28.92400
C  12.80700 3.67300 27.01200
C  14.20400 3.15200 30.19800
O  13.50000 4.04800 30.70900
C  15.11500 2.25100 31.14000
C  16.03300 3.00400 31.98200
O  17.12700 3.32300 31.62600
O  15.44600 3.41800 33.19100
C  16.28400 4.35600 33.99700
H  19.48600 -3.04200 30.09100
H  18.71200 -2.26100 23.84900
H  14.28900 2.30000 24.70800
H  17.73800 0.59800 32.50800
H  17.97400 -2.24800 32.11000
H  20.45100 -1.21000 31.53100
H  19.79700 -1.69500 33.08800
H  19.84100 0.00400 32.73400
H  15.96700 -1.78200 32.74500
H  15.15300 -0.42000 32.20400
H  15.84100 -1.46500 34.80000
H  15.02900 0.09400 34.34500
H  20.79500 -4.42700 29.00200
H  21.54000 -4.83300 27.50200
H  20.13300 -5.81100 28.18400
H  20.39600 -6.13100 25.76400
H  21.74700 -5.05100 25.15100
H  20.80100 -6.29100 24.10600
H  16.85800 -1.08000 22.52700
H  15.92200 1.72000 22.82100
H  17.95900 1.50500 21.84600
H  18.57900 -0.11500 21.64400
H  18.98400 0.85300 23.12700
H  13.78100 -0.13300 23.45400
H  14.55100 -0.98900 22.25200
H  14.13900 1.90800 21.56300
H  12.59000 1.07600 21.84100
H  13.95500 0.57600 20.71100
H  12.08900 3.78700 27.82400
H  12.30300 3.21500 26.16100
H  13.22100 4.60500 26.62600
H  14.46400 1.75500 31.86000
H  16.75400 3.77400 34.78900
H  15.49600 4.98800 34.40700
H  17.02900 4.92400 33.43900
Mg 47.72600 15.66200 28.53300
C  45.75700 15.73300 31.35300
C  50.34300 17.20200 30.29500
C  49.45800 15.94700 25.57800
C  44.96400 14.24700 26.80500
N  47.93400 16.47600 30.47200
C  47.01800 16.28600 31.49700
C  47.55900 16.76900 32.82300
C  48.93600 17.45100 32.44900
C  49.13400 16.99100 30.96400
C  48.96200 18.93500 32.72400
C  47.84100 15.52700 33.76300
C  47.27600 15.64400 35.24200
H  47.27000 16.97300 36.07900
N  49.65900 16.44400 28.02600
C  50.60100 16.94600 28.87900
C  51.78800 17.26500 28.16300
C  51.49500 16.99700 26.76000
C  50.13900 16.45200 26.72700
C  53.07600 17.71900 28.84300
C  52.44900 17.14100 25.56600
O  52.04000 16.83700 24.46300
C  53.84600 17.78700 25.71100
N  47.26300 15.10100 26.50200
C  48.14700 15.39100 25.50900
C  47.52800 14.98500 24.10300
C  46.28300 14.15400 24.55500
C  46.10400 14.45700 26.03100
C  47.14900 16.22300 23.26600
C  46.46400 12.61400 24.25300
C  45.52900 12.03200 23.22400
N  45.73000 15.16200 28.93500
C  44.75800 14.57400 28.15900
C  43.54300 14.31600 28.98400
C  43.91800 14.64000 30.26800
C  45.26000 15.21600 30.23300
C  42.23400 13.68800 28.59300
C  43.40500 14.81300 31.64100
O  42.28600 14.57200 32.08700
C  44.63700 15.42900 32.44400
C  43.98700 16.59100 33.15400
O  43.48700 17.58500 32.60200
O  43.95400 16.37700 34.48900
C  43.23300 17.26500 35.35900
H  51.17300 17.55800 30.90900
H  49.96400 15.94600 24.61000
H  44.08100 13.85800 26.29500
H  46.78200 17.39800 33.25900
H  49.75400 17.08700 33.07100
H  49.09900 19.32800 33.73200
H  47.94700 19.29900 32.56400
H  49.64400 19.51300 32.10000
H  48.90600 15.29700 33.79500
H  47.47700 14.60100 33.31800
H  47.74500 14.83900 35.80800
H  46.22500 15.37200 35.14600
H  53.14900 17.26400 29.83100
H  53.10900 18.80600 28.92200
H  54.03100 17.46300 28.38300
H  53.55800 18.64400 26.31900
H  54.16500 18.01300 24.69400
H  54.55700 17.23200 26.32300
H  48.17800 14.31000 23.54700
H  45.44800 14.65100 24.06200
H  46.08600 16.31000 23.04100
H  47.76300 16.10600 22.37300
H  47.37900 17.09900 23.87300
H  46.41700 12.12200 25.22400
H  47.41900 12.37800 23.78300
H  46.15500 11.49900 22.50800
H  44.95700 12.73200 22.61400
H  44.83100 11.42500 23.80100
H  41.99400 13.85500 27.54300
H  41.52400 14.20100 29.24200
H  42.18000 12.60900 28.73200
H  44.88100 14.63200 33.14700
H  43.15000 16.85200 36.36400
H  42.20900 17.49100 35.06400
H  43.84100 18.15700 35.50600

