158

Mg 40.78900 7.84200 29.75000
C  42.51500 9.13100 32.43900
C  38.35800 6.63500 31.80700
C  39.43600 6.38900 27.11300
C  43.71500 8.49900 27.78400
N  40.52100 7.89100 31.88500
C  41.28800 8.56700 32.80000
C  40.52300 8.62700 34.14200
C  39.28900 7.67200 33.97200
C  39.36100 7.43600 32.46500
C  39.43600 6.38600 34.76000
C  40.23200 10.00200 34.78100
C  39.25400 10.09700 35.99500
H  39.80800 10.85500 37.14500
N  39.05600 6.75700 29.43300
C  38.17700 6.33000 30.38500
C  37.06600 5.62800 29.75200
C  37.32300 5.69100 28.33400
C  38.67200 6.32000 28.25000
C  36.05600 4.82000 30.52300
C  36.41200 5.18300 27.18500
O  36.69700 5.22600 26.00000
C  34.91800 4.96300 27.62100
N  41.51900 7.35100 27.85100
C  40.72400 6.88700 26.88100
C  41.43700 6.56700 25.55800
C  42.66100 7.57000 25.69500
C  42.69500 7.79800 27.21500
C  41.78600 5.10400 25.32000
C  42.55600 8.86100 24.91300
C  41.99500 10.17100 25.63400
N  42.70800 8.57600 29.99100
C  43.73300 8.87800 29.12300
C  44.77700 9.63800 29.82900
C  44.29900 9.73600 31.06600
C  43.11600 9.00900 31.17700
C  46.09300 10.18700 29.25100
C  44.64100 10.16100 32.33500
O  45.59500 10.82500 32.69600
C  43.44000 9.92100 33.32900
C  43.98000 9.17900 34.50100
O  44.41400 8.06400 34.61100
O  43.78400 10.00800 35.62800
C  44.13100 9.25000 36.95600
H  37.62900 6.22600 32.51000
H  39.08400 5.90700 26.19900
H  44.39000 8.74900 26.96300
H  41.17600 8.16800 34.88500
H  38.34700 8.20100 34.11800
H  38.75400 6.42200 35.61000
H  40.47500 6.31700 35.08000
H  39.23900 5.57800 34.05500
H  39.84700 10.58000 33.94100
H  41.24400 10.26700 35.08500
H  39.14800 9.07800 36.36800
H  38.27900 10.51100 35.73600
H  35.10300 5.34100 30.61100
H  36.37900 4.61900 31.54400
H  35.90800 3.81700 30.12300
H  34.76500 4.12000 28.29500
H  34.40600 4.72000 26.69000
H  34.53500 5.91400 27.99100
H  40.78000 6.92400 24.76500
H  43.61900 7.12300 25.42800
H  41.69600 4.62400 26.29500
H  42.83500 5.01200 25.03900
H  41.12700 4.62000 24.59900
H  42.01300 8.70800 23.98100
H  43.55700 9.14800 24.59000
H  41.56200 9.95400 26.61100
H  41.29800 10.65700 24.95200
H  42.81400 10.85200 25.86300
H  45.79900 10.75500 28.36800
H  46.87300 9.45500 29.04200
H  46.51300 10.92300 29.93600
H  42.95800 10.87800 33.53200
H  43.54600 9.65800 37.78000
H  45.20000 9.38300 37.11900
H  43.90800 8.18300 36.94100
Mg 48.19300 46.01400 43.27200
C  45.02100 44.46100 43.58900
C  49.52200 42.79700 42.85700
C  51.01300 47.40100 42.45600
C  46.44700 49.09700 42.91700
N  47.36800 43.82100 43.31700
C  46.07200 43.49800 43.56700
C  45.91400 41.95200 43.49600
C  47.36700 41.45900 43.13000
C  48.18400 42.70700 43.20500
C  47.88400 40.31900 44.10400
C  44.81000 41.37800 42.55000
C  44.78600 41.83100 41.13700
H  45.14700 40.79100 40.07200
N  50.04200 45.18900 42.75700
C  50.38700 43.89000 42.64600
C  51.81000 43.83900 42.32800
C  52.29500 45.18500 42.24100
C  51.06600 45.98600 42.45900
C  52.56200 42.54000 42.20700
C  53.67000 45.58600 41.88200
O  54.52200 44.73100 41.93900
C  54.03500 46.97200 41.51500
N  48.57900 47.95300 42.44500
C  49.90700 48.29600 42.43100
C  50.11600 49.83100 42.56200
C  48.60500 50.35400 42.52100
C  47.76200 49.07200 42.58300
C  50.91100 50.19200 43.86800
C  48.05200 51.32000 41.41900
C  47.93700 52.78600 41.90900
N  46.15700 46.70500 43.28200
C  45.64900 47.93700 43.18200
C  44.26100 47.86500 43.42000
C  43.91600 46.54700 43.55100
C  45.14200 45.84600 43.45000
C  43.37100 49.05000 43.46200
C  42.90800 45.56300 43.84100
O  41.71000 45.75700 44.03100
C  43.53600 44.18800 43.89700
C  43.28700 43.78100 45.28700
O  43.54700 44.43500 46.31900
O  43.02300 42.43800 45.27000
C  43.23700 41.83700 46.58400
H  49.98700 41.83900 42.61600
H  51.93800 47.98100 42.41000
H  45.89200 50.03700 42.94600
H  45.70900 41.64400 44.52100
H  47.27800 41.12200 42.09700
H  46.99600 39.72600 44.31800
H  48.24500 40.76400 45.03100
H  48.73400 39.75900 43.71300
H  43.84100 41.41700 43.04800
H  44.82600 40.29400 42.43000
H  45.43800 42.69800 41.03300
H  43.78700 42.21700 40.93500
H  52.93700 42.39700 41.19300
H  52.08700 41.63500 42.58500
H  53.45900 42.58100 42.82400
H  53.26800 47.37600 40.85400
H  55.01300 47.02300 41.03600
H  54.24500 47.55700 42.41000
H  50.62900 50.13000 41.64800
H  48.40600 50.90500 43.44000
H  50.63400 51.10600 44.39500
H  51.94900 50.34300 43.57100
H  50.86100 49.36600 44.57700
H  47.18100 50.90200 40.91400
H  48.73700 51.22100 40.57700
H  48.02500 53.24400 40.92400
H  48.75900 53.03200 42.58200
H  46.99700 52.85800 42.45700
H  42.33600 48.70800 43.49100
H  43.57000 49.57600 42.52800
H  43.66900 49.71500 44.27200
H  43.01600 43.51000 43.22100
H  44.25700 41.65200 46.92000
H  42.87100 40.81100 46.54900
H  42.74100 42.40700 47.36900

