158

Mg 24.52400 2.10600 29.77300
C  26.53000 2.18800 32.61500
C  21.75000 2.02300 31.83200
C  22.48600 2.06500 26.99700
C  27.27500 1.63900 27.85400
N  24.19800 2.17300 32.04000
C  25.19700 2.24200 32.99700
C  24.57100 2.31500 34.38600
C  23.04200 2.17400 34.12200
C  22.94300 2.09300 32.57700
C  22.42200 1.07000 34.96000
C  25.06100 3.67100 35.04500
C  25.65600 3.62900 36.46300
H  25.27500 4.57400 37.59900
N  22.42000 2.03900 29.44000
C  21.49300 2.09900 30.45500
C  20.18100 2.01900 29.88000
C  20.35200 1.86700 28.48300
C  21.81300 2.05000 28.25300
C  18.85000 1.96800 30.67800
C  19.39400 1.50300 27.32700
O  19.75200 1.36200 26.18500
C  17.93200 1.21100 27.61600
N  24.80100 1.93600 27.68400
C  23.79800 1.97700 26.73500
C  24.37000 1.91100 25.29800
C  25.95700 1.96900 25.62700
C  26.07700 1.81600 27.16800
C  23.94900 0.63500 24.46700
C  26.80400 3.26300 25.16700
C  26.05600 4.61400 25.30800
N  26.53200 1.94400 30.08800
C  27.56100 1.75800 29.15900
C  28.77900 1.66800 29.88100
C  28.40200 1.78400 31.21700
C  27.02100 1.98400 31.33300
C  30.11000 1.56200 29.27300
C  28.97100 1.77300 32.59300
O  30.13500 1.66000 32.98800
C  27.79900 2.07900 33.54900
C  27.72900 1.06000 34.56100
O  27.53200 -0.16500 34.41600
O  28.32300 1.49300 35.66500
C  28.44100 0.51700 36.79700
H  20.93300 2.06500 32.55600
H  21.88200 2.10500 26.08800
H  28.16900 1.39200 27.27700
H  24.88800 1.44700 34.96400
H  22.40400 3.04700 34.25900
H  21.38600 1.33200 35.17600
H  22.99300 0.90700 35.87400
H  22.55800 0.16300 34.37100
H  24.17500 4.30400 35.09600
H  25.71900 4.27000 34.41600
H  26.72100 3.73500 36.25500
H  25.54500 2.57800 36.72900
H  18.96300 2.58800 31.56800
H  18.74400 1.00300 31.17500
H  17.92900 2.27600 30.18300
H  17.35300 1.87400 28.25900
H  17.75300 0.31900 28.21600
H  17.40000 1.02600 26.68200
H  23.92100 2.74400 24.75700
H  26.36500 1.06600 25.17100
H  23.22100 0.18000 25.13900
H  24.70900 -0.12400 24.28600
H  23.47800 0.94800 23.53500
H  27.11500 3.21400 24.12300
H  27.66900 3.24600 25.82900
H  25.67100 4.74500 26.32000
H  25.21400 4.64900 24.61600
H  26.75100 5.41400 25.05500
H  30.09500 1.93000 28.24800
H  30.36900 0.50300 29.26300
H  30.78600 2.07000 29.96100
H  28.05700 3.05900 33.95200
H  29.40100 0.03100 36.62200
H  27.65200 -0.23000 36.87500
H  28.45000 1.02600 37.76100
Mg 1.53700 41.93400 25.35000
C  2.45700 42.00800 28.70900
C  -1.29400 40.23700 26.51600
C  0.81200 40.99200 22.16900
C  4.79200 42.61700 24.32900
N  0.58600 41.40100 27.46700
C  1.16500 41.62000 28.63600
C  0.19700 41.26000 29.78600
C  -0.97700 40.46000 29.01400
C  -0.47000 40.58100 27.57800
C  -1.27300 39.00900 29.46400
C  -0.26900 42.40900 30.64800
C  -0.19300 42.28400 32.19700
H  -0.59700 40.91900 32.79700
N  -0.09700 40.97900 24.51000
C  -1.16600 40.44000 25.15100
C  -2.13200 40.13200 24.10100
C  -1.51300 40.27000 22.87800
C  -0.20100 40.80500 23.10600
C  -3.49600 39.68200 24.51600
C  -2.23600 40.07300 21.51300
O  -1.71700 40.21800 20.44000
C  -3.59400 39.39900 21.42500
N  2.62700 41.73700 23.54300
C  2.09700 41.36500 22.33600
C  3.04600 41.65100 21.17000
C  4.16700 42.50100 21.96100
C  3.87600 42.21800 23.34700
C  3.50400 40.45400 20.35200
C  4.31100 44.02100 21.62700
C  2.97600 44.81600 21.32600
N  3.20300 42.33500 26.27800
C  4.50000 42.62600 25.74400
C  5.35900 42.99000 26.86600
C  4.62500 42.63300 28.00900
C  3.30000 42.32300 27.61000
C  6.76100 43.34500 26.78400
C  4.67500 42.66100 29.47700
O  5.62100 42.97400 30.19600
C  3.32600 42.17200 29.96600
C  3.52900 40.88000 30.61000
O  3.99500 39.92600 30.01600
O  3.23000 40.96700 31.92100
C  3.54200 39.78800 32.63400
H  -2.18800 39.73300 26.88700
H  0.52400 40.59700 21.19300
H  5.75000 42.98800 23.95900
H  0.69700 40.57500 30.47100
H  -1.89400 41.03200 28.87300
H  -0.63900 38.67900 30.28700
H  -1.00800 38.31600 28.66500
H  -2.29000 38.85500 29.82600
H  -1.29200 42.64800 30.35700
H  0.33100 43.29600 30.44500
H  -0.87800 43.04200 32.57600
H  0.77900 42.53700 32.62000
H  -3.70600 39.83400 25.57500
H  -3.42200 38.60800 24.34500
H  -4.23400 40.18400 23.89100
H  -4.35600 40.17500 21.35600
H  -3.81300 38.60500 22.13900
H  -3.55100 38.91300 20.45100
H  2.49800 42.27400 20.46300
H  5.07600 42.01700 21.60500
H  2.94500 39.57000 20.65800
H  4.57000 40.23300 20.41200
H  3.26200 40.59400 19.29900
H  4.80400 44.01500 20.65500
H  4.89200 44.66100 22.29100
H  2.11200 44.15500 21.39000
H  3.15000 45.32700 20.37900
H  2.87400 45.55800 22.11800
H  6.90300 44.29000 27.30800
H  7.22400 43.56100 25.82200
H  7.32300 42.54600 27.26900
H  2.96100 42.92900 30.66000
H  4.46800 39.35100 32.25900
H  2.75600 39.06900 32.40100
H  3.52700 39.91900 33.71600

