158

Mg 48.41200 35.25200 27.71600
C  46.14500 33.67700 29.90600
C  48.49700 38.03100 29.99100
C  50.16300 37.10200 25.43000
C  47.48500 33.02200 25.23900
N  47.45500 35.71500 29.71000
C  46.70900 34.90900 30.45300
C  46.70400 35.28700 31.88300
C  46.84300 36.89000 31.63600
C  47.69000 36.92500 30.39800
C  45.44400 37.65700 31.52800
C  47.75700 34.62600 32.81300
C  47.63100 34.78900 34.32600
H  46.80400 35.98400 34.84300
N  49.41900 37.15800 27.82400
C  49.33200 38.12300 28.81500
C  50.25800 39.17500 28.48500
C  50.81300 38.91500 27.17000
C  50.16300 37.65900 26.72200
C  50.41100 40.37000 29.35200
C  51.74900 39.75100 26.32900
O  52.19100 39.33300 25.24800
C  52.31100 41.05500 26.79600
N  48.79800 35.09500 25.58400
C  49.59500 35.90600 24.91100
C  49.77300 35.41100 23.47500
C  49.03500 34.07000 23.47100
C  48.38300 34.07300 24.87600
C  49.34300 36.44400 22.47700
C  49.89300 32.86800 23.13100
C  49.97900 32.41700 21.60700
N  47.06600 33.68800 27.52900
C  46.80500 32.85700 26.49500
C  45.86600 31.80000 26.87200
C  45.54100 32.12700 28.20300
C  46.28700 33.34300 28.54700
C  45.40700 30.69200 26.04900
C  44.77900 31.71700 29.42800
O  44.06600 30.74800 29.59600
C  45.00400 32.85200 30.46300
C  45.11100 32.35900 31.80700
O  45.92400 31.55700 32.19300
O  44.26000 32.93100 32.68900
C  44.16300 32.46600 34.06600
H  48.43400 38.86800 30.69000
H  50.74300 37.65100 24.68500
H  47.33500 32.21000 24.52400
H  45.71700 35.08000 32.29600
H  47.47600 37.28900 32.42900
H  44.58700 37.04100 31.80000
H  45.40600 37.95500 30.48000
H  45.37700 38.49400 32.22200
H  48.72700 35.07900 32.60900
H  47.83000 33.61500 32.41100
H  48.63400 34.90900 34.73400
H  47.20400 33.85400 34.69100
H  51.38400 40.31300 29.84000
H  49.68800 40.34400 30.16700
H  50.45500 41.35100 28.87900
H  53.02400 41.39200 26.04400
H  52.78200 41.02500 27.77800
H  51.61300 41.89200 26.83000
H  50.86200 35.36700 23.44700
H  48.15300 34.11800 22.83300
H  48.35700 36.84900 22.70800
H  49.29400 36.13100 21.43400
H  49.94900 37.34500 22.56000
H  49.75500 31.94200 23.69000
H  50.95400 33.07600 23.26900
H  49.35800 33.14000 21.07900
H  49.71200 31.38500 21.37700
H  50.90900 32.38200 21.03800
H  44.60600 31.17900 25.49200
H  45.10900 29.89000 26.72300
H  46.22600 30.41100 25.38600
H  44.09200 33.44800 30.50000
H  44.85600 31.67100 34.34200
H  43.11500 32.17200 34.10600
H  44.25400 33.27700 34.78900
Mg -0.96600 34.29900 27.92900
C  -2.44200 31.99000 30.12500
C  0.34300 35.85000 30.56700
C  -0.03200 36.50900 25.78200
C  -2.64600 32.49000 25.23900
N  -1.19500 34.07200 30.10100
C  -1.73500 33.01300 30.82000
C  -1.78100 33.35900 32.33300
C  -0.95300 34.71900 32.40000
C  -0.59000 34.88000 30.90300
C  -1.77200 35.95000 33.01800
C  -1.12900 32.20800 33.21600
C  -1.95300 31.77700 34.43500
H  -1.32300 31.72100 35.83100
N  0.10200 35.89000 28.18200
C  0.65900 36.33700 29.29100
C  1.46600 37.47400 29.00200
C  1.42700 37.59700 27.56200
C  0.53500 36.57600 27.08500
C  2.15100 38.21800 30.04400
C  2.20700 38.53800 26.71600
O  2.08300 38.55500 25.53800
C  3.09400 39.52600 27.31600
N  -1.68500 34.68400 25.87300
C  -1.00800 35.63600 25.28500
C  -1.20700 35.53600 23.72900
C  -1.77900 34.15300 23.51800
C  -2.06500 33.73100 24.97700
C  -2.10600 36.67600 23.25800
C  -0.91200 33.22000 22.62600
C  0.16800 32.30000 23.40800
N  -2.28200 32.52600 27.69800
C  -2.81600 31.94900 26.54500
C  -3.64600 30.81300 26.94500
C  -3.61500 30.80500 28.35600
C  -2.80100 31.89200 28.73700
C  -4.42500 29.84100 26.14600
C  -3.95300 30.09200 29.52300
O  -4.65400 29.08400 29.66100
C  -3.30300 30.89900 30.75000
C  -4.45100 31.41400 31.60800
O  -5.24900 32.19800 31.19800
O  -4.54300 30.69600 32.74800
C  -5.52100 31.10000 33.77000
H  0.94000 36.17800 31.42100
H  0.34900 37.25600 25.08300
H  -2.87100 31.85400 24.38000
H  -2.78200 33.58400 32.70300
H  -0.10900 34.70800 33.09000
H  -1.14100 36.51800 33.70200
H  -2.67000 35.60600 33.53300
H  -2.16200 36.72200 32.35400
H  -0.15400 32.50300 33.60600
H  -0.98200 31.26700 32.68600
H  -2.36500 30.77800 34.29600
H  -2.78600 32.47300 34.52600
H  3.21100 38.11000 29.81600
H  1.98000 37.81000 31.04000
H  2.00100 39.29700 29.98700
H  2.70100 40.19100 28.08500
H  3.41000 40.10000 26.44500
H  3.97300 39.04400 27.74300
H  -0.23100 35.64200 23.25600
H  -2.76700 34.20900 23.06100
H  -3.14100 36.37600 23.42600
H  -1.88900 36.94900 22.22500
H  -1.96400 37.44800 24.01400
H  -0.39800 33.70500 21.79600
H  -1.61300 32.61400 22.05000
H  0.19100 32.59300 24.45800
H  1.16100 32.60300 23.07800
H  -0.14900 31.25900 23.34800
H  -3.94100 29.87200 25.17100
H  -5.42200 30.27000 26.04300
H  -4.44900 28.90900 26.71100
H  -2.62600 30.23900 31.29300
H  -5.96000 30.16400 34.11500
H  -6.37100 31.68200 33.41300
H  -4.97900 31.43400 34.65500

