158

Mg 2.65600 -1.53100 44.42400
C  6.00200 -0.83300 43.62800
C  1.64900 0.87900 42.33000
C  -0.52500 -2.55100 44.81400
C  3.76200 -4.70000 45.58700
N  3.72700 -0.09100 43.27400
C  5.09000 0.08300 43.06700
C  5.34100 1.12700 42.06400
C  3.90800 1.72700 41.78600
C  3.00900 0.76700 42.55700
C  3.67700 3.22900 42.16900
C  6.06400 0.54700 40.76000
C  6.92100 1.56800 40.10400
H  6.41900 2.07900 38.77000
N  0.83200 -0.83800 43.75200
C  0.61900 0.20400 42.93500
C  -0.73600 0.50000 42.78900
C  -1.47200 -0.59400 43.36700
C  -0.34700 -1.37500 44.06800
C  -1.15000 1.75700 41.98500
C  -2.93600 -0.75300 43.30700
O  -3.66300 0.10400 42.77200
C  -3.62500 -1.98200 43.87000
N  1.77100 -3.43000 45.04400
C  0.42100 -3.48000 45.22000
C  0.04500 -4.91000 45.79400
C  1.41800 -5.48300 46.23200
C  2.38100 -4.50000 45.61700
C  -1.03900 -5.01400 46.83800
C  1.69900 -6.93100 45.87000
C  2.46900 -7.84700 46.87700
N  4.47500 -2.58700 44.68300
C  4.74700 -3.79900 45.17500
C  6.14900 -3.99900 45.27600
C  6.72700 -2.82200 44.72800
C  5.63800 -2.04100 44.29700
C  6.84000 -5.21900 45.85600
C  7.91900 -2.12900 44.42000
O  9.07100 -2.43800 44.58000
C  7.48300 -0.83600 43.64400
C  8.10100 0.31300 44.37900
O  7.88800 0.56700 45.54500
O  8.66700 1.08000 43.40700
C  9.38300 2.34100 43.69500
H  1.43800 1.59700 41.53500
H  -1.54100 -2.94400 44.88900
H  4.09500 -5.70500 45.85600
H  5.97200 1.91300 42.47800
H  3.64200 1.79900 40.73100
H  4.68100 3.64300 42.26600
H  3.23100 3.35900 43.15500
H  3.10400 3.71800 41.38100
H  5.33300 0.12300 40.07100
H  6.65800 -0.33600 40.99000
H  7.90200 1.09800 40.03900
H  7.06100 2.48700 40.67300
H  -2.16300 2.12400 42.14700
H  -1.14600 1.57700 40.91000
H  -0.38500 2.46800 42.29600
H  -4.67800 -1.87100 43.61000
H  -3.38700 -1.85800 44.92600
H  -3.18800 -2.85900 43.39200
H  -0.16900 -5.63600 45.01000
H  1.49000 -5.25400 47.29600
H  -1.63500 -4.12000 46.65900
H  -0.83500 -5.23100 47.88600
H  -1.63800 -5.86800 46.52200
H  2.18600 -6.91100 44.89500
H  0.82000 -7.48400 45.53900
H  3.47400 -8.06300 46.51300
H  1.89800 -8.76700 46.99800
H  2.75900 -7.44600 47.84800
H  6.20200 -6.10200 45.88800
H  7.15400 -4.91700 46.85500
H  7.71000 -5.45200 45.24200
H  7.91800 -0.76900 42.64700
H  8.71800 3.16900 43.44900
H  10.20200 2.41600 42.97900
H  9.82100 2.36700 44.69300
Mg 25.39400 -7.26800 47.94600
C  27.54200 -4.95300 46.51300
C  23.10700 -6.67600 45.47700
C  23.60800 -10.09300 48.83700
C  28.11000 -8.40700 49.88000
N  25.52900 -6.05100 46.10800
C  26.36800 -5.02800 45.83700
C  25.85300 -4.09000 44.77100
C  24.34100 -4.64100 44.57100
C  24.33700 -5.96700 45.35700
C  23.25400 -3.72500 45.19600
C  26.70600 -4.13700 43.49400
C  26.80900 -2.75200 42.79500
H  26.41600 -2.72700 41.31300
N  23.51800 -8.14700 47.41100
C  22.68900 -7.62700 46.42800
C  21.46100 -8.30300 46.40700
C  21.54200 -9.40000 47.28400
C  22.96300 -9.26500 47.92700
C  20.34800 -7.93000 45.44700
C  20.57700 -10.42900 47.49900
O  19.53900 -10.38700 46.89600
C  20.61600 -11.55300 48.49300
N  25.82800 -8.99400 49.20600
C  24.87200 -9.94200 49.46700
C  25.34200 -10.93100 50.50700
C  26.76700 -10.39600 50.91000
C  26.97000 -9.22000 49.91300
C  24.28300 -11.12600 51.67800
C  27.85300 -11.53300 50.72500
C  28.34500 -11.82200 49.30000
N  27.37000 -6.71100 48.33800
C  28.33300 -7.20900 49.16000
C  29.47300 -6.32700 49.16900
C  29.12000 -5.38300 48.19100
C  27.89700 -5.72000 47.65200
C  30.71000 -6.47500 50.04400
C  29.60200 -4.16400 47.48000
O  30.63300 -3.51800 47.70600
C  28.64600 -3.90700 46.32800
C  28.17800 -2.48700 46.49700
O  28.65500 -1.52800 45.86600
O  27.14100 -2.31600 47.38100
C  26.57900 -0.94700 47.52000
H  22.32400 -6.31800 44.80500
H  22.93700 -10.86800 49.21400
H  28.94900 -8.78500 50.46700
H  25.83300 -3.09200 45.20900
H  24.15900 -4.78300 43.50600
H  23.56700 -2.68100 45.17500
H  22.90800 -3.92400 46.21000
H  22.34900 -3.95500 44.63500
H  26.32900 -4.84900 42.76000
H  27.73300 -4.31600 43.81400
H  27.85000 -2.44100 42.88200
H  26.22600 -2.04800 43.38900
H  19.40400 -8.41600 45.69300
H  20.62800 -8.13800 44.41400
H  20.12000 -6.86600 45.50200
H  21.44900 -12.25000 48.40100
H  19.73000 -12.11400 48.19500
H  20.58700 -11.16400 49.51100
H  25.46300 -11.96400 50.18200
H  26.71500 -10.06500 51.94700
H  24.64700 -11.08000 52.70500
H  23.69800 -12.01300 51.43700
H  23.56800 -10.30400 51.63200
H  27.36700 -12.46200 51.02300
H  28.64800 -11.15700 51.37000
H  29.43300 -11.79700 49.23900
H  27.92400 -11.11300 48.58700
H  28.06200 -12.85800 49.11700
H  30.60600 -5.79300 50.88800
H  31.36100 -6.15700 49.23000
H  30.99400 -7.51500 50.20400
H  29.15900 -4.00000 45.37100
H  25.63100 -0.94700 46.98100
H  27.28500 -0.17200 47.22200
H  26.28700 -0.76600 48.55400

