158

Mg 9.21200 48.49500 25.46000
C  6.91800 48.91200 28.08500
C  11.83100 49.22400 27.49500
C  11.22400 48.16100 22.69300
C  6.39800 47.88300 23.23500
N  9.32300 49.14800 27.49000
C  8.36000 49.03900 28.46500
C  8.93000 49.14400 29.90600
C  10.36700 49.63600 29.60500
C  10.56900 49.33800 28.09900
C  10.63100 51.17500 29.88700
C  8.70000 47.91600 30.77200
C  9.51300 47.76500 32.03600
H  8.75800 47.05900 33.19600
N  11.20000 48.67800 25.15900
C  12.15000 48.93100 26.14300
C  13.46000 48.71200 25.66800
C  13.34100 48.29300 24.26600
C  11.84900 48.39400 23.95800
C  14.65100 48.86100 26.56400
C  14.48700 47.86500 23.35600
O  14.28900 47.56500 22.20400
C  15.88700 47.89600 23.81100
N  8.81200 48.15800 23.17400
C  9.85100 47.99800 22.33400
C  9.33300 47.53900 20.94800
C  7.76100 47.47600 21.05300
C  7.60900 47.73600 22.58100
C  9.81300 48.37800 19.77500
C  7.04200 46.11800 20.55200
C  5.82900 46.31500 19.68000
N  7.15800 48.50700 25.58700
C  6.15900 48.27300 24.56600
C  4.90000 48.35200 25.20100
C  5.11800 48.65500 26.54300
C  6.49600 48.75200 26.71800
C  3.59900 48.20100 24.49800
C  4.50500 48.97600 27.81700
O  3.35300 49.22900 28.08100
C  5.70200 49.03000 28.90800
C  5.45800 47.86200 29.73200
O  5.67100 46.65700 29.46500
O  5.04200 48.30000 30.99200
C  4.81700 47.40600 32.17200
H  12.58900 49.46200 28.24500
H  11.93800 47.88100 21.91600
H  5.55300 47.56000 22.62400
H  8.31500 49.95000 30.30700
H  11.06800 49.03900 30.18900
H  9.78500 51.61300 30.41500
H  10.69900 51.65100 28.90900
H  11.48000 51.26200 30.56500
H  8.87100 47.04800 30.13500
H  7.64100 47.82900 31.01500
H  9.85700 48.72800 32.41500
H  10.39000 47.18400 31.75400
H  14.33400 48.97900 27.60000
H  15.21100 49.72400 26.20200
H  15.29400 47.98300 26.49500
H  16.06100 47.26400 24.68100
H  16.24700 48.90200 24.02300
H  16.55200 47.41400 23.09400
H  9.50900 46.46500 20.89300
H  7.33400 48.36800 20.59300
H  10.47700 49.13500 20.19100
H  9.00200 48.93900 19.31000
H  10.18200 47.83800 18.90300
H  6.72600 45.58500 21.44800
H  7.73000 45.44400 20.04100
H  5.82800 45.80700 18.71600
H  5.68200 47.34200 19.34500
H  4.93200 45.99600 20.21100
H  3.11600 47.30600 24.89100
H  3.60100 48.30400 23.41300
H  3.05000 49.06400 24.87500
H  5.81300 49.98300 29.42300
H  5.07600 46.36700 31.97200
H  3.78100 47.37400 32.51100
H  5.53800 47.64300 32.95400
Mg -10.22400 17.62200 41.15300
C  -6.84100 17.57100 41.09800
C  -10.14500 21.07700 40.64400
C  -13.57100 17.75400 40.57700
C  -10.35700 14.19600 41.03600
N  -8.63000 19.13000 40.83800
C  -7.31600 18.84200 40.84700
C  -6.57500 20.10500 40.54400
C  -7.61400 21.29000 40.91100
C  -8.86300 20.49100 40.90300
C  -7.35300 22.02200 42.20700
C  -6.06300 20.18100 39.07400
C  -4.64800 19.70900 38.85000
H  -4.34400 18.75700 37.66400
N  -11.63400 19.17200 40.64600
C  -11.37300 20.49200 40.51600
C  -12.65200 21.22800 40.29900
C  -13.65100 20.31700 40.32700
C  -12.99300 19.01200 40.51500
C  -12.73800 22.72200 40.14200
C  -15.12600 20.54900 40.18800
O  -15.43400 21.73000 40.08400
C  -16.14100 19.58200 40.29300
N  -11.75300 16.12100 40.88800
C  -13.03100 16.46600 40.75400
C  -13.92900 15.20600 40.91800
C  -12.90300 14.02500 40.87100
C  -11.61600 14.81900 40.92400
C  -14.76500 15.25600 42.16400
C  -12.96500 13.01300 39.69400
C  -12.31400 13.49300 38.38600
N  -8.87200 16.12900 41.14500
C  -9.08300 14.75000 41.10000
C  -7.78100 14.09900 41.00800
C  -6.90800 15.13900 41.12800
C  -7.56100 16.38400 41.16700
C  -7.61700 12.64900 40.88000
C  -5.49500 15.50400 41.16100
O  -4.52300 14.75400 41.16600
C  -5.37600 17.11300 41.14400
C  -4.69400 17.59000 42.37500
O  -3.54000 17.23800 42.58200
O  -5.48700 18.35300 43.16900
C  -4.80600 19.08100 44.27300
H  -10.13500 22.16600 40.56500
H  -14.64700 17.65800 40.41600
H  -10.47400 13.12100 40.88300
H  -5.74500 20.10500 41.25100
H  -7.79100 21.93200 40.04800
H  -6.28000 22.13800 42.36500
H  -7.84900 21.51100 43.03200
H  -7.87700 22.97600 42.16200
H  -6.33300 21.14900 38.65200
H  -6.67800 19.45100 38.54700
H  -4.01200 19.37000 39.66800
H  -4.16700 20.63000 38.51800
H  -13.24000 22.87000 39.18600
H  -11.79800 23.25700 40.00900
H  -13.39100 23.11600 40.92100
H  -16.06500 18.89800 39.44800
H  -17.14200 20.01400 40.30900
H  -15.93900 19.11400 41.25600
H  -14.60100 15.14600 40.06200
H  -13.08700 13.36900 41.72200
H  -14.39600 15.95200 42.91800
H  -14.83200 14.27100 42.62500
H  -15.74900 15.62200 41.86800
H  -14.01800 12.82200 39.48700
H  -12.55100 12.07900 40.07300
H  -11.41900 12.93000 38.12100
H  -12.19500 14.57600 38.41100
H  -12.96700 13.37400 37.52200
H  -8.25600 12.25700 40.08900
H  -7.89600 12.04400 41.74300
H  -6.59900 12.33100 40.65500
H  -4.85700 17.50500 40.27000
H  -5.38600 18.89600 45.17700
H  -4.88400 20.15900 44.12900
H  -3.79200 18.74500 44.48800

