158

Mg -2.41000 17.16800 26.39200
C  -2.97500 14.82400 28.95700
C  -2.81300 19.76100 28.51800
C  -2.20500 19.21100 23.79500
C  -2.73400 14.40400 24.12100
N  -2.89600 17.25400 28.53900
C  -3.15000 16.13900 29.37900
C  -3.30100 16.68500 30.83700
C  -3.48900 18.20800 30.56600
C  -3.05700 18.45800 29.12000
C  -4.90300 18.81300 31.07700
C  -2.16400 16.28500 31.71700
C  -1.85600 17.15900 32.98900
H  -1.34000 16.47100 34.29100
N  -2.37900 19.21200 26.18100
C  -2.52500 20.10900 27.21300
C  -2.39600 21.42100 26.65800
C  -2.23200 21.25500 25.27000
C  -2.21800 19.82400 25.01100
C  -2.49700 22.68600 27.45000
C  -2.03700 22.38300 24.22400
O  -2.10100 22.16500 22.98400
C  -1.91200 23.80500 24.66000
N  -2.42500 16.84900 24.22900
C  -2.27400 17.89800 23.34500
C  -2.33300 17.42400 21.86300
C  -2.84300 15.98700 22.01800
C  -2.61100 15.66800 23.50700
C  -3.09900 18.40300 20.99800
C  -2.21300 14.93700 21.08500
C  -3.14300 14.33600 20.01400
N  -2.64600 15.02800 26.43900
C  -2.60800 14.04900 25.41700
C  -2.56700 12.76400 26.05000
C  -2.63800 13.02700 27.42800
C  -2.77300 14.40600 27.63800
C  -2.46300 11.41000 25.25900
C  -2.65300 12.34400 28.69500
O  -2.43300 11.14900 28.96200
C  -2.82900 13.48100 29.76300
C  -1.56800 13.47400 30.59800
O  -0.50300 13.96700 30.31000
O  -1.74900 12.61100 31.70500
C  -0.51300 12.47900 32.50500
H  -3.02700 20.51900 29.27500
H  -1.92700 19.83000 22.93900
H  -2.87700 13.51000 23.51000
H  -4.13400 16.15100 31.29500
H  -2.75100 18.79700 31.11000
H  -4.69400 19.41100 31.96300
H  -5.52500 17.93600 31.25600
H  -5.43100 19.43900 30.35700
H  -1.22500 16.23900 31.16500
H  -2.35400 15.24700 31.98900
H  -2.67400 17.77600 33.36200
H  -1.17100 17.96300 32.71900
H  -1.54400 23.21200 27.49500
H  -2.68300 22.40400 28.48600
H  -3.31500 23.30300 27.07900
H  -2.82700 24.11000 25.16600
H  -1.74300 24.45000 23.79800
H  -1.00400 23.85800 25.26100
H  -1.30700 17.39500 21.49700
H  -3.92500 16.00500 21.88500
H  -3.91600 17.84300 20.54200
H  -2.48600 18.84500 20.21300
H  -3.60600 19.26900 21.42400
H  -1.88100 14.14400 21.75500
H  -1.27500 15.24700 20.62600
H  -2.88600 14.79800 19.06100
H  -4.17600 14.46300 20.33800
H  -3.04600 13.25800 19.88800
H  -1.84000 11.75800 24.43500
H  -3.42800 11.06500 24.88800
H  -2.03700 10.62600 25.88500
H  -3.68700 13.30200 30.41000
H  -0.87100 12.24500 33.50800
H  -0.01400 13.44700 32.55700
H  0.02800 11.71700 31.94500
Mg 53.55300 24.24900 45.07600
C  51.30400 26.55400 43.82100
C  52.05500 21.84800 43.08100
C  56.17100 22.22800 45.43400
C  55.44600 26.94600 46.40800
N  52.00100 24.18200 43.51000
C  51.28500 25.34900 43.11500
C  50.26500 24.98200 42.01100
C  50.12300 23.46800 42.25500
C  51.49500 23.11400 42.97200
C  48.82700 23.18100 43.09500
C  50.90200 25.35700 40.67200
C  49.91500 25.74300 39.59200
H  50.54200 26.46000 38.35800
N  53.94600 22.21100 44.63800
C  53.19000 21.42500 43.84700
C  53.69500 20.07300 43.85400
C  54.83300 20.12700 44.77000
C  55.02500 21.51300 44.99500
C  53.23100 18.94600 43.00900
C  55.66500 18.93800 45.12700
O  55.40200 17.82200 44.68100
C  56.96600 18.99800 45.94900
N  55.56300 24.55200 45.87100
C  56.43200 23.52100 45.86600
C  57.79100 23.99900 46.30800
C  57.50200 25.48100 46.71300
C  56.02700 25.70700 46.37600
C  58.51700 23.22100 47.51100
C  58.52000 26.50600 46.09100
C  59.12100 27.53800 47.06500
N  53.31600 26.36700 45.31200
C  54.15600 27.31900 45.86000
C  53.36300 28.54400 45.99600
C  52.18400 28.30400 45.22800
C  52.28700 26.96300 44.80600
C  53.74700 29.81000 46.70900
C  50.91100 28.87500 44.77700
O  50.38500 29.98400 44.99500
C  50.31800 27.69300 43.85000
C  50.07900 28.33600 42.54800
O  50.93400 28.76800 41.80200
O  48.74100 28.37000 42.27200
C  48.29200 28.90600 40.98000
H  51.53800 21.16100 42.40700
H  57.10100 21.66400 45.53200
H  56.12000 27.78500 46.58800
H  49.29800 25.47400 42.11900
H  50.08300 22.87100 41.34400
H  49.17600 22.57500 43.93200
H  48.14100 22.62100 42.46000
H  48.35600 24.02000 43.60800
H  51.55800 24.61900 40.21000
H  51.42400 26.26500 40.97500
H  49.02200 26.28100 39.91200
H  49.50700 24.80900 39.20400
H  54.02000 18.51500 42.39200
H  52.43000 19.20600 42.31700
H  52.72000 18.24000 43.66300
H  57.13000 18.02400 46.40900
H  56.97100 19.89000 46.57600
H  57.77700 19.13700 45.23400
H  58.42700 23.91300 45.42700
H  57.54100 25.65500 47.78800
H  58.56500 23.92100 48.34600
H  59.48800 22.78900 47.27100
H  58.08000 22.34800 47.99600
H  57.94700 27.11900 45.39500
H  59.30700 25.91500 45.62200
H  59.06400 27.37300 48.14100
H  58.59800 28.47600 46.87800
H  60.10600 27.84800 46.71600
H  53.77200 30.56600 45.92400
H  54.74900 29.78700 47.13500
H  53.00500 30.03700 47.47500
H  49.36300 27.34400 44.24200
H  48.34700 29.98600 41.11800
H  47.26800 28.53600 40.93700
H  48.97700 28.51900 40.22600

