158

Mg 43.76600 4.88300 47.75500
C  41.66700 7.80600 47.57300
C  40.91400 2.97500 47.67900
C  45.65700 2.35100 47.08600
C  46.42200 7.06900 47.11100
N  41.61900 5.36200 47.51900
C  40.99800 6.60400 47.58000
C  39.45700 6.49700 47.48800
C  39.26900 4.88700 47.65100
C  40.71000 4.34600 47.69300
C  38.43200 4.45100 48.86100
C  38.72100 7.09800 46.25200
C  39.37600 6.96200 44.85800
H  39.56700 8.25300 43.95700
N  43.37300 2.89600 47.50900
C  42.14300 2.29000 47.54900
C  42.22500 0.85200 47.35900
C  43.66100 0.64700 47.00500
C  44.28500 2.01900 47.13400
C  41.06800 -0.10500 47.35800
C  44.26200 -0.62700 46.65800
O  43.60000 -1.67300 46.62400
C  45.74700 -0.71000 46.26800
N  45.73200 4.73000 47.16600
C  46.34600 3.53600 47.09400
C  47.87900 3.58600 46.83700
C  48.04200 5.09100 46.60700
C  46.63600 5.66600 46.97400
C  48.73900 3.01700 47.95300
C  48.59200 5.48200 45.20600
C  50.10300 5.87700 45.06200
N  44.04900 7.03600 47.61900
C  45.19500 7.69900 47.39000
C  44.97700 9.11900 47.49200
C  43.57400 9.22800 47.58900
C  43.04800 7.94900 47.55200
C  46.05200 10.21900 47.33800
C  42.43900 10.09600 47.68400
O  42.31200 11.36800 47.70500
C  41.17100 9.20900 47.55200
C  40.22100 9.49000 48.65100
O  40.30700 8.99000 49.72800
O  39.30000 10.36400 48.24800
C  38.39800 10.75300 49.36000
H  39.96900 2.43500 47.77000
H  46.43600 1.60500 46.91600
H  47.30000 7.70400 46.98200
H  39.08500 7.09200 48.32200
H  38.73400 4.48400 46.79100
H  39.08100 3.96300 49.58800
H  37.73800 3.65400 48.59400
H  37.95700 5.29100 49.36800
H  38.49300 8.13900 46.47700
H  37.70300 6.74600 46.08400
H  38.84200 6.12800 44.40100
H  40.41900 6.66500 44.96400
H  40.11300 0.41500 47.42900
H  41.17600 -0.77200 48.21300
H  41.15500 -0.67300 46.43100
H  46.42100 -0.56300 47.11200
H  46.11200 -0.09600 45.44500
H  46.12400 -1.66400 45.90100
H  47.88700 2.98800 45.92600
H  48.61200 5.47000 47.45500
H  49.18200 2.13100 47.49800
H  48.17600 2.65600 48.81300
H  49.52800 3.68700 48.29400
H  48.03200 6.30100 44.75600
H  48.42000 4.61200 44.57100
H  50.52200 5.21100 44.30800
H  50.59700 5.83800 46.03300
H  50.06500 6.90900 44.71400
H  46.74300 10.16500 48.17900
H  45.58900 11.20100 47.24000
H  46.62000 9.95100 46.44800
H  40.81900 9.43900 46.54600
H  37.75300 9.97400 49.76700
H  37.71700 11.46300 48.89100
H  38.97100 11.23600 50.15200
Mg 34.57500 2.97400 29.70400
C  32.52100 4.09100 32.27800
C  37.28200 3.37200 31.79800
C  36.49200 2.62500 26.95500
C  31.70700 3.31000 27.49900
N  34.90400 3.76600 31.78300
C  33.89900 4.05400 32.69000
C  34.40600 4.04100 34.13000
C  35.95400 4.00400 33.86800
C  36.07500 3.60300 32.40200
C  36.70600 5.31100 34.26000
C  33.88400 2.77800 34.91800
C  33.53200 3.04500 36.46600
H  34.16800 4.30600 37.14300
N  36.58900 2.76300 29.47700
C  37.51000 3.01800 30.45100
C  38.86400 2.90500 29.90800
C  38.67100 2.72800 28.48400
C  37.17100 2.66300 28.23500
C  40.15700 3.15800 30.76200
C  39.63200 2.62600 27.30100
O  39.35700 2.41300 26.10800
C  41.13300 2.73400 27.63200
N  34.08900 2.87400 27.49900
C  35.12500 2.88100 26.58400
C  34.59800 2.94800 25.17700
C  33.03800 2.83900 25.36100
C  32.89100 2.99900 26.83100
C  35.12700 4.24100 24.45500
C  32.39700 1.52000 24.89500
C  32.36200 0.26500 25.78200
N  32.57300 3.44000 29.76600
C  31.47700 3.47000 28.87500
C  30.31500 3.99000 29.52600
C  30.62500 4.07700 30.90900
C  32.00600 3.85100 30.94500
C  28.95200 4.12700 28.98000
C  30.08200 4.38600 32.19500
O  28.96400 4.73900 32.47600
C  31.35500 4.40300 33.15400
C  31.46100 5.77300 33.76000
O  32.09000 6.70000 33.31700
O  30.76000 5.83000 34.86700
C  30.86900 7.10100 35.66300
H  38.15200 3.47000 32.45100
H  37.06300 2.64000 26.02500
H  30.81000 3.57400 26.93500
H  34.17700 5.03200 34.52200
H  36.40600 3.24800 34.51000
H  37.51600 4.89800 34.86200
H  36.15500 5.95900 34.94200
H  37.00200 5.85600 33.36300
H  34.61600 1.97900 34.79700
H  33.00400 2.47100 34.35200
H  33.88500 2.16700 37.00600
H  32.45800 3.03400 36.65100
H  40.17200 4.24100 30.88300
H  41.07100 2.69300 30.39400
H  39.87800 2.64900 31.68500
H  41.22800 3.68400 28.15700
H  41.60000 2.68500 26.64800
H  41.57400 1.99000 28.29500
H  34.85500 2.11300 24.52500
H  32.58500 3.76400 25.00500
H  34.65900 5.15900 24.81000
H  35.10700 4.17100 23.36700
H  36.17900 4.33600 24.72200
H  32.76300 1.18800 23.92300
H  31.33700 1.70800 24.72600
H  33.21300 0.22600 26.46200
H  32.33700 -0.64400 25.18100
H  31.47600 0.27200 26.41700
H  28.20700 3.93400 29.75300
H  28.84600 3.38600 28.18800
H  28.70700 5.09900 28.55300
H  31.11600 3.59500 33.84500
H  31.86100 7.26800 36.08200
H  30.26700 7.02400 36.56900
H  30.46800 7.94200 35.09600

