158

Mg 49.31900 44.55800 42.77400
C  45.72300 44.95800 41.91700
C  48.93000 41.27400 41.96400
C  52.57600 44.44400 42.95400
C  49.38900 48.00300 43.29300
N  47.47800 43.39300 41.89300
C  46.14700 43.65400 41.84500
C  45.33900 42.45400 41.28900
C  46.39300 41.33200 41.34200
C  47.72600 42.00500 41.82800
C  46.03800 40.21900 42.37800
C  44.72200 42.66900 39.87100
C  45.60100 43.07500 38.64600
H  45.51300 42.14300 37.47500
N  50.58000 43.04700 42.61600
C  50.28500 41.73500 42.31800
C  51.52300 40.92800 42.29800
C  52.55700 41.79700 42.64500
C  51.92100 43.13900 42.78000
C  51.55500 39.48700 42.10800
C  54.01900 41.39800 42.86600
O  54.37300 40.28300 42.44800
C  55.07900 42.30800 43.42700
N  50.76700 45.99300 42.93500
C  52.02500 45.69900 43.02300
C  52.98200 46.96000 43.13500
C  51.87800 48.07300 43.49400
C  50.54800 47.33700 43.25800
C  54.23000 46.81900 44.05500
C  52.10300 49.40300 42.68300
C  53.42500 50.17200 42.85200
N  47.94100 46.18800 42.66900
C  48.11700 47.57600 42.96000
C  46.80300 48.24600 42.79300
C  45.96100 47.24600 42.28100
C  46.64500 46.03200 42.29700
C  46.53600 49.71200 43.01200
C  44.60600 47.08700 41.78400
O  43.74000 47.91300 41.54100
C  44.37800 45.65500 41.62600
C  43.27200 45.17800 42.43500
O  42.46700 44.36000 42.01200
O  43.32600 45.65300 43.72300
C  42.34000 44.92600 44.55500
H  48.74900 40.22000 41.74400
H  53.66800 44.42900 42.93200
H  49.52900 49.02900 43.64000
H  44.54800 42.21100 41.99800
H  46.40300 40.89500 40.34300
H  46.37400 40.46000 43.38700
H  46.61000 39.31700 42.16100
H  44.99000 39.93200 42.46000
H  43.86200 43.33800 39.84000
H  44.28100 41.68700 39.70000
H  46.64700 43.21700 38.91700
H  45.32500 44.05000 38.24700
H  52.20300 39.01600 42.84700
H  51.91100 39.13100 41.14100
H  50.51700 39.16700 42.19500
H  55.68800 41.60600 43.99600
H  54.64300 43.02900 44.11800
H  55.62400 42.88400 42.67900
H  53.41700 47.10000 42.14600
H  51.78500 48.23600 44.56800
H  55.20200 47.03400 43.61000
H  54.21900 45.82800 44.50700
H  54.02300 47.52600 44.85900
H  51.32900 50.02000 43.14000
H  51.93000 49.13400 41.64200
H  53.61600 50.26900 43.92000
H  53.19900 51.06600 42.27000
H  54.26600 49.65900 42.38700
H  45.50300 50.01600 42.84300
H  47.16000 50.36000 42.39600
H  46.86800 49.86900 44.03800
H  44.13400 45.57800 40.56700
H  41.35700 45.09900 44.11700
H  42.24300 45.41500 45.52400
H  42.49300 43.85400 44.68500
Mg 9.98700 47.19400 27.21500
C  7.61400 47.38100 29.93700
C  12.38900 48.10100 29.35500
C  11.90700 47.40400 24.63500
C  7.12900 46.53200 25.17800
N  9.92300 47.70900 29.40900
C  8.90000 47.78500 30.36400
C  9.46500 48.09100 31.71400
C  10.87300 48.72300 31.27000
C  11.14200 48.01700 30.01300
C  11.00600 50.18600 31.19400
C  9.52400 46.90300 32.74000
C  9.12100 47.23000 34.17900
H  9.33300 46.23100 35.25600
N  11.92300 47.61800 27.06800
C  12.75800 47.88900 28.04700
C  14.08100 47.98900 27.46200
C  13.94100 47.77000 26.03700
C  12.51500 47.60400 25.84100
C  15.20100 48.27700 28.41700
C  15.01000 47.74000 24.96300
O  14.74700 47.65800 23.75800
C  16.49800 47.74100 25.37500
N  9.50800 47.37000 25.12700
C  10.55600 47.27700 24.25200
C  10.10100 46.85300 22.86400
C  8.62400 46.45900 23.07600
C  8.38200 46.86600 24.53600
C  10.17700 47.97000 21.78200
C  8.39800 44.94100 22.76500
C  9.13200 43.91000 23.66300
N  7.78400 47.01000 27.39500
C  6.82900 46.64300 26.51400
C  5.57700 46.50300 27.13500
C  5.84100 46.78800 28.48600
C  7.15800 47.20000 28.58700
C  4.22400 46.19800 26.47700
C  5.18700 46.96700 29.75000
O  4.02100 46.81800 30.06500
C  6.36700 47.19900 30.79300
C  6.53800 45.94600 31.52000
O  7.02000 44.95400 31.06800
O  6.01100 46.07800 32.77000
C  6.04900 44.81900 33.56200
H  13.16600 48.46800 30.02800
H  12.51500 47.08800 23.78600
H  6.32200 46.19000 24.52700
H  9.00500 48.90800 32.27000
H  11.69700 48.40600 31.90900
H  10.10100 50.70000 31.51800
H  11.12000 50.38300 30.12800
H  11.89100 50.54700 31.71800
H  10.58700 46.67900 32.81900
H  9.05100 46.01600 32.31800
H  8.04100 47.37300 34.13900
H  9.52200 48.21900 34.39900
H  14.98400 49.19500 28.96400
H  16.12700 48.41300 27.85800
H  15.30300 47.48700 29.16000
H  16.57600 46.87400 26.03100
H  16.81500 48.69500 25.79600
H  17.14600 47.60700 24.50900
H  10.66000 45.93600 22.67600
H  7.91300 47.11700 22.57700
H  10.76200 47.80100 20.87700
H  10.60200 48.87300 22.22000
H  9.16700 48.27100 21.50400
H  8.73800 44.71700 21.75400
H  7.34300 44.69200 22.88300
H  8.62100 42.96500 23.84500
H  9.12100 44.41900 24.62700
H  10.11600 43.72500 23.23100
H  4.08600 46.38400 25.41200
H  3.53100 46.86200 26.99400
H  3.87200 45.16600 26.47000
H  6.19000 48.06600 31.42900
H  5.83000 45.01600 34.61200
H  7.05700 44.40700 33.53200
H  5.18600 44.17800 33.37900

