158

Mg 17.12100 50.91700 26.12300
C  18.79100 49.91900 29.02900
C  14.64100 52.09100 28.00200
C  15.70800 51.81700 23.23000
C  19.81900 49.57100 24.32500
N  16.73000 50.73700 28.32000
C  17.54600 50.38700 29.32000
C  16.95400 50.69700 30.72700
C  15.48700 51.14700 30.38500
C  15.53600 51.26700 28.80600
C  14.37000 50.18500 30.84400
C  17.87800 51.81200 31.46100
C  18.18500 51.50900 32.99500
H  17.29600 50.55100 33.77800
N  15.45700 51.84900 25.72300
C  14.57900 52.32700 26.64000
C  13.59800 53.20200 25.99100
C  13.88000 53.12000 24.58200
C  15.01300 52.19200 24.46100
C  12.45800 53.90000 26.75900
C  13.27600 53.87800 23.36600
O  13.65800 53.71000 22.21900
C  12.12800 54.84100 23.68000
N  17.65700 50.59700 24.03200
C  16.88800 51.09200 23.01600
C  17.51000 50.78400 21.62100
C  18.82700 50.13500 22.06400
C  18.75800 50.08400 23.55800
C  16.54800 50.03300 20.71100
C  20.07000 50.92400 21.54900
C  20.28800 52.36500 22.11000
N  18.90500 50.02200 26.49000
C  19.91800 49.48600 25.68900
C  20.98600 48.82600 26.47000
C  20.54300 49.02500 27.77700
C  19.29600 49.73900 27.74900
C  22.25400 48.17600 25.94600
C  20.96600 48.75800 29.11600
O  21.97900 48.19500 29.46400
C  19.86400 49.38300 30.05400
C  19.31500 48.21800 30.97200
O  18.55100 47.38500 30.50700
O  19.75000 48.24900 32.28900
C  19.48900 46.95800 32.95200
H  13.79400 52.53100 28.53100
H  15.26600 52.21800 22.31500
H  20.70700 49.29900 23.75100
H  16.88000 49.78000 31.31100
H  15.25500 52.18100 30.63900
H  14.37900 49.90200 31.89700
H  14.40500 49.34900 30.14500
H  13.48900 50.81300 30.71200
H  17.37400 52.77200 31.35000
H  18.75200 51.88500 30.81400
H  18.11000 52.48200 33.47900
H  19.21800 51.18000 33.11200
H  11.54000 54.02900 26.18600
H  12.73200 54.90500 27.08100
H  12.07700 53.24300 27.54100
H  12.34300 55.60600 24.42700
H  11.18700 54.38100 23.98200
H  11.95000 55.41300 22.76900
H  17.56500 51.72300 21.07000
H  18.94100 49.16500 21.57900
H  16.78300 49.18400 20.06900
H  15.94900 50.59900 19.99800
H  15.72200 49.66200 21.31800
H  19.83600 51.01900 20.48900
H  21.02000 50.40800 21.69000
H  21.33200 52.50400 22.38900
H  19.70200 52.50500 23.01800
H  19.88300 53.07400 21.38800
H  22.71700 48.74700 25.14100
H  21.83700 47.22400 25.61800
H  23.04700 48.04300 26.68200
H  20.33000 50.14800 30.67500
H  19.83200 46.11400 32.35300
H  18.47600 46.77900 33.31300
H  20.04000 46.85100 33.88700
Mg -12.07400 37.67800 41.71300
C  -9.71300 35.24900 40.93100
C  -10.12700 40.08000 40.19600
C  -14.83900 39.76400 41.76200
C  -14.13400 35.11700 43.10200
N  -10.26800 37.59900 40.49400
C  -9.38900 36.52000 40.36400
C  -8.06300 36.95100 39.70500
C  -8.19400 38.52500 39.61300
C  -9.62100 38.71500 40.08300
C  -7.13700 39.16000 40.72500
C  -7.90800 36.36900 38.25400
C  -6.50200 35.82300 37.94100
H  -5.77100 36.39100 36.73800
N  -12.44400 39.66300 41.03600
C  -11.46300 40.51000 40.46500
C  -12.07700 41.78600 40.24600
C  -13.41800 41.77900 40.79100
C  -13.63700 40.39600 41.22100
C  -11.19900 42.88400 39.64400
C  -14.37900 42.92900 40.85900
O  -13.99400 44.05700 40.42400
C  -15.81300 42.85500 41.17600
N  -14.23900 37.39700 42.20000
C  -15.08900 38.45100 42.19500
C  -16.41800 38.01000 42.69300
C  -16.24400 36.48700 43.11900
C  -14.77700 36.30900 42.77600
C  -16.89800 38.89100 43.86700
C  -17.15400 35.51800 42.29700
C  -17.96400 34.61000 43.21400
N  -11.92100 35.63600 42.04100
C  -12.80700 34.76200 42.70100
C  -12.16800 33.49200 42.77000
C  -10.95800 33.56600 42.08700
C  -10.85600 34.92200 41.69400
C  -12.81500 32.34500 43.42200
C  -9.77100 32.86800 41.59600
O  -9.38400 31.72400 41.74000
C  -8.97100 33.93100 40.78800
C  -7.52900 34.05000 41.25100
O  -6.56900 33.88300 40.52700
O  -7.46400 34.37900 42.54800
C  -6.19900 34.74200 43.17300
H  -9.47900 40.93700 40.00500
H  -15.71000 40.41800 41.83600
H  -14.78500 34.38300 43.58200
H  -7.16000 36.70700 40.26400
H  -8.12500 38.86700 38.58000
H  -7.57200 40.12100 41.00000
H  -6.20600 39.26100 40.16700
H  -6.97100 38.52800 41.59800
H  -8.30800 36.89600 37.38700
H  -8.47300 35.43800 38.21300
H  -6.68100 34.75900 37.79000
H  -5.81000 35.77000 38.78100
H  -11.79500 43.62100 39.10700
H  -10.38900 42.46300 39.04900
H  -10.58000 43.40300 40.37700
H  -16.28500 43.79000 40.87300
H  -15.83400 42.61200 42.23800
H  -16.33400 42.06800 40.63000
H  -17.11500 38.14500 41.86600
H  -16.33500 36.31200 44.19100
H  -17.38600 39.76000 43.42500
H  -15.98200 39.26600 44.32500
H  -17.60200 38.36900 44.51500
H  -16.56600 34.91500 41.60600
H  -17.80300 36.09000 41.63300
H  -17.27700 33.98100 43.77900
H  -18.56100 33.96100 42.57300
H  -18.61800 35.26300 43.79100
H  -12.10400 31.53800 43.59800
H  -13.60100 31.91500 42.80100
H  -13.28300 32.59800 44.37300
H  -8.85300 33.71200 39.72700
H  -5.51100 35.30300 42.54000
H  -5.76800 33.78900 43.48000
H  -6.47500 35.35500 44.03100

