158

Mg 40.45000 9.42800 29.18200
C  42.25500 10.59200 31.81400
C  38.19600 7.91100 31.40800
C  38.76500 8.18300 26.56600
C  43.04100 10.51400 26.99500
N  40.26000 9.26100 31.30600
C  41.04300 9.88700 32.20100
C  40.50200 9.82100 33.69000
C  39.35700 8.75200 33.46400
C  39.26900 8.58300 31.94200
C  39.40700 7.44400 34.22900
C  40.14400 11.21200 34.24000
C  40.06800 11.32600 35.76100
H  40.91700 12.38400 36.42900
N  38.70500 8.15100 29.00700
C  37.93200 7.66900 30.03800
C  36.79100 6.96200 29.45600
C  36.83300 7.28600 28.05000
C  38.16300 7.90400 27.84200
C  35.79400 6.20600 30.27500
C  35.84400 7.07100 26.89700
O  36.03100 7.54700 25.79000
C  34.57100 6.33500 27.22200
N  40.88700 9.20900 27.08900
C  39.98300 8.70700 26.22500
C  40.44800 8.88600 24.83300
C  41.81800 9.58100 24.92400
C  41.96600 9.81100 26.44200
C  40.55100 7.52600 24.09400
C  41.90200 10.83900 24.07800
C  40.94200 12.01300 24.52700
N  42.31700 10.37900 29.31800
C  43.21700 10.77500 28.35900
C  44.34300 11.46100 29.00900
C  44.01000 11.39200 30.40400
C  42.75800 10.78800 30.50300
C  45.66300 12.06800 28.51100
C  44.43300 11.68100 31.77700
O  45.41300 12.20200 32.22600
C  43.30300 11.23800 32.78200
C  43.78000 10.31300 33.80000
O  44.37400 9.23900 33.59500
O  43.54700 10.71800 35.09500
C  44.03600 9.85800 36.23800
H  37.47900 7.57200 32.15900
H  38.20600 8.02100 25.64200
H  43.83900 10.76200 26.29200
H  41.17800 9.36600 34.41400
H  38.41100 9.21300 33.74900
H  38.54800 7.42700 34.89900
H  40.35400 7.31300 34.75200
H  39.43300 6.57300 33.57500
H  39.17400 11.38000 33.77400
H  40.83800 11.93500 33.81100
H  40.17400 10.30300 36.12100
H  39.02900 11.60600 35.93500
H  34.82400 6.70000 30.22500
H  36.07800 6.06100 31.31700
H  35.84600 5.32200 29.63900
H  34.11500 7.01400 27.94300
H  34.74300 5.30800 27.54300
H  33.99000 6.48100 26.31100
H  39.73200 9.52700 24.31900
H  42.56900 8.86500 24.58800
H  41.58900 7.47200 23.76500
H  39.85100 7.38700 23.27000
H  40.27800 6.70600 24.75900
H  41.53800 10.52700 23.09900
H  42.92600 11.20500 24.15800
H  40.55900 11.94000 25.54500
H  40.09600 12.09200 23.84400
H  41.49400 12.95100 24.48000
H  46.13900 12.49500 29.39300
H  45.52100 12.76000 27.68100
H  46.31800 11.31900 28.06500
H  43.01400 12.13700 33.32700
H  45.05500 9.53200 36.03100
H  43.32900 9.06000 36.46200
H  44.06000 10.44900 37.15300
Mg 6.68100 53.74700 41.82600
C  6.22600 50.19800 41.58400
C  9.79400 53.13000 40.48800
C  7.21100 57.08200 41.78200
C  3.39600 54.15900 42.50600
N  7.85900 51.81000 41.16400
C  7.49000 50.55800 41.06900
C  8.56800 49.68800 40.47200
C  9.84200 50.60000 40.46700
C  9.09800 51.94100 40.69300
C  10.96200 50.39700 41.52700
C  8.14000 49.03500 39.19100
C  7.52900 49.94700 38.04600
H  6.94700 49.34700 36.75500
N  8.29700 54.94700 41.16800
C  9.44800 54.48400 40.55900
C  10.29700 55.63100 40.17200
C  9.69000 56.79200 40.72300
C  8.34700 56.34800 41.31500
C  11.65000 55.42600 39.36000
C  10.19900 58.17900 40.62400
O  11.28400 58.44400 40.10800
C  9.60400 59.29100 41.33900
N  5.51400 55.37100 42.14400
C  5.93300 56.68400 42.15400
C  4.87100 57.66500 42.65700
C  3.61500 56.70600 42.79800
C  4.20300 55.31700 42.46700
C  5.35700 58.28500 43.98400
C  2.34700 57.20000 41.94700
C  0.92400 56.89300 42.53100
N  5.12200 52.49400 42.27100
C  3.78100 52.75200 42.52300
C  3.09500 51.59300 42.74800
C  4.02600 50.52900 42.52400
C  5.22200 51.11400 42.11400
C  1.68000 51.44200 43.15400
C  4.22700 49.09100 42.48000
O  3.47000 48.23100 42.83700
C  5.57100 48.80300 41.83400
C  5.31200 48.11200 40.50900
O  4.95100 48.68400 39.45100
O  5.48600 46.73000 40.62400
C  5.31800 46.05600 39.37500
H  10.80100 52.96400 40.09700
H  7.46500 58.14400 41.81600
H  2.32600 54.30500 42.66600
H  8.69800 48.93400 41.24800
H  10.19000 50.53600 39.43600
H  10.72700 49.50200 42.10300
H  11.09900 51.23600 42.20800
H  11.94500 50.21400 41.09300
H  7.47100 48.20900 39.43400
H  9.10300 48.62000 38.89300
H  8.37400 50.52500 37.67300
H  6.89200 50.66100 38.56800
H  11.85100 56.28700 38.72200
H  11.66200 54.44800 38.87900
H  12.46800 55.32100 40.07300
H  8.84400 59.48200 40.58000
H  10.30500 60.12400 41.36800
H  9.35500 58.91800 42.33200
H  4.65200 58.48200 41.97000
H  3.39300 56.74600 43.86400
H  4.78100 57.89000 44.82100
H  5.05400 59.33000 44.05900
H  6.38500 58.03900 44.25200
H  2.36800 56.66000 41.00000
H  2.36800 58.26100 41.69500
H  0.42300 57.75900 42.96400
H  1.09000 56.11100 43.27100
H  0.42400 56.41500 41.68900
H  1.36100 52.17400 43.89600
H  1.33400 50.48900 43.55500
H  1.13900 51.74600 42.25800
H  6.24500 48.19800 42.44200
H  6.13900 46.34100 38.71700
H  4.37700 46.12500 38.83000
H  5.39100 44.98900 39.58700

