158

Mg 16.29900 -2.28100 27.72700
C  15.27600 -0.24100 30.26700
C  18.45100 -3.98000 29.97600
C  17.63700 -4.07600 25.20400
C  14.39200 -0.44300 25.39700
N  16.95800 -1.96100 29.88100
C  16.22700 -1.20600 30.73700
C  16.62600 -1.52400 32.25900
C  17.77300 -2.55000 32.05600
C  17.64900 -2.90900 30.58600
C  19.18800 -2.16900 32.48700
C  15.47500 -2.03100 33.15500
C  15.51400 -1.43500 34.52100
H  16.73700 -0.68400 35.03300
N  17.71100 -3.90700 27.60200
C  18.46100 -4.45300 28.64500
C  19.36700 -5.41600 28.08500
C  19.03300 -5.54600 26.72400
C  18.12100 -4.45400 26.43500
C  20.31300 -6.16400 29.01900
C  19.55700 -6.53400 25.70400
O  19.31700 -6.43300 24.54000
C  20.40600 -7.72300 26.08200
N  16.16500 -2.13100 25.59400
C  16.64900 -3.15700 24.83700
C  16.20000 -3.00100 23.36000
C  14.89500 -2.09900 23.54200
C  15.13600 -1.56200 24.95500
C  17.36000 -2.44200 22.46400
C  13.59200 -3.02900 23.43200
C  13.05500 -3.23200 21.98700
N  15.22000 -0.58700 27.74900
C  14.45800 0.03900 26.74300
C  13.64900 0.99400 27.37400
C  13.97200 0.96900 28.71800
C  14.88500 -0.02700 28.91900
C  12.64300 1.81800 26.71500
C  13.57600 1.50100 29.99100
O  12.70100 2.33800 30.23500
C  14.35000 0.63100 31.08300
C  15.13400 1.56700 31.90100
O  16.26100 1.95700 31.67600
O  14.28400 1.86800 32.99600
C  14.79100 2.86200 34.01100
H  19.18800 -4.49800 30.59200
H  17.85000 -4.76800 24.38700
H  13.62900 -0.04700 24.72400
H  17.05900 -0.57700 32.58100
H  17.69500 -3.50500 32.57600
H  19.21900 -1.51400 33.35700
H  19.57200 -1.63000 31.62100
H  19.82000 -3.04200 32.65100
H  15.59500 -3.11000 33.25400
H  14.54900 -1.98800 32.58100
H  15.31000 -2.24300 35.22300
H  14.64200 -0.82400 34.75500
H  19.84500 -7.11300 29.28100
H  20.76300 -5.59900 29.83600
H  21.21100 -6.47300 28.48400
H  20.08800 -8.11200 27.05000
H  21.45200 -7.41900 26.06800
H  20.24300 -8.46600 25.30100
H  15.90600 -3.97700 22.97600
H  14.85700 -1.33400 22.76600
H  17.50000 -3.05900 21.57600
H  18.28700 -2.30700 23.02000
H  17.13000 -1.42200 22.15400
H  12.90900 -2.52100 24.11300
H  13.83300 -3.98300 23.90100
H  12.19600 -2.58300 21.81800
H  12.78000 -4.28400 22.05500
H  13.83800 -2.93900 21.28800
H  11.78800 1.57300 27.34500
H  12.34700 1.40200 25.75300
H  12.81900 2.85500 26.42800
H  13.67800 0.14200 31.78900
H  14.96800 3.76300 33.42300
H  15.69600 2.42400 34.43100
H  14.02300 3.06900 34.75600
Mg 30.16500 58.47100 41.09600
C  27.31000 56.75800 40.02500
C  31.98700 56.02500 39.46100
C  32.98900 60.46300 41.15500
C  28.18800 61.14900 42.32800
N  29.67800 56.46800 40.08600
C  28.47100 56.03500 39.67500
C  28.54500 54.75800 38.84500
C  30.05500 54.38500 38.93900
C  30.63900 55.71600 39.53400
C  30.45500 53.07500 39.64600
C  28.01800 54.95500 37.39400
C  27.46000 53.76400 36.61400
H  27.80300 53.71900 35.10900
N  32.14300 58.31600 40.35700
C  32.68300 57.17900 39.73400
C  34.03900 57.38900 39.43800
C  34.35200 58.64900 39.97500
C  33.10700 59.23800 40.47900
C  34.94300 56.29100 38.84700
C  35.69000 59.29800 39.67900
O  36.71300 58.64300 39.44300
C  35.96400 60.78400 39.77700
N  30.49200 60.52900 41.63600
C  31.79600 61.08000 41.72200
C  31.66100 62.52300 41.97300
C  30.15700 62.72700 42.44400
C  29.51700 61.41000 42.12500
C  32.69600 63.07900 43.03600
C  29.39200 64.02500 41.80200
C  28.56800 64.80700 42.85500
N  28.20400 58.89800 41.27200
C  27.57600 59.98100 41.85700
C  26.15100 59.73900 41.80800
C  26.00500 58.49000 41.11000
C  27.27500 58.02000 40.83100
C  25.03400 60.64500 42.33700
C  25.05200 57.53100 40.58700
O  23.86200 57.58000 40.48300
C  25.89600 56.33500 39.90800
C  25.52100 55.15500 40.69300
O  26.03200 54.77000 41.72900
O  24.46300 54.49100 40.14900
C  23.88800 53.29400 40.80900
H  32.57500 55.16700 39.12800
H  33.82700 61.14300 41.32100
H  27.53500 61.86500 42.83300
H  27.97600 53.90400 39.21100
H  30.36100 54.25100 37.90100
H  31.21700 53.19600 40.41700
H  30.92200 52.39100 38.93700
H  29.56700 52.53900 39.98300
H  28.81000 55.45600 36.83700
H  27.17100 55.63700 37.47500
H  26.37400 53.69200 36.67200
H  27.90600 52.87900 37.06700
H  34.50900 55.86600 37.94300
H  34.99700 55.42000 39.50100
H  35.92700 56.65000 38.54700
H  35.14400 61.38000 39.37600
H  36.79800 60.94200 39.09200
H  36.29600 61.00800 40.79100
H  31.84800 62.91600 40.97300
H  30.15600 62.79100 43.53200
H  33.50500 63.50900 42.44600
H  33.06000 62.24300 43.63300
H  32.21300 63.94100 43.49800
H  28.67300 63.67600 41.06000
H  30.07900 64.78600 41.43100
H  27.54200 64.82800 42.48700
H  28.94900 65.82800 42.87900
H  28.64700 64.42400 43.87300
H  25.27000 61.68800 42.12500
H  25.29800 60.76700 43.38700
H  24.02500 60.24300 42.25100
H  25.57200 56.22400 38.87300
H  24.70500 52.79800 41.33300
H  23.57100 52.61200 40.02100
H  23.09800 53.59400 41.49900

