158

Mg 36.59400 49.25500 25.81600
C  36.50500 47.04500 28.66700
C  35.72900 51.83900 28.14800
C  36.18700 51.23100 23.26900
C  37.03400 46.38200 23.83800
N  36.08500 49.44500 28.13400
C  36.19000 48.41800 29.09500
C  35.98100 48.89100 30.52600
C  35.53500 50.41100 30.28300
C  35.83600 50.61700 28.78100
C  34.01300 50.72700 30.70700
C  37.22800 48.87700 31.46200
C  36.81300 48.58200 32.97600
H  35.35500 48.75300 33.59200
N  36.23200 51.31500 25.71700
C  35.84600 52.19200 26.73700
C  35.74000 53.49200 26.15300
C  36.03900 53.37000 24.73100
C  36.14200 51.95700 24.49600
C  35.48100 54.86600 26.98500
C  36.26900 54.46900 23.74300
O  36.41800 54.18500 22.55600
C  36.32200 55.98600 24.16700
N  36.52100 48.79100 23.85600
C  36.37300 49.84200 22.93700
C  36.66900 49.35000 21.47400
C  37.17700 47.82200 21.71400
C  36.86300 47.66600 23.20700
C  35.49400 49.54800 20.52300
C  38.63700 47.46100 21.40000
C  38.85900 46.05800 20.75800
N  36.68200 47.15600 26.13200
C  36.83500 46.11000 25.22800
C  37.08900 44.87300 25.91600
C  37.01700 45.23400 27.28700
C  36.70400 46.60600 27.34100
C  37.32900 43.56300 25.28900
C  36.96700 44.65300 28.62700
O  37.27400 43.58500 29.08200
C  36.52500 45.80500 29.58300
C  35.28200 45.48300 30.31100
O  34.18300 45.90000 30.03100
O  35.56500 44.83600 31.42800
C  34.42100 44.56700 32.35100
H  35.50900 52.66900 28.82200
H  36.27600 51.93500 22.43900
H  37.56900 45.53200 23.40900
H  35.26600 48.22100 31.00400
H  36.15600 51.11000 30.84100
H  34.01200 51.48700 31.48800
H  33.44800 49.87700 31.09000
H  33.45700 51.20500 29.90000
H  37.81000 49.79100 31.34000
H  37.73500 48.08800 30.90700
H  37.46900 49.19000 33.59900
H  37.00900 47.51400 33.07100
H  35.08600 54.62200 27.97100
H  34.83400 55.58700 26.48400
H  36.50500 55.22300 27.08900
H  36.96400 56.20200 25.02100
H  35.28000 56.26600 24.31600
H  36.73700 56.54200 23.32500
H  37.58800 49.82500 21.13000
H  36.46600 47.13900 21.24900
H  35.26500 48.57900 20.07900
H  35.74300 50.15300 19.65100
H  34.67200 49.77000 21.20300
H  39.26200 47.40000 22.29100
H  39.18100 48.07300 20.68100
H  39.44800 46.16400 19.84700
H  37.91700 45.61300 20.43900
H  39.29900 45.44100 21.54100
H  36.53900 43.35100 24.56900
H  37.21800 42.78000 26.04000
H  38.32100 43.47900 24.84400
H  37.31300 45.92300 30.32600
H  34.69900 44.58700 33.40500
H  34.11600 43.52500 32.25100
H  33.52300 45.16300 32.18900
Mg 9.57100 48.44500 25.99000
C  7.11100 48.99400 28.36200
C  11.95300 49.47100 28.22300
C  11.85900 47.96800 23.68200
C  7.05500 48.22800 23.54300
N  9.54500 49.08100 28.08100
C  8.41800 49.07600 28.90100
C  8.85500 49.31800 30.37100
C  10.28200 49.95100 30.11300
C  10.62900 49.46100 28.73100
C  10.45500 51.49200 30.25400
C  8.79300 47.97300 31.10400
C  9.45200 47.82400 32.42800
H  8.64300 47.36600 33.69200
N  11.66200 48.58700 25.96700
C  12.46900 49.09900 26.93900
C  13.87700 49.11300 26.50000
C  13.80300 48.58600 25.13800
C  12.40000 48.28900 24.91800
C  15.12700 49.41600 27.31700
C  14.92400 48.23400 24.16300
O  14.84100 47.64200 23.12800
C  16.34600 48.69900 24.53400
N  9.46900 48.25600 23.95500
C  10.56300 47.93800 23.20700
C  10.29300 47.57700 21.72800
C  8.73200 47.83500 21.64200
C  8.34400 48.07900 23.13200
C  11.02600 48.31700 20.68100
C  7.97900 46.75300 20.81700
C  7.19800 47.10600 19.64800
N  7.48400 48.38600 25.94200
C  6.60500 48.33600 24.89300
C  5.25500 48.34800 25.37600
C  5.43000 48.58500 26.74900
C  6.80400 48.66000 27.01500
C  4.04200 48.06100 24.50100
C  4.65400 48.78400 27.99800
O  3.47800 48.80000 28.17300
C  5.71500 49.25700 29.03500
C  5.57700 48.42000 30.24800
O  5.29300 47.26200 30.26900
O  5.36100 49.21800 31.27600
C  4.83900 48.70300 32.60600
H  12.70000 49.83900 28.93000
H  12.57800 47.75900 22.88700
H  6.32500 48.04400 22.75200
H  8.19400 50.03100 30.86400
H  10.87200 49.53700 30.93000
H  9.62200 52.04000 30.69300
H  10.48200 51.84400 29.22300
H  11.32800 51.69000 30.87500
H  9.21500 47.28300 30.37400
H  7.78000 47.60500 31.26500
H  9.94600 48.72500 32.79200
H  10.25600 47.09800 32.31000
H  15.82000 50.05900 26.77300
H  15.61400 48.46700 27.54100
H  14.88000 49.92300 28.25000
H  16.67400 48.28200 25.48600
H  16.39800 49.78800 24.53900
H  17.06400 48.30400 23.81400
H  10.60700 46.53400 21.68800
H  8.63000 48.77900 21.10500
H  12.10200 48.21400 20.82100
H  10.89700 49.38900 20.83600
H  10.64400 48.03400 19.70100
H  7.24000 46.31000 21.48400
H  8.61500 45.89400 20.60100
H  6.13000 46.89000 19.67300
H  7.66200 46.63600 18.78100
H  7.24800 48.18500 19.49700
H  3.53700 48.98000 24.20200
H  3.21500 47.58200 25.02400
H  4.36800 47.50200 23.62400
H  5.63100 50.31600 29.28000
H  4.12700 49.44200 32.97400
H  5.67600 48.72600 33.30500
H  4.26800 47.77700 32.65800

