158

Mg 40.85200 9.02200 28.74800
C  42.12300 9.99300 31.87300
C  38.50000 7.07700 30.50400
C  39.79000 7.65700 25.76900
C  43.51900 10.50200 27.20200
N  40.29700 8.68100 30.93500
C  40.97800 9.20000 32.00400
C  40.31400 8.78700 33.35600
C  39.18200 7.74000 32.95200
C  39.17100 7.90700 31.34000
C  39.32200 6.28700 33.47700
C  39.76800 9.95200 34.20400
C  40.25900 9.98700 35.68300
H  40.51600 11.33400 36.37700
N  39.24900 7.62700 28.23400
C  38.41500 7.01100 29.07100
C  37.50800 6.17200 28.27500
C  37.90400 6.31100 26.89000
C  39.03700 7.18500 26.90900
C  36.39400 5.30100 28.89800
C  37.24600 5.75500 25.68000
O  37.69100 5.95000 24.51700
C  36.06400 4.79100 25.72800
N  41.56500 9.00800 26.85000
C  40.90300 8.45500 25.73700
C  41.56800 8.91400 24.40800
C  42.69100 9.85300 24.87000
C  42.55600 9.84100 26.40000
C  42.07200 7.66900 23.60000
C  42.65400 11.26900 24.26200
C  41.30900 11.99700 24.20800
N  42.50800 10.07700 29.29400
C  43.54800 10.56000 28.59000
C  44.48500 11.21100 29.48900
C  43.97100 11.05700 30.77400
C  42.80100 10.32300 30.65400
C  45.72100 11.85200 29.07200
C  44.10600 11.35600 32.10300
O  45.02200 12.02700 32.57800
C  42.98700 10.66600 32.94400
C  43.81500 9.73800 33.84200
O  44.21000 8.64800 33.48400
O  44.03900 10.31300 35.08600
C  45.01000 9.59600 35.95400
H  37.69600 6.56300 31.03400
H  39.35400 7.36400 24.81200
H  44.30200 11.07700 26.70300
H  41.04800 8.17200 33.87600
H  38.22500 8.12700 33.30200
H  38.93400 5.59000 32.73400
H  38.61500 6.27000 34.30600
H  40.38000 6.16800 33.71300
H  38.68100 9.88500 34.19200
H  39.92900 10.90600 33.70200
H  41.06000 9.27200 35.86900
H  39.50100 9.48700 36.28700
H  35.41500 5.61400 28.53600
H  36.41800 5.32600 29.98700
H  36.48700 4.25700 28.59800
H  36.25200 3.94900 26.39300
H  35.85000 4.54900 24.68800
H  35.19800 5.35100 26.08200
H  40.69300 9.17100 23.81100
H  43.62400 9.32700 24.66300
H  42.87500 7.98200 22.93200
H  41.33400 7.16000 22.98000
H  42.34700 6.90300 24.32500
H  43.15600 11.20200 23.29700
H  43.24400 11.85500 24.96800
H  40.57300 11.62700 24.92100
H  40.83000 11.92200 23.23200
H  41.46400 13.05700 24.41000
H  45.59600 12.37500 28.12400
H  46.55400 11.15500 28.97100
H  45.92500 12.56000 29.87500
H  42.43700 11.40200 33.53000
H  44.67600 8.62000 36.30700
H  45.30900 10.26200 36.76300
H  45.86500 9.29100 35.35000
Mg 41.54800 41.20100 26.75000
C  40.79400 43.38800 29.47400
C  42.61800 38.90400 29.05000
C  42.65600 39.28800 24.21800
C  40.77300 43.82600 24.55600
N  41.70500 41.13900 29.06700
C  41.16800 42.13900 29.89700
C  41.36900 41.57500 31.37300
C  42.11300 40.15100 31.29700
C  42.17500 40.04100 29.73100
C  43.37900 39.99300 32.03700
C  40.06500 41.59900 32.13000
C  40.20400 41.40400 33.63600
H  39.54600 42.50600 34.52300
N  42.45900 39.31800 26.61400
C  42.81900 38.52900 27.67100
C  43.43400 37.27600 27.14600
C  43.45700 37.34100 25.72400
C  42.80300 38.70900 25.45000
C  43.96100 36.18600 28.07500
C  44.04600 36.32300 24.75000
O  44.04600 36.55300 23.50100
C  44.89100 35.14000 25.17200
N  41.80300 41.58900 24.71700
C  42.14900 40.55900 23.87900
C  41.97400 40.99900 22.46100
C  41.11700 42.31500 22.50000
C  41.23000 42.58300 24.01900
C  43.32000 41.37100 21.61900
C  39.63700 42.27400 22.02000
C  38.81700 41.06400 22.45600
N  40.95000 43.19500 26.93000
C  40.74300 44.21100 25.89000
C  40.44600 45.45800 26.49900
C  40.28500 45.13200 27.91000
C  40.72700 43.76900 28.11600
C  40.13100 46.72900 25.84100
C  39.84100 45.73200 29.22300
O  39.44100 46.86800 29.53000
C  40.14000 44.54600 30.24500
C  41.16200 45.22200 31.13900
O  42.20000 45.65700 30.70200
O  40.80000 45.31700 32.46300
C  41.85400 45.97200 33.38600
H  42.97000 38.19800 29.80600
H  43.08800 38.73900 23.37900
H  40.37700 44.63500 23.93800
H  42.09300 42.27100 31.79600
H  41.43500 39.33200 31.54100
H  43.87500 40.94400 32.23200
H  43.99900 39.36200 31.39900
H  43.28000 39.44900 32.97700
H  39.48500 40.74400 31.78300
H  39.59300 42.58000 32.08400
H  41.27000 41.25000 33.80900
H  39.75000 40.45600 33.92300
H  44.97600 35.90900 27.78900
H  43.35600 35.30400 27.86100
H  43.95300 36.36800 29.14900
H  44.97400 34.39200 24.38400
H  44.33100 34.70400 25.99900
H  45.86700 35.58800 25.35900
H  41.57200 40.18500 21.85600
H  41.56200 43.14600 21.95100
H  44.15400 40.93100 22.16700
H  43.46600 42.44500 21.50400
H  43.35100 41.04500 20.57900
H  39.65300 42.26500 20.93000
H  39.05800 43.15900 22.28300
H  38.63400 40.51200 21.53400
H  37.87600 41.31000 22.94700
H  39.43600 40.40100 23.06200
H  40.31100 46.70600 24.76600
H  40.74200 47.53400 26.24900
H  39.08800 46.96000 26.05700
H  39.22300 44.45000 30.82500
H  42.02100 45.30200 34.22900
H  41.52400 46.94900 33.73900
H  42.81500 46.06300 32.88000

