158

Mg 36.04300 2.31000 30.77800
C  33.32500 3.06900 33.03300
C  38.08800 2.19000 33.27000
C  38.30500 1.69000 28.45800
C  33.55800 2.35600 28.16600
N  35.69800 2.63900 32.88900
C  34.56300 2.87700 33.64700
C  34.95900 2.96300 35.12500
C  36.49200 2.88500 35.16100
C  36.79500 2.49300 33.65300
C  37.25200 4.21200 35.48500
C  34.20800 1.81000 36.02000
C  33.75300 2.17000 37.45500
H  34.57600 3.18000 38.20400
N  37.93500 1.89100 30.84400
C  38.64800 1.89900 32.01600
C  39.98800 1.33800 31.79000
C  40.02100 1.17200 30.38800
C  38.74600 1.66200 29.83200
C  41.01600 1.05400 32.89700
C  41.14300 0.61800 29.51100
O  40.90500 0.39200 28.36900
C  42.54600 0.35500 30.09100
N  35.91900 1.92300 28.58500
C  37.01000 1.81500 27.88300
C  36.69600 1.48100 26.45500
C  35.13300 1.49400 26.38000
C  34.77100 1.87600 27.79400
C  37.34700 2.20600 25.29000
C  34.57500 0.05200 26.10700
C  34.50000 -0.29000 24.61500
N  33.95400 2.80800 30.53700
C  33.11400 2.73800 29.44800
C  31.78900 3.02500 29.87200
C  31.88400 3.23400 31.26800
C  33.19000 3.02000 31.59100
C  30.57600 2.96300 28.97900
C  31.08800 3.50300 32.46800
O  29.92200 3.75200 32.63800
C  32.08300 3.37900 33.65100
C  32.10800 4.72000 34.32500
O  32.54000 5.76600 33.81400
O  31.52200 4.62400 35.55800
C  31.43300 5.81300 36.44600
H  38.82100 2.16400 34.07900
H  39.00800 1.42600 27.66500
H  32.93700 2.31300 27.27000
H  34.59800 3.93500 35.46300
H  36.97000 2.12900 35.78300
H  37.76100 4.66600 34.63500
H  37.99600 4.06700 36.26800
H  36.59100 5.02700 35.77900
H  34.86900 0.94400 36.04600
H  33.38900 1.46800 35.38700
H  33.78300 1.18000 37.91000
H  32.72900 2.53900 37.38900
H  41.98800 1.43900 32.58900
H  41.00300 -0.02400 33.05400
H  40.73800 1.37000 33.90300
H  43.16800 -0.06300 29.29900
H  42.39800 -0.29400 30.95400
H  43.04400 1.26600 30.42400
H  37.01500 0.45600 26.26600
H  34.77500 2.29200 25.73100
H  36.63200 2.08800 24.47600
H  38.18100 1.59800 24.94000
H  37.60200 3.26400 25.35200
H  33.61200 -0.04700 26.60900
H  35.28500 -0.64800 26.54700
H  33.66600 -0.95400 24.38600
H  35.42000 -0.71600 24.21500
H  34.35500 0.62700 24.04300
H  29.69500 2.95500 29.62100
H  30.67100 2.03300 28.41800
H  30.50800 3.79800 28.28300
H  31.75400 2.60400 34.34200
H  31.47300 5.63400 37.52100
H  30.49600 6.33300 36.24500
H  32.24100 6.51900 36.25400
Mg -2.20800 35.30100 26.79800
C  -4.08600 33.39400 29.08900
C  -1.25300 37.30300 29.43300
C  -0.85500 37.24400 24.68100
C  -3.53200 33.29300 24.19000
N  -2.73300 35.35800 29.01500
C  -3.36800 34.44200 29.75700
C  -3.08500 34.57300 31.29100
C  -2.47000 36.00300 31.39300
C  -2.08700 36.21900 29.84300
C  -3.35500 37.10500 32.01000
C  -2.35000 33.28900 31.90600
C  -2.81900 32.71800 33.22200
H  -3.22100 33.72000 34.38300
N  -1.18500 36.98100 27.06400
C  -0.80100 37.66900 28.20100
C  0.01100 38.78000 27.94800
C  0.11900 38.80000 26.51700
C  -0.63100 37.64200 26.02400
C  0.72400 39.63200 28.95700
C  0.96700 39.72100 25.69400
O  1.03700 39.55700 24.47900
C  1.66100 40.96900 26.27700
N  -2.22200 35.30100 24.72400
C  -1.55400 36.21300 24.06500
C  -1.43600 35.97800 22.58600
C  -2.05700 34.53000 22.43900
C  -2.66000 34.33800 23.85500
C  -2.04700 37.04600 21.63200
C  -1.13100 33.38000 22.04200
C  -1.10800 33.30700 20.49500
N  -3.53400 33.57200 26.60300
C  -4.01900 32.95500 25.43900
C  -4.74500 31.81300 25.87400
C  -4.81400 31.88100 27.28000
C  -4.10700 33.05300 27.69900
C  -5.30500 30.80400 24.89600
C  -5.39200 31.26600 28.47500
O  -5.99300 30.22900 28.63500
C  -4.95500 32.22900 29.70400
C  -6.15700 32.68500 30.47700
O  -7.15400 33.22100 29.95700
O  -5.88500 32.45800 31.81000
C  -6.90200 32.68700 32.86000
H  -0.90800 37.97300 30.22400
H  -0.27800 37.79000 23.93200
H  -3.73400 32.52400 23.44200
H  -3.98400 34.50700 31.90400
H  -1.53800 35.93600 31.95400
H  -4.37900 36.80300 32.23100
H  -3.34900 37.94800 31.31800
H  -2.84200 37.29900 32.95200
H  -1.31700 33.58800 32.08200
H  -2.19800 32.49400 31.17600
H  -1.97900 32.10000 33.53900
H  -3.60800 31.97400 33.10800
H  1.80500 39.61600 28.81500
H  0.51800 39.36300 29.99300
H  0.37400 40.65900 28.85900
H  0.97100 41.51100 26.92300
H  2.15300 41.43700 25.42500
H  2.52400 40.58600 26.82200
H  -0.37900 36.00800 22.32100
H  -2.80700 34.58200 21.65000
H  -2.67800 37.76300 22.15800
H  -2.63900 36.52900 20.87700
H  -1.25800 37.68600 21.23500
H  -1.46200 32.43000 22.46000
H  -0.20300 33.67700 22.53100
H  -1.74800 32.44400 20.30600
H  -0.16600 32.93700 20.09200
H  -1.47300 34.13200 19.88400
H  -6.11000 31.25700 24.31700
H  -5.72100 29.96400 25.45200
H  -4.59000 30.28100 24.26200
H  -4.35200 31.57000 30.32900
H  -6.78600 33.66800 33.32300
H  -6.79400 31.95500 33.66000
H  -7.91900 32.66600 32.46600

