158

Mg 9.03200 3.96800 27.15800
C  10.04900 2.26200 30.07000
C  7.09900 6.05500 28.97500
C  7.95700 5.15000 24.26000
C  10.52900 1.24400 25.31300
N  8.64300 4.04700 29.37300
C  9.22100 3.31700 30.37600
C  8.87000 3.98500 31.79000
C  7.75200 5.02900 31.38700
C  7.83900 5.09600 29.82500
C  6.31600 4.81600 31.80700
C  10.07600 4.63800 32.56400
C  10.37900 4.10600 34.02200
H  10.86700 5.15900 35.12300
N  7.64700 5.42300 26.64800
C  6.98200 6.24000 27.55900
C  6.25800 7.28400 26.82400
C  6.53500 7.04500 25.40200
C  7.40900 5.87300 25.36000
C  5.37800 8.33400 27.49500
C  6.12700 7.87100 24.22100
O  6.53500 7.70900 23.11500
C  5.10100 8.96300 24.42000
N  9.37400 3.36100 25.05400
C  8.69500 3.97900 24.08000
C  9.13900 3.45300 22.75200
C  9.68100 2.04900 23.05700
C  9.89500 2.20600 24.57600
C  8.06800 3.32300 21.64600
C  10.96600 1.72100 22.31200
C  11.09000 0.28600 21.83100
N  10.13800 2.14400 27.51900
C  10.73500 1.21900 26.72400
C  11.48300 0.22000 27.51300
C  11.24400 0.63600 28.83600
C  10.44600 1.81700 28.79000
C  12.32800 -0.94900 27.00200
C  11.60100 0.38300 30.23000
O  12.39800 -0.40900 30.71500
C  10.87500 1.38800 31.02200
C  9.95800 0.63200 31.91200
O  8.89300 0.07200 31.57300
O  10.47000 0.74500 33.15100
C  9.74800 0.46400 34.40200
H  6.49800 6.76400 29.54700
H  7.67700 5.58900 23.30000
H  11.09600 0.49500 24.75600
H  8.34100 3.22100 32.36000
H  7.98800 5.97000 31.88400
H  5.73100 4.39400 30.99000
H  5.94000 5.80200 32.08100
H  6.36300 4.22600 32.72300
H  9.94000 5.71000 32.70700
H  10.98100 4.40300 32.00400
H  11.32300 3.56500 33.95500
H  9.56100 3.55600 34.48900
H  5.13600 7.98700 28.50000
H  4.43100 8.35100 26.95500
H  5.70100 9.37500 27.51900
H  4.29500 8.42700 24.92000
H  4.81500 9.30300 23.42500
H  5.56800 9.80400 24.93400
H  9.88400 4.18700 22.44600
H  8.98100 1.21700 22.98000
H  7.18600 3.25100 22.28300
H  8.08400 2.35600 21.14500
H  7.89100 4.21200 21.04000
H  11.85800 1.90000 22.91200
H  11.03200 2.35000 21.42400
H  11.88800 -0.32000 22.26100
H  11.21700 0.34800 20.75000
H  10.22100 -0.33700 22.04600
H  12.71500 -0.81000 25.99300
H  11.73200 -1.86200 27.00500
H  13.19500 -1.15000 27.63000
H  11.55000 2.04600 31.57000
H  10.23400 -0.08300 35.21000
H  8.84000 -0.09300 34.17300
H  9.33800 1.31600 34.94500
Mg 9.98700 47.19400 27.21500
C  7.61400 47.38100 29.93700
C  12.38900 48.10100 29.35500
C  11.90700 47.40400 24.63500
C  7.12900 46.53200 25.17800
N  9.92300 47.70900 29.40900
C  8.90000 47.78500 30.36400
C  9.46500 48.09100 31.71400
C  10.87300 48.72300 31.27000
C  11.14200 48.01700 30.01300
C  11.00600 50.18600 31.19400
C  9.52400 46.90300 32.74000
C  9.12100 47.23000 34.17900
H  9.33300 46.23100 35.25600
N  11.92300 47.61800 27.06800
C  12.75800 47.88900 28.04700
C  14.08100 47.98900 27.46200
C  13.94100 47.77000 26.03700
C  12.51500 47.60400 25.84100
C  15.20100 48.27700 28.41700
C  15.01000 47.74000 24.96300
O  14.74700 47.65800 23.75800
C  16.49800 47.74100 25.37500
N  9.50800 47.37000 25.12700
C  10.55600 47.27700 24.25200
C  10.10100 46.85300 22.86400
C  8.62400 46.45900 23.07600
C  8.38200 46.86600 24.53600
C  10.17700 47.97000 21.78200
C  8.39800 44.94100 22.76500
C  9.13200 43.91000 23.66300
N  7.78400 47.01000 27.39500
C  6.82900 46.64300 26.51400
C  5.57700 46.50300 27.13500
C  5.84100 46.78800 28.48600
C  7.15800 47.20000 28.58700
C  4.22400 46.19800 26.47700
C  5.18700 46.96700 29.75000
O  4.02100 46.81800 30.06500
C  6.36700 47.19900 30.79300
C  6.53800 45.94600 31.52000
O  7.02000 44.95400 31.06800
O  6.01100 46.07800 32.77000
C  6.04900 44.81900 33.56200
H  13.16600 48.46800 30.02800
H  12.51500 47.08800 23.78600
H  6.32200 46.19000 24.52700
H  9.00500 48.90800 32.27000
H  11.69700 48.40600 31.90900
H  10.10100 50.70000 31.51800
H  11.12000 50.38300 30.12800
H  11.89100 50.54700 31.71800
H  10.58700 46.67900 32.81900
H  9.05100 46.01600 32.31800
H  8.04100 47.37300 34.13900
H  9.52200 48.21900 34.39900
H  14.98400 49.19500 28.96400
H  16.12700 48.41300 27.85800
H  15.30300 47.48700 29.16000
H  16.57600 46.87400 26.03100
H  16.81500 48.69500 25.79600
H  17.14600 47.60700 24.50900
H  10.66000 45.93600 22.67600
H  7.91300 47.11700 22.57700
H  10.76200 47.80100 20.87700
H  10.60200 48.87300 22.22000
H  9.16700 48.27100 21.50400
H  8.73800 44.71700 21.75400
H  7.34300 44.69200 22.88300
H  8.62100 42.96500 23.84500
H  9.12100 44.41900 24.62700
H  10.11600 43.72500 23.23100
H  4.08600 46.38400 25.41200
H  3.53100 46.86200 26.99400
H  3.87200 45.16600 26.47000
H  6.19000 48.06600 31.42900
H  5.83000 45.01600 34.61200
H  7.05700 44.40700 33.53200
H  5.18600 44.17800 33.37900

