158

Mg 25.67200 1.31200 29.02800
C  27.52100 1.06700 32.04900
C  22.77900 1.35300 30.88800
C  24.03500 1.57700 26.12900
C  28.68400 0.71400 27.28000
N  25.26500 1.29600 31.16100
C  26.13800 1.24700 32.20400
C  25.46400 1.44800 33.60300
C  24.00500 1.22700 33.15800
C  23.96000 1.25600 31.64000
C  23.59800 -0.29500 33.53400
C  25.82700 2.84500 34.16600
C  26.44100 2.97300 35.62500
H  26.07700 4.09800 36.56200
N  23.63200 1.56800 28.57800
C  22.53900 1.57400 29.48100
C  21.34700 1.65700 28.77300
C  21.73600 1.74500 27.40300
C  23.20800 1.67700 27.30500
C  19.98600 1.47500 29.38800
C  20.81100 1.73900 26.12400
O  21.16000 1.54300 24.95400
C  19.27500 1.79400 26.36900
N  26.32100 1.19100 26.96200
C  25.42300 1.31500 25.92800
C  26.07700 1.05400 24.55200
C  27.63600 1.07800 24.98100
C  27.58000 0.87900 26.51100
C  25.53900 -0.25400 23.84100
C  28.42100 2.33500 24.51700
C  28.15600 3.68000 25.25700
N  27.66600 0.98700 29.50400
C  28.70900 0.64700 28.67700
C  29.83900 0.47000 29.53200
C  29.47900 0.72100 30.82900
C  28.09800 0.94000 30.75600
C  31.20500 0.08000 29.09400
C  29.98700 0.90300 32.20800
O  31.14200 0.92300 32.70100
C  28.69000 1.09500 33.02200
C  28.63000 0.05800 34.07700
O  28.17400 -1.06600 33.97300
O  29.21900 0.57500 35.20700
C  29.08500 -0.17200 36.48400
H  21.83400 1.28000 31.43000
H  23.43000 1.70400 25.22800
H  29.72800 0.69000 26.96200
H  25.95900 0.77500 34.30300
H  23.25400 1.86400 33.62400
H  23.21900 -0.38900 34.55200
H  24.31500 -1.03400 33.17700
H  22.68300 -0.48800 32.97200
H  24.85900 3.33800 34.26100
H  26.40900 3.34700 33.39300
H  27.51400 3.14700 35.53900
H  26.39400 2.05400 36.20900
H  19.33500 2.25600 28.99400
H  19.87200 1.52800 30.47000
H  19.59800 0.50600 29.07200
H  18.90600 0.82400 26.70100
H  18.78400 2.00000 25.41800
H  18.92500 2.63900 26.96200
H  25.74800 1.84100 23.87300
H  28.15500 0.22300 24.54700
H  24.45400 -0.18100 23.90200
H  25.92200 -1.14400 24.34000
H  25.91700 -0.23800 22.81800
H  27.99300 2.41200 23.51700
H  29.48800 2.18600 24.35500
H  29.15000 4.10400 25.40100
H  27.62900 3.50300 26.19400
H  27.40000 4.30100 24.77600
H  31.82400 0.19000 29.98500
H  31.58400 0.72000 28.29700
H  31.20800 -0.98900 28.88000
H  28.66700 2.05200 33.54300
H  29.36400 -1.22400 36.41500
H  28.07800 -0.19400 36.90000
H  29.82800 0.27600 37.14300
Mg -5.85000 25.06800 26.68300
C  -4.50600 26.82000 29.38300
C  -7.45000 23.04000 28.89100
C  -6.82600 23.18500 24.06700
C  -3.49000 26.65500 24.61300
N  -5.91900 24.89600 28.90000
C  -5.30800 25.76100 29.78500
C  -5.93900 25.48300 31.16000
C  -6.59800 24.03100 31.03400
C  -6.61700 23.94200 29.48000
C  -5.81500 22.88900 31.60100
C  -6.95700 26.62900 31.47200
C  -7.31500 26.79600 32.94900
H  -6.67400 25.80000 33.88800
N  -7.15700 23.49300 26.50600
C  -7.78900 22.82800 27.51900
C  -8.76900 21.88700 26.96300
C  -8.55800 21.84800 25.59700
C  -7.51800 22.87900 25.31100
C  -9.76900 21.12300 27.75200
C  -9.33900 21.12400 24.44200
O  -8.90000 21.18000 23.27800
C  -10.51500 20.15400 24.75100
N  -5.20800 24.97900 24.68300
C  -5.84300 24.15500 23.78100
C  -5.21200 24.30000 22.36500
C  -4.12400 25.39600 22.53800
C  -4.28800 25.70400 24.02600
C  -4.65700 22.96600 21.74100
C  -4.34500 26.62100 21.48900
C  -5.53600 27.55100 21.70900
N  -4.28100 26.38300 26.93500
C  -3.47600 27.08600 25.97600
C  -2.68100 28.07800 26.56800
C  -3.16900 28.13000 27.92900
C  -4.06800 27.08900 28.08600
C  -1.68000 29.01500 25.87400
C  -2.98400 28.75400 29.19600
O  -2.21500 29.64900 29.50600
C  -3.97200 27.98000 30.17300
C  -3.18200 27.58000 31.37400
O  -2.05500 27.11000 31.39500
O  -3.85900 27.93400 32.53900
C  -3.15300 27.89800 33.78800
H  -7.88000 22.35900 29.62800
H  -7.07300 22.65200 23.14600
H  -2.75400 27.11200 23.94800
H  -5.21800 25.54600 31.97500
H  -7.53500 24.13600 31.58000
H  -6.32400 22.47900 32.47300
H  -4.84100 23.28300 31.89200
H  -5.55200 22.10100 30.89600
H  -7.79400 26.36600 30.82500
H  -6.57000 27.59600 31.15300
H  -8.38900 26.70000 33.10900
H  -7.02800 27.79300 33.28500
H  -9.73100 20.09300 27.39900
H  -10.78700 21.51200 27.74100
H  -9.53000 21.12800 28.81500
H  -9.91700 19.37800 25.22900
H  -11.05800 19.80800 23.87200
H  -11.18000 20.60900 25.48500
H  -6.04700 24.71300 21.79900
H  -3.12700 25.04600 22.27100
H  -4.36900 22.12000 22.36500
H  -3.75100 23.24000 21.19900
H  -5.29500 22.54700 20.96400
H  -4.35900 26.17900 20.49200
H  -3.53500 27.35000 21.52400
H  -6.40600 27.30900 21.10000
H  -5.19700 28.56300 21.48900
H  -5.87700 27.44600 22.73900
H  -1.83500 28.80500 24.81500
H  -0.69500 28.64900 26.16400
H  -1.71800 30.08400 26.08100
H  -4.76100 28.67000 30.47200
H  -3.78500 28.31500 34.57200
H  -2.26200 28.52400 33.75700
H  -2.92400 26.89500 34.14800

