158

Mg 8.42200 3.63500 26.77200
C  9.86000 2.08900 29.70600
C  6.29800 5.30800 28.85500
C  7.16400 5.01600 24.16900
C  10.31800 1.32500 24.80800
N  8.08900 3.61700 29.03600
C  8.90400 3.04300 29.97000
C  8.54500 3.68100 31.35800
C  7.48900 4.72800 31.02200
C  7.28300 4.54200 29.54000
C  6.18100 4.72600 31.90400
C  9.78900 4.32800 32.12200
C  9.56300 4.76100 33.62900
H  10.53700 4.19400 34.74900
N  6.87100 4.86400 26.50300
C  6.14000 5.46500 27.47000
C  5.20400 6.41300 26.87000
C  5.47200 6.38700 25.47900
C  6.49600 5.40400 25.30500
C  4.17400 7.21900 27.68100
C  4.80500 7.16600 24.30600
O  5.18300 7.19300 23.13800
C  3.59100 8.11700 24.58500
N  8.62900 3.14500 24.74300
C  8.10800 4.04300 23.84400
C  8.77000 3.89100 22.49500
C  9.78300 2.68700 22.73800
C  9.60100 2.34700 24.21500
C  7.81900 3.57300 21.33400
C  11.21300 2.96400 22.28400
C  12.15100 3.74800 23.24100
N  9.66400 1.85700 27.09900
C  10.32000 1.01300 26.24200
C  11.20100 0.12900 26.94400
C  11.02200 0.49900 28.32700
C  10.12300 1.61800 28.39300
C  12.13000 -0.81300 26.34300
C  11.54400 0.32700 29.67200
O  12.39500 -0.41600 30.16100
C  10.82000 1.35400 30.61000
C  10.15900 0.56500 31.72900
O  9.21200 -0.18100 31.61300
O  10.90600 0.77000 32.85200
C  10.44000 0.38400 34.21600
H  5.77900 5.93900 29.57800
H  6.85100 5.57200 23.28300
H  11.00500 0.88300 24.08300
H  8.05600 2.92600 31.97300
H  7.92700 5.72100 31.12400
H  6.08500 5.71800 32.34400
H  6.28700 3.92400 32.63500
H  5.26300 4.60500 31.32800
H  9.95900 5.21700 31.51300
H  10.68300 3.70500 32.10200
H  8.51000 4.53400 33.79600
H  9.63800 5.84400 33.72400
H  4.54100 8.23600 27.81400
H  4.10500 6.82900 28.69700
H  3.20400 7.19400 27.18400
H  2.65300 7.60600 24.80500
H  3.46100 8.76600 23.71900
H  3.85200 8.72400 25.45200
H  9.21200 4.86000 22.26000
H  9.38900 1.80700 22.23100
H  6.78600 3.41900 21.64700
H  8.09400 2.66300 20.80200
H  7.83700 4.35500 20.57500
H  11.12800 3.56900 21.38100
H  11.72500 2.04600 21.99500
H  12.41100 4.66900 22.71900
H  13.05100 3.14200 23.35200
H  11.66600 4.03100 24.17500
H  12.88100 -1.09500 27.08100
H  12.50600 -0.31900 25.44700
H  11.53900 -1.67800 26.04200
H  11.58500 1.97600 31.07500
H  10.26600 1.21900 34.89600
H  11.27100 -0.24900 34.52600
H  9.51400 -0.19100 34.20000
Mg 24.11500 -4.64000 45.66700
C  26.16300 -2.25000 44.41000
C  21.55200 -3.40500 43.58700
C  22.39100 -7.41300 46.36200
C  26.94800 -5.96400 47.44900
N  23.88100 -3.03600 44.14300
C  24.85900 -2.13700 43.87400
C  24.31200 -1.04600 42.87400
C  22.74100 -1.26100 43.06100
C  22.71500 -2.66500 43.52100
C  22.11900 -0.13000 43.97000
C  24.88500 -1.34500 41.45900
C  24.53000 -0.29500 40.41700
H  23.92400 -0.77800 39.14500
N  22.23600 -5.31900 45.03100
C  21.37600 -4.72400 44.16000
C  20.20700 -5.55500 43.85100
C  20.37400 -6.72600 44.68100
C  21.70200 -6.53100 45.43700
C  19.12800 -5.10000 42.93000
C  19.61500 -8.01500 44.54400
O  18.71100 -8.09200 43.74200
C  19.71400 -9.20800 45.47300
N  24.59500 -6.46400 46.78200
C  23.72500 -7.49800 46.87000
C  24.32500 -8.71100 47.57800
C  25.71900 -8.17600 47.98300
C  25.77200 -6.73600 47.39900
C  23.47100 -9.19500 48.74300
C  26.86600 -9.00800 47.44000
C  27.83900 -9.48100 48.43400
N  26.19400 -4.16900 45.99400
C  27.22900 -4.72200 46.75900
C  28.44300 -3.92400 46.63100
C  28.01700 -2.90400 45.80300
C  26.68100 -3.17000 45.29100
C  29.71400 -4.14700 47.42400
C  28.40900 -1.66500 45.19600
O  29.43800 -0.99800 45.30000
C  27.28700 -1.32500 44.16700
C  26.99800 0.08800 44.27100
O  26.49300 0.62500 45.28100
O  27.31200 0.68400 43.07000
C  27.51400 2.12200 43.13500
H  20.61200 -2.99700 43.21100
H  21.97700 -8.40300 46.56500
H  27.82500 -6.38800 47.94300
H  24.49000 -0.02700 43.21600
H  22.31600 -1.22800 42.05700
H  21.15600 0.11900 43.52200
H  22.70000 0.78900 43.89100
H  21.96800 -0.40300 45.01400
H  24.34500 -2.24500 41.16500
H  25.95000 -1.55100 41.56400
H  25.43900 0.25300 40.16700
H  23.80700 0.34100 40.92900
H  18.40700 -4.37800 43.31500
H  18.67600 -5.95500 42.42900
H  19.68000 -4.58100 42.14600
H  19.82600 -8.92500 46.52000
H  20.54600 -9.63500 44.91300
H  18.86600 -9.89000 45.40900
H  24.46100 -9.60600 46.97100
H  25.75500 -7.98800 49.05600
H  24.12600 -9.16700 49.61400
H  23.12900 -10.22900 48.71900
H  22.57700 -8.61200 48.96600
H  27.48000 -8.46000 46.72600
H  26.40000 -9.83600 46.90500
H  27.79000 -10.55900 48.59000
H  27.69300 -8.95000 49.37400
H  28.79400 -9.20400 47.98800
H  29.54300 -4.11000 48.50000
H  30.38300 -3.31900 47.18800
H  30.25700 -5.07200 47.23400
H  27.73600 -1.65300 43.22900
H  26.53400 2.57600 43.28600
H  27.96500 2.43500 42.19400
H  28.10100 2.41400 44.00600

