158

Mg 25.08200 -4.81400 46.07900
C  26.87100 -2.07500 44.52200
C  22.44300 -3.88600 44.03700
C  23.54500 -7.45000 47.09500
C  28.00900 -5.83100 47.57800
N  24.63500 -2.96100 44.65200
C  25.56100 -2.09700 44.02500
C  24.94500 -1.32500 42.88000
C  23.40600 -1.73500 42.99600
C  23.43100 -2.89600 43.96500
C  22.41400 -0.59800 43.32600
C  25.68300 -1.73400 41.52000
C  26.39300 -0.59700 40.75600
H  25.94800 -0.51400 39.30000
N  23.21400 -5.53200 45.67000
C  22.31500 -5.06300 44.82600
C  21.11600 -5.88700 44.90000
C  21.37700 -6.95000 45.76800
C  22.71500 -6.70300 46.25400
C  19.86600 -5.57200 44.17000
C  20.36800 -7.98500 46.24000
O  19.16300 -7.87400 45.91200
C  20.65700 -9.15700 47.14800
N  25.68300 -6.42300 47.26500
C  24.85800 -7.32900 47.64300
C  25.47000 -8.52800 48.41800
C  27.00900 -8.02900 48.46400
C  26.92400 -6.67100 47.71800
C  24.82400 -8.67200 49.88600
C  28.07900 -8.91800 47.77600
C  29.30700 -9.43100 48.74000
N  27.04300 -4.11000 46.12900
C  28.04900 -4.56700 46.85000
C  29.26100 -3.74300 46.69400
C  28.80700 -2.75600 45.77100
C  27.49700 -2.97200 45.45400
C  30.61600 -4.05000 47.27800
C  29.20000 -1.56700 44.99200
O  30.18000 -0.81200 45.15700
C  28.00800 -1.23500 44.05100
C  27.85000 0.29200 44.26200
O  27.27500 0.74500 45.24400
O  28.33300 0.97900 43.07600
C  28.16000 2.39800 43.11600
H  21.57100 -3.67100 43.41600
H  22.99200 -8.35300 47.36200
H  28.90500 -6.18500 48.09200
H  25.02200 -0.24600 43.00800
H  23.04700 -2.06500 42.02100
H  21.63400 -0.42100 42.58400
H  22.85800 0.38400 43.48700
H  21.89300 -0.88200 44.24000
H  24.94100 -2.27500 40.93200
H  26.34100 -2.56600 41.76800
H  27.44900 -0.86000 40.81300
H  26.10300 0.32000 41.26900
H  20.08600 -5.55700 43.10200
H  19.54400 -4.58200 44.49400
H  19.04800 -6.29100 44.19200
H  19.75000 -9.61500 47.54300
H  21.21200 -8.74200 47.98900
H  21.33800 -9.86900 46.68300
H  25.45800 -9.51000 47.94500
H  27.19200 -7.69100 49.48400
H  25.32300 -8.10300 50.67000
H  24.87900 -9.75400 50.00500
H  23.80900 -8.27700 49.89300
H  28.60000 -8.44000 46.94600
H  27.70600 -9.89400 47.46500
H  30.11200 -8.80700 48.35300
H  29.48700 -10.49300 48.57800
H  29.09300 -9.12100 49.76300
H  31.45200 -3.54200 46.79800
H  30.70400 -5.13600 47.27200
H  30.55400 -3.74300 48.32200
H  28.18100 -1.35800 42.98100
H  28.11300 2.97300 42.19100
H  28.96700 2.85800 43.68600
H  27.23200 2.62200 43.64100
Mg 17.48100 52.70300 26.47900
C  19.38000 51.42800 29.17200
C  14.86900 53.17100 28.63800
C  15.70300 53.71000 23.90400
C  20.07000 51.53600 24.31300
N  17.13600 52.39100 28.66300
C  18.14100 52.04000 29.54800
C  17.71200 52.21700 30.99200
C  16.18300 52.63400 30.92500
C  16.05100 52.72600 29.34000
C  15.15100 51.68400 31.64800
C  18.67200 53.15200 31.84800
C  18.86000 52.94100 33.33300
H  17.73000 52.15100 34.07200
N  15.53500 53.29900 26.29400
C  14.59300 53.45800 27.31500
C  13.36100 54.05200 26.85700
C  13.65400 54.27800 25.45300
C  15.04900 53.79200 25.18100
C  12.18200 54.40500 27.79700
C  12.77500 55.00200 24.37500
O  13.18800 55.30200 23.25000
C  11.52200 55.69600 24.89100
N  17.89100 52.73500 24.45300
C  16.93400 53.21700 23.60900
C  17.48000 53.20300 22.17900
C  18.88800 52.55400 22.26600
C  18.93700 52.19700 23.72800
C  16.54800 52.39600 21.17700
C  20.03200 53.50800 21.70400
C  20.17200 54.75700 22.60700
N  19.27800 51.63000 26.65100
C  20.17600 51.31500 25.71100
C  21.28200 50.69200 26.30300
C  20.97700 50.64200 27.66000
C  19.76800 51.28800 27.85600
C  22.38300 49.98500 25.67800
C  21.48800 50.23200 28.94800
O  22.47800 49.57800 29.28700
C  20.50300 50.74600 30.00200
C  19.87300 49.63300 30.81100
O  18.96600 48.93800 30.41800
O  20.44200 49.39500 32.03400
C  19.81200 48.55800 33.00600
H  14.04100 53.48900 29.27500
H  15.19100 54.00100 22.98500
H  20.85000 51.15300 23.65200
H  17.83600 51.21000 31.38800
H  16.03400 53.67200 31.21900
H  14.76400 51.05400 30.84700
H  14.34300 52.21400 32.15300
H  15.62800 51.05600 32.40100
H  18.17000 54.10600 31.68600
H  19.62600 53.25600 31.33100
H  18.96700 53.88700 33.86400
H  19.81600 52.44300 33.49200
H  11.22000 54.53000 27.29800
H  12.51200 55.28900 28.34200
H  12.07200 53.67600 28.59900
H  10.90000 54.88900 25.27800
H  11.14100 56.14400 23.97400
H  11.75400 56.50400 25.58400
H  17.46100 54.24900 21.87400
H  19.09200 51.59700 21.78700
H  16.74200 51.32900 21.28200
H  16.73500 52.87800 20.21700
H  15.50800 52.60900 21.42500
H  19.82200 53.86000 20.69400
H  21.03200 53.07500 21.72000
H  19.64800 55.68600 22.38500
H  21.23000 54.97900 22.47100
H  19.98300 54.43700 23.63200
H  22.93400 50.71000 25.07800
H  21.95000 49.32000 24.93100
H  23.04100 49.32700 26.24500
H  20.93400 51.54100 30.61000
H  19.93000 49.02500 33.98400
H  20.27200 47.57100 33.04400
H  18.73300 48.55100 32.84700

