158

Mg 43.17000 2.95100 47.81500
C  41.52600 5.71200 47.22900
C  40.31700 1.01300 47.42200
C  45.10300 0.19100 47.47700
C  46.14200 4.73400 47.84000
N  41.15300 3.32800 47.49000
C  40.64100 4.55300 47.19500
C  39.05700 4.46600 46.92500
C  38.78500 3.02100 47.54000
C  40.15100 2.40800 47.52000
C  37.98200 2.97800 48.86600
C  38.80000 4.58600 45.39300
C  38.35700 5.99000 44.85500
H  38.96500 6.41100 43.56300
N  42.75300 0.95700 47.38100
C  41.51200 0.36700 47.31500
C  41.62200 -1.07400 46.99500
C  43.03700 -1.34700 47.00700
C  43.68100 -0.05700 47.43400
C  40.44600 -1.94200 46.68200
C  43.56600 -2.69900 46.59600
O  42.74300 -3.56300 46.34900
C  45.00200 -2.95800 46.64600
N  45.32700 2.47300 47.83700
C  45.89600 1.28600 47.71100
C  47.41000 1.29600 47.78300
C  47.71500 2.80300 47.70800
C  46.33100 3.38900 47.72100
C  47.94600 0.58000 48.98800
C  48.45300 3.29300 46.38100
C  49.94500 3.02700 46.37000
N  43.73200 4.82200 47.69700
C  44.95300 5.41300 47.75400
C  44.84800 6.82300 47.69500
C  43.45100 7.01300 47.46900
C  42.84600 5.79300 47.52000
C  45.87900 7.87000 47.85800
C  42.36900 7.99100 47.28300
O  42.37200 9.23000 47.25400
C  41.02400 7.13800 47.05500
C  40.11600 7.54400 48.19700
O  40.00000 6.87900 49.27400
O  39.36400 8.61100 47.99300
C  38.23500 8.89500 48.90800
H  39.39300 0.45600 47.25400
H  45.54900 -0.80300 47.40700
H  47.03000 5.36000 47.94700
H  38.67400 5.28200 47.53700
H  38.26800 2.46600 46.75800
H  37.65000 3.98500 49.11800
H  38.67700 2.58000 49.60500
H  37.11800 2.35400 48.63900
H  38.02800 3.87800 45.09200
H  39.64000 4.34000 44.74300
H  38.37100 6.76700 45.61900
H  37.28900 5.96900 44.63900
H  39.47100 -1.47200 46.81600
H  40.47300 -2.85400 47.27900
H  40.61200 -2.25400 45.65100
H  45.53000 -2.30900 45.94700
H  45.04500 -4.01300 46.37500
H  45.28900 -2.98600 47.69700
H  47.88800 0.82800 46.92200
H  48.31400 3.28400 48.48100
H  47.18700 0.12500 49.62300
H  48.67000 1.10700 49.60900
H  48.51900 -0.23700 48.54800
H  48.28400 4.36900 46.38600
H  48.07900 2.88600 45.44200
H  50.53000 3.59400 45.64500
H  49.91800 1.96600 46.12000
H  50.35300 3.08800 47.37900
H  46.87000 7.46000 47.66000
H  45.78100 8.09700 48.92000
H  45.62100 8.71100 47.21400
H  40.64700 7.44500 46.07900
H  37.61100 8.01700 49.07700
H  37.70700 9.77300 48.53800
H  38.59700 9.13900 49.90700
Mg 46.09400 44.87000 42.56900
C  42.63200 44.03300 42.36000
C  46.92600 41.67100 41.78100
C  49.30200 45.74400 42.35000
C  45.10900 48.15800 42.65600
N  44.86300 43.09400 42.04000
C  43.49100 42.93700 42.02200
C  43.08600 41.47100 41.97000
C  44.49700 40.78100 41.76700
C  45.51900 41.93100 41.84300
C  44.75800 39.63500 42.80700
C  42.00000 41.12000 40.85900
C  42.04400 41.93000 39.52700
H  41.81800 41.19600 38.11200
N  47.86600 43.89500 42.23000
C  48.00800 42.52600 41.97300
C  49.40400 42.11800 41.90400
C  50.18300 43.34400 42.02800
C  49.13700 44.43300 42.17200
C  49.95500 40.69000 41.83000
C  51.71400 43.40300 41.96700
O  52.40500 42.39700 41.87700
C  52.39200 44.73700 42.07300
N  47.05000 46.73400 42.22700
C  48.40500 46.82600 42.41600
C  48.85000 48.30400 42.55900
C  47.39400 49.00600 42.56500
C  46.47900 47.87200 42.57800
C  49.83600 48.72900 43.73300
C  47.11900 49.97600 41.40000
C  46.97200 51.47300 41.82500
N  44.25700 45.95600 42.67800
C  44.00000 47.29100 42.70500
C  42.63700 47.60100 42.77400
C  42.00300 46.37700 42.64700
C  43.06800 45.39200 42.55500
C  41.96800 48.97600 43.17100
C  40.75500 45.65500 42.56700
O  39.59400 46.02000 42.51900
C  41.12800 44.10200 42.42100
C  40.68600 43.40800 43.64900
O  40.40300 42.24300 43.68200
O  40.71200 44.11900 44.84200
C  40.90000 43.38200 46.15700
H  47.19100 40.63300 41.57100
H  50.31900 46.13200 42.43900
H  44.81800 49.19000 42.85800
H  42.76400 41.33800 43.00300
H  44.61800 40.34400 40.77600
H  45.51300 39.92300 43.53900
H  45.06300 38.77800 42.20600
H  43.87300 39.36700 43.38400
H  41.00600 41.13600 41.30700
H  42.31200 40.08600 40.71100
H  43.01400 42.42300 39.46500
H  41.31500 42.73400 39.42500
H  50.70900 40.67600 41.04300
H  49.19200 39.94600 41.60200
H  50.47400 40.50200 42.77000
H  51.98300 45.34300 41.26400
H  53.47300 44.68500 41.94100
H  52.13000 45.13100 43.05500
H  49.34600 48.74200 41.69300
H  47.28900 49.48100 43.54000
H  49.29000 49.37900 44.41600
H  50.72600 49.17800 43.29200
H  50.20900 47.77600 44.10800
H  46.23000 49.62700 40.87500
H  47.95100 50.01000 40.69700
H  47.63500 52.06100 41.19100
H  47.38700 51.56800 42.82800
H  45.96900 51.88300 41.70200
H  41.30300 48.82400 44.02200
H  41.33700 49.31700 42.35100
H  42.68200 49.77200 43.38500
H  40.64900 43.67400 41.54000
H  40.67200 44.04100 46.99500
H  41.98200 43.25300 46.13300
H  40.27800 42.48700 46.17900

