158

Mg 40.66500 8.41300 28.84900
C  42.56100 9.45700 31.65500
C  38.63700 6.73200 31.20300
C  39.11700 7.01700 26.32000
C  43.09500 9.63900 26.70500
N  40.67900 8.04800 31.15500
C  41.43700 8.77200 32.04800
C  40.98400 8.64400 33.46700
C  39.84100 7.57800 33.31000
C  39.66100 7.43900 31.77900
C  40.21000 6.23600 33.92100
C  40.57000 9.91300 34.15200
C  39.63800 9.90900 35.38800
H  40.12600 10.87200 36.47700
N  39.01000 7.18000 28.77300
C  38.35800 6.55700 29.79700
C  37.41400 5.67300 29.27900
C  37.39400 5.84200 27.80700
C  38.55000 6.69200 27.58200
C  36.39500 4.88400 30.03800
C  36.40800 5.18400 26.83500
O  36.50000 5.31000 25.62600
C  35.11600 4.44800 27.35200
N  41.07800 8.31200 26.77200
C  40.26300 7.70800 25.87000
C  40.78700 7.81800 24.41500
C  42.10300 8.59700 24.62800
C  42.16300 8.85900 26.14400
C  40.83800 6.36500 23.78000
C  42.28200 9.85500 23.78900
C  41.24800 10.90000 23.78400
N  42.41000 9.42700 29.08300
C  43.32000 9.84400 28.12800
C  44.46500 10.41800 28.84100
C  44.14700 10.42300 30.18200
C  42.93300 9.76100 30.31300
C  45.59700 10.93400 28.19200
C  44.58700 10.75400 31.49800
O  45.57900 11.34000 31.82800
C  43.59500 10.24600 32.47900
C  44.19200 9.45100 33.55000
O  44.43900 8.26500 33.54100
O  44.51100 10.32300 34.55000
C  44.98000 9.75800 35.79100
H  38.02700 6.23000 31.95600
H  38.54000 6.59900 25.49300
H  43.87600 9.95100 26.00800
H  41.87400 8.29000 33.98600
H  38.92100 7.96100 33.75300
H  39.87200 5.33800 33.40300
H  39.72600 6.07200 34.88400
H  41.25000 6.15300 34.23800
H  39.97000 10.44900 33.41700
H  41.39200 10.54700 34.48500
H  39.68800 8.89300 35.77900
H  38.62100 10.21600 35.14800
H  36.66600 4.99400 31.08800
H  36.43900 3.82000 29.80500
H  35.41900 5.33100 29.84500
H  34.53900 5.09700 28.00900
H  35.43200 3.48900 27.76200
H  34.42100 4.28500 26.52800
H  40.01100 8.49300 24.05300
H  42.86900 7.82500 24.56100
H  40.11500 6.30000 22.96700
H  40.65200 5.51300 24.43300
H  41.77500 6.17900 23.25700
H  42.24500 9.58600 22.73400
H  43.18800 10.42700 23.98900
H  41.77700 11.84500 23.90800
H  40.78600 10.63400 24.73400
H  40.49900 10.94100 22.99300
H  46.07000 11.42300 29.04400
H  45.46100 11.59800 27.33800
H  46.26600 10.09400 28.00800
H  42.99100 11.02900 32.93800
H  44.26400 10.07700 36.54900
H  45.94800 10.15500 36.09800
H  44.96900 8.66900 35.76400
Mg 9.03200 48.64100 26.16100
C  7.06300 48.72500 29.11200
C  11.58300 49.65500 28.15800
C  10.93900 48.74300 23.42600
C  6.17300 48.32200 24.27000
N  9.21500 49.24300 28.38200
C  8.35100 49.13800 29.45600
C  8.98900 49.39500 30.82100
C  10.41500 49.93300 30.34800
C  10.35500 49.66700 28.83200
C  10.76900 51.41000 30.74500
C  9.12700 48.15800 31.75800
C  8.40100 48.30300 33.07800
H  8.45100 47.02500 34.01600
N  11.07400 48.98500 25.90200
C  12.00400 49.38700 26.80000
C  13.33400 49.39100 26.18200
C  13.10800 49.02700 24.81800
C  11.64100 48.92100 24.66600
C  14.61200 49.63700 26.98100
C  14.13900 48.68700 23.67400
O  13.89100 48.19700 22.55800
C  15.58200 48.96500 23.92100
N  8.60100 48.76700 24.16900
C  9.57300 48.60600 23.17500
C  8.99800 48.22200 21.74200
C  7.46600 48.14300 22.07800
C  7.41500 48.37000 23.57700
C  9.39600 49.09300 20.52900
C  6.78800 46.78500 21.74600
C  7.01900 46.31600 20.37200
N  7.00500 48.61500 26.49000
C  5.96200 48.43100 25.64900
C  4.73900 48.49700 26.38000
C  5.10100 48.47300 27.73100
C  6.54000 48.55800 27.75800
C  3.41600 48.47900 25.79000
C  4.64100 48.43400 29.07000
O  3.45200 48.45900 29.46300
C  5.92100 48.37600 30.05100
C  5.93100 46.96500 30.58100
O  6.21500 45.95400 29.91500
O  5.39000 46.90000 31.80700
C  5.50100 45.62300 32.54100
H  12.45200 49.89600 28.77500
H  11.50900 48.55900 22.51300
H  5.28200 48.43300 23.64800
H  8.45900 50.20200 31.32600
H  11.24400 49.32600 30.71100
H  11.73200 51.42900 31.25400
H  9.95500 51.81200 31.34800
H  10.76100 51.98700 29.82000
H  10.18900 47.99300 31.94100
H  8.68600 47.31200 31.23100
H  7.32300 48.45600 33.01900
H  8.78100 49.10900 33.70500
H  14.35500 49.48500 28.03000
H  14.99700 50.60800 26.67100
H  15.34700 48.86200 26.76600
H  15.67500 49.84600 24.55600
H  16.12500 49.11300 22.98700
H  15.88800 48.02300 24.37400
H  9.45200 47.25300 21.53400
H  6.82700 48.86800 21.57500
H  9.53700 48.31900 19.77400
H  10.33400 49.61200 20.73000
H  8.57200 49.79000 20.37700
H  5.72100 46.86900 21.95200
H  7.22900 46.03100 22.39600
H  6.22800 45.78800 19.83900
H  7.82200 45.58000 20.32700
H  7.24400 47.20400 19.78200
H  3.00000 47.52200 25.47800
H  3.28900 49.24900 25.02900
H  2.79500 48.73500 26.64800
H  5.71300 48.94200 30.96000
H  5.56400 45.90900 33.59100
H  6.35200 45.00000 32.26800
H  4.55800 45.08700 32.43100

