158

Mg 7.35800 53.56200 41.78900
C  6.38700 50.26000 41.19300
C  10.44700 52.85200 40.42500
C  7.98100 56.95100 41.57500
C  4.01100 54.37300 42.68800
N  8.22100 51.85900 40.66100
C  7.65500 50.62100 40.62000
C  8.51100 49.66600 39.89900
C  9.92400 50.29100 40.16300
C  9.51400 51.76500 40.38900
C  10.75100 49.75600 41.31000
C  8.09800 49.82500 38.31700
C  8.04800 48.57000 37.44300
H  7.09800 48.41100 36.18200
N  9.05100 54.80000 41.16200
C  10.13400 54.26800 40.61700
C  10.97600 55.34100 40.21500
C  10.37100 56.59400 40.62800
C  9.03500 56.16000 41.12700
C  12.39500 55.06100 39.60900
C  11.00300 57.97800 40.47100
O  12.14400 58.14500 40.00500
C  10.25300 59.23900 40.91600
N  6.15500 55.40800 42.18600
C  6.73800 56.62500 42.06900
C  5.70600 57.66600 42.51500
C  4.49400 56.82700 43.07900
C  4.87700 55.48200 42.58100
C  6.28300 58.80100 43.44800
C  3.18100 57.46100 42.61100
C  2.68300 58.74900 43.32400
N  5.61600 52.59600 41.99600
C  4.35900 52.98300 42.44200
C  3.59300 51.79300 42.65800
C  4.37300 50.72500 42.24200
C  5.56000 51.24100 41.80400
C  2.18000 51.75000 43.22300
C  4.43100 49.25800 42.14000
O  3.55800 48.45000 42.39500
C  5.76800 48.93700 41.46900
C  5.44600 48.05900 40.29100
O  4.65100 48.32700 39.39700
O  5.97900 46.79800 40.49100
C  5.50900 45.77800 39.64500
H  11.44500 52.47900 40.18300
H  8.01700 58.00000 41.27600
H  3.01200 54.65100 43.02800
H  8.37100 48.63900 40.23600
H  10.52000 50.20700 39.25400
H  11.03000 50.54200 42.01200
H  11.66200 49.22700 41.02900
H  10.31700 48.87300 41.77800
H  8.90700 50.38000 37.84300
H  7.12700 50.30400 38.18800
H  7.63200 47.80100 38.09400
H  9.07900 48.29700 37.21700
H  12.39700 55.21400 38.52900
H  12.74600 54.06500 39.87900
H  13.18700 55.70200 39.99600
H  9.90400 59.08600 41.93700
H  9.40200 59.30200 40.23700
H  10.85900 60.13100 40.75600
H  5.25900 58.07500 41.60900
H  4.52900 56.76800 44.16700
H  6.34100 59.82600 43.08200
H  7.23000 58.47700 43.88000
H  5.58300 58.81400 44.28300
H  2.41300 56.69800 42.74400
H  3.09900 57.65100 41.54100
H  2.29100 58.52800 44.31600
H  1.93000 59.25900 42.72200
H  3.46900 59.49600 43.43500
H  2.29900 51.34000 44.22600
H  1.56900 51.14900 42.54900
H  1.72200 52.73900 43.21600
H  6.39900 48.39200 42.17200
H  6.12400 44.88900 39.78000
H  5.72700 46.10100 38.62700
H  4.46900 45.45500 39.69200
Mg -5.84500 24.37000 25.51200
C  -4.35400 25.77000 28.47100
C  -7.64900 22.32700 27.58900
C  -6.76500 22.79700 22.80800
C  -3.72400 26.55300 23.60700
N  -6.10000 24.30500 27.76800
C  -5.42400 24.93400 28.70500
C  -5.84700 24.50800 30.17000
C  -6.76100 23.27900 29.90500
C  -6.87400 23.26800 28.31800
C  -6.30900 21.87800 30.41000
C  -6.49900 25.65500 30.93400
C  -6.10400 25.69700 32.40500
H  -5.57600 24.39600 33.02600
N  -7.05500 22.83700 25.21300
C  -7.78900 22.13900 26.18800
C  -8.71100 21.25200 25.50300
C  -8.27000 21.21100 24.14700
C  -7.32900 22.31500 24.02500
C  -9.78500 20.46800 26.29900
C  -8.90000 20.46200 23.00300
O  -8.53500 20.52200 21.83400
C  -10.00500 19.49700 23.26500
N  -5.39100 24.73700 23.54500
C  -5.89000 23.81300 22.62500
C  -5.21500 24.05900 21.26800
C  -4.36300 25.40200 21.37300
C  -4.49600 25.61300 22.94400
C  -4.50800 22.96600 20.45200
C  -4.91700 26.68600 20.58700
C  -4.03200 27.47000 19.56100
N  -4.44000 25.93900 25.89600
C  -3.60700 26.70600 25.01500
C  -2.63100 27.46000 25.73900
C  -2.85400 27.11600 27.09600
C  -4.00700 26.27400 27.14800
C  -1.60900 28.28300 25.20100
C  -2.24800 27.23000 28.39000
O  -1.20900 27.79200 28.71400
C  -3.32700 26.47800 29.40300
C  -2.48600 25.67200 30.38400
O  -1.84500 24.69100 30.03100
O  -2.58100 26.11100 31.67200
C  -1.61400 25.47400 32.57100
H  -8.21700 21.74800 28.32100
H  -6.97400 22.22100 21.90400
H  -3.09400 27.19600 22.98900
H  -4.97500 24.04400 30.63200
H  -7.79000 23.53600 30.15800
H  -5.47000 22.05100 31.08400
H  -6.00500 21.22800 29.59000
H  -7.10200 21.46300 31.03200
H  -7.58600 25.58200 30.92300
H  -6.18800 26.51400 30.34000
H  -6.90100 26.20800 32.94600
H  -5.22800 26.34500 32.40700
H  -9.33500 19.59800 26.77800
H  -10.60600 20.04400 25.72200
H  -10.17300 21.09600 27.10100
H  -9.68400 18.86900 24.09700
H  -10.27200 18.90600 22.38900
H  -10.79700 20.15100 23.63100
H  -6.08000 24.36700 20.68000
H  -3.31200 25.25900 21.12100
H  -4.30100 22.13000 21.12000
H  -3.51300 23.23400 20.09500
H  -5.13200 22.70100 19.59900
H  -5.34600 27.40100 21.28900
H  -5.79200 26.37600 20.01700
H  -4.31900 27.29500 18.52400
H  -2.99600 27.15700 19.69000
H  -4.04000 28.55500 19.66600
H  -0.82200 28.43200 25.94100
H  -1.99800 29.28700 25.02900
H  -1.23600 27.94400 24.23500
H  -3.94200 27.11800 30.03600
H  -1.60500 24.38500 32.51600
H  -1.91600 25.73600 33.58500
H  -0.60800 25.76600 32.26900

