158

Mg 46.67400 35.16100 28.73500
C  45.08800 33.07000 31.19500
C  46.90300 37.54500 31.17200
C  47.65200 37.31200 26.39500
C  45.87200 32.74500 26.41900
N  46.26000 35.20000 30.98300
C  45.58600 34.22000 31.76000
C  45.45900 34.66400 33.19000
C  45.69200 36.21400 33.06700
C  46.34800 36.30600 31.67100
C  44.42800 37.00400 33.23000
C  46.48200 34.03900 34.16600
C  45.86900 33.89100 35.63600
H  46.14100 35.01200 36.63500
N  47.55800 37.11900 28.78900
C  47.59600 37.88900 29.94000
C  48.18700 39.16700 29.54400
C  48.29500 39.14300 28.11800
C  47.86600 37.79700 27.68300
C  48.38000 40.31100 30.53500
C  48.76800 40.20400 27.18000
O  48.83000 40.03700 25.97700
C  49.29800 41.54900 27.72600
N  46.61700 35.15200 26.66600
C  47.16900 36.11200 25.89500
C  46.87200 35.87500 24.37400
C  46.36400 34.34600 24.42000
C  46.29800 34.05000 25.98600
C  45.92600 36.96700 23.78200
C  47.32900 33.37400 23.60800
C  46.78500 32.45900 22.51800
N  45.84300 33.19700 28.74600
C  45.60200 32.36700 27.70500
C  45.01500 31.11100 28.16800
C  44.76400 31.37300 29.52500
C  45.25400 32.65500 29.82000
C  44.64300 29.89500 27.41900
C  44.18600 30.74400 30.69800
O  43.79000 29.62500 30.91200
C  44.20300 31.91900 31.77000
C  44.70500 31.39200 33.02500
O  45.63100 30.62000 33.23400
O  43.77600 31.74100 34.00200
C  43.85200 31.03200 35.27900
H  46.71700 38.31400 31.92400
H  47.91500 38.05200 25.63700
H  45.68400 32.03100 25.61500
H  44.48500 34.49500 33.64900
H  46.30800 36.63400 33.86100
H  43.58500 36.42100 33.59900
H  44.06800 37.35400 32.26300
H  44.63300 37.87700 33.85000
H  47.32100 34.73400 34.20500
H  46.83800 33.08300 33.78300
H  46.25100 33.01100 36.15500
H  44.79400 33.72000 35.58100
H  48.15100 41.32800 30.21500
H  49.43400 40.35800 30.80900
H  47.77100 40.20800 31.43300
H  49.93000 42.10400 27.03200
H  49.83000 41.39000 28.66400
H  48.41600 42.18500 27.80800
H  47.82100 35.92700 23.84000
H  45.35500 34.34800 24.00700
H  45.60600 37.71800 24.50400
H  45.05000 36.50500 23.32500
H  46.48300 37.50700 23.01700
H  47.86000 32.81800 24.38100
H  47.99700 34.02500 23.04400
H  45.78300 32.10000 22.75300
H  47.55300 31.68500 22.49500
H  46.84300 33.11300 21.64700
H  43.66800 30.05300 26.95900
H  44.54300 29.09300 28.15000
H  45.40000 29.57300 26.70400
H  43.22800 32.38500 31.91000
H  42.83000 31.21800 35.60700
H  44.55300 31.43700 36.00900
H  43.98200 29.94900 35.29600
Mg -0.43000 43.35900 25.25800
C  1.69700 42.61300 27.88200
C  -2.99600 42.80400 27.39300
C  -2.52100 43.37800 22.62500
C  2.44500 43.20100 23.12000
N  -0.60200 42.60000 27.41000
C  0.40900 42.64500 28.32500
C  -0.14200 42.64200 29.75300
C  -1.65000 42.31000 29.49900
C  -1.78100 42.59000 28.00400
C  -2.28300 40.94400 29.90000
C  0.07400 44.08900 30.37900
C  0.05100 44.13800 31.94300
H  -0.20900 42.84300 32.76700
N  -2.49000 43.32000 25.04000
C  -3.37100 43.06400 26.06800
C  -4.72400 43.15300 25.53900
C  -4.59800 43.24400 24.14400
C  -3.16000 43.33400 23.84700
C  -5.94800 43.04000 26.44000
C  -5.66800 43.39500 23.04500
O  -5.46000 43.71700 21.90100
C  -7.19600 43.24300 23.49300
N  -0.07800 43.36800 23.20300
C  -1.07500 43.31500 22.28900
C  -0.55000 43.40300 20.82300
C  0.95100 43.75800 21.10800
C  1.16200 43.39600 22.54200
C  -0.77900 41.97800 20.14000
C  1.51100 45.22400 20.78100
C  1.20300 46.42300 21.64800
N  1.64100 43.13700 25.38000
C  2.64100 43.00000 24.50900
C  3.92200 42.73400 25.15000
C  3.61700 42.59800 26.49500
C  2.19500 42.78000 26.55100
C  5.24400 42.57500 24.40400
C  4.18600 42.21300 27.75300
O  5.36700 41.97900 28.03900
C  3.02100 42.49900 28.74400
C  3.14600 41.40300 29.75700
O  2.78200 40.19900 29.72500
O  3.65700 41.92800 30.91100
C  4.13800 41.02300 31.98900
H  -3.82800 42.69400 28.09200
H  -3.12600 43.44100 21.71800
H  3.34000 43.22600 22.49500
H  0.42100 41.94900 30.37800
H  -2.28400 43.03800 30.00500
H  -3.07400 40.75600 29.17400
H  -2.71300 41.08900 30.89100
H  -1.45700 40.23500 29.96000
H  -0.63100 44.80700 29.96000
H  1.01600 44.50200 30.02000
H  -0.63700 44.94700 32.19100
H  0.98200 44.49400 32.38400
H  -6.56000 43.93900 26.37900
H  -5.83100 42.87500 27.51100
H  -6.47400 42.23800 25.92100
H  -7.44500 42.33900 24.04800
H  -7.60500 43.30100 22.48400
H  -7.62800 44.08800 24.02900
H  -0.94300 44.10700 20.08900
H  1.47800 43.07100 20.44700
H  -1.39500 41.30800 20.73900
H  0.18500 41.48700 20.00500
H  -1.32800 42.16700 19.21800
H  1.12000 45.23300 19.76400
H  2.59200 45.09400 20.73500
H  1.07300 47.29900 21.01400
H  2.08500 46.61300 22.26000
H  0.28600 46.30600 22.22600
H  5.96200 42.26200 25.16100
H  5.60600 43.44300 23.85100
H  5.11100 41.72800 23.73100
H  3.19200 43.49600 29.15100
H  5.19900 40.94800 31.75000
H  3.67000 40.03900 32.00800
H  4.05000 41.49000 32.97000

