158

Mg -2.45900 17.45400 25.75400
C  -2.75500 15.24300 28.59900
C  -3.18900 19.99600 27.85200
C  -2.00600 19.45500 23.09400
C  -1.87400 14.65000 23.76900
N  -2.94700 17.56500 27.97300
C  -2.89500 16.60700 28.97500
C  -3.20800 17.16100 30.36600
C  -3.88000 18.55600 29.88400
C  -3.27200 18.76100 28.50400
C  -5.46000 18.50700 29.81900
C  -1.96700 17.38400 31.22200
C  -2.28400 18.07500 32.53200
H  -1.86000 17.26700 33.77100
N  -2.45500 19.43600 25.58100
C  -2.72300 20.35800 26.57900
C  -2.66600 21.71700 25.96900
C  -2.38400 21.52300 24.57000
C  -2.26300 20.07900 24.38300
C  -2.95700 23.00100 26.82100
C  -2.39300 22.60400 23.49900
O  -2.50300 22.38000 22.29000
C  -2.44700 24.07900 23.88600
N  -2.08800 17.01900 23.67400
C  -1.96200 18.07800 22.77100
C  -1.59000 17.52600 21.33700
C  -1.51100 15.98200 21.63300
C  -1.86100 15.80300 23.11800
C  -2.71900 17.89600 20.34000
C  0.00400 15.56000 21.28200
C  1.21200 16.07300 22.14900
N  -2.48700 15.34200 26.06700
C  -2.15700 14.32000 25.14300
C  -2.20800 13.11900 25.78000
C  -2.28900 13.41000 27.23200
C  -2.51700 14.76200 27.33600
C  -2.11200 11.78400 25.17100
C  -2.35300 12.84200 28.51100
O  -2.12200 11.70600 28.83300
C  -2.72800 13.99400 29.50700
C  -1.58900 13.99900 30.44100
O  -0.42400 14.38400 30.24900
O  -1.95400 13.31800 31.54100
C  -0.85200 12.63800 32.32800
H  -3.40500 20.83400 28.51800
H  -1.88400 20.11900 22.23500
H  -1.61500 13.74100 23.22200
H  -3.98500 16.57200 30.85400
H  -3.50300 19.46100 30.36100
H  -5.87400 19.25300 30.49700
H  -5.78600 17.48900 30.03600
H  -5.78500 18.66100 28.79000
H  -1.42000 18.04500 30.54900
H  -1.39700 16.46200 31.33000
H  -3.35400 18.27400 32.59700
H  -1.81700 19.05900 32.47000
H  -3.18700 22.84500 27.87500
H  -3.83100 23.52500 26.43300
H  -2.11100 23.66100 26.63000
H  -2.51000 24.60400 22.93200
H  -1.61300 24.40700 24.50600
H  -3.42800 24.25400 24.32700
H  -0.64400 18.03400 21.14900
H  -2.10800 15.27200 21.06100
H  -3.50900 18.36200 20.92900
H  -3.25800 17.08900 19.84300
H  -2.25700 18.47400 19.54100
H  0.16600 15.98800 20.29300
H  -0.01100 14.50300 21.01900
H  1.77000 16.82700 21.59500
H  1.79100 15.17900 22.38400
H  0.90200 16.64500 23.02300
H  -1.44200 11.65900 24.32100
H  -3.14100 11.43800 25.07000
H  -1.61300 11.13200 25.88800
H  -3.57900 13.58000 30.04900
H  -0.08700 13.33700 32.66700
H  -0.37200 11.94700 31.63500
H  -1.26700 12.02800 33.13000
Mg 47.59200 45.41500 43.37400
C  44.19400 44.61600 43.28300
C  48.26400 42.00000 43.19100
C  50.76300 46.15100 42.71300
C  46.72600 48.87200 43.19400
N  46.30900 43.56000 42.96900
C  44.95200 43.46900 42.96000
C  44.48800 42.06200 42.62600
C  45.83100 41.21000 42.82800
C  46.87300 42.31300 43.04200
C  45.81700 40.21400 44.05700
C  43.75500 41.82100 41.29200
C  44.33200 42.56000 40.01000
H  44.81100 41.51100 38.95400
N  49.24300 44.24400 42.94500
C  49.36800 42.89100 43.13700
C  50.71100 42.48700 42.91300
C  51.45000 43.64000 42.75800
C  50.47200 44.78500 42.77600
C  51.31900 41.04500 42.90500
C  52.96100 43.64400 42.66000
O  53.62100 42.61800 42.63600
C  53.71200 44.91500 42.61900
N  48.63500 47.36300 43.29400
C  50.00100 47.29800 42.94400
C  50.45200 48.75800 42.90800
C  49.11900 49.53900 42.66700
C  48.13400 48.60600 43.15800
C  51.23400 49.21100 44.17400
C  48.85100 49.95700 41.19200
C  48.02400 51.28600 41.04500
N  45.81800 46.57900 43.25800
C  45.63200 47.93600 43.27700
C  44.22900 48.18600 43.44600
C  43.61900 46.94700 43.52700
C  44.61000 45.96600 43.35500
C  43.54600 49.46100 43.45700
C  42.38400 46.23900 43.68200
O  41.23400 46.60100 43.84900
C  42.74500 44.72800 43.60600
C  42.40900 44.17600 44.96600
O  43.06600 44.28400 45.96100
O  41.18800 43.59900 44.91100
C  40.74800 43.05900 46.22100
H  48.63400 40.97600 43.10800
H  51.78100 46.39400 42.40200
H  46.40900 49.91700 43.21800
H  43.78400 41.90800 43.44300
H  46.04800 40.60600 41.94700
H  44.89100 40.31500 44.62400
H  46.63400 40.41700 44.74900
H  45.71800 39.14100 43.89000
H  42.71600 42.12900 41.40300
H  43.52900 40.77400 41.09000
H  45.26100 43.11600 40.13300
H  43.70600 43.29500 39.50300
H  51.72300 40.82500 41.91700
H  50.51800 40.39700 43.26200
H  52.07100 40.71000 43.61900
H  53.47700 45.33200 41.63900
H  54.79300 44.77900 42.64700
H  53.31500 45.57100 43.39300
H  51.02700 48.78100 41.98200
H  49.04700 50.47200 43.22600
H  52.26800 49.42500 43.90100
H  51.15600 48.36500 44.85600
H  50.88400 50.11500 44.67100
H  48.18600 49.18700 40.80000
H  49.67000 49.91100 40.47400
H  48.58800 52.01300 40.46000
H  47.76500 51.76000 41.99200
H  47.11700 51.15600 40.45600
H  42.49400 49.24500 43.26900
H  43.84600 50.05200 42.59200
H  43.66600 50.07400 44.35100
H  42.19300 44.18500 42.84000
H  40.55900 43.86900 46.92600
H  41.47600 42.30100 46.50900
H  39.89900 42.43300 45.94600

