158

Mg 35.54000 2.80800 29.90600
C  33.23200 3.81100 32.28100
C  37.92100 2.68500 32.40100
C  37.84200 2.16000 27.61600
C  33.08900 3.12300 27.50800
N  35.55800 3.29900 32.02400
C  34.54700 3.65100 32.82100
C  34.97300 3.75600 34.31900
C  36.48900 3.57500 34.24500
C  36.64900 3.13800 32.78500
C  37.16100 4.97800 34.49200
C  34.32500 2.49600 35.09500
C  34.19800 2.66700 36.62600
H  34.85300 3.89400 37.24700
N  37.67200 2.41700 29.96200
C  38.42000 2.25400 31.11600
C  39.75200 1.81400 30.78500
C  39.75000 1.71900 29.31400
C  38.40400 2.10400 28.92100
C  40.84900 1.51600 31.80100
C  40.89300 1.34700 28.38100
O  40.78500 1.51000 27.13100
C  42.11100 0.71000 28.87700
N  35.49300 2.90300 27.75900
C  36.56400 2.48100 27.01300
C  36.18700 2.50300 25.50900
C  34.60200 2.32300 25.61700
C  34.39300 2.85200 27.08100
C  36.65400 3.90600 24.88300
C  34.11600 0.79200 25.34600
C  33.67000 -0.12600 26.50500
N  33.54900 3.44500 29.81500
C  32.61200 3.43900 28.82000
C  31.34800 3.76800 29.35500
C  31.57600 3.98000 30.69100
C  32.88400 3.65700 30.90700
C  30.10300 3.92000 28.69400
C  30.92300 4.26200 31.96100
O  29.81600 4.58800 32.20000
C  31.96200 4.14800 33.09500
C  32.04900 5.50700 33.64200
O  32.24900 6.54900 32.97200
O  31.84700 5.51300 34.97200
C  32.06100 6.78400 35.64100
H  38.75900 2.71100 33.10000
H  38.52700 1.68100 26.91300
H  32.40800 3.10300 26.65500
H  34.64100 4.69800 34.75400
H  36.87900 2.88100 34.98900
H  36.57700 5.68100 35.08500
H  37.56400 5.42800 33.58500
H  37.99300 4.85700 35.18600
H  34.94700 1.63800 34.83700
H  33.30700 2.37400 34.72400
H  34.63400 1.79700 37.11700
H  33.12400 2.67900 36.80800
H  41.04800 0.45900 31.98100
H  40.52900 1.97800 32.73400
H  41.75400 2.04400 31.50100
H  42.76100 1.45400 29.33800
H  42.65600 0.35100 28.00300
H  41.93900 -0.15000 29.52400
H  36.74100 1.72400 24.98500
H  34.14500 3.03900 24.93300
H  37.34700 3.86500 24.04300
H  37.24200 4.35900 25.68000
H  35.76400 4.45600 24.57600
H  34.78600 0.29800 24.64200
H  33.20200 0.93600 24.77100
H  33.61700 0.47500 27.41200
H  34.41100 -0.92300 26.56000
H  32.60800 -0.35000 26.40000
H  29.36300 3.85500 29.49200
H  30.11000 3.11700 27.95700
H  29.98300 4.94400 28.33900
H  31.68600 3.33700 33.76900
H  32.86100 7.34800 35.16300
H  32.36500 6.52600 36.65600
H  31.11500 7.32600 35.63700
Mg 9.63800 48.23300 25.60000
C  7.68300 49.01700 28.30500
C  12.31000 49.08900 27.31000
C  11.41400 47.57500 22.85000
C  6.67800 47.86300 23.56100
N  9.89100 48.83500 27.68900
C  9.01200 49.09100 28.69700
C  9.66800 49.47300 30.03300
C  11.09000 49.84600 29.50400
C  11.11800 49.22100 28.07200
C  11.23000 51.47000 29.43200
C  9.77500 48.33700 31.10700
C  9.47500 48.76100 32.55400
H  8.84800 47.59400 33.37700
N  11.65200 48.01900 25.21300
C  12.59900 48.44100 26.07200
C  13.92100 48.26000 25.47500
C  13.70900 47.76400 24.14500
C  12.22000 47.80400 24.02500
C  15.15500 48.52900 26.22800
C  14.66300 47.36000 22.93200
O  14.20900 46.90700 21.87000
C  16.20600 47.39000 23.23500
N  9.11200 47.68300 23.47800
C  10.10800 47.49200 22.55000
C  9.51200 47.15900 21.15900
C  7.98300 47.07800 21.48900
C  7.89500 47.56500 22.95900
C  9.86200 48.19800 20.04800
C  7.24100 45.72900 21.30800
C  7.74100 44.51200 22.21300
N  7.61200 48.36700 25.83900
C  6.51600 48.19800 24.96700
C  5.28700 48.33000 25.73000
C  5.64400 48.75900 27.01800
C  7.08400 48.70500 27.04800
C  3.85500 48.13200 25.24100
C  5.15300 48.98700 28.33900
O  4.03600 49.00500 28.80800
C  6.47100 49.28200 29.25400
C  6.25700 48.38900 30.45000
O  6.43100 47.18600 30.46500
O  5.54700 49.03300 31.41300
C  4.96900 48.12300 32.45200
H  13.21100 49.43000 27.82400
H  11.95100 47.24200 21.96000
H  5.75500 47.97100 22.98900
H  9.13100 50.30200 30.49500
H  11.92400 49.44600 30.08200
H  10.30600 52.04900 29.42700
H  11.77300 51.75400 28.53000
H  11.82400 51.86500 30.25600
H  10.81100 48.00000 31.14400
H  9.37500 47.40500 30.70700
H  8.76300 49.58300 32.48200
H  10.43700 49.14800 32.89100
H  15.89400 47.77900 25.94700
H  15.01300 48.50500 27.30800
H  15.54600 49.52500 26.02100
H  16.48700 46.48600 23.77500
H  16.41800 48.39100 23.61200
H  16.70000 47.37300 22.26300
H  9.95600 46.21200 20.85300
H  7.42500 47.72500 20.81200
H  10.77500 48.71400 20.34600
H  9.07700 48.91900 19.81800
H  10.17300 47.65800 19.15400
H  7.43000 45.38900 20.28900
H  6.19200 45.97100 21.47900
H  6.90100 44.14300 22.80100
H  8.64200 44.80700 22.75100
H  8.03000 43.77900 21.46000
H  3.83400 47.92700 24.17100
H  3.23000 49.00000 25.45200
H  3.55100 47.26900 25.83300
H  6.51400 50.33200 29.54400
H  4.32200 48.71100 33.10400
H  5.72100 47.75800 33.15100
H  4.48700 47.28700 31.94600

