158

Mg -1.13800 17.28100 26.07400
C  -1.58200 15.02900 28.66600
C  -1.88800 19.84200 28.25000
C  -0.86500 19.32500 23.45800
C  -1.15400 14.58300 23.82400
N  -1.52500 17.40100 28.27100
C  -1.50900 16.37900 29.15100
C  -1.74400 16.93800 30.57900
C  -1.99000 18.42800 30.36100
C  -1.78400 18.59000 28.92000
C  -3.23300 19.22800 30.99900
C  -0.70100 16.38800 31.66900
C  -0.36600 17.27500 32.82000
H  -0.43100 16.61700 34.24700
N  -1.31600 19.34300 25.87500
C  -1.69500 20.16700 26.88000
C  -1.82900 21.51700 26.24400
C  -1.41000 21.43400 24.88700
C  -1.18300 19.98100 24.67300
C  -2.25800 22.82300 27.05600
C  -1.38600 22.50700 23.86300
O  -1.28600 22.30800 22.65500
C  -1.53800 23.90100 24.23900
N  -1.03800 16.97100 23.92600
C  -0.80800 18.01600 23.02600
C  -0.52100 17.48400 21.61400
C  -0.54300 15.93400 21.86400
C  -1.03400 15.83200 23.26400
C  -1.57500 17.97900 20.43600
C  0.91200 15.32800 21.62800
C  2.10000 15.69400 22.57700
N  -1.29900 15.19000 26.17000
C  -1.33400 14.24800 25.18800
C  -1.47100 12.94000 25.86000
C  -1.47700 13.19000 27.26800
C  -1.47700 14.61600 27.35800
C  -1.61800 11.65400 25.17900
C  -1.65900 12.51200 28.53200
O  -1.85200 11.38500 28.84500
C  -1.63800 13.70700 29.55200
C  -0.50100 13.49600 30.43300
O  0.64600 13.73000 30.18300
O  -1.02900 12.93400 31.59200
C  0.12000 12.79600 32.60900
H  -2.00700 20.62900 28.99700
H  -0.65400 19.92300 22.56900
H  -1.15200 13.69200 23.19300
H  -2.72000 16.53300 30.84500
H  -1.08200 18.97500 30.61500
H  -3.62900 18.60900 31.80400
H  -4.08200 19.51500 30.37900
H  -2.95300 20.19700 31.41200
H  0.14900 16.14200 31.03300
H  -1.20000 15.50300 32.06300
H  -1.04700 18.12000 32.91600
H  0.65500 17.65400 32.76700
H  -1.33900 23.25400 27.45200
H  -2.79800 22.50000 27.94700
H  -2.83200 23.55600 26.48900
H  -2.59300 24.01300 24.48900
H  -1.33900 24.64700 23.47000
H  -0.91300 24.11200 25.10700
H  0.46500 17.84200 21.31600
H  -1.23400 15.45000 21.17400
H  -2.21000 18.69500 20.95800
H  -2.33700 17.30800 20.03900
H  -1.06600 18.56600 19.67200
H  1.02100 15.48400 20.55500
H  0.73600 14.25200 21.63700
H  2.84000 16.15500 21.92200
H  2.54000 14.77700 22.97100
H  1.78200 16.48000 23.26100
H  -1.39500 11.83300 24.12700
H  -2.65500 11.32000 25.21200
H  -0.99100 10.88000 25.62100
H  -2.52400 13.77200 30.18400
H  0.61300 13.71600 32.92200
H  0.93900 12.11900 32.36400
H  -0.31700 12.30400 33.47800
Mg 0.59000 6.94200 25.93400
C  1.56400 9.16100 28.53300
C  0.74300 4.38200 28.29500
C  -0.25200 4.85300 23.54500
C  1.12600 9.53700 23.68700
N  1.04600 6.84400 28.21700
C  1.32900 7.85900 29.04500
C  1.35800 7.39600 30.50300
C  1.39600 5.86200 30.30900
C  1.06400 5.65900 28.86400
C  2.79300 5.42200 30.66200
C  0.07700 7.83400 31.32200
C  0.34700 8.08400 32.84800
H  1.62500 7.62000 33.56600
N  0.23000 4.98200 25.96600
C  0.40100 4.07700 26.98400
C  0.06600 2.73700 26.52500
C  -0.16700 2.81800 25.08100
C  -0.14200 4.27900 24.80000
C  0.05500 1.65900 27.51800
C  -0.47800 1.76700 24.13500
O  -0.78400 2.00800 22.95700
C  -0.26200 0.32100 24.50500
N  0.65200 7.09200 23.84000
C  0.14500 6.10900 23.07400
C  -0.19900 6.66600 21.67200
C  0.57300 8.01700 21.61200
C  0.71200 8.27900 23.17500
C  0.12900 5.77800 20.36600
C  -0.24300 9.25300 20.91300
C  0.51800 10.12600 19.84800
N  1.21200 9.00900 25.99100
C  1.37100 9.94700 24.97700
C  1.71100 11.27500 25.55400
C  1.84500 10.97400 26.89400
C  1.51000 9.64700 27.14700
C  2.02700 12.50100 24.84200
C  2.15800 11.52400 28.17400
O  2.59100 12.64000 28.38300
C  1.96500 10.44200 29.31400
C  3.23900 10.40800 30.18400
O  4.27300 9.79900 29.84000
O  3.15200 11.19900 31.30000
C  4.31800 11.28100 32.12800
H  0.78200 3.51100 28.95300
H  -0.54800 4.25800 22.67900
H  1.46900 10.25800 22.94200
H  2.15300 7.86900 31.08000
H  0.70900 5.40100 31.01900
H  3.53900 5.36000 29.87000
H  2.71800 4.43900 31.12700
H  3.18700 6.03400 31.47400
H  -0.78400 7.16600 31.29300
H  -0.16600 8.85100 31.01300
H  -0.42800 7.50700 33.35200
H  0.15000 9.13800 33.04300
H  -0.50600 0.79900 27.15000
H  -0.40200 2.04500 28.42900
H  1.02000 1.36700 27.93100
H  0.65300 0.34200 25.09800
H  -0.02500 -0.23600 23.59800
H  -1.18800 -0.01200 24.97100
H  -1.25500 6.93600 21.66700
H  1.57600 7.96800 21.18700
H  0.42400 6.46500 19.57300
H  -0.78700 5.31500 19.99700
H  0.96500 5.09100 20.49200
H  -0.51500 9.95700 21.69900
H  -1.17900 8.84500 20.53200
H  0.41500 11.09500 20.33700
H  0.06900 10.21700 18.85900
H  1.58500 9.93600 19.73900
H  2.90100 12.37700 24.20200
H  2.44300 13.08900 25.66100
H  1.15600 12.86200 24.29600
H  1.15600 10.77200 29.96600
H  5.28000 11.10800 31.64600
H  4.35300 10.52600 32.91300
H  4.40800 12.27400 32.56900

