158

Mg 41.25000 8.67300 30.18900
C  42.73100 9.59400 33.30900
C  38.92600 6.95300 31.99000
C  40.00300 7.49300 27.29700
C  44.06100 9.95000 28.49700
N  41.07100 8.27900 32.36500
C  41.62400 8.80600 33.47400
C  40.97200 8.36200 34.74200
C  39.90500 7.29600 34.28700
C  39.92300 7.51700 32.76000
C  40.32100 5.80200 34.63100
C  40.38500 9.48000 35.55500
C  40.85200 9.61500 36.99300
H  41.03600 11.02200 37.54500
N  39.67400 7.43900 29.72900
C  38.71000 6.91800 30.58400
C  37.60100 6.24900 29.84000
C  37.89100 6.51200 28.44300
C  39.25500 7.12100 28.45100
C  36.37000 5.73400 30.46700
C  37.11000 6.06200 27.17600
O  37.50300 6.17300 26.00900
C  35.71400 5.67400 27.34800
N  41.97700 8.53800 28.19800
C  41.26900 8.06000 27.12800
C  41.91400 8.41000 25.77700
C  43.23000 9.11400 26.23700
C  43.08700 9.20600 27.72100
C  42.22500 7.22900 24.87500
C  43.34700 10.52100 25.50900
C  42.53700 11.66800 26.02000
N  43.09300 9.54500 30.75700
C  44.05600 10.05200 29.92900
C  44.91900 10.84300 30.79300
C  44.50600 10.70400 32.10300
C  43.40800 9.86500 32.02300
C  46.03800 11.71600 30.30300
C  44.75500 10.98100 33.48600
O  45.61400 11.72200 33.96100
C  43.61500 10.27100 34.33200
C  44.31400 9.32400 35.16600
O  44.98300 8.37000 34.79500
O  44.25500 9.82300 36.49000
C  45.00500 9.04100 37.54300
H  38.21500 6.45000 32.64800
H  39.53500 7.36500 26.31900
H  44.78900 10.53700 27.93300
H  41.68200 7.86700 35.40400
H  38.85100 7.47000 34.50500
H  41.34700 5.72800 34.99200
H  40.18500 5.07300 33.83200
H  39.71200 5.48900 35.47900
H  39.31400 9.31800 35.68200
H  40.52100 10.45900 35.09600
H  41.77800 9.10700 37.26000
H  40.06500 9.17300 37.60500
H  36.38800 5.66300 31.55500
H  36.25500 4.75200 30.00800
H  35.41500 6.24800 30.35500
H  35.21200 5.73400 26.38200
H  35.12200 6.27200 28.04100
H  35.61300 4.64100 27.68000
H  41.33600 9.18500 25.27300
H  44.19100 8.63800 26.04300
H  41.75800 6.32000 25.25300
H  43.30600 7.10500 24.80800
H  41.78600 7.42800 23.89700
H  42.91800 10.40100 24.51400
H  44.37800 10.87500 25.49300
H  43.22600 12.48600 26.23100
H  41.95900 11.57300 26.93900
H  41.75200 11.99000 25.33600
H  46.85500 11.70300 31.02400
H  45.70300 12.74500 30.43900
H  46.46600 11.35800 29.36700
H  43.15100 11.10900 34.85200
H  45.17200 8.00800 37.23700
H  44.62900 8.94600 38.56200
H  45.98200 9.52300 37.58500
Mg 46.61100 25.30600 28.59500
C  47.53000 27.22500 31.37500
C  45.83700 22.77100 30.80700
C  45.80200 23.37700 26.06900
C  48.08700 27.53600 26.55300
N  46.65400 25.09100 30.88500
C  46.91100 26.02600 31.79000
C  46.57400 25.60100 33.26300
C  46.03000 24.15700 32.98500
C  46.16400 23.93900 31.44300
C  46.68500 23.04000 33.87100
C  45.58900 26.56600 34.13100
C  45.97100 26.96700 35.58600
H  44.97000 27.53200 36.61400
N  45.90000 23.40600 28.44200
C  45.75300 22.46500 29.39600
C  45.32900 21.20000 28.87000
C  45.17500 21.32100 27.48200
C  45.65700 22.74200 27.26500
C  45.13900 19.94000 29.79300
C  44.70100 20.35100 26.44200
O  44.60700 20.62200 25.27000
C  44.17900 18.93000 26.88900
N  46.95500 25.44500 26.61600
C  46.49800 24.52500 25.72000
C  46.93100 24.82300 24.27600
C  47.45000 26.31400 24.46300
C  47.42900 26.52700 25.95800
C  47.95100 23.81500 23.68200
C  46.60100 27.36900 23.62700
C  47.42100 27.80400 22.39100
N  47.64800 26.99100 28.82500
C  48.10500 27.84600 27.88000
C  48.74400 29.02100 28.50500
C  48.55400 28.75500 29.88400
C  47.88900 27.51100 30.03500
C  49.34800 30.20800 27.87000
C  48.88200 29.22300 31.21900
O  49.50900 30.16300 31.63700
C  48.18000 28.25500 32.20700
C  49.20000 27.74400 33.07200
O  50.00000 26.84600 32.83800
O  49.10100 28.42500 34.26200
C  49.99900 27.78900 35.30700
H  45.56800 21.94800 31.47300
H  45.59000 22.76000 25.19300
H  48.59400 28.34700 26.02600
H  47.54300 25.53700 33.75800
H  44.95400 24.12600 33.15800
H  46.12500 22.10500 33.88300
H  46.72500 23.49900 34.85900
H  47.66700 22.75000 33.49500
H  44.54000 26.27500 34.07800
H  45.57400 27.46500 33.51400
H  46.78200 27.69600 35.57000
H  46.41100 26.08400 36.04900
H  45.62200 20.01900 30.76700
H  45.65100 19.21300 29.16200
H  44.09000 19.64700 29.80500
H  43.32800 18.97900 27.56900
H  44.95900 18.32800 27.35300
H  43.94800 18.39100 25.97000
H  46.07500 24.82400 23.60000
H  48.47800 26.40000 24.11400
H  48.96100 24.20800 23.56300
H  47.61400 23.43400 22.71800
H  47.82800 22.97400 24.36500
H  46.24900 28.19600 24.24400
H  45.66700 26.85300 23.40100
H  47.93100 26.95500 21.93700
H  48.16200 28.54700 22.68600
H  46.88100 28.41200 21.66600
H  50.42800 30.06200 27.86300
H  48.91200 31.04900 28.40900
H  49.02800 30.28600 26.83100
H  47.54300 28.93200 32.77600
H  51.00100 28.00100 34.93400
H  49.80000 26.79500 35.70900
H  50.04200 28.35200 36.24000

