158

Mg 56.22200 22.32400 43.48100
C  53.98400 24.47200 42.15600
C  53.85500 19.74100 43.26300
C  58.50600 20.06800 44.32300
C  58.63100 24.83900 43.33800
N  54.14600 22.13900 42.71100
C  53.44600 23.18600 42.27400
C  52.01100 22.73800 42.02300
C  51.86200 21.50500 42.93100
C  53.34800 21.03700 43.01100
C  51.13700 21.68800 44.28900
C  51.72200 22.52900 40.51200
C  50.57600 23.28900 39.93700
H  49.95400 23.02800 38.58100
N  56.19000 20.21700 43.72600
C  55.17100 19.34800 43.53600
C  55.64400 18.01400 43.68200
C  56.95800 18.00500 44.17100
C  57.27400 19.47800 44.10400
C  54.64600 16.87600 43.52300
C  57.85900 16.80500 44.41200
O  57.52800 15.66500 44.06000
C  59.09000 16.93500 45.20500
N  58.32200 22.39300 43.53700
C  59.00800 21.29000 44.00900
C  60.47300 21.66300 44.39600
C  60.54200 23.20400 44.03600
C  59.07300 23.55100 43.55500
C  61.01900 21.39000 45.87500
C  61.72100 23.65100 43.04600
C  63.17900 23.73500 43.63000
N  56.33700 24.37700 42.92300
C  57.37500 25.27300 42.99300
C  56.87800 26.57800 42.67200
C  55.58300 26.34000 42.32000
C  55.28900 24.96200 42.48100
C  57.66300 27.87000 42.77000
C  54.31000 26.98600 41.98100
O  54.05400 28.15300 41.80500
C  53.31600 25.73100 41.63200
C  53.27400 25.69600 40.18300
O  53.90800 25.02100 39.38600
O  52.26600 26.54800 39.70600
C  51.96200 26.49700 38.28800
H  53.10900 18.95500 43.12800
H  59.13900 19.34900 44.84700
H  59.46100 25.54800 43.39000
H  51.23400 23.44800 42.30500
H  51.20500 20.77900 42.45200
H  50.65000 22.65800 44.39200
H  51.83100 21.74200 45.12800
H  50.61200 20.80000 44.64000
H  51.55200 21.52000 40.13500
H  52.64800 22.73500 39.97700
H  50.83700 24.33800 40.07700
H  49.63600 23.05900 40.44000
H  54.94600 15.97500 44.05900
H  54.66600 16.56000 42.48000
H  53.59000 17.04500 43.73100
H  59.90500 17.30300 44.58000
H  59.38100 15.91100 45.43900
H  58.90100 17.60900 46.04100
H  61.14700 21.12100 43.73300
H  60.72100 23.71500 44.98100
H  60.24600 20.91600 46.48000
H  61.32400 22.29500 46.39900
H  61.90500 20.76200 45.78300
H  61.45800 24.62500 42.63400
H  61.84400 22.99500 42.18500
H  63.63600 24.62300 43.19400
H  63.87200 22.98100 43.25300
H  63.14800 23.71600 44.71900
H  56.94000 28.68100 42.86000
H  58.46300 27.94300 42.03300
H  58.12200 27.81500 43.75700
H  52.26800 25.88900 41.88800
H  52.54900 27.26700 37.78800
H  50.89600 26.63500 38.10600
H  52.24700 25.54700 37.83700
Mg 6.21200 53.29500 41.23300
C  5.33500 49.85000 40.99000
C  9.04500 52.63400 39.91300
C  6.48300 56.65300 40.72500
C  2.79500 53.86900 41.76100
N  7.00300 51.38400 40.22800
C  6.54300 50.11500 40.40200
C  7.63300 49.20500 39.78900
C  8.94200 50.01800 39.99200
C  8.27900 51.45000 39.96800
C  9.84100 49.74000 41.21600
C  7.27300 48.85700 38.34900
C  7.74200 49.68600 37.12900
H  6.88700 49.76700 35.85800
N  7.60200 54.45000 40.48400
C  8.79200 53.96000 40.05400
C  9.72900 55.07700 39.82300
C  9.05200 56.25200 40.15300
C  7.66100 55.86500 40.49600
C  11.08600 54.91800 39.21800
C  9.66100 57.71300 40.15600
O  10.88800 57.75900 39.85400
C  8.95600 58.93100 40.54200
N  4.81500 55.00600 41.17700
C  5.21900 56.26600 41.04700
C  4.10100 57.27600 41.06500
C  2.88500 56.35400 41.42800
C  3.50300 54.97300 41.36900
C  4.32900 58.42600 42.14200
C  1.68700 56.62200 40.44700
C  1.56100 55.71200 39.27500
N  4.52700 52.12300 41.64200
C  3.19300 52.49200 41.83200
C  2.30200 51.35800 42.13900
C  3.16100 50.25400 41.88600
C  4.43800 50.81300 41.46700
C  0.87300 51.38800 42.63300
C  3.23400 48.81200 41.71600
O  2.38600 47.92400 41.94400
C  4.67000 48.50600 41.23000
C  4.63900 47.61200 39.97300
O  4.08500 47.87000 38.92100
O  5.34100 46.40400 40.25600
C  5.25800 45.47600 39.08900
H  10.08500 52.39600 39.68000
H  6.63600 57.72700 40.59900
H  1.75900 54.19000 41.89100
H  7.88000 48.37200 40.44700
H  9.56100 50.01000 39.09500
H  10.83900 49.68400 40.78000
H  9.59100 48.76100 41.62500
H  9.81300 50.54000 41.95500
H  6.20200 48.66200 38.29500
H  7.75800 47.89500 38.17900
H  8.72100 49.35000 36.78900
H  7.77000 50.74100 37.40300
H  11.23200 55.74300 38.52000
H  11.17700 53.96100 38.70400
H  11.81400 54.93500 40.02900
H  9.60800 59.79600 40.42200
H  8.63800 58.69800 41.55800
H  8.15300 59.02300 39.81100
H  3.88700 57.69100 40.08000
H  2.65200 56.40000 42.49200
H  3.59600 58.48400 42.94600
H  4.19400 59.33500 41.55500
H  5.38300 58.50200 42.40700
H  1.57300 57.67200 40.17800
H  0.83300 56.45500 41.10400
H  2.58300 55.43300 39.01900
H  1.19300 56.26900 38.41400
H  0.90100 54.88500 39.54000
H  0.34100 52.17200 42.09500
H  0.78400 51.36200 43.71900
H  0.40400 50.44100 42.36500
H  5.17500 47.95300 42.02200
H  5.63100 44.50000 39.40000
H  5.91100 45.69400 38.24400
H  4.23200 45.34900 38.74300

