158

Mg 35.82000 2.06900 29.69400
C  33.43700 3.13500 32.19200
C  38.10800 2.23400 32.27100
C  38.19600 1.75400 27.38900
C  33.25700 2.16600 27.30100
N  35.73000 2.40100 31.92100
C  34.60100 2.67700 32.75600
C  35.04000 2.79700 34.22400
C  36.57400 2.86700 34.13000
C  36.83600 2.42700 32.74200
C  37.29100 4.19600 34.52600
C  34.42500 1.61300 34.99700
C  34.29200 1.58200 36.52200
H  34.70700 2.86100 37.30700
N  37.91700 1.88700 29.82200
C  38.67600 2.01600 30.97200
C  40.03900 1.74200 30.69000
C  40.13000 1.70600 29.22700
C  38.71500 1.82900 28.71300
C  41.17400 1.58700 31.69300
C  41.39900 1.52900 28.34700
O  41.35000 1.45700 27.11300
C  42.78200 1.32400 29.04500
N  35.72900 1.89600 27.67100
C  36.85600 1.72800 26.94600
C  36.51800 1.45500 25.45600
C  34.99500 1.28700 25.52100
C  34.55000 1.73300 26.93200
C  37.00700 2.51300 24.32700
C  34.42700 -0.13500 25.19200
C  33.91500 -0.45100 23.79400
N  33.77200 2.59300 29.61500
C  32.85600 2.60400 28.60500
C  31.56500 3.16800 29.12400
C  31.75000 3.40000 30.44900
C  33.10100 2.97100 30.75300
C  30.38600 3.50100 28.31100
C  31.18200 3.82600 31.70800
O  30.00700 4.18700 31.91700
C  32.18400 3.75300 32.86400
C  32.44400 5.08500 33.42300
O  33.16500 5.92400 32.92200
O  31.73100 5.23000 34.64400
C  31.66100 6.49200 35.38600
H  38.91000 2.26400 33.01200
H  38.85000 1.47400 26.56100
H  32.45100 2.10800 26.56600
H  34.63000 3.75100 34.55700
H  36.91000 2.07600 34.80100
H  37.08900 5.01500 33.83600
H  38.34000 3.90900 34.58700
H  37.03200 4.65800 35.47900
H  34.79600 0.69600 34.54000
H  33.35200 1.52700 34.82700
H  34.87800 0.74200 36.89500
H  33.28900 1.24000 36.77700
H  41.75400 2.48500 31.48100
H  41.79600 0.70900 31.51800
H  40.70700 1.52800 32.67600
H  43.62800 1.37500 28.35900
H  42.83700 0.46900 29.71800
H  42.79800 2.20700 29.68400
H  36.92600 0.49800 25.13300
H  34.46200 2.00900 24.90200
H  37.68500 3.23700 24.77900
H  36.14800 3.04400 23.91800
H  37.67100 2.04700 23.59900
H  33.66400 -0.27900 25.95600
H  35.15100 -0.84200 25.59600
H  33.90500 0.49500 23.25400
H  32.91400 -0.87800 23.72500
H  34.57300 -1.09800 23.21400
H  30.68300 3.37400 27.27000
H  30.02100 4.50900 28.50800
H  29.51400 2.87700 28.50800
H  31.79900 3.05300 33.60500
H  30.68500 6.81200 35.75000
H  31.96200 7.30500 34.72600
H  32.26400 6.38400 36.28800
Mg 16.86300 52.38000 26.00600
C  18.58800 50.98200 28.78600
C  14.38100 53.54800 28.09400
C  15.32400 53.70700 23.32000
C  19.29900 51.02300 23.95100
N  16.52000 52.12000 28.20200
C  17.38800 51.59700 29.20600
C  16.63700 51.65200 30.54300
C  15.29700 52.55800 30.27700
C  15.36300 52.70100 28.74000
C  13.90600 51.85200 30.72600
C  17.51100 52.25700 31.70000
C  17.47700 51.51500 33.08500
H  16.84500 52.26000 34.25200
N  15.08200 53.48000 25.71300
C  14.25200 53.87500 26.69200
C  13.16300 54.70800 26.18400
C  13.34300 54.61000 24.75400
C  14.59700 53.89700 24.53200
C  12.01900 55.36500 26.94700
C  12.36000 55.06100 23.60500
O  12.62100 54.92000 22.44300
C  11.07200 55.83400 23.95100
N  17.20500 52.28400 23.92600
C  16.39100 52.87800 23.02400
C  16.99800 52.81000 21.60100
C  18.25700 51.90200 21.80200
C  18.26100 51.76700 23.30500
C  16.03900 52.43900 20.45400
C  19.50200 52.58300 21.29400
C  19.99000 52.30300 19.93400
N  18.66900 51.26800 26.27000
C  19.53300 50.76400 25.36100
C  20.63200 50.02200 26.05600
C  20.31200 50.11600 27.37400
C  19.10600 50.91200 27.49500
C  21.83100 49.40200 25.34800
C  20.70700 49.78900 28.74800
O  21.61400 49.07300 29.15500
C  19.53000 50.26700 29.66300
C  18.99100 49.02800 30.27100
O  18.73100 48.02400 29.58200
O  18.92000 49.05100 31.66000
C  18.51500 47.73200 32.26000
H  13.61400 53.97800 28.74200
H  14.86900 54.06000 22.39200
H  19.97100 50.52500 23.24900
H  16.25700 50.67300 30.83400
H  15.44700 53.53900 30.72900
H  13.39500 51.49600 29.83200
H  13.30300 52.67600 31.10900
H  14.06300 51.02000 31.41200
H  17.02400 53.20000 31.94900
H  18.50600 52.49900 31.32700
H  18.52900 51.29300 33.26800
H  16.93400 50.57200 33.02100
H  12.24600 55.28600 28.01000
H  11.07900 54.84700 26.75900
H  11.92700 56.38600 26.57600
H  10.34000 55.36000 24.60400
H  10.65100 56.03000 22.96500
H  11.30000 56.83100 24.32800
H  17.29800 53.83300 21.37500
H  18.10800 50.94000 21.31200
H  16.51000 51.80500 19.70200
H  15.75600 53.37000 19.96400
H  15.18000 51.93200 20.89400
H  20.33100 52.31800 21.95000
H  19.46400 53.67200 21.25100
H  20.64800 51.43400 19.92200
H  20.54400 53.17800 19.59600
H  19.19600 52.16200 19.20100
H  22.69500 49.72600 25.92800
H  21.89800 49.88000 24.37100
H  21.82200 48.31500 25.26600
H  19.85100 50.87200 30.51200
H  18.07600 47.86600 33.24900
H  19.35300 47.08700 32.52300
H  17.72800 47.19900 31.72700

