158

Mg 25.92300 -0.15400 29.37800
C  27.69900 -0.15400 32.29700
C  23.05600 0.17300 31.19900
C  24.29300 -0.55000 26.44900
C  28.86400 -0.63700 27.56100
N  25.45600 0.15100 31.48500
C  26.37400 0.06700 32.53500
C  25.67500 0.25800 33.90500
C  24.15600 0.24000 33.57200
C  24.19300 0.20100 31.99200
C  23.37100 -0.92800 34.27600
C  26.24400 1.58600 34.54400
C  26.94700 1.50500 35.97700
H  26.69300 2.50900 37.12800
N  23.95200 -0.19200 28.92700
C  22.89900 -0.04500 29.77900
C  21.67300 -0.04000 29.00200
C  22.02000 -0.12300 27.60800
C  23.52100 -0.29800 27.63900
C  20.26500 0.07800 29.62900
C  21.04700 -0.16300 26.43600
O  21.41000 -0.37400 25.29000
C  19.59000 0.08100 26.69100
N  26.45900 -0.51800 27.20200
C  25.59200 -0.59000 26.21300
C  26.22200 -0.67700 24.78100
C  27.73300 -0.74300 25.18200
C  27.70300 -0.65700 26.74600
C  25.69200 -1.85900 23.89600
C  28.72900 0.26000 24.52200
C  28.40300 1.71400 24.71900
N  27.83400 -0.51500 29.84100
C  28.99600 -0.66000 28.99600
C  30.22200 -0.66500 29.79300
C  29.74300 -0.47400 31.09700
C  28.30400 -0.39100 31.06900
C  31.67100 -0.85000 29.22000
C  30.15200 -0.35600 32.48000
O  31.29000 -0.31400 32.94400
C  28.88100 -0.07200 33.26100
C  28.82500 -1.18600 34.25000
O  28.33200 -2.30100 34.03000
O  29.38400 -0.79400 35.44100
C  29.44800 -1.80300 36.48700
H  22.12100 0.36800 31.72900
H  23.64100 -0.84700 25.62500
H  29.79900 -0.74200 27.00700
H  26.00600 -0.62000 34.45900
H  23.69900 1.17800 33.88700
H  22.98100 -1.70800 33.62200
H  22.47700 -0.48100 34.71100
H  23.94000 -1.44400 35.04900
H  25.44000 2.31100 34.67500
H  26.97300 2.02900 33.86600
H  27.96500 1.72500 35.65800
H  26.92700 0.44400 36.22600
H  19.74800 -0.83600 29.33800
H  19.79100 1.04000 29.43100
H  20.29200 -0.08900 30.70600
H  19.06700 0.34800 25.77200
H  19.47600 1.02400 27.22600
H  19.09500 -0.68100 27.29300
H  26.10400 0.22000 24.17300
H  28.06300 -1.75500 24.94500
H  26.54200 -2.49500 23.64700
H  25.19500 -1.59300 22.96300
H  24.98100 -2.37800 24.53800
H  28.64000 0.06000 23.45400
H  29.75900 0.07400 24.82600
H  27.34100 1.93500 24.61600
H  29.05600 2.23400 24.01800
H  28.78700 2.15500 25.63900
H  32.38000 -0.34400 29.87500
H  31.77400 -0.39500 28.23500
H  31.91600 -1.90500 29.10700
H  29.02700 0.88100 33.77200
H  28.96900 -1.43400 37.39300
H  30.50200 -1.93900 36.73200
H  29.00300 -2.76900 36.24900
Mg 47.04000 16.32700 28.94100
C  44.92400 15.57600 31.79500
C  49.16500 17.95300 30.94500
C  48.54600 17.17100 26.23500
C  44.20700 15.00300 27.00700
N  47.04400 16.68100 31.13000
C  46.15400 16.20300 32.13100
C  46.54600 16.67500 33.56400
C  47.82800 17.54300 33.19800
C  48.08100 17.38200 31.73600
C  47.72700 19.05900 33.51300
C  46.78200 15.41100 34.47800
C  46.50200 15.60400 36.01800
H  46.58800 16.99700 36.76800
N  48.73200 17.34000 28.65200
C  49.57100 17.90100 29.57200
C  50.75700 18.47600 28.96000
C  50.46000 18.34700 27.60200
C  49.15000 17.69000 27.43400
C  51.95600 19.09500 29.69000
C  51.37900 18.74700 26.41500
O  51.09800 18.48600 25.21300
C  52.58300 19.67300 26.69500
N  46.42200 16.10200 26.95300
C  47.35200 16.49000 26.01600
C  46.84900 16.26200 24.55300
C  45.57800 15.44000 24.82200
C  45.43400 15.46500 26.38700
C  46.55800 17.60800 23.77400
C  45.54900 14.00300 24.28700
C  44.30500 13.67300 23.40100
N  45.00200 15.50800 29.24800
C  44.02700 15.03800 28.33800
C  42.88200 14.60600 29.05300
C  43.17100 14.82300 30.41900
C  44.54500 15.29200 30.45300
C  41.63600 14.00600 28.52100
C  42.63600 14.60400 31.79200
O  41.63900 14.07700 32.28400
C  43.71600 15.24500 32.69100
C  43.10700 16.53500 33.16400
O  42.95200 17.56500 32.51100
O  43.01300 16.54200 34.53700
C  42.50200 17.71900 35.24100
H  49.91900 18.43800 31.56900
H  49.01600 17.45400 25.29000
H  43.50200 14.57100 26.29300
H  45.77800 17.36000 33.92400
H  48.71600 17.22700 33.74400
H  48.14200 19.70300 32.73700
H  48.23100 19.32600 34.44200
H  46.72000 19.38100 33.77700
H  47.80600 15.14900 34.21300
H  46.09500 14.60400 34.22100
H  47.18200 14.91500 36.52000
H  45.49500 15.23700 36.21600
H  51.96100 20.16700 29.49500
H  52.91000 18.70200 29.33800
H  51.94700 18.97900 30.77400
H  52.86300 19.92300 25.67200
H  53.29200 18.97400 27.13900
H  52.44200 20.53400 27.34900
H  47.56400 15.68600 23.96500
H  44.61700 15.82900 24.48500
H  45.49200 17.83200 23.76300
H  46.96200 17.49300 22.76800
H  47.04100 18.35100 24.40900
H  45.57900 13.36400 25.17000
H  46.44300 13.91700 23.67100
H  44.58800 12.83600 22.76300
H  43.99300 14.36100 22.61500
H  43.39800 13.63700 24.00500
H  41.41700 14.60800 27.63900
H  40.81400 14.03500 29.23500
H  41.86800 12.97400 28.25800
H  43.79400 14.67300 33.61500
H  41.54300 17.36900 35.62300
H  42.14600 18.56000 34.64500
H  43.21400 18.03300 36.00400

