158

Mg -2.76200 16.88200 27.01200
C  -2.78200 14.88700 29.80500
C  -3.07400 19.63300 29.22500
C  -2.65300 19.03800 24.36200
C  -2.94700 14.18500 24.95000
N  -3.03500 17.23900 29.23700
C  -2.98200 16.21100 30.17300
C  -3.11800 16.76100 31.59500
C  -3.22000 18.33000 31.32600
C  -3.16100 18.41300 29.86200
C  -4.44100 19.02900 31.96500
C  -1.94200 16.23600 32.54800
C  -1.58600 17.17400 33.65400
H  -0.85700 16.47400 34.79000
N  -2.69600 19.02300 26.85000
C  -2.90500 19.93700 27.85500
C  -2.73900 21.27800 27.28800
C  -2.38500 21.12900 25.88500
C  -2.66200 19.71200 25.59500
C  -2.91200 22.58300 28.12800
C  -1.87900 22.16300 24.87500
O  -1.79500 21.94200 23.65400
C  -1.55500 23.56200 25.42800
N  -2.93100 16.69700 24.98000
C  -2.82900 17.68200 24.06400
C  -2.94000 17.09900 22.58900
C  -2.67300 15.52700 22.88000
C  -2.88400 15.42500 24.42800
C  -4.29900 17.41300 21.89000
C  -1.26100 15.13900 22.44900
C  -0.10500 16.09300 22.99500
N  -2.88500 14.92700 27.18900
C  -2.99700 13.94500 26.33200
C  -3.11100 12.63400 26.97400
C  -2.95700 12.97500 28.35900
C  -2.76500 14.37700 28.39500
C  -3.17400 11.21700 26.37400
C  -2.86400 12.39400 29.65300
O  -2.93600 11.24100 30.04200
C  -2.73400 13.62800 30.65800
C  -1.46800 13.42100 31.51700
O  -0.33400 13.56900 31.13400
O  -1.87900 12.82300 32.71900
C  -0.79900 12.70700 33.69300
H  -3.05900 20.44400 29.95600
H  -2.33900 19.58100 23.46900
H  -2.91100 13.27300 24.35100
H  -4.12300 16.47700 31.90600
H  -2.30400 18.88200 31.53600
H  -3.92400 19.86400 32.43800
H  -4.88500 18.39600 32.73400
H  -5.11000 19.36400 31.17300
H  -0.99200 16.00600 32.06600
H  -2.27700 15.35800 33.10000
H  -2.40800 17.71300 34.12500
H  -0.91500 17.98200 33.36500
H  -3.41000 22.29400 29.05400
H  -3.48000 23.38400 27.65500
H  -1.91900 22.87600 28.46800
H  -1.39200 24.24800 24.59700
H  -0.65600 23.35700 26.00900
H  -2.36800 23.97000 26.02800
H  -2.04300 17.44500 22.07700
H  -3.36000 15.02000 22.20200
H  -4.86600 18.18300 22.41300
H  -4.91600 16.51500 21.90100
H  -4.15500 17.67600 20.84200
H  -1.26800 15.11100 21.36000
H  -0.96900 14.14200 22.78200
H  0.44400 16.45400 22.12500
H  0.51500 15.47200 23.64000
H  -0.41500 17.00700 23.50100
H  -2.19600 11.13500 25.90100
H  -4.00700 11.08800 25.68400
H  -3.41100 10.53000 27.18700
H  -3.57600 13.46600 31.33000
H  -1.19000 13.21900 34.57200
H  0.14500 13.24900 33.63600
H  -0.53200 11.65600 33.80700
Mg 16.41000 -1.45100 27.98900
C  15.09500 0.64500 30.39600
C  18.27000 -3.05900 30.48500
C  17.68700 -3.44100 25.68000
C  14.86800 0.48700 25.54100
N  16.68800 -1.16500 30.20700
C  16.02600 -0.21600 30.97000
C  16.35100 -0.50300 32.49200
C  17.59100 -1.45200 32.47900
C  17.52200 -1.92100 30.93300
C  18.95400 -0.72800 32.93600
C  15.12600 -1.11100 33.22100
C  15.16400 -1.23500 34.73900
H  16.39600 -0.67400 35.43300
N  17.76000 -3.09400 28.10800
C  18.40900 -3.55400 29.19700
C  19.23400 -4.72800 28.79100
C  18.97300 -4.94900 27.39600
C  18.11700 -3.78700 27.00100
C  20.16900 -5.51500 29.66200
C  19.48100 -6.11900 26.46800
O  19.14500 -6.05700 25.29900
C  20.22800 -7.27000 27.00300
N  16.23800 -1.49600 25.89200
C  16.95600 -2.35100 25.14200
C  17.07900 -2.00500 23.61300
C  16.21800 -0.63900 23.60100
C  15.75000 -0.50700 25.05400
C  18.57000 -1.85600 23.22900
C  14.97600 -0.68500 22.66700
C  15.22500 -0.35200 21.17100
N  15.34800 0.24500 27.90500
C  14.61800 0.85800 26.85800
C  13.79400 1.88600 27.36400
C  13.97600 1.82300 28.75000
C  14.89100 0.78600 29.01500
C  12.94100 2.68700 26.46600
C  13.43600 2.40700 29.99300
O  12.71100 3.34000 30.29100
C  14.17900 1.61200 31.11600
C  14.97500 2.69600 31.84500
O  16.06600 3.12600 31.56000
O  14.14500 3.09700 32.90700
C  14.88300 4.00200 33.74200
H  18.74700 -3.66700 31.25700
H  18.34800 -3.98900 25.00500
H  14.47900 1.05500 24.69300
H  16.68700 0.40300 32.99700
H  17.48000 -2.36400 33.06600
H  19.72600 -0.92200 32.19200
H  19.27800 -1.19800 33.86500
H  18.88800 0.35400 33.05500
H  15.10800 -2.11900 32.80500
H  14.14300 -0.74900 32.92100
H  14.96500 -2.29100 34.92400
H  14.31900 -0.60000 35.00500
H  19.62700 -6.33200 30.13700
H  20.38500 -4.90100 30.53600
H  21.05300 -5.73400 29.06300
H  21.18600 -6.92500 27.39200
H  20.37900 -7.89000 26.12000
H  19.54100 -7.64500 27.76100
H  16.58200 -2.86200 23.15800
H  16.84900 0.15000 23.19300
H  19.11600 -1.54400 24.12000
H  18.70500 -1.06600 22.49000
H  19.03900 -2.74300 22.80400
H  14.43400 0.22800 22.91400
H  14.26200 -1.50800 22.70500
H  14.82700 -1.17500 20.57800
H  16.31200 -0.29000 21.11400
H  14.66000 0.53900 20.89700
H  12.33100 3.37600 27.05000
H  12.17100 2.09100 25.97600
H  13.50200 3.35200 25.80900
H  13.41500 1.12200 31.72000
H  15.45700 4.72100 33.15700
H  15.40800 3.43200 34.50800
H  14.17700 4.58900 34.33100

