158

Mg 1.77900 -0.98300 44.87800
C  5.09300 -0.17100 44.22500
C  0.83800 1.85400 43.27400
C  -1.42900 -2.23100 44.67600
C  2.90600 -4.13700 45.88400
N  2.89200 0.57800 43.66300
C  4.21400 0.75700 43.73000
C  4.56600 2.10500 43.13500
C  3.20900 2.90100 43.10600
C  2.24100 1.74600 43.43200
C  3.16500 4.07800 44.14100
C  5.35200 2.04200 41.79100
C  4.99100 0.81300 40.84600
H  4.77000 1.17000 39.39200
N  -0.09400 -0.22500 44.23800
C  -0.24100 0.95500 43.57100
C  -1.61700 1.15500 43.19000
C  -2.27900 -0.00800 43.58800
C  -1.24700 -0.93000 44.15000
C  -2.05200 2.39400 42.39400
C  -3.78900 -0.36500 43.40400
O  -4.61200 0.55200 43.11300
C  -4.42800 -1.72300 43.56500
N  0.82100 -2.91400 45.10900
C  -0.51200 -3.16100 45.06900
C  -0.81700 -4.57800 45.55000
C  0.57100 -5.02600 46.10200
C  1.51600 -3.97000 45.67400
C  -2.06600 -4.76300 46.44900
C  0.92700 -6.44500 45.56000
C  1.91400 -7.35000 46.30200
N  3.62500 -1.92700 45.29000
C  3.92800 -3.21900 45.63400
C  5.35300 -3.41900 45.75400
C  5.89000 -2.21500 45.30700
C  4.78100 -1.36400 44.91000
C  6.07300 -4.57600 46.25000
C  7.12500 -1.55800 44.99300
O  8.26800 -1.86500 45.18300
C  6.65300 -0.18000 44.29800
C  7.11900 0.94000 45.14300
O  6.91400 1.16700 46.32100
O  7.80900 1.77500 44.21600
C  8.09800 3.12000 44.64300
H  0.57800 2.79400 42.78400
H  -2.44300 -2.61600 44.80200
H  3.34600 -5.08500 46.20000
H  5.21700 2.58500 43.86600
H  3.01900 3.27000 42.09800
H  3.43500 4.98200 43.59500
H  3.80400 3.81100 44.98200
H  2.11600 4.13900 44.43100
H  6.42600 2.09500 41.96900
H  5.05900 2.96000 41.28000
H  4.16100 0.21600 41.22300
H  5.80600 0.09100 40.90300
H  -3.07400 2.23400 42.05100
H  -1.48800 2.58700 41.48100
H  -2.02400 3.29000 43.01400
H  -5.45600 -1.71800 43.20300
H  -4.43600 -1.84500 44.64800
H  -3.83000 -2.54000 43.16100
H  -0.97300 -5.14400 44.63200
H  0.43500 -4.99300 47.18300
H  -2.83500 -5.24700 45.84700
H  -2.48200 -3.82400 46.81200
H  -1.89100 -5.29200 47.38600
H  1.40200 -6.19700 44.61100
H  0.02400 -6.93400 45.19700
H  1.34600 -8.27000 46.44500
H  2.28000 -6.86000 47.20400
H  2.71100 -7.53700 45.58200
H  5.79400 -5.03300 47.19900
H  7.15000 -4.42700 46.31800
H  5.86100 -5.43100 45.60900
H  7.00400 -0.04100 43.27600
H  7.15500 3.51500 45.02100
H  8.59100 3.69800 43.86100
H  8.77800 3.09500 45.49400
Mg -11.41400 37.94500 42.34900
C  -8.94000 35.52700 41.95100
C  -9.41000 40.19100 40.51400
C  -13.86000 40.13800 42.32300
C  -13.57800 35.53300 43.75300
N  -9.47100 37.83300 41.29400
C  -8.64200 36.73100 41.24000
C  -7.40500 37.03400 40.49000
C  -7.38400 38.62900 40.47900
C  -8.81600 38.91500 40.77800
C  -6.49200 39.25400 41.63700
C  -7.28500 36.46800 39.01100
C  -5.91500 35.68700 38.81000
H  -4.93300 36.09400 37.64500
N  -11.60500 39.92200 41.62200
C  -10.66300 40.69400 40.93500
C  -11.21800 41.98100 40.62900
C  -12.50300 42.04800 41.23800
C  -12.66300 40.68700 41.84000
C  -10.46700 43.06500 39.83900
C  -13.44700 43.26900 41.26300
O  -13.20100 44.33700 40.71700
C  -14.67000 43.22300 42.10000
N  -13.50000 37.78800 42.84000
C  -14.21600 38.89700 42.77200
C  -15.68800 38.58000 43.28100
C  -15.66300 37.02500 43.60200
C  -14.16300 36.72900 43.37900
C  -16.23800 39.46200 44.45700
C  -16.56800 36.08000 42.82400
C  -17.01700 34.79100 43.58700
N  -11.30600 35.94500 42.93400
C  -12.22900 35.10800 43.48900
C  -11.55600 33.80300 43.71200
C  -10.23800 33.93300 43.16300
C  -10.17300 35.23800 42.69400
C  -12.12500 32.62500 44.40400
C  -8.94300 33.30100 42.97800
O  -8.46200 32.23300 43.44500
C  -8.06400 34.32800 42.10400
C  -6.82100 34.59100 42.99900
O  -5.79300 33.91800 43.05000
O  -6.88100 35.76300 43.68600
C  -5.65000 36.21800 44.23300
H  -8.77100 40.92700 40.02100
H  -14.69200 40.76800 42.00200
H  -14.35600 34.92700 44.22000
H  -6.56300 36.74600 41.11800
H  -7.17500 39.00800 39.47800
H  -5.53300 39.53200 41.19800
H  -6.44000 38.69100 42.56800
H  -6.96600 40.19900 41.90300
H  -7.22300 37.35300 38.37800
H  -8.08700 35.79100 38.71600
H  -6.19700 34.66300 38.56900
H  -5.40200 35.46800 39.74600
H  -9.94000 43.73900 40.51400
H  -11.09400 43.73700 39.25200
H  -9.83600 42.61900 39.07000
H  -14.64800 42.56100 42.96500
H  -15.53300 43.31600 41.44100
H  -14.55800 44.21300 42.54200
H  -16.42300 38.61600 42.47700
H  -15.79000 36.75700 44.65000
H  -15.48600 39.94600 45.08100
H  -16.84900 38.90700 45.17000
H  -16.84000 40.27100 44.04600
H  -15.99700 35.80600 41.93600
H  -17.49600 36.51800 42.45700
H  -18.10600 34.73800 43.58600
H  -16.69300 34.82800 44.62700
H  -16.68100 33.86900 43.11300
H  -11.45000 31.78700 44.22900
H  -13.14100 32.39900 44.07900
H  -12.16100 32.81700 45.47600
H  -7.85200 33.90500 41.12200
H  -5.70400 37.29000 44.42400
H  -4.74800 36.18300 43.62300
H  -5.46300 35.62400 45.12800

