158

Mg 24.28300 -4.61800 45.68300
C  26.34300 -2.19900 44.08100
C  21.65500 -3.40000 43.57400
C  22.51600 -7.38400 46.35000
C  27.05100 -5.82800 47.35700
N  24.07700 -3.03600 43.97800
C  25.00900 -2.16000 43.61100
C  24.58300 -1.25900 42.44900
C  23.04900 -1.37100 42.60300
C  22.91300 -2.69900 43.42100
C  22.33300 -0.22100 43.35600
C  25.12100 -1.87800 41.05400
C  25.77700 -0.76300 40.16800
H  25.34400 -0.88600 38.68000
N  22.27100 -5.25600 45.12400
C  21.44000 -4.64200 44.25100
C  20.23500 -5.45800 44.15900
C  20.41900 -6.66200 44.93500
C  21.78900 -6.45700 45.51500
C  19.11200 -5.12700 43.29000
C  19.38400 -7.72000 45.17900
O  18.29600 -7.65300 44.60000
C  19.63800 -8.75300 46.20000
N  24.69900 -6.29300 46.68100
C  23.82900 -7.34100 46.84500
C  24.24100 -8.42100 47.78400
C  25.65300 -7.88800 48.20600
C  25.79700 -6.54400 47.42400
C  23.24800 -8.78500 48.91300
C  26.88700 -8.85400 48.04900
C  28.05400 -8.74500 49.03600
N  26.32800 -4.12400 45.81800
C  27.31900 -4.66000 46.57000
C  28.60100 -3.96700 46.42700
C  28.28300 -2.98200 45.38100
C  26.88000 -3.11500 45.05100
C  29.98700 -4.35500 47.10000
C  28.80400 -1.92700 44.54500
O  29.91000 -1.35300 44.49600
C  27.58200 -1.36600 43.65400
C  27.36000 0.06900 43.92400
O  26.61200 0.58100 44.78100
O  28.07100 0.75700 42.95000
C  27.82800 2.19100 43.01000
H  20.87400 -2.94000 42.96400
H  21.93200 -8.25300 46.66100
H  27.85000 -6.22500 47.98700
H  24.96700 -0.25000 42.59900
H  22.56400 -1.39500 41.62800
H  21.73500 -0.62700 44.17200
H  21.62400 0.19200 42.63800
H  22.99800 0.60500 43.61100
H  24.27700 -2.21300 40.45000
H  25.79600 -2.72900 41.14500
H  26.86700 -0.77300 40.14000
H  25.48500 0.21700 40.54500
H  18.93000 -5.97900 42.63500
H  19.17700 -4.12700 42.86100
H  18.23300 -5.08600 43.93400
H  18.74500 -9.37900 46.20600
H  19.77300 -8.33200 47.19600
H  20.38600 -9.50800 45.95700
H  24.44500 -9.28300 47.14900
H  25.44100 -7.69100 49.25700
H  22.44400 -8.05000 48.96600
H  23.74700 -8.72500 49.88000
H  22.70500 -9.73000 48.88000
H  27.30300 -8.83200 47.04200
H  26.50600 -9.87400 48.00100
H  28.12200 -9.53900 49.78000
H  27.79800 -7.88600 49.65600
H  29.01100 -8.62000 48.53000
H  30.08300 -5.43000 46.94400
H  30.03200 -4.14200 48.16800
H  30.85600 -3.86000 46.66600
H  27.82700 -1.60300 42.61900
H  26.90400 2.50400 43.49500
H  27.71800 2.53100 41.98000
H  28.60600 2.83400 43.42200
Mg 16.18000 -1.99100 28.16200
C  15.14100 0.22900 30.70400
C  18.06400 -3.50700 30.52000
C  17.41100 -3.76600 25.63200
C  14.46700 0.16800 25.76900
N  16.50200 -1.69600 30.42900
C  15.90600 -0.78000 31.26800
C  16.26700 -1.05500 32.76800
C  17.35800 -2.10100 32.62400
C  17.37800 -2.44300 31.10300
C  18.82300 -1.74200 33.16800
C  15.07700 -1.45900 33.65700
C  14.78400 -1.00600 35.06800
H  16.00000 -0.47400 35.76000
N  17.46900 -3.60100 28.09600
C  18.11100 -4.07200 29.20600
C  18.91400 -5.18900 28.80500
C  18.65500 -5.42700 27.43700
C  17.76900 -4.26600 26.96900
C  19.67200 -6.11300 29.71900
C  19.13600 -6.47200 26.47100
O  18.77600 -6.50700 25.28600
C  20.15100 -7.46500 26.85200
N  15.98800 -1.76900 26.05900
C  16.61000 -2.66200 25.25700
C  16.31700 -2.34800 23.80800
C  15.05900 -1.40700 23.93200
C  15.23700 -0.91800 25.33700
C  17.60100 -1.76500 23.13000
C  13.61600 -1.89100 23.56500
C  12.85100 -1.00600 22.56100
N  15.02700 -0.21000 28.19700
C  14.36400 0.48300 27.16800
C  13.57900 1.55300 27.79800
C  13.93900 1.54600 29.15300
C  14.75600 0.42500 29.35000
C  12.64100 2.45800 26.94100
C  13.73300 2.22000 30.44000
O  13.12800 3.26000 30.71200
C  14.51300 1.35800 31.45800
C  15.56300 2.16400 32.12100
O  16.73700 2.21000 31.85800
O  14.97600 2.95100 33.08500
C  15.78100 3.89200 33.89800
H  18.49700 -4.14300 31.29500
H  17.77100 -4.41300 24.82900
H  13.81400 0.74200 25.10900
H  16.61800 -0.11700 33.20100
H  17.02600 -3.01200 33.12200
H  18.69000 -0.82400 33.74100
H  19.62000 -1.68900 32.42700
H  19.07100 -2.49800 33.91400
H  15.04400 -2.54300 33.54000
H  14.23700 -1.15700 33.03100
H  14.26100 -1.69000 35.73700
H  14.13700 -0.12900 35.08700
H  20.70900 -6.20200 29.39300
H  19.20400 -7.07000 29.94700
H  19.87200 -5.63200 30.67700
H  21.00500 -6.84500 27.12300
H  20.38400 -8.19900 26.08000
H  19.72500 -7.94500 27.73300
H  16.10800 -3.28900 23.29800
H  15.27200 -0.57300 23.26300
H  18.22600 -1.25400 23.86300
H  17.23900 -1.05700 22.38400
H  18.21700 -2.47500 22.57900
H  13.04100 -1.91700 24.49100
H  13.64100 -2.94500 23.28600
H  12.00400 -0.49600 23.02000
H  12.51400 -1.65900 21.75600
H  13.42800 -0.16200 22.18100
H  11.86600 1.75400 26.63500
H  13.11500 3.00300 26.12500
H  12.31300 3.26500 27.59500
H  13.93000 0.86000 32.23300
H  16.09000 4.74500 33.29400
H  16.55500 3.33500 34.42700
H  15.15400 4.36100 34.65700

