158

Mg 1.69500 8.62000 26.34100
C  1.90300 10.77500 29.07100
C  2.15600 6.02300 28.23400
C  2.33600 6.79900 23.44800
C  1.78700 11.53900 24.28000
N  2.11300 8.47300 28.47600
C  1.89900 9.41200 29.43300
C  1.91400 8.73700 30.86900
C  2.16800 7.32300 30.56500
C  2.22100 7.22700 28.98100
C  3.41500 6.63300 31.29200
C  0.60000 9.11500 31.68400
C  0.47800 9.21500 33.17700
H  1.61100 8.70700 34.08800
N  2.09200 6.65800 25.92700
C  2.13300 5.72000 26.88400
C  2.22200 4.41400 26.25300
C  2.41300 4.65100 24.83700
C  2.27800 6.11100 24.68100
C  2.26900 3.08700 27.05500
C  2.57900 3.61000 23.74400
O  2.49700 3.87000 22.54100
C  2.76300 2.25600 24.08700
N  1.98200 9.09800 24.22300
C  2.05600 8.13400 23.23700
C  2.00000 8.67800 21.78100
C  1.68200 10.19400 22.10600
C  1.80900 10.29700 23.61700
C  3.25600 8.23700 21.01300
C  0.30700 10.74700 21.61900
C  0.21500 11.94700 20.64200
N  1.82300 10.73800 26.57000
C  1.85300 11.74800 25.66200
C  1.83800 13.02500 26.35500
C  1.95200 12.67400 27.74600
C  1.94000 11.29200 27.79000
C  1.98200 14.41900 25.74500
C  2.12600 13.24500 29.10500
O  2.35500 14.33700 29.57900
C  2.23800 11.94700 30.00000
C  3.52900 11.92200 30.69200
O  4.62500 11.83900 30.12800
O  3.46200 12.06100 32.08200
C  4.58700 11.70400 32.82800
H  2.15800 5.14300 28.88100
H  2.32800 6.18200 22.54700
H  1.63200 12.43000 23.66700
H  2.83100 9.15800 31.28000
H  1.25600 6.80200 30.85700
H  2.95900 5.95400 32.01200
H  4.11600 7.28400 31.81400
H  4.07000 6.03600 30.65800
H  -0.24000 8.53800 31.29900
H  0.34100 10.11200 31.32800
H  -0.49200 8.80800 33.46200
H  0.57300 10.27000 33.43300
H  1.85000 3.35500 28.02400
H  3.24900 2.61000 27.03000
H  1.62100 2.36800 26.55300
H  2.99600 1.56600 23.27600
H  1.87700 1.91000 24.62000
H  3.60900 2.22000 24.77400
H  1.13500 8.10400 21.44900
H  2.54900 10.60700 21.58900
H  3.98000 7.62600 21.55100
H  3.80000 9.05100 20.53400
H  2.83200 7.59200 20.24400
H  -0.12200 11.23800 22.49200
H  -0.40900 9.97600 21.33500
H  1.18400 12.02100 20.14900
H  0.19900 12.93800 21.09500
H  -0.51600 11.93400 19.83400
H  1.66700 14.52800 24.70700
H  3.05300 14.62000 25.78600
H  1.45400 15.07000 26.44000
H  1.32400 12.12100 30.56900
H  5.50000 12.29700 32.77600
H  4.92000 10.69700 32.57700
H  4.29900 11.74700 33.87800
Mg 46.86400 24.80000 28.53800
C  47.24600 27.03100 31.27900
C  45.32200 22.62100 30.60100
C  47.47200 22.31000 26.29600
C  48.83100 27.03100 26.55400
N  46.40700 24.82700 30.70300
C  46.63900 25.84700 31.58500
C  46.11900 25.53700 33.01700
C  45.46700 24.06600 32.76000
C  45.74400 23.78000 31.32100
C  46.15000 22.92200 33.58300
C  45.24900 26.61300 33.69700
C  45.65600 27.02500 35.06100
H  44.65900 26.80100 36.27400
N  46.30100 22.84500 28.35600
C  45.50600 22.15600 29.25300
C  45.06200 20.88400 28.74500
C  45.80100 20.78600 27.48200
C  46.55500 22.00700 27.31600
C  44.32700 19.82200 29.59500
C  45.75100 19.68200 26.57200
O  46.35500 19.63800 25.52500
C  44.85400 18.45600 26.81800
N  47.96700 24.70600 26.70400
C  48.04600 23.54500 25.97000
C  48.73700 23.81000 24.65400
C  49.21100 25.30800 24.71600
C  48.64300 25.74400 26.03800
C  49.79100 22.73600 24.29100
C  48.59200 26.14900 23.52900
C  47.12700 26.67000 23.58500
N  47.78500 26.69300 28.77700
C  48.48800 27.44000 27.87400
C  48.85800 28.70800 28.47500
C  48.36500 28.61900 29.86100
C  47.73200 27.36100 29.96200
C  49.77100 29.76200 27.88200
C  48.30000 29.22100 31.17400
O  48.66400 30.32400 31.60500
C  47.58900 28.13500 32.12400
C  48.56900 27.70100 33.22000
O  49.46100 26.86300 33.09500
O  48.39900 28.54700 34.23600
C  49.23000 28.41400 35.49900
H  44.68000 22.00200 31.23100
H  47.65000 21.55100 25.53100
H  49.20800 27.81100 25.89000
H  46.91000 25.36600 33.74800
H  44.43300 23.96200 33.09000
H  46.45900 23.27700 34.56600
H  47.04700 22.52400 33.10900
H  45.47100 22.11400 33.85700
H  44.28100 26.16900 33.92900
H  45.02400 27.53300 33.15800
H  45.95100 28.07400 35.02100
H  46.57800 26.56100 35.41400
H  43.52000 19.36300 29.02400
H  43.97300 20.26800 30.52400
H  45.06100 19.09500 29.94000
H  45.07300 18.16000 27.84300
H  45.06500 17.65600 26.10800
H  43.80900 18.71800 26.65100
H  48.08300 23.66500 23.79400
H  50.29900 25.28200 24.78200
H  50.11000 22.29100 25.23400
H  50.60300 23.11300 23.66800
H  49.45100 21.87400 23.71800
H  48.69600 25.46000 22.69200
H  49.16400 27.03400 23.24900
H  46.56000 26.05700 22.88400
H  47.04900 27.74900 23.45500
H  46.77400 26.48700 24.60000
H  50.42600 29.45600 27.06700
H  50.40000 30.22900 28.64000
H  49.10700 30.51600 27.46000
H  46.78500 28.71600 32.57600
H  49.83100 29.32100 35.56400
H  49.82500 27.50200 35.55600
H  48.59300 28.42400 36.38400

