158

Mg -0.15900 44.03500 26.56900
C  1.98300 43.84900 29.24700
C  -2.92200 43.35500 28.89500
C  -2.50800 43.58400 24.02000
C  2.35300 44.17500 24.30300
N  -0.44100 43.59300 28.81900
C  0.63800 43.65900 29.71000
C  0.07400 43.42600 31.10500
C  -1.41100 43.05800 30.89900
C  -1.58700 43.43400 29.42200
C  -1.88500 41.60700 31.25200
C  0.31900 44.68600 31.95600
C  0.29300 44.55300 33.49400
H  -0.02600 43.22300 34.08500
N  -2.39500 43.55400 26.53300
C  -3.27400 43.32600 27.50900
C  -4.60500 42.98800 27.06500
C  -4.54800 43.34600 25.65400
C  -3.08400 43.50600 25.34000
C  -5.70900 42.56300 27.96100
C  -5.66400 43.52700 24.63300
O  -5.44300 43.59600 23.43900
C  -7.05700 43.57400 25.22800
N  -0.04200 43.76600 24.40600
C  -1.14100 43.74100 23.58600
C  -0.70900 43.73000 22.18100
C  0.72400 44.24300 22.22000
C  1.08300 44.04500 23.70400
C  -0.90900 42.30300 21.64800
C  0.99700 45.65100 21.82000
C  1.61900 45.72800 20.37500
N  1.74600 44.10000 26.69200
C  2.74400 44.23600 25.70100
C  4.01500 44.34600 26.30300
C  3.78400 44.15400 27.72000
C  2.37600 44.03300 27.88600
C  5.32600 44.31700 25.58600
C  4.48200 44.08000 29.01300
O  5.68300 44.08500 29.32400
C  3.29100 43.81300 30.01800
C  3.48300 42.58100 30.68300
O  3.65400 41.53900 30.07900
O  3.69900 42.76300 32.01300
C  4.24500 41.59500 32.73200
H  -3.67100 43.14900 29.66300
H  -3.11500 43.48800 23.11700
H  3.13300 44.39800 23.57200
H  0.61000 42.57900 31.53400
H  -2.00200 43.77900 31.46400
H  -2.08500 41.02700 30.35100
H  -2.86300 41.60500 31.73400
H  -1.07300 41.20900 31.86000
H  -0.49800 45.37900 31.75800
H  1.24500 45.16500 31.63800
H  -0.35100 45.30100 33.95500
H  1.28700 44.85300 33.82700
H  -5.39500 42.30400 28.97200
H  -6.34900 41.81900 27.48700
H  -6.37100 43.41900 28.09300
H  -7.30500 44.55200 25.64000
H  -7.32200 42.73200 25.86800
H  -7.74000 43.49000 24.38300
H  -1.40500 44.42800 21.71600
H  1.36400 43.54400 21.68100
H  -1.92900 42.14200 21.29800
H  -0.62400 41.56500 22.39700
H  -0.25500 42.24300 20.77800
H  1.59900 46.15600 22.57500
H  0.05000 46.19000 21.85700
H  1.24400 46.66600 19.96700
H  1.35200 44.87900 19.74600
H  2.66200 46.00000 20.53300
H  5.06100 44.67400 24.59100
H  5.68000 43.28700 25.57400
H  6.02800 44.96400 26.11200
H  3.24800 44.61600 30.75300
H  5.31800 41.70100 32.57300
H  3.93400 40.56800 32.54000
H  4.03800 41.90400 33.75700
Mg -10.63100 17.07500 40.28800
C  -7.16700 16.50900 40.66300
C  -9.97100 20.52800 40.06400
C  -13.94600 17.58500 39.34400
C  -11.03900 13.72500 39.33200
N  -8.78600 18.32000 40.33100
C  -7.46000 17.85600 40.37700
C  -6.51800 18.99200 40.12500
C  -7.35200 20.28600 40.32300
C  -8.80600 19.70300 40.27100
C  -7.11200 21.18500 41.63800
C  -5.83800 18.99200 38.72200
C  -4.30400 18.90800 38.76900
H  -3.69600 18.01700 37.74900
N  -11.82200 18.80400 39.82800
C  -11.32700 20.09200 39.81400
C  -12.40100 20.95800 39.54700
C  -13.63700 20.19500 39.43200
C  -13.21400 18.79800 39.54200
C  -12.28900 22.48400 39.42600
C  -15.13700 20.80100 39.33200
O  -15.24000 22.00100 39.30800
C  -16.28100 19.89400 39.31800
N  -12.22800 15.87800 39.39700
C  -13.52300 16.24400 39.32700
C  -14.48700 15.10500 39.04900
C  -13.50900 13.88900 38.85600
C  -12.15900 14.54300 39.15300
C  -15.50100 14.96200 40.28200
C  -13.66800 13.37000 37.44800
C  -13.35900 14.50500 36.45100
N  -9.44200 15.38600 40.36400
C  -9.70700 14.09000 39.82400
C  -8.59100 13.24400 40.04500
C  -7.57600 14.12000 40.43400
C  -8.10100 15.47800 40.48500
C  -8.40300 11.73400 39.62400
C  -6.15200 14.28100 40.79300
O  -5.31500 13.43100 40.98000
C  -5.85600 15.82000 40.88800
C  -5.17100 16.19500 42.09500
O  -4.11700 16.78600 42.03200
O  -5.77900 15.75500 43.27100
C  -5.02300 16.03500 44.48700
H  -9.63800 21.56500 40.14500
H  -15.00100 17.56900 39.06300
H  -11.15100 12.66500 39.09500
H  -5.69600 19.01300 40.84000
H  -7.21800 21.06500 39.57300
H  -6.10100 21.33200 42.01800
H  -7.72000 20.78600 42.45100
H  -7.59200 22.12200 41.35700
H  -6.06300 19.98100 38.32200
H  -6.26100 18.37600 37.92800
H  -3.81100 18.65400 39.70700
H  -3.83800 19.83500 38.43600
H  -12.69100 22.66300 38.42800
H  -11.29700 22.92800 39.51000
H  -12.87800 23.00400 40.18100
H  -17.19600 20.46900 39.45500
H  -16.27000 19.43000 40.30400
H  -16.37000 19.05400 38.62800
H  -15.10900 15.22800 38.16200
H  -13.71500 13.08500 39.56300
H  -14.95100 15.08200 41.21500
H  -15.96800 13.97800 40.25500
H  -16.31000 15.68400 40.39400
H  -14.61100 12.82800 37.38200
H  -12.84200 12.66400 37.35100
H  -14.13200 14.67800 35.70300
H  -12.43500 14.23200 35.94000
H  -13.03700 15.44800 36.89400
H  -8.13000 11.70800 38.56900
H  -9.32300 11.16300 39.75300
H  -7.71700 11.24200 40.31400
H  -5.20700 16.13300 40.07100
H  -5.12100 17.12100 44.50400
H  -3.98100 15.73400 44.38300
H  -5.45300 15.61300 45.39500

