158

Mg 0.97500 7.79300 25.22600
C  1.51500 9.68400 28.24400
C  1.40400 4.98700 27.25500
C  0.89400 5.93400 22.41100
C  1.16200 10.73600 23.43400
N  1.51600 7.41400 27.50000
C  1.57400 8.29400 28.51000
C  1.74100 7.65400 29.92000
C  1.73800 6.11000 29.57300
C  1.59700 6.12900 28.02100
C  3.07700 5.41900 29.95000
C  0.53100 7.97100 30.94300
C  1.00200 8.27300 32.46500
H  2.15500 7.50100 32.97000
N  1.05300 5.72400 24.87700
C  1.13700 4.79500 25.88800
C  0.86500 3.50700 25.27900
C  0.63300 3.72700 23.87400
C  0.84300 5.12900 23.61600
C  0.60100 2.22600 26.10400
C  0.23300 2.82200 22.77000
O  -0.03500 3.21400 21.62300
C  0.03400 1.32300 22.92500
N  1.22200 8.24300 23.18900
C  1.07700 7.31000 22.18400
C  0.82100 8.02700 20.83100
C  1.09700 9.51000 21.13900
C  1.12300 9.55100 22.66300
C  1.44500 7.40800 19.54100
C  0.10000 10.44300 20.45800
C  -1.27800 10.66400 21.24200
N  1.33600 9.81800 25.63300
C  1.28300 10.90300 24.80300
C  1.44300 12.14200 25.54600
C  1.50600 11.67300 26.90800
C  1.34700 10.26900 26.91600
C  1.76200 13.49700 24.94300
C  1.82800 12.12400 28.25000
O  2.08100 13.20900 28.66200
C  1.67700 10.81000 29.15000
C  2.78200 10.81600 30.09100
O  3.88500 10.23400 29.92100
O  2.43300 11.44200 31.25800
C  3.49900 11.48600 32.25100
H  1.50000 4.09900 27.88300
H  0.75400 5.47500 21.43000
H  1.03200 11.67500 22.89100
H  2.74200 7.95900 30.22500
H  0.83400 5.67200 29.99600
H  3.14300 5.75900 30.98300
H  3.98900 5.67900 29.41200
H  3.09700 4.33000 29.90600
H  -0.28600 7.26200 30.80900
H  0.16800 8.90500 30.51500
H  0.13800 7.93000 33.03400
H  1.10500 9.35300 32.57500
H  -0.46600 2.00200 26.11000
H  0.71900 2.48500 27.15700
H  1.14400 1.35200 25.74600
H  0.80700 0.91200 23.57500
H  0.02800 0.82100 21.95700
H  -0.87400 1.16000 23.50600
H  -0.24400 7.95700 20.61100
H  2.07100 9.81600 20.75800
H  2.15400 6.62500 19.80800
H  1.94200 8.15800 18.92500
H  0.70100 6.90200 18.92500
H  -0.18500 10.25200 19.42400
H  0.52900 11.44300 20.52400
H  -2.06900 11.12600 20.65100
H  -1.23200 11.41400 22.03200
H  -1.60600 9.75000 21.73700
H  2.71700 13.33600 24.44300
H  2.04400 14.07300 25.82500
H  0.85700 13.79900 24.41700
H  0.83600 10.93900 29.83200
H  3.95400 10.51900 32.46600
H  3.08500 11.82000 33.20300
H  4.31900 12.10900 31.89300
Mg 26.04400 50.30300 27.10700
C  24.09600 51.43400 29.84400
C  28.46200 49.32300 29.45300
C  27.95500 49.21600 24.56400
C  23.62900 51.44300 24.96300
N  26.26200 50.29300 29.40100
C  25.27000 50.83700 30.26200
C  25.63900 50.36500 31.72100
C  27.09100 49.82200 31.57400
C  27.28600 49.80900 30.05600
C  28.23500 50.51200 32.39700
C  24.52700 49.35400 32.39700
C  23.88700 49.82900 33.71100
H  24.93400 50.15800 34.87500
N  27.89000 49.47200 26.96500
C  28.77900 49.26800 28.05400
C  30.04700 48.71500 27.55500
C  29.95300 48.62500 26.08900
C  28.55000 49.07700 25.85400
C  31.11500 48.29200 28.48100
C  30.99500 48.12000 25.12900
O  30.70500 48.02900 23.92400
C  32.38700 47.73700 25.61300
N  25.90900 50.38100 25.06000
C  26.76500 49.76600 24.18900
C  26.36100 50.01300 22.68200
C  24.84600 50.22000 22.92400
C  24.70300 50.71300 24.43700
C  27.19200 51.13600 21.95000
C  23.91400 49.00400 22.61000
C  23.31200 48.09500 23.75200
N  24.32200 51.33600 27.27400
C  23.42500 51.70700 26.27800
C  22.26900 52.34100 26.85600
C  22.51600 52.28800 28.28300
C  23.76800 51.65600 28.47800
C  21.07500 52.97300 26.17100
C  21.98300 52.63200 29.59900
O  20.86500 53.10500 29.89400
C  23.00600 52.08600 30.69500
C  23.42200 53.10900 31.58900
O  24.54200 53.64900 31.58300
O  22.46400 53.33200 32.61100
C  22.82200 54.22800 33.75600
H  29.24900 48.99600 30.13500
H  28.50300 48.83800 23.69800
H  22.83200 51.54600 24.22400
H  25.64900 51.32600 32.23500
H  27.08500 48.78800 31.91800
H  28.83100 49.65200 32.70100
H  27.86200 51.00800 33.29300
H  28.90500 51.05100 31.72700
H  25.03100 48.44300 32.71800
H  23.79100 49.17000 31.61500
H  23.40300 48.97000 34.17700
H  23.16600 50.63600 33.57800
H  30.93900 47.25300 28.76200
H  31.13300 48.79800 29.44600
H  32.10100 48.32300 28.01700
H  32.80700 48.62900 26.07800
H  33.07600 47.57100 24.78500
H  32.26700 46.87000 26.26200
H  26.50700 49.05100 22.19200
H  24.41800 51.01400 22.31100
H  28.03900 51.61700 22.43900
H  26.43200 51.82900 21.58900
H  27.52300 50.57200 21.07800
H  24.28400 48.38500 21.79300
H  23.03100 49.40300 22.11100
H  23.75100 47.09800 23.70900
H  22.24500 47.95300 23.58400
H  23.43900 48.46300 24.77000
H  21.02100 52.54500 25.17000
H  21.12300 54.06100 26.21700
H  20.17400 52.66300 26.70000
H  22.42800 51.48400 31.39600
H  22.61800 55.27900 33.54900
H  23.89200 54.14400 33.94700
H  22.13400 54.04800 34.58200

