158

Mg 24.94000 2.08300 29.94900
C  27.23400 1.97000 32.67200
C  22.39300 2.43700 32.13700
C  22.85900 1.97200 27.33600
C  27.73600 1.29900 27.81500
N  24.90500 2.13900 32.09500
C  25.88200 2.23200 33.00700
C  25.35800 2.53300 34.38100
C  23.82400 2.46900 34.19500
C  23.69500 2.32800 32.70300
C  23.08100 1.38800 34.96300
C  25.83000 3.92100 34.93200
C  26.62100 3.95000 36.22100
H  26.18000 4.98800 37.21800
N  22.91500 2.16700 29.76700
C  21.99400 2.34900 30.79000
C  20.62500 2.36200 30.24900
C  20.79900 2.12400 28.80900
C  22.25500 2.06200 28.58200
C  19.48500 2.52900 31.05000
C  19.78200 2.01000 27.76300
O  20.05400 1.78300 26.61700
C  18.31600 2.33600 28.10900
N  25.19400 1.49600 27.82500
C  24.20100 1.76900 26.90300
C  24.76300 1.83500 25.47500
C  26.32700 1.69000 25.69600
C  26.45700 1.48700 27.25700
C  24.27000 0.75100 24.42900
C  27.16500 2.84100 25.12900
C  27.25700 4.18800 25.90100
N  27.03500 1.61600 30.14000
C  28.04300 1.22900 29.20200
C  29.30600 1.00300 29.85300
C  28.99800 1.28600 31.20500
C  27.60400 1.63800 31.38500
C  30.55400 0.58500 29.23800
C  29.60900 1.53000 32.51500
O  30.78100 1.32300 32.74700
C  28.50200 2.03900 33.55100
C  28.45100 0.96500 34.62300
O  28.04700 -0.18600 34.47100
O  28.76900 1.54500 35.85600
C  28.50700 0.76600 37.04700
H  21.65300 2.63400 32.91500
H  22.24300 2.00900 26.43500
H  28.57000 1.19100 27.11900
H  25.76900 1.70500 34.95900
H  23.27400 3.38800 34.39700
H  23.70000 0.75000 35.59400
H  22.68900 0.64600 34.26700
H  22.32100 1.91000 35.54600
H  24.91900 4.48500 35.13100
H  26.42100 4.48000 34.20600
H  27.69500 4.13200 36.19400
H  26.47300 3.00400 36.74100
H  18.80100 1.68200 31.00000
H  19.09100 3.51200 30.79000
H  19.58100 2.59900 32.13400
H  18.00600 1.82500 29.02000
H  17.72500 1.88100 27.31400
H  18.26700 3.42500 28.12900
H  24.61200 2.88800 25.23800
H  26.65000 0.73900 25.27300
H  23.24100 0.48900 24.67600
H  24.95900 -0.09000 24.50900
H  24.23800 1.11800 23.40300
H  26.72700 3.08300 24.16100
H  28.11300 2.41800 24.79600
H  28.23300 4.28800 26.37600
H  26.51300 4.17200 26.69800
H  26.99600 5.08500 25.33800
H  31.25100 1.39900 29.04000
H  30.33700 0.10300 28.28500
H  30.93600 -0.13600 29.96100
H  28.64400 3.00300 34.04000
H  27.89200 -0.11200 36.85000
H  27.85500 1.39200 37.65600
H  29.46100 0.53600 37.52200
Mg 1.53600 42.01600 26.28000
C  3.78700 41.98900 29.12600
C  -0.99600 41.35700 28.36300
C  -0.14800 41.40900 23.57000
C  4.56900 42.08400 24.36200
N  1.44600 41.85900 28.50500
C  2.41000 41.92700 29.43900
C  1.76800 41.80300 30.81900
C  0.32000 41.27100 30.51000
C  0.23200 41.56700 29.05400
C  0.06600 39.77600 30.87100
C  1.84900 43.08800 31.72700
C  2.21200 42.91600 33.19200
H  1.80600 41.62400 33.86600
N  -0.29900 41.52100 26.05100
C  -1.24700 41.36000 26.99100
C  -2.51900 41.05200 26.40600
C  -2.24800 40.91400 24.98100
C  -0.85000 41.29100 24.78800
C  -3.82800 40.98800 27.20800
C  -3.25800 40.55300 23.94600
O  -3.02700 40.59900 22.73600
C  -4.61400 40.22400 24.45100
N  2.12700 41.93200 24.23300
C  1.17900 41.81600 23.28800
C  1.85500 41.96400 21.90600
C  3.28700 42.47600 22.25200
C  3.39000 42.10300 23.72400
C  1.85700 40.59200 21.17500
C  3.57100 44.01000 22.00000
C  4.58500 44.39500 20.93100
N  3.75200 41.99200 26.64500
C  4.80800 42.08400 25.73400
C  6.13200 42.24800 26.39600
C  5.77500 42.20100 27.76600
C  4.33400 42.07200 27.81000
C  7.46900 42.33000 25.78600
C  6.28300 42.19600 29.06900
O  7.40200 42.28100 29.46300
C  4.95400 42.21600 30.02200
C  5.18100 41.21100 31.09400
O  4.94900 39.97600 30.97800
O  5.62000 41.81600 32.19200
C  6.11500 40.88700 33.21800
H  -1.80000 40.97300 28.99400
H  -0.74000 41.20900 22.67500
H  5.43900 42.29100 23.73600
H  2.36100 41.04800 31.33600
H  -0.46000 41.76800 31.08600
H  -0.20000 39.15600 30.01500
H  -0.79700 39.68200 31.53000
H  0.88900 39.32600 31.42700
H  1.03000 43.79600 31.59600
H  2.66600 43.71900 31.37500
H  1.53700 43.60000 33.70700
H  3.29200 43.03200 33.27700
H  -3.76900 41.30600 28.24900
H  -4.11900 39.93700 27.21100
H  -4.60200 41.64100 26.80400
H  -5.12800 41.14000 24.73900
H  -4.61400 39.48000 25.24800
H  -5.19500 39.74000 23.66600
H  1.49900 42.85100 21.38300
H  3.99000 41.91300 21.63800
H  1.16600 39.88000 21.62800
H  2.79900 40.09300 21.40200
H  1.63000 40.57300 20.10900
H  3.97400 44.35700 22.95200
H  2.60500 44.48700 21.83300
H  5.39400 44.86800 21.48800
H  4.13800 45.09300 20.22300
H  4.92700 43.52200 20.37500
H  7.76200 43.37300 25.66800
H  7.59500 41.82500 24.82800
H  8.17000 41.85600 26.47300
H  4.89600 43.21300 30.45900
H  6.67200 40.10900 32.69500
H  5.38800 40.30600 33.78400
H  6.73100 41.47300 33.90000

