158

Mg 24.41400 -5.42700 45.85000
C  26.79800 -3.02800 44.47700
C  22.16700 -4.01000 43.63100
C  22.62800 -8.15800 46.31700
C  27.23800 -6.85500 47.51200
N  24.48700 -3.72900 44.28200
C  25.55400 -2.95000 43.90000
C  25.20400 -2.07500 42.71800
C  23.65300 -2.04600 42.64200
C  23.39600 -3.28300 43.64700
C  23.10000 -0.76300 43.07800
C  25.76800 -2.77300 41.43800
C  26.65500 -1.86000 40.45200
H  26.00700 -1.56600 39.08900
N  22.53000 -5.96200 45.21100
C  21.81100 -5.30400 44.23400
C  20.55700 -6.01500 44.11700
C  20.69200 -7.16900 44.93600
C  21.97000 -7.13000 45.56600
C  19.47500 -5.62800 43.18400
C  19.52500 -8.15100 45.14200
O  18.55800 -8.14200 44.38900
C  19.42600 -9.14100 46.37200
N  24.86400 -7.17300 46.86700
C  23.91800 -8.12100 47.01300
C  24.46300 -9.31400 47.83800
C  25.87300 -8.84300 48.31900
C  26.01800 -7.60300 47.50200
C  23.53200 -9.76700 48.99800
C  26.96800 -9.89000 47.98800
C  28.05100 -10.17000 49.13000
N  26.64800 -4.94900 46.17200
C  27.51500 -5.62300 46.89200
C  28.74000 -4.86400 46.76500
C  28.48900 -3.85400 45.85300
C  27.22900 -3.98300 45.47000
C  29.93300 -5.39400 47.53100
C  29.13100 -2.74600 45.24300
O  30.29700 -2.35400 45.27300
C  28.01500 -2.11800 44.26900
C  27.87700 -0.66900 44.70800
O  28.46000 0.27800 44.26600
O  26.94300 -0.58200 45.78500
C  26.95600 0.71500 46.46000
H  21.40400 -3.61300 42.95800
H  22.15400 -9.13800 46.40400
H  28.06900 -7.42000 47.94000
H  25.55600 -1.05500 42.87500
H  23.30500 -2.30400 41.64200
H  22.19900 -0.85700 43.68400
H  22.69900 -0.22500 42.21900
H  23.77300 -0.11200 43.63600
H  25.06800 -3.35200 40.83600
H  26.54600 -3.43200 41.82300
H  27.57700 -2.40500 40.24800
H  26.87200 -0.91700 40.95400
H  19.52700 -6.29600 42.32400
H  19.62600 -4.59500 42.87000
H  18.49300 -5.64900 43.65600
H  20.01100 -8.86000 47.24800
H  19.69600 -10.17900 46.18100
H  18.35100 -9.20000 46.54200
H  24.50300 -10.15400 47.14400
H  25.80500 -8.67600 49.39400
H  22.56900 -9.26500 48.90600
H  23.79500 -9.57000 50.03800
H  23.24500 -10.81700 48.94200
H  27.54300 -9.38400 47.21200
H  26.65600 -10.85100 47.58000
H  28.15800 -11.23900 49.31400
H  27.78700 -9.60200 50.02200
H  28.93900 -9.62100 48.81600
H  30.29900 -6.29900 47.04700
H  29.68300 -5.59400 48.57300
H  30.73000 -4.68200 47.31500
H  28.25200 -2.10700 43.20500
H  26.02400 0.89000 46.99700
H  27.09000 1.51200 45.72900
H  27.80200 0.81900 47.14000
Mg 55.56600 24.69600 44.12800
C  52.92500 26.96800 43.13100
C  53.82700 22.27900 42.75900
C  58.27300 22.88400 44.46100
C  57.13500 27.49200 45.44900
N  53.76300 24.75600 42.77200
C  52.75900 25.71200 42.62800
C  51.42600 25.09300 42.13100
C  51.67300 23.60500 42.59300
C  53.19200 23.51700 42.67200
C  50.94000 23.13900 43.93500
C  51.11900 25.29800 40.63400
C  52.20100 25.71100 39.56000
H  51.77600 26.13600 38.19400
N  55.94300 22.81300 43.70100
C  55.13300 21.92100 43.09600
C  55.73300 20.62200 42.97100
C  57.02800 20.71200 43.54200
C  57.13100 22.18200 43.94300
C  55.08100 19.43600 42.29500
C  58.00000 19.65400 43.66400
O  57.75300 18.64100 43.04400
C  59.15100 19.79000 44.59800
N  57.44500 25.18000 44.78200
C  58.42200 24.21500 44.77800
C  59.76300 24.77800 45.23100
C  59.38000 26.25600 45.74100
C  57.93800 26.39300 45.30100
C  60.66700 23.94500 46.22100
C  60.32900 27.27600 45.12200
C  60.67800 28.60200 45.92500
N  55.14700 26.77500 44.30000
C  55.91600 27.74500 44.91800
C  55.17900 28.94800 44.85800
C  54.04300 28.70800 44.08900
C  54.05700 27.32600 43.83100
C  55.62400 30.22700 45.50900
C  52.84200 29.32000 43.56300
O  52.48400 30.49800 43.43400
C  51.94400 28.13500 43.24700
C  51.16500 28.37400 42.03300
O  51.45200 28.93200 40.97300
O  49.85800 28.02300 42.32000
C  48.94400 28.39500 41.23200
H  53.17700 21.48500 42.38500
H  59.20400 22.32800 44.59800
H  57.56900 28.38200 45.90900
H  50.58000 25.41300 42.73900
H  51.33200 22.89700 41.83700
H  51.52600 23.33600 44.83300
H  50.77600 22.06400 43.87100
H  49.87800 23.38400 43.94400
H  50.16500 25.80800 40.50300
H  50.69000 24.35400 40.29600
H  52.76100 24.77600 39.52100
H  52.95300 26.43200 39.88100
H  55.63900 19.15300 41.40200
H  54.09100 19.66500 41.90300
H  54.96600 18.71000 43.10000
H  58.74000 20.23600 45.50400
H  59.89500 20.45000 44.15100
H  59.45500 18.81600 44.98000
H  60.39900 24.80000 44.34600
H  59.41100 26.30700 46.83000
H  60.29500 22.92100 46.18600
H  60.50500 24.42300 47.18800
H  61.74500 23.94800 46.06400
H  59.92300 27.66500 44.18800
H  61.33300 26.94300 44.85900
H  60.75300 28.25100 46.95400
H  59.98000 29.39900 45.66600
H  61.67900 28.90600 45.61900
H  55.30200 30.15400 46.54800
H  55.23900 31.15200 45.07900
H  56.71200 30.21900 45.44800
H  51.30500 28.01300 44.12200
H  47.96600 28.04700 41.56300
H  49.16100 27.84800 40.31400
H  48.99800 29.48300 41.26900

