158

Mg -1.56900 17.69100 27.11600
C  -1.93700 15.41200 29.80900
C  -1.59300 20.24300 29.32800
C  -1.54800 19.64200 24.47200
C  -2.03600 14.86900 24.96400
N  -1.90100 17.84600 29.31700
C  -1.90000 16.81600 30.24000
C  -2.09600 17.37400 31.73000
C  -2.21100 18.92700 31.49000
C  -1.91500 19.03300 29.97500
C  -3.65700 19.43400 31.86500
C  -0.85200 17.00700 32.63700
C  -0.81600 17.75000 33.95100
H  -0.28000 16.93900 35.17600
N  -1.49300 19.62500 26.97000
C  -1.40300 20.56500 27.98200
C  -1.29400 21.85100 27.41300
C  -1.22000 21.69900 25.99600
C  -1.44800 20.25700 25.73300
C  -1.26000 23.14200 28.26300
C  -0.96500 22.82200 25.01400
O  -0.94400 22.56200 23.77500
C  -0.69600 24.28500 25.40200
N  -1.77900 17.29100 25.01000
C  -1.69900 18.26400 24.11300
C  -1.83800 17.72900 22.69800
C  -1.54100 16.21900 22.86400
C  -1.78900 16.09600 24.38100
C  -3.25700 18.01600 22.14600
C  -0.16000 15.66100 22.50300
C  1.05700 16.38900 23.01400
N  -1.88800 15.59100 27.26100
C  -2.18700 14.60500 26.33200
C  -2.41000 13.31300 26.96100
C  -2.29700 13.59500 28.33200
C  -1.93500 14.98400 28.46800
C  -2.74300 12.04900 26.32700
C  -2.32600 12.97600 29.59900
O  -2.53100 11.84400 29.98700
C  -2.10300 14.10600 30.68400
C  -0.87500 13.74100 31.47800
O  0.28100 14.04900 31.18700
O  -1.19500 13.07900 32.60100
C  -0.03200 12.85100 33.45400
H  -1.57700 21.07600 30.03500
H  -1.50700 20.30900 23.60900
H  -2.08400 14.17400 24.12300
H  -2.98700 16.91200 32.15600
H  -1.60100 19.45400 32.22400
H  -4.25700 18.78400 32.50100
H  -4.18900 19.59100 30.92600
H  -3.52100 20.37900 32.39100
H  0.02600 17.17900 32.01400
H  -0.86100 15.94800 32.89200
H  -1.77700 18.19800 34.20000
H  -0.10800 18.57800 33.91700
H  -2.20900 23.65900 28.11800
H  -0.39900 23.77500 28.04500
H  -1.16800 22.94500 29.33100
H  0.29400 24.38700 25.84600
H  -1.43600 24.77100 26.03800
H  -0.65700 24.84300 24.46700
H  -1.03000 18.19100 22.13000
H  -2.24800 15.69500 22.22100
H  -3.62300 18.89100 22.68400
H  -3.95900 17.19200 22.27400
H  -3.12400 18.21400 21.08300
H  -0.00900 15.58400 21.42600
H  -0.17000 14.62300 22.83700
H  1.59400 16.55400 22.08000
H  1.56800 15.80700 23.78000
H  0.77100 17.29600 23.54700
H  -2.99100 12.23500 25.28200
H  -3.54800 11.63300 26.93300
H  -1.87100 11.39600 26.35600
H  -2.96600 14.17500 31.34700
H  0.07700 13.72900 34.09100
H  0.95500 12.60800 33.06200
H  -0.43400 12.03800 34.05900
Mg -11.71000 15.70000 42.30700
C  -8.66800 13.85200 41.86600
C  -10.13000 18.42300 41.13600
C  -14.73300 17.10700 42.14000
C  -13.27700 12.57100 43.21500
N  -9.69500 15.98000 41.31700
C  -8.62300 15.19600 41.46700
C  -7.41900 15.96500 41.02700
C  -7.81900 17.44600 41.22500
C  -9.34800 17.29700 41.27000
C  -7.12200 18.19700 42.36200
C  -6.88200 15.53400 39.69600
C  -5.36800 15.72400 39.36900
H  -4.79600 16.72600 38.38700
N  -12.27800 17.57900 41.83000
C  -11.50200 18.62100 41.31400
C  -12.22300 19.79300 41.17900
C  -13.62800 19.37600 41.46400
C  -13.60400 17.96400 41.88800
C  -11.61700 21.13600 40.65500
C  -14.82700 20.31800 41.35800
O  -14.74500 21.48400 40.94400
C  -16.13600 19.84200 41.87400
N  -13.67200 14.91200 42.62900
C  -14.74700 15.78100 42.49000
C  -16.03800 14.96200 42.46400
C  -15.69400 13.55100 43.14500
C  -14.10500 13.66300 42.93500
C  -17.17300 15.57600 43.39600
C  -16.34400 12.32000 42.50000
C  -16.81000 11.18300 43.42400
N  -11.12700 13.62200 42.59400
C  -11.84600 12.51800 43.02300
C  -10.89900 11.36400 43.21800
C  -9.65600 11.85400 42.72000
C  -9.86800 13.22700 42.29500
C  -11.18500 10.06600 43.81600
C  -8.25100 11.53500 42.50700
O  -7.67600 10.46400 42.63600
C  -7.55900 12.76400 41.92100
C  -6.52100 13.28100 42.88900
O  -6.64500 13.84900 43.95800
O  -5.30200 13.16700 42.30200
C  -4.18900 13.54800 43.07500
H  -9.56700 19.32200 40.87500
H  -15.71600 17.53200 41.92700
H  -13.71000 11.68800 43.68900
H  -6.57100 15.95100 41.71300
H  -7.45300 18.03400 40.38300
H  -7.86300 18.77000 42.92000
H  -6.38900 18.85700 41.89900
H  -6.61900 17.56900 43.09800
H  -7.45400 16.23600 39.08900
H  -7.30000 14.55900 39.44700
H  -5.01100 14.73200 39.09100
H  -4.90600 16.02700 40.30900
H  -10.55800 21.18900 40.90600
H  -12.17800 21.97100 41.07600
H  -11.81600 21.25000 39.58900
H  -16.51300 19.13600 41.13400
H  -16.76800 20.72900 41.84000
H  -16.06100 19.43800 42.88400
H  -16.38300 14.92600 41.43100
H  -15.69300 13.41800 44.22700
H  -18.14200 15.49200 42.90500
H  -16.95400 16.64100 43.46000
H  -17.30400 15.08800 44.36200
H  -15.75600 11.85800 41.70700
H  -17.21400 12.77000 42.02100
H  -16.47500 11.23400 44.46000
H  -16.33900 10.31100 42.97000
H  -17.88600 11.01600 43.46500
H  -10.78200 9.30200 43.15100
H  -12.25600 9.88700 43.91300
H  -10.63200 9.89100 44.73900
H  -7.14200 12.34800 41.00400
H  -3.31500 13.75700 42.45800
H  -3.92300 12.71100 43.72100
H  -4.30300 14.46000 43.66100

