158

Mg 50.92200 45.64700 42.45500
C  47.74600 46.72400 41.05300
C  49.99400 42.53900 41.09300
C  54.06200 44.72700 42.76300
C  51.72700 49.02300 42.80100
N  49.13800 44.77300 41.01700
C  47.94500 45.40200 40.86500
C  46.99700 44.37500 40.29500
C  47.55600 43.04400 40.71900
C  49.01000 43.46100 40.99400
C  46.92800 42.31700 42.04000
C  46.71700 44.57600 38.79300
C  45.36300 44.42200 38.16000
H  45.33400 43.53300 36.94100
N  51.92900 43.88600 41.92100
C  51.31400 42.68700 41.52300
C  52.36500 41.70200 41.66100
C  53.58000 42.31000 42.10900
C  53.20600 43.66500 42.38000
C  52.22700 40.27800 41.21700
C  54.88200 41.52300 42.41500
O  54.99700 40.32100 42.12900
C  56.05300 42.05700 43.06300
N  52.64600 46.69600 42.72100
C  53.81800 46.06800 42.96000
C  55.00700 47.04800 43.26300
C  54.21400 48.45600 43.15000
C  52.80500 48.10100 42.87200
C  55.67000 46.73700 44.59100
C  54.89300 49.43200 42.07800
C  55.27000 50.81000 42.61700
N  49.90400 47.56900 42.28900
C  50.37300 48.84000 42.47200
C  49.27100 49.74600 42.29700
C  48.24100 49.00400 41.72000
C  48.66800 47.66900 41.68800
C  49.36300 51.26900 42.46500
C  46.93500 49.03700 41.24200
O  46.09100 49.96200 41.18800
C  46.56700 47.57800 40.71300
C  45.36100 47.09200 41.43500
O  45.27200 46.84500 42.63700
O  44.25200 47.09700 40.58600
C  42.83800 46.94200 41.07900
H  49.87700 41.46800 40.91400
H  55.08500 44.56700 43.10700
H  52.10000 50.04700 42.87300
H  46.06000 44.37000 40.85100
H  47.48600 42.25100 39.97400
H  46.29900 41.48100 41.73300
H  46.25500 43.03700 42.50600
H  47.69500 41.96300 42.72800
H  47.50900 44.03800 38.27200
H  46.94800 45.62200 38.59200
H  44.64900 45.24500 38.13400
H  44.84900 43.73200 38.82900
H  52.69500 39.61600 41.94700
H  52.80400 40.20200 40.29500
H  51.25400 39.90100 40.90500
H  55.78100 42.65700 43.93100
H  56.60300 42.65000 42.33200
H  56.74200 41.26100 43.34400
H  55.73400 46.95000 42.45700
H  54.39200 48.89100 44.13400
H  56.66300 46.32400 44.41600
H  55.13500 46.01700 45.21100
H  55.73800 47.67500 45.14200
H  54.15200 49.66400 41.31300
H  55.70500 49.06800 41.44900
H  54.63500 51.52500 42.09200
H  56.29000 51.16600 42.47600
H  54.96600 50.91600 43.65800
H  50.37900 51.66000 42.51200
H  48.97200 51.49000 43.45800
H  48.83800 51.71000 41.61800
H  46.30200 47.66600 39.65900
H  42.76400 47.34800 42.08800
H  42.47200 45.92100 41.19400
H  42.17300 47.50800 40.42700
Mg 49.65300 34.80300 26.97200
C  47.50800 33.88400 29.54800
C  50.04800 37.93200 28.45200
C  51.47200 35.81100 24.28200
C  48.91500 31.68200 25.31700
N  48.75900 35.88600 28.71600
C  48.10900 35.18900 29.76400
C  48.17100 36.02600 31.09900
C  48.59900 37.49900 30.56500
C  49.12200 37.12700 29.16300
C  47.37500 38.49000 30.47200
C  49.17300 35.35500 32.07400
C  48.64900 35.27000 33.51700
H  47.57900 36.21900 34.06900
N  50.75500 36.53800 26.44200
C  50.73700 37.73700 27.17900
C  51.61800 38.70200 26.53800
C  52.06900 38.07100 25.36700
C  51.40800 36.74900 25.29200
C  51.80600 40.12100 27.09100
C  53.10000 38.65200 24.42500
O  53.43500 38.02900 23.42900
C  53.67900 39.95000 24.60700
N  49.88300 33.99600 24.99000
C  50.78900 34.60700 24.11100
C  51.22100 33.65200 22.95000
C  50.44700 32.32200 23.31300
C  49.72700 32.61900 24.64100
C  50.86200 34.19400 21.57700
C  51.42800 31.05200 23.37400
C  51.34200 30.08700 22.21800
N  48.42700 33.10900 27.29000
C  48.29200 31.89000 26.57800
C  47.27900 31.08000 27.27300
C  47.00500 31.80700 28.47300
C  47.72500 33.00800 28.46300
C  46.83600 29.69500 26.87800
C  46.23500 31.74200 29.66500
O  45.36000 30.94500 29.91300
C  46.66100 32.95000 30.54200
C  47.49400 32.38600 31.59200
O  48.63000 31.97700 31.46800
O  46.72200 32.23200 32.69000
C  47.34600 31.63200 33.90800
H  50.08300 38.94900 28.84800
H  52.15000 36.11200 23.48100
H  48.75600 30.72100 24.82200
H  47.19000 35.99900 31.57400
H  49.45600 37.91900 31.09300
H  47.48900 39.23600 29.68500
H  47.35700 39.14400 31.34400
H  46.44000 37.95400 30.30900
H  50.11800 35.89000 32.17100
H  49.53300 34.37500 31.76200
H  49.55100 35.34400 34.12400
H  48.27600 34.25500 33.65600
H  51.21900 40.72800 26.40300
H  52.83800 40.47200 27.10400
H  51.45000 40.24500 28.11400
H  53.14000 40.89700 24.59300
H  54.41100 40.02700 23.80300
H  54.22400 39.97100 25.55100
H  52.28000 33.40400 23.01800
H  49.78600 32.21000 22.45300
H  51.71400 33.80500 21.02000
H  51.02000 35.27200 21.53400
H  49.90700 33.87100 21.16200
H  51.22600 30.50600 24.29500
H  52.44100 31.44100 23.47300
H  50.87400 29.15900 22.54500
H  52.27800 29.87400 21.70100
H  50.62000 30.49400 21.51100
H  45.85800 29.63000 27.35500
H  47.46600 28.94700 27.36000
H  46.83200 29.57300 25.79500
H  45.71800 33.33600 30.92900
H  47.04400 30.58600 33.85600
H  46.85200 32.13600 34.74000
H  48.41300 31.84000 33.98800

