158

Mg 2.23000 -1.86900 44.29000
C  5.67100 -1.35800 43.96500
C  1.62900 0.72600 42.15800
C  -1.03200 -2.70400 44.36300
C  3.04200 -5.02300 45.73200
N  3.55400 -0.52600 43.09400
C  4.98600 -0.45800 43.17400
C  5.41900 0.68400 42.21200
C  4.10400 1.41100 41.71100
C  3.02500 0.49900 42.40300
C  3.89500 2.86300 41.98400
C  6.28500 0.15000 41.03800
C  7.62800 0.90600 40.90400
H  7.99300 1.24100 39.45600
N  0.53800 -1.09800 43.32000
C  0.53500 -0.01100 42.49600
C  -0.81400 0.22100 42.13400
C  -1.59100 -0.77300 42.79100
C  -0.72800 -1.58100 43.54800
C  -1.20800 1.35100 41.27100
C  -3.06600 -0.96500 42.44000
O  -3.54100 -0.29800 41.55200
C  -3.95400 -1.86100 43.19500
N  1.18700 -3.67000 44.85300
C  -0.17000 -3.67000 44.88200
C  -0.75300 -4.89900 45.56200
C  0.61200 -5.76100 45.56500
C  1.70400 -4.80600 45.33200
C  -1.43100 -4.71600 46.91200
C  0.74200 -7.09600 44.67400
C  0.23300 -8.36900 45.35100
N  3.93700 -3.00500 44.82100
C  4.12600 -4.21000 45.40300
C  5.56800 -4.43300 45.70100
C  6.18400 -3.24400 45.24600
C  5.17500 -2.49100 44.61700
C  6.17500 -5.61800 46.41900
C  7.39600 -2.46000 45.13500
O  8.52100 -2.79600 45.53300
C  7.14200 -1.32100 44.27000
C  7.35100 -0.01600 44.87800
O  6.89100 0.42100 45.93800
O  8.16400 0.77600 44.09000
C  8.21400 2.18000 44.40100
H  1.50500 1.56300 41.46700
H  -2.09300 -2.94600 44.44400
H  3.35400 -5.95600 46.20600
H  5.99200 1.42500 42.76900
H  4.01900 1.31500 40.62900
H  4.09900 3.42900 41.07500
H  4.59300 3.31100 42.69100
H  2.85300 3.06200 42.23500
H  5.74200 0.03200 40.10000
H  6.57800 -0.89600 41.12300
H  8.40900 0.20800 41.20400
H  7.61900 1.83000 41.48100
H  -2.18500 1.74100 41.55600
H  -1.35700 0.99700 40.25100
H  -0.59700 2.25300 41.26400
H  -4.98400 -1.67300 42.88900
H  -3.79200 -1.55300 44.22700
H  -3.65900 -2.88900 42.98400
H  -1.51300 -5.38800 44.95200
H  0.70000 -6.10300 46.59600
H  -2.32300 -4.09900 46.79600
H  -0.61500 -4.29000 47.49600
H  -1.67000 -5.62000 47.47200
H  1.78900 -7.20400 44.38900
H  0.09900 -6.97300 43.80300
H  1.05300 -8.71600 45.98000
H  0.15600 -9.22500 44.68000
H  -0.63500 -8.25300 46.00000
H  6.25000 -6.47200 45.74700
H  5.46300 -6.01700 47.14100
H  7.11600 -5.27800 46.85100
H  7.85100 -1.33800 43.44200
H  8.66500 2.37900 45.37300
H  7.25500 2.68800 44.29700
H  8.87000 2.74800 43.74100
Mg 0.39100 7.93000 25.65400
C  1.17100 9.53100 28.65600
C  0.06000 4.93100 27.45700
C  0.42700 6.16800 22.78600
C  1.41000 10.74200 23.84100
N  0.73200 7.30600 27.80000
C  0.84800 8.18200 28.88500
C  0.76000 7.47600 30.24100
C  0.63100 6.01600 29.72700
C  0.39700 6.08600 28.22500
C  1.79600 5.10900 30.14000
C  -0.46600 7.83800 31.17300
C  -0.45600 7.41000 32.67900
H  0.76900 6.69600 33.30100
N  0.08400 5.88100 25.18500
C  -0.00300 4.80300 26.06600
C  -0.24400 3.60600 25.33000
C  -0.09300 3.90700 23.94300
C  0.18200 5.38100 23.94200
C  -0.49200 2.33400 26.11900
C  -0.22100 2.97000 22.73200
O  0.03000 3.32400 21.58300
C  -0.45500 1.46200 23.00600
N  0.90000 8.43400 23.60800
C  0.67700 7.49800 22.60300
C  0.92500 8.09700 21.20500
C  1.22500 9.57800 21.52500
C  1.10900 9.65700 23.10200
C  2.10000 7.27900 20.50500
C  0.13800 10.55700 20.89200
C  -1.23600 10.87100 21.56200
N  1.17900 9.78800 26.11700
C  1.47200 10.87100 25.27000
C  1.81800 12.01100 26.17100
C  1.72400 11.54900 27.46900
C  1.32400 10.18900 27.38300
C  2.04500 13.46900 25.75900
C  1.78000 11.93900 28.82200
O  2.22000 13.01100 29.23200
C  1.44800 10.65200 29.69100
C  2.55000 10.34600 30.58800
O  3.49800 9.62000 30.29200
O  2.37900 10.88200 31.81300
C  3.55800 10.65200 32.71100
H  -0.14200 4.00400 27.99800
H  0.22800 5.69200 21.82300
H  1.54300 11.71400 23.36100
H  1.63500 7.63000 30.87200
H  -0.22300 5.53400 30.20200
H  1.43700 4.15100 30.51500
H  2.38000 5.57700 30.93200
H  2.45900 5.06000 29.27700
H  -1.38200 7.48900 30.69700
H  -0.58800 8.92100 31.18100
H  -1.37600 6.84900 32.84000
H  -0.51400 8.28200 33.33000
H  -1.01200 2.54700 27.05300
H  0.45300 1.82100 26.29900
H  -1.07100 1.60900 25.54900
H  -0.65200 0.87100 22.11100
H  -1.38400 1.42600 23.57400
H  0.45400 1.10000 23.48600
H  0.02300 7.99000 20.60300
H  2.18800 9.94400 21.16900
H  2.63200 6.77700 21.31300
H  2.81900 7.99200 20.09900
H  1.70900 6.56600 19.77800
H  -0.08200 10.04800 19.95300
H  0.63800 11.47600 20.58600
H  -1.17900 11.80500 22.12100
H  -1.55800 10.14600 22.30900
H  -2.08200 10.99900 20.88600
H  1.42300 13.55800 24.86900
H  3.08300 13.61500 25.45700
H  1.68700 14.13800 26.54200
H  0.53800 10.92200 30.22800
H  4.49700 10.73300 32.16400
H  3.50200 9.62800 33.08000
H  3.47700 11.36000 33.53600

