158

Mg 48.22500 34.66100 26.49300
C  46.32800 33.17000 29.20200
C  48.53800 37.47200 28.41300
C  49.57900 36.11500 23.83800
C  46.98300 32.07400 24.43100
N  47.62700 35.16200 28.66000
C  46.90300 34.40800 29.50200
C  46.86900 35.12400 30.82900
C  47.16300 36.61600 30.44800
C  47.85800 36.39800 29.09500
C  45.94500 37.64000 30.41400
C  47.89800 34.55400 31.81600
C  47.37200 34.39600 33.18300
H  46.49400 35.53900 33.69600
N  49.07500 36.45100 26.23500
C  49.22100 37.46400 27.14600
C  50.08200 38.50400 26.58800
C  50.33000 38.15200 25.26400
C  49.65400 36.86000 25.09800
C  50.53200 39.59700 27.42700
C  51.04800 38.87600 24.19600
O  51.24900 38.41600 23.06300
C  51.55900 40.22000 24.55400
N  48.25200 34.22400 24.33600
C  48.86600 34.97300 23.45800
C  48.88200 34.34300 22.11900
C  48.00700 33.08800 22.24800
C  47.75600 33.05300 23.75400
C  48.32700 35.32000 20.98700
C  48.64100 31.84000 21.63800
C  47.63100 30.82500 21.08900
N  47.03900 32.95100 26.71800
C  46.63500 31.99100 25.78300
C  45.77100 30.95900 26.49900
C  45.70000 31.42000 27.81000
C  46.45500 32.62200 27.91000
C  45.13400 29.67500 25.96900
C  45.13400 31.03900 29.09000
O  44.45900 30.09800 29.50700
C  45.40400 32.29200 29.93900
C  45.78700 31.86700 31.27200
O  46.84900 31.41900 31.63000
O  44.69600 31.98300 32.06300
C  44.90800 31.34200 33.33500
H  48.51000 38.42000 28.95500
H  50.03400 36.50500 22.92500
H  46.58300 31.25000 23.83700
H  45.81000 34.96700 31.03100
H  47.86500 37.11600 31.11500
H  45.09300 37.27500 30.98700
H  45.70300 37.64800 29.35100
H  46.23000 38.60800 30.82500
H  48.74000 35.24400 31.75200
H  48.29300 33.60500 31.45100
H  48.17400 34.37900 33.92200
H  46.89000 33.41800 33.17700
H  50.58400 39.36100 28.49000
H  49.88000 40.46900 27.48300
H  51.53200 39.88800 27.10700
H  50.99200 40.70600 25.34800
H  51.44400 40.85600 23.67700
H  52.59700 40.05300 24.84100
H  49.93400 34.08400 21.99700
H  46.99500 33.25300 21.87900
H  47.64200 34.84500 20.28500
H  49.20300 35.68200 20.44900
H  47.71100 35.91100 21.66500
H  49.18300 31.37900 22.46400
H  49.38800 32.09300 20.88600
H  47.66000 30.96400 20.00800
H  46.60100 31.04300 21.36900
H  47.84300 29.79700 21.38200
H  44.75100 29.04700 26.77400
H  45.82600 29.09700 25.35700
H  44.25000 29.93700 25.38800
H  44.43700 32.78900 30.02000
H  43.94500 31.18300 33.82100
H  45.57800 32.02800 33.85300
H  45.33900 30.34300 33.28000
Mg -13.18800 38.46100 41.51000
C  -11.05600 35.77100 40.51400
C  -11.11700 40.58500 39.99500
C  -15.59800 40.76700 41.91000
C  -15.60900 35.94400 42.54900
N  -11.31000 38.28300 40.42000
C  -10.64900 37.04600 40.07600
C  -9.35600 37.33800 39.28500
C  -9.48900 38.87600 39.14200
C  -10.69700 39.28000 39.94500
C  -8.21500 39.71600 39.43200
C  -9.12900 36.48800 38.00000
C  -7.66600 35.92300 37.80100
H  -6.67900 36.73800 36.99700
N  -13.29200 40.45500 41.08800
C  -12.33300 41.14600 40.43300
C  -12.78600 42.49300 40.27000
C  -14.17900 42.55200 40.66200
C  -14.44700 41.21200 41.22600
C  -11.97700 43.57800 39.59300
C  -15.16600 43.66100 40.40900
O  -14.74700 44.75300 39.98000
C  -16.56200 43.42300 40.55100
N  -15.33900 38.34400 42.18600
C  -16.10800 39.46900 42.23800
C  -17.57800 39.21400 42.64200
C  -17.51300 37.65800 42.93100
C  -16.06000 37.25500 42.55000
C  -18.09900 40.07700 43.84000
C  -18.71300 36.93600 42.33200
C  -18.56600 36.60500 40.82900
N  -13.30200 36.36100 41.65900
C  -14.30100 35.53300 42.17100
C  -13.82200 34.16000 42.13300
C  -12.51700 34.25400 41.66800
C  -12.28300 35.60200 41.25800
C  -14.53200 32.88600 42.70700
C  -11.39600 33.44300 41.28500
O  -11.39700 32.15300 41.21100
C  -10.40200 34.39000 40.59300
C  -9.17500 34.42000 41.47900
O  -9.05400 35.00500 42.53800
O  -8.10900 33.72200 40.84600
C  -6.88200 33.52100 41.66000
H  -10.44200 41.30100 39.52100
H  -16.45400 41.44000 42.00000
H  -16.26800 35.13300 42.86500
H  -8.58500 37.17900 40.03900
H  -9.89900 38.99400 38.13900
H  -7.93000 40.31000 38.56400
H  -7.39000 39.02000 39.58100
H  -8.35900 40.38800 40.27800
H  -9.45200 37.11900 37.17200
H  -9.84200 35.66500 37.94600
H  -7.67800 34.93500 37.34200
H  -7.20400 35.75400 38.77400
H  -11.83900 44.36800 40.33200
H  -12.32800 44.03600 38.66800
H  -11.00900 43.16000 39.31700
H  -16.83100 42.48200 40.07300
H  -17.15300 44.13900 39.98000
H  -16.81900 43.51300 41.60700
H  -18.15500 39.41900 41.74000
H  -17.47800 37.52500 44.01300
H  -18.43100 39.51200 44.71100
H  -18.95100 40.67100 43.50900
H  -17.33600 40.82100 44.06900
H  -19.65500 37.44300 42.53900
H  -18.77900 35.98700 42.86300
H  -19.52700 36.79300 40.35100
H  -18.25000 35.56700 40.72800
H  -17.68100 37.16400 40.52600
H  -14.28700 31.99600 42.12800
H  -15.59300 33.12000 42.80400
H  -14.08700 32.78900 43.69700
H  -10.06900 34.09300 39.59800
H  -6.00900 33.63200 41.01700
H  -6.79700 32.60000 42.23700
H  -6.73200 34.41600 42.26500

