158

Mg 35.90300 49.57200 25.51700
C  36.00800 48.01500 28.57800
C  34.75700 52.47600 27.05700
C  35.43500 50.95900 22.42100
C  36.69400 46.45800 23.96500
N  35.29100 50.10700 27.51800
C  35.52200 49.32200 28.65000
C  35.33600 50.07100 29.94700
C  34.64000 51.47900 29.38800
C  34.89000 51.37400 27.91300
C  33.19800 51.76100 29.91500
C  36.63500 50.28900 30.78400
C  36.44300 50.25200 32.33700
H  35.00400 50.66100 32.93700
N  35.26300 51.51100 24.81300
C  34.86600 52.52800 25.59900
C  34.74100 53.73300 24.71800
C  35.01300 53.32500 23.34600
C  35.27100 51.88300 23.50000
C  34.46400 55.08600 25.34200
C  35.10900 54.13300 22.07900
O  35.26100 53.66000 21.00100
C  34.62300 55.61200 22.22600
N  36.07600 48.85300 23.47900
C  35.78400 49.58900 22.38300
C  36.01600 48.82700 21.13200
C  36.62600 47.40700 21.67000
C  36.46900 47.58700 23.12800
C  34.68500 48.82900 20.25300
C  38.13200 47.19500 21.22800
C  39.15400 48.27000 21.62100
N  36.29300 47.64100 26.10400
C  36.64600 46.52900 25.37300
C  36.95300 45.43300 26.28300
C  36.69300 45.97100 27.61100
C  36.31400 47.29600 27.39300
C  37.39700 44.14900 25.77800
C  36.69400 45.62900 29.08500
O  37.06900 44.64400 29.69700
C  36.20200 46.98300 29.74500
C  34.90200 46.68800 30.40600
O  33.85300 46.59100 29.78200
O  35.07900 46.66200 31.76300
C  33.91700 46.53700 32.60400
H  34.40000 53.37500 27.56400
H  35.45500 51.28600 21.38000
H  37.06000 45.50500 23.57900
H  34.67400 49.61100 30.68000
H  35.27200 52.28400 29.76200
H  32.83400 50.85900 30.40500
H  32.53000 52.10400 29.12500
H  33.14100 52.58000 30.63200
H  37.05900 51.27500 30.59300
H  37.34900 49.54400 30.43600
H  37.18800 50.97800 32.66300
H  36.74900 49.28300 32.73000
H  35.01500 55.78100 24.70800
H  34.79400 55.27900 26.36300
H  33.37800 55.15800 25.29200
H  35.46400 56.18700 22.61400
H  33.80000 55.71900 22.93200
H  34.31600 55.90200 21.22100
H  36.71100 49.42800 20.54500
H  36.05300 46.61400 21.18900
H  33.83500 49.11700 20.87300
H  34.48100 47.85900 19.80100
H  34.72000 49.62100 19.50500
H  38.18300 47.32800 20.14700
H  38.46900 46.18600 21.46600
H  38.75600 49.07200 22.24300
H  39.69900 48.56400 20.72400
H  39.87400 47.78300 22.27900
H  37.60600 43.54600 26.66200
H  38.31300 44.24000 25.19500
H  36.55800 43.70700 25.24000
H  36.99100 47.34700 30.40400
H  33.08100 47.07000 32.15100
H  34.27100 46.98700 33.53200
H  33.68000 45.49400 32.81400
Mg 26.27700 51.85900 25.91300
C  23.91800 52.71800 28.26600
C  28.55500 50.92700 28.35200
C  28.53600 51.33200 23.43900
C  24.03500 53.02800 23.42100
N  26.21300 51.91600 28.13900
C  25.05700 52.17000 28.86700
C  25.47900 52.05400 30.35100
C  27.01100 51.52300 30.35600
C  27.31900 51.45000 28.84700
C  28.04800 52.30100 31.20700
C  24.51000 51.06900 31.17800
C  23.93100 51.64600 32.44900
H  24.10000 50.88400 33.81400
N  28.23800 51.13900 25.93300
C  29.04500 50.78500 27.04000
C  30.29700 50.25800 26.61100
C  30.32200 50.36100 25.19800
C  28.98300 50.90000 24.77700
C  31.31100 49.76800 27.66000
C  31.44700 49.96400 24.30300
O  31.36500 50.16400 23.05000
C  32.54100 49.24200 24.83300
N  26.30100 52.20900 23.68400
C  27.40600 52.00900 22.93500
C  27.13300 52.23600 21.39600
C  25.66800 52.83000 21.41100
C  25.31800 52.72800 22.89800
C  28.22400 53.08000 20.63000
C  24.65300 52.08500 20.36700
C  24.64000 52.61800 18.92000
N  24.41900 52.64100 25.83000
C  23.64600 53.04400 24.73700
C  22.31600 53.43100 25.20600
C  22.36700 53.34900 26.58000
C  23.68400 52.94100 26.87900
C  21.13400 53.93600 24.36600
C  21.59700 53.59500 27.74100
O  20.57400 54.18700 27.92700
C  22.59300 53.13400 28.92900
C  22.74500 54.31600 29.85700
O  23.52600 55.19800 29.74200
O  21.85900 54.05200 30.91400
C  21.90500 54.86000 32.13500
H  29.26200 50.69600 29.15200
H  29.29600 51.15200 22.67500
H  23.29400 53.12300 22.62500
H  25.29700 53.06400 30.71900
H  27.17100 50.50000 30.69600
H  27.51800 53.22700 31.42800
H  28.96700 52.41100 30.63200
H  28.28700 51.72200 32.09900
H  25.09300 50.20000 31.48200
H  23.73500 50.78900 30.46500
H  22.86200 51.70000 32.24300
H  24.38700 52.62700 32.58200
H  32.32600 50.14400 27.53100
H  31.32500 48.68700 27.79500
H  31.05900 50.19400 28.63200
H  33.09300 49.90000 25.50500
H  33.24900 49.10400 24.01600
H  32.21500 48.32900 25.33200
H  27.10200 51.21500 21.01400
H  25.68800 53.86200 21.06000
H  28.76400 53.58300 21.43200
H  27.71200 53.79000 19.98000
H  28.92400 52.64700 19.91500
H  23.67300 52.07200 20.84500
H  25.14900 51.14500 20.12900
H  23.66500 53.00700 18.62500
H  24.89300 51.79300 18.25400
H  25.43800 53.34000 18.75000
H  21.03500 53.34900 23.45300
H  21.30300 54.98700 24.13300
H  20.18100 53.81900 24.88200
H  22.19300 52.29800 29.50300
H  22.50700 54.20200 32.76200
H  20.89900 54.92200 32.54900
H  22.21600 55.89000 31.96200

