158

Mg 2.54600 -0.95000 44.55300
C  5.82100 -0.52600 43.35500
C  1.55600 1.53100 42.37200
C  -0.61700 -2.08600 44.88400
C  3.66200 -4.11400 45.81900
N  3.62400 0.37100 43.10100
C  4.96900 0.44200 42.76900
C  5.30200 1.44600 41.65200
C  3.96900 2.22100 41.51600
C  2.95100 1.36800 42.34300
C  3.95500 3.69100 42.21300
C  5.82800 0.69500 40.33900
C  7.01100 1.34500 39.72400
H  6.77300 1.87500 38.29000
N  0.77900 -0.27800 43.92100
C  0.56400 0.82400 43.08500
C  -0.82900 1.11800 42.96700
C  -1.53800 0.03500 43.55700
C  -0.46600 -0.84100 44.18900
C  -1.35200 2.21800 42.04400
C  -3.04700 -0.16800 43.65300
O  -3.79600 0.68600 43.21100
C  -3.72800 -1.38500 44.32800
N  1.62500 -2.88100 45.33600
C  0.27400 -3.01400 45.40400
C  -0.11300 -4.41900 46.13200
C  1.31500 -5.16200 46.15600
C  2.29000 -3.95500 45.81800
C  -0.73200 -4.16400 47.53800
C  1.47500 -6.35100 45.12800
C  2.04600 -7.63900 45.77500
N  4.36800 -2.07100 44.90800
C  4.67000 -3.31300 45.33400
C  6.13000 -3.48500 45.28600
C  6.61300 -2.46900 44.51700
C  5.47100 -1.60200 44.27400
C  6.78000 -4.76700 45.68800
C  7.80400 -1.90000 43.96800
O  8.95900 -2.33000 43.98200
C  7.33900 -0.60400 43.20900
C  8.10300 0.45400 43.99500
O  8.15300 0.46600 45.20700
O  8.79000 1.39200 43.21400
C  9.68600 2.36500 43.87900
H  1.32100 2.50000 41.92600
H  -1.59600 -2.56500 44.95800
H  3.97800 -5.11100 46.13400
H  6.03800 2.04100 42.19200
H  3.68400 2.26700 40.46400
H  3.35500 4.37600 41.61400
H  4.98500 4.03600 42.31300
H  3.58000 3.66800 43.23600
H  4.95400 0.65700 39.68800
H  6.00700 -0.33300 40.65400
H  7.73400 0.52900 39.70700
H  7.43000 2.14400 40.33600
H  -2.37000 2.01200 41.71300
H  -0.74900 2.21000 41.13600
H  -1.33400 3.22200 42.46700
H  -4.81700 -1.38100 44.29500
H  -3.38700 -1.46400 45.36000
H  -3.38900 -2.26800 43.78700
H  -0.85000 -5.03000 45.61100
H  1.52200 -5.44600 47.18800
H  -1.15100 -3.16000 47.60500
H  0.03500 -4.36500 48.28500
H  -1.50200 -4.91300 47.72300
H  2.05400 -6.05100 44.25400
H  0.50500 -6.55800 44.67500
H  2.17000 -7.61500 46.85800
H  3.08800 -7.84300 45.52800
H  1.48100 -8.53800 45.52700
H  6.40200 -5.51700 44.99300
H  6.45300 -4.91400 46.71700
H  7.85600 -4.59500 45.68400
H  7.66200 -0.62200 42.16800
H  8.97800 3.06200 44.32500
H  10.33000 2.87100 43.15900
H  10.37200 1.82800 44.53500
Mg 53.65700 23.73000 44.51300
C  50.91900 25.72300 43.80900
C  51.99900 21.06400 43.04800
C  56.60800 22.04600 44.40700
C  55.42600 26.56800 45.41600
N  51.74800 23.55100 43.34100
C  50.76000 24.42700 43.38900
C  49.60900 23.91500 42.49200
C  49.75500 22.33700 42.61700
C  51.28800 22.28300 43.02000
C  48.66200 21.54200 43.52700
C  49.74000 24.36900 41.03000
C  48.45200 24.36800 40.14500
H  48.03000 22.95300 39.63100
N  54.18300 21.81600 43.82800
C  53.27100 20.82900 43.41800
C  53.89800 19.56700 43.42600
C  55.25900 19.81400 43.83200
C  55.44200 21.28400 44.02000
C  53.23200 18.26500 43.14600
C  56.32600 18.71300 43.87500
O  56.09900 17.55900 43.55800
C  57.69900 18.94900 44.28300
N  55.83900 24.29600 44.53300
C  56.77100 23.39000 44.67300
C  58.15400 23.99100 44.83400
C  57.82200 25.53000 45.15200
C  56.23300 25.49700 45.05000
C  58.98000 23.22300 45.91800
C  58.48700 26.58000 44.19800
C  59.65900 27.31300 44.81400
N  53.23100 25.70700 44.75500
C  54.04300 26.73900 45.17400
C  53.28700 27.93600 45.40900
C  52.02800 27.60900 44.87400
C  52.05900 26.23900 44.47000
C  53.79800 29.07900 46.14000
C  50.69800 28.12600 44.58800
O  50.18900 29.21700 44.81500
C  50.01100 26.88000 43.73900
C  49.55700 27.42100 42.47200
O  50.27800 27.88500 41.60700
O  48.23100 27.36400 42.44100
C  47.51000 28.06300 41.35700
H  51.51000 20.14400 42.72300
H  57.52600 21.48700 44.59800
H  55.97700 27.41900 45.82200
H  48.64400 24.27000 42.85400
H  49.70500 21.88000 41.62800
H  48.63600 21.88300 44.56200
H  49.01900 20.51300 43.56900
H  47.65600 21.35500 43.15300
H  50.40200 23.69700 40.48300
H  50.11800 25.37700 40.86100
H  48.75700 25.04400 39.34700
H  47.61100 24.77400 40.70700
H  53.70300 17.50900 43.77400
H  53.41500 17.97300 42.11200
H  52.17500 18.32800 43.40700
H  58.17200 19.37900 43.40100
H  58.11700 17.98000 44.55500
H  57.71800 19.53700 45.20100
H  58.53000 23.90300 43.81500
H  57.94900 25.81000 46.19800
H  59.48600 23.84800 46.65300
H  59.66900 22.54200 45.41600
H  58.25800 22.66300 46.51200
H  57.75900 27.38000 44.06600
H  58.91000 26.22300 43.25900
H  59.30800 28.31800 45.05000
H  60.57300 27.24100 44.22500
H  59.94900 26.88300 45.77300
H  54.86700 29.29600 46.13900
H  53.58400 29.03400 47.20800
H  53.26300 29.93500 45.72800
H  49.05600 26.72900 44.24100
H  47.95400 27.70500 40.42800
H  47.79500 29.11400 41.39300
H  46.42600 27.94900 41.33700

