158

Mg 35.21200 48.51900 25.40100
C  35.80600 46.46100 28.12200
C  34.19000 51.03200 27.44100
C  34.69700 50.47800 22.69900
C  36.19400 45.93000 23.34200
N  34.78400 48.64500 27.50600
C  35.32500 47.71300 28.46700
C  35.25100 48.33800 29.88500
C  34.43100 49.64500 29.57800
C  34.49900 49.81200 28.04900
C  33.04900 49.83600 30.32300
C  36.62800 48.60300 30.44400
C  36.77800 48.46000 31.96800
H  35.49500 48.38000 32.85400
N  34.46300 50.49200 25.12100
C  34.28200 51.39100 26.09400
C  34.03000 52.70600 25.52100
C  34.08000 52.57300 24.12100
C  34.44300 51.15300 23.91900
C  33.70800 53.82600 26.49200
C  33.83700 53.55900 22.99400
O  34.04800 53.27700 21.82000
C  33.52800 54.99000 23.35600
N  35.26900 48.23800 23.28700
C  35.11800 49.17000 22.39900
C  35.39800 48.65000 20.98700
C  35.98700 47.29400 21.22100
C  35.80900 47.15400 22.74300
C  34.22900 48.74800 19.87800
C  37.47200 47.12700 20.71100
C  38.65800 46.94300 21.68200
N  35.77600 46.57300 25.62800
C  36.13300 45.63300 24.68300
C  36.50800 44.38600 25.34200
C  36.44600 44.72000 26.69700
C  35.87000 46.00000 26.81600
C  36.81000 43.03500 24.74400
C  36.64700 44.24800 28.00900
O  37.03100 43.13900 28.36200
C  36.31400 45.41000 29.04000
C  35.23500 44.96400 29.97200
O  34.08200 44.86400 29.63800
O  35.59500 44.84600 31.32700
C  34.50800 44.38400 32.20500
H  34.10000 51.78100 28.23100
H  34.60400 51.09800 21.80500
H  36.53700 45.03900 22.81300
H  34.72200 47.66800 30.56300
H  35.03000 50.43500 30.03100
H  32.33900 50.13700 29.55200
H  33.20400 50.69800 30.97100
H  32.73000 48.88600 30.75300
H  36.99800 49.58700 30.15700
H  37.35800 47.92800 29.99600
H  37.27500 49.35900 32.33300
H  37.44900 47.62900 32.18700
H  33.08900 53.43000 27.29700
H  33.13100 54.52900 25.89100
H  34.58000 54.34400 26.89200
H  32.60600 55.16000 23.91200
H  33.48000 55.65600 22.49400
H  34.36100 55.36800 23.94900
H  36.18500 49.32600 20.65400
H  35.43200 46.50500 20.71400
H  34.07800 47.75400 19.45700
H  34.54300 49.44100 19.09700
H  33.23600 49.07800 20.18000
H  37.73000 47.90200 19.99000
H  37.37700 46.20000 20.14500
H  39.49500 47.49400 21.25100
H  38.97900 45.91200 21.82600
H  38.44500 47.38100 22.65700
H  37.41300 43.19500 23.85000
H  35.97000 42.42100 24.41800
H  37.45000 42.57400 25.49700
H  37.15200 45.73000 29.65800
H  34.01800 43.50600 31.78400
H  33.79900 45.16900 32.46700
H  34.84100 43.95900 33.15200
Mg 25.98400 50.10000 26.57600
C  23.96400 51.43000 29.06800
C  28.08300 48.79900 29.13500
C  28.17300 49.01500 24.26400
C  24.03400 51.66800 24.18600
N  26.01700 50.13500 28.86800
C  25.02600 50.71200 29.67300
C  25.35200 50.44200 31.14300
C  26.80100 49.81400 31.12600
C  26.98800 49.54900 29.62300
C  27.94500 50.43400 31.91600
C  24.22200 49.42200 31.68000
C  24.27800 49.16300 33.20300
H  25.06500 50.18600 34.09200
N  27.83600 49.12700 26.66400
C  28.48900 48.68100 27.76700
C  29.69900 48.03400 27.45600
C  29.73600 48.02400 26.06600
C  28.61600 48.75600 25.59200
C  30.62100 47.29300 28.39800
C  30.76100 47.38600 25.10100
O  30.72400 47.44900 23.88600
C  31.84400 46.55500 25.67600
N  26.13100 50.29500 24.50800
C  27.08300 49.76400 23.79000
C  26.74400 49.92200 22.30200
C  25.40600 50.60100 22.27400
C  25.15400 50.89000 23.73200
C  27.84100 50.76700 21.48800
C  24.23900 49.74700 21.68400
C  22.95800 50.59900 21.23000
N  24.29100 51.23200 26.55800
C  23.55500 51.76600 25.46200
C  22.45100 52.55600 26.02000
C  22.53000 52.43500 27.38000
C  23.70200 51.64300 27.65200
C  21.44500 53.32700 25.20800
C  22.01600 52.82200 28.65700
O  21.02600 53.50500 28.92100
C  22.86300 52.17700 29.72400
C  23.28100 53.21800 30.66600
O  24.02600 54.08600 30.47700
O  22.65300 52.92400 31.83500
C  22.94100 53.90000 32.89700
H  28.75200 48.42300 29.91200
H  28.83700 48.61000 23.49800
H  23.56000 52.31700 23.44600
H  25.21300 51.43800 31.56300
H  26.65200 48.79300 31.47800
H  27.63600 51.39100 32.33700
H  28.78000 50.55000 31.22500
H  28.25500 49.88100 32.80200
H  24.43400 48.51700 31.11200
H  23.20000 49.76300 31.51300
H  24.49100 48.10300 33.34000
H  23.30800 49.28200 33.68600
H  30.73200 46.22300 28.22600
H  30.39900 47.22600 29.46300
H  31.65300 47.59200 28.21300
H  32.49200 47.25200 26.20700
H  32.38300 46.15500 24.81700
H  31.40200 45.74600 26.25800
H  26.68900 48.91000 21.90100
H  25.41800 51.59100 21.81600
H  28.74900 50.94100 22.06500
H  27.42600 51.74300 21.23900
H  28.12400 50.20900 20.59500
H  23.72200 49.28900 22.52700
H  24.48800 48.96700 20.96400
H  22.11900 50.62700 21.92600
H  22.62800 50.02500 20.36400
H  23.39400 51.56700 20.98400
H  21.36700 52.82600 24.24300
H  21.70900 54.38400 25.16500
H  20.51600 53.17300 25.75600
H  22.27100 51.46400 30.29800
H  23.14400 54.93100 32.60700
H  23.85300 53.56500 33.39000
H  22.08800 53.90300 33.57600

