158

Mg 48.37300 34.53400 27.89900
C  46.68000 33.26700 30.67400
C  48.77400 37.40500 29.65500
C  49.29700 35.95300 25.13600
C  47.32600 31.63400 26.10700
N  47.79200 35.22900 29.97100
C  47.27700 34.49500 30.98000
C  47.61200 35.02300 32.42900
C  47.88500 36.53900 31.99500
C  48.13200 36.44500 30.38800
C  46.81300 37.57000 32.38100
C  48.78100 34.26900 33.12700
C  48.83800 34.26500 34.67200
H  47.92000 35.22600 35.45400
N  49.03500 36.25100 27.50600
C  49.24500 37.34800 28.34900
C  50.01600 38.32200 27.72600
C  50.22500 37.95000 26.37700
C  49.46400 36.67100 26.31800
C  50.54900 39.65500 28.41400
C  51.07900 38.63200 25.30200
O  51.13500 38.14700 24.16800
C  51.86800 39.93500 25.58600
N  48.31200 33.88600 25.89900
C  48.83000 34.70200 24.95300
C  48.92300 33.91100 23.66600
C  48.38800 32.44700 23.99300
C  48.02400 32.62400 25.41700
C  48.18500 34.53100 22.45800
C  49.27500 31.22800 23.63900
C  50.30000 30.92200 24.72000
N  47.37700 32.71800 28.29900
C  46.98600 31.69000 27.48800
C  46.31100 30.68800 28.29300
C  46.13800 31.29700 29.56600
C  46.71900 32.59800 29.45700
C  45.75100 29.41100 27.73800
C  45.63500 31.07100 30.83600
O  45.11300 30.08000 31.26600
C  45.76800 32.40900 31.56800
C  46.08500 32.11400 33.01700
O  47.19700 31.75600 33.49200
O  44.92700 31.96300 33.75400
C  44.93800 31.60800 35.20800
H  49.02900 38.26900 30.27200
H  49.72400 36.27800 24.18500
H  47.09300 30.71700 25.56100
H  46.75900 34.98700 33.10700
H  48.77100 36.90700 32.51300
H  47.13400 38.53400 32.77400
H  46.13900 37.14500 33.12500
H  46.25800 37.87700 31.49500
H  49.69700 34.68100 32.70500
H  48.80000 33.23900 32.76900
H  49.84600 34.42500 35.05400
H  48.45300 33.30400 35.01600
H  51.62800 39.52100 28.49700
H  50.15000 39.72300 29.42600
H  50.31000 40.50500 27.77500
H  52.46500 40.33600 24.76700
H  52.58900 39.84900 26.39900
H  51.13500 40.71100 25.80800
H  50.00000 33.91600 23.49900
H  47.45100 32.26800 23.46600
H  48.88000 35.10200 21.84300
H  47.49600 35.32900 22.73600
H  47.83600 33.68500 21.86600
H  49.81100 31.53400 22.74000
H  48.61700 30.41500 23.33200
H  51.14100 31.54500 24.41700
H  50.67700 29.91900 24.51800
H  50.08500 30.98200 25.78700
H  44.89900 29.00500 28.28400
H  46.45400 28.62900 28.02300
H  45.57300 29.33300 26.66500
H  44.74300 32.77800 31.57900
H  45.83800 31.16200 35.63200
H  44.10000 30.99600 35.54100
H  44.81800 32.57700 35.69300
Mg 30.21400 58.95200 39.60500
C  27.76200 56.53000 39.16700
C  32.54200 56.61800 38.64500
C  32.53900 61.39300 39.59000
C  27.71800 61.27400 40.24300
N  30.09200 56.80100 39.01000
C  28.98500 56.00600 38.86500
C  29.29600 54.71700 38.34200
C  30.90400 54.66300 38.39300
C  31.19300 56.11700 38.74000
C  31.51000 53.71100 39.37300
C  28.75500 54.78500 36.86500
C  27.93500 53.54800 36.55100
H  27.41500 53.48100 35.09800
N  32.30400 58.95200 39.27100
C  33.07300 57.91400 38.89500
C  34.45000 58.27100 38.64800
C  34.46300 59.70700 38.76300
C  33.11700 60.06800 39.29500
C  35.51500 57.20900 38.29400
C  35.63700 60.50300 38.41800
O  36.68000 59.98800 37.91900
C  35.63300 61.97300 38.69400
N  30.14800 60.94700 39.88300
C  31.25600 61.73800 39.90200
C  30.88900 63.22900 40.10900
C  29.39300 63.17600 40.38800
C  29.05800 61.68500 40.07600
C  31.58200 63.96700 41.26400
C  28.58300 64.26000 39.51700
C  27.94900 65.37000 40.34100
N  28.11400 58.98600 39.79500
C  27.26600 59.96900 40.08800
C  25.94100 59.44300 40.29700
C  26.08300 58.09300 39.85400
C  27.41800 57.87500 39.55300
C  24.74000 60.26200 40.61900
C  25.34200 56.88200 39.49700
O  24.19300 56.60400 39.51300
C  26.43700 55.82300 39.14100
C  26.51000 54.84500 40.25700
O  26.81100 55.13500 41.38800
O  25.99500 53.66600 39.82400
C  26.07100 52.63700 40.87200
H  33.15300 55.89200 38.10400
H  33.36500 62.10400 39.65200
H  26.97000 62.04400 40.44100
H  28.88400 53.90100 38.93600
H  31.37600 54.48900 37.42600
H  30.79900 52.88400 39.36500
H  31.69600 54.15100 40.35200
H  32.45900 53.45600 38.90200
H  29.59500 54.67000 36.17900
H  28.15200 55.65200 36.59600
H  27.00300 53.41300 37.09900
H  28.52900 52.64600 36.70000
H  35.27600 56.23200 38.71300
H  36.54700 57.38500 38.59900
H  35.39400 57.04100 37.22400
H  34.83000 62.43600 38.12100
H  36.56600 62.47500 38.43600
H  35.50400 62.22500 39.74700
H  31.12700 63.67500 39.14300
H  29.16200 63.25500 41.45000
H  31.78700 63.29300 42.09600
H  31.09900 64.88100 41.60900
H  32.58800 64.31000 41.02100
H  27.84700 63.72300 38.91800
H  29.20600 64.80100 38.80400
H  28.12300 65.19300 41.40200
H  26.87900 65.39900 40.13400
H  28.29900 66.31100 39.91400
H  24.68200 61.09600 39.91900
H  24.70400 60.71700 41.60900
H  23.91400 59.57300 40.44800
H  26.17600 55.41100 38.16600
H  25.16200 52.80200 41.45000
H  26.97400 52.71500 41.47800
H  26.05700 51.61900 40.48300

