158

Mg 42.71000 40.76100 26.47500
C  41.43100 43.00500 28.99400
C  43.76200 38.69400 28.90000
C  43.76500 38.75600 24.04000
C  41.88700 43.10100 24.07500
N  42.58600 40.85300 28.74000
C  41.95200 41.74800 29.55500
C  42.07800 41.43400 30.99900
C  42.92400 40.09500 30.88800
C  43.15400 39.85400 29.45400
C  44.13400 39.98700 31.79300
C  40.70600 41.23800 31.68800
C  40.64700 40.73600 33.18500
H  40.39300 41.72500 34.30900
N  43.49200 38.96000 26.47800
C  43.87300 38.24700 27.59000
C  44.34700 36.98600 27.22200
C  44.24700 36.95600 25.77600
C  43.88200 38.31300 25.34700
C  44.91500 35.90100 28.20600
C  44.51000 35.88000 24.70400
O  44.34900 35.94000 23.47000
C  45.00200 34.59600 25.34000
N  42.81300 40.92900 24.35800
C  43.32000 39.98800 23.57800
C  43.30600 40.38400 22.05900
C  42.74600 41.80500 22.06300
C  42.42400 42.00900 23.55200
C  44.65600 40.21400 21.25300
C  41.50600 41.92200 21.14300
C  40.23100 41.31200 21.70200
N  41.98000 42.67600 26.52600
C  41.63900 43.45600 25.47000
C  41.07400 44.73300 25.88500
C  40.96600 44.51700 27.28100
C  41.56200 43.28100 27.61200
C  40.93800 45.96000 25.02600
C  40.44300 45.21100 28.50900
O  40.02700 46.36800 28.68600
C  40.72800 44.13300 29.65900
C  41.63100 44.71700 30.66900
O  42.79600 45.04600 30.41800
O  40.96600 44.90800 31.86100
C  41.77000 45.56800 32.87000
H  44.02900 38.04400 29.73600
H  44.05600 38.18700 23.15500
H  41.61600 43.85800 23.33600
H  42.68000 42.20300 31.48400
H  42.34300 39.23500 31.22000
H  44.36100 40.84500 32.42700
H  44.98000 39.86100 31.11700
H  44.07100 39.12800 32.46100
H  39.96500 40.77500 31.03600
H  40.31700 42.25400 31.75800
H  41.61000 40.24600 33.32800
H  39.91700 39.93200 33.27700
H  44.41000 34.94200 28.09200
H  44.69800 36.17300 29.23900
H  45.98300 35.81400 28.00300
H  44.26400 34.19200 26.03400
H  45.90800 34.77200 25.91900
H  45.12100 33.88600 24.52100
H  42.53800 39.79900 21.55300
H  43.47900 42.53600 21.72300
H  45.41800 39.82500 21.92900
H  45.10300 41.06400 20.73800
H  44.38400 39.50400 20.47300
H  41.53600 41.42800 20.17100
H  41.44200 42.99300 20.95300
H  39.61600 41.01200 20.85400
H  39.68800 42.05300 22.29000
H  40.43300 40.49500 22.39500
H  39.89100 46.22200 24.87600
H  41.28000 45.77800 24.00700
H  41.49400 46.80500 25.43200
H  39.83100 43.69400 30.09500
H  42.72700 45.08100 33.05500
H  41.26200 45.51300 33.83300
H  41.87500 46.62300 32.62000
Mg 9.57700 47.23000 26.75300
C  7.51700 47.63800 29.44900
C  12.17100 48.51300 28.63900
C  11.48400 46.89500 23.99700
C  6.75100 47.09600 24.59900
N  9.78800 48.28800 28.71900
C  8.84500 47.99800 29.72600
C  9.40300 48.36000 31.10100
C  10.68400 49.16400 30.71800
C  10.96800 48.70100 29.24400
C  10.71100 50.74500 30.93800
C  9.72000 47.09100 31.95500
C  9.26500 47.15400 33.46500
H  9.44900 45.84900 34.33500
N  11.58900 47.53100 26.44000
C  12.50000 48.10300 27.27100
C  13.89900 47.91000 26.65800
C  13.62100 47.21900 25.36400
C  12.16800 47.24800 25.18100
C  15.11200 48.24400 27.32100
C  14.65600 46.62500 24.43100
O  14.31100 46.06800 23.37200
C  16.13100 46.71800 24.81400
N  9.07800 46.95700 24.60700
C  10.12300 46.89100 23.75200
C  9.66900 46.78900 22.35100
C  8.06700 46.79500 22.40400
C  7.94300 46.96500 23.94300
C  10.32100 47.83100 21.31600
C  7.42800 45.45800 21.95600
C  7.17500 45.43600 20.41700
N  7.57600 47.21200 26.97000
C  6.58600 47.11600 26.02000
C  5.30100 47.03700 26.75900
C  5.63200 47.13400 28.09000
C  7.02500 47.38100 28.20700
C  3.87400 46.91000 26.12100
C  5.10400 47.10000 29.45300
O  3.95800 46.86300 29.83500
C  6.30400 47.57300 30.32500
C  6.41500 46.48000 31.42000
O  6.98800 45.41400 31.34100
O  5.76100 46.91100 32.56600
C  5.34500 45.87800 33.50000
H  13.00700 48.91200 29.21700
H  12.11200 46.68000 23.12900
H  5.84000 46.90200 24.02800
H  8.75200 49.06100 31.62400
H  11.43700 48.75900 31.39400
H  9.75700 51.24600 31.10400
H  11.05400 51.18700 30.00300
H  11.33200 51.05000 31.78100
H  10.76600 46.78600 31.98700
H  9.31000 46.22800 31.43100
H  8.26300 47.57800 33.52600
H  9.96600 47.85200 33.92300
H  14.90200 48.28900 28.38900
H  15.32500 49.26900 27.01800
H  15.96100 47.56300 27.38200
H  16.78600 46.41900 23.99600
H  16.20400 46.00600 25.63600
H  16.35000 47.74600 25.10400
H  9.90300 45.76300 22.06700
H  7.72100 47.74400 21.99400
H  11.25700 47.42500 20.93000
H  10.68800 48.67500 21.90000
H  9.65100 48.17400 20.52800
H  6.48000 45.35200 22.48400
H  8.07500 44.67700 22.35500
H  6.11700 45.50600 20.16400
H  7.54100 44.56800 19.86800
H  7.75000 46.27500 20.02600
H  3.96300 46.77000 25.04400
H  3.21300 47.76300 26.27600
H  3.38900 46.02200 26.52700
H  5.88800 48.54700 30.58400
H  5.15900 44.95500 32.95100
H  4.34100 46.21500 33.76000
H  6.06000 45.75500 34.31300

