158

Mg 2.25300 -1.64900 44.06500
C  5.71900 -1.16400 43.63700
C  1.70000 1.22100 42.35500
C  -1.05400 -2.46600 43.85700
C  2.89800 -4.82900 45.33400
N  3.57200 -0.19500 43.05000
C  4.95300 -0.14000 43.09500
C  5.40900 1.16800 42.44200
C  4.09900 1.95100 42.09500
C  3.02300 0.96500 42.53600
C  4.05500 3.40300 42.59600
C  6.31800 0.76600 41.15800
C  7.62000 1.57500 40.91400
H  7.65900 2.38900 39.60500
N  0.55100 -0.75800 43.20100
C  0.56500 0.44900 42.59000
C  -0.80100 0.96600 42.38500
C  -1.65300 -0.09600 42.83900
C  -0.72200 -1.15600 43.36000
C  -1.12400 2.33800 41.80100
C  -3.23700 -0.13700 42.72500
O  -3.94600 0.87200 42.51100
C  -4.05100 -1.44100 42.86300
N  1.12500 -3.39700 44.45700
C  -0.21600 -3.50100 44.26800
C  -0.80000 -4.90300 44.63400
C  0.48700 -5.60700 45.06600
C  1.59700 -4.54600 44.94800
C  -1.98100 -4.91200 45.68500
C  0.87300 -6.94900 44.30000
C  0.81800 -8.28900 45.08700
N  3.95400 -2.77800 44.59700
C  4.07400 -4.02100 45.16500
C  5.48500 -4.28600 45.36400
C  6.17700 -3.15400 44.85800
C  5.21000 -2.29900 44.31900
C  6.09500 -5.53500 46.00300
C  7.51800 -2.57400 44.67900
O  8.61700 -2.94700 44.97900
C  7.18900 -1.24500 43.77800
C  7.77600 0.01200 44.45400
O  7.56600 0.34300 45.57800
O  8.68800 0.60400 43.64600
C  9.34400 1.88800 44.01600
H  1.39200 2.18200 41.93600
H  -2.11200 -2.73000 43.79300
H  3.04700 -5.85700 45.66800
H  6.06500 1.58900 43.20400
H  4.08400 2.08700 41.01400
H  3.35800 3.59300 43.41200
H  3.63800 3.98800 41.77700
H  5.02800 3.79300 42.89700
H  5.83000 0.87500 40.18900
H  6.39600 -0.32200 41.15900
H  8.34000 0.75700 40.89200
H  7.87400 2.16400 41.79600
H  -0.57400 2.31400 40.86000
H  -0.64700 3.10200 42.41400
H  -2.16000 2.67100 41.73300
H  -3.99700 -1.78200 43.89700
H  -3.61300 -2.24100 42.26600
H  -5.08000 -1.18500 42.61100
H  -1.24200 -5.36800 43.75200
H  0.38800 -5.91100 46.10800
H  -2.08500 -3.87800 46.01500
H  -1.90500 -5.56100 46.55800
H  -2.91400 -5.10100 45.15500
H  1.89500 -6.97900 43.92100
H  0.27800 -6.91100 43.38800
H  0.11000 -8.94900 44.58400
H  0.34200 -8.13800 46.05600
H  1.74500 -8.85300 45.18900
H  5.95200 -6.32200 45.26200
H  5.48000 -5.85700 46.84300
H  7.12000 -5.42700 46.35800
H  7.64500 -1.46200 42.81300
H  10.24900 1.61400 44.55800
H  8.71200 2.52200 44.63800
H  9.71400 2.45000 43.15900
Mg 41.68900 41.50500 26.98500
C  41.12200 43.80600 29.65800
C  42.37500 39.19500 29.52200
C  42.31700 39.29600 24.59700
C  40.87000 43.97500 24.73500
N  41.73200 41.56500 29.37700
C  41.34700 42.58000 30.17500
C  41.34700 42.19000 31.63100
C  41.98100 40.70500 31.58800
C  42.02500 40.45900 30.00900
C  43.45500 40.54300 32.17900
C  39.91500 42.23200 32.27000
C  39.69300 43.02800 33.57900
H  39.03200 42.41100 34.79800
N  42.41300 39.56400 27.09300
C  42.63000 38.77000 28.13700
C  43.22900 37.59000 27.71000
C  43.15500 37.53200 26.28100
C  42.58900 38.82600 25.92800
C  43.63500 36.48300 28.63400
C  43.53600 36.37400 25.33600
O  43.43500 36.41200 24.12200
C  44.36700 35.20900 25.84800
N  41.59000 41.58200 24.98000
C  41.89800 40.52900 24.18800
C  41.78900 40.96200 22.66900
C  41.12500 42.36000 22.71000
C  41.14000 42.69100 24.20300
C  43.20300 40.94100 22.00900
C  39.68300 42.38100 22.08700
C  38.54000 41.49700 22.81300
N  41.27300 43.43500 27.06200
C  41.01100 44.38400 26.06200
C  40.83200 45.68800 26.60700
C  40.82100 45.47600 28.00800
C  41.15000 44.14000 28.23800
C  40.66600 46.91000 25.86300
C  40.57600 46.18000 29.24400
O  40.20200 47.31900 29.41000
C  40.73500 45.09400 30.37400
C  41.69500 45.61300 31.47500
O  42.93100 45.63200 31.33400
O  41.01800 46.15600 32.55100
C  41.84800 46.62100 33.60600
H  42.60300 38.41900 30.25600
H  42.51400 38.47200 23.90900
H  40.70500 44.82400 24.06900
H  41.90900 43.01800 32.06500
H  41.36200 39.96400 32.09500
H  43.59300 41.33000 32.92000
H  44.25700 40.64800 31.44800
H  43.53000 39.56200 32.64900
H  39.70000 41.21700 32.60600
H  39.21500 42.44400 31.46200
H  39.07700 43.86200 33.24100
H  40.67500 43.39300 33.88100
H  44.54800 35.94900 28.36900
H  42.92000 35.66900 28.75800
H  43.92100 36.88900 29.60400
H  45.30500 35.61800 26.22100
H  44.54000 34.45900 25.07500
H  43.80800 34.81700 26.69800
H  41.10800 40.23100 22.23400
H  41.78700 42.98600 22.11200
H  43.65300 41.91700 21.82500
H  43.06800 40.49900 21.02200
H  43.95900 40.36000 22.53700
H  39.72300 42.07500 21.04200
H  39.37900 43.42800 22.07100
H  38.03700 40.88800 22.06200
H  37.79100 42.20100 23.17500
H  38.90600 40.80900 23.57500
H  41.31100 46.76000 24.99700
H  40.82400 47.83800 26.41200
H  39.60200 46.82400 25.64300
H  39.78100 45.10100 30.90200
H  42.86800 46.85800 33.30100
H  41.85200 46.06800 34.54500
H  41.38100 47.59600 33.74200

