158

Mg 23.45500 -7.18700 47.33500
C  25.64400 -4.73000 45.78900
C  21.07100 -5.80100 45.43500
C  21.56300 -9.65300 48.40300
C  26.28800 -8.64400 48.62600
N  23.37800 -5.45100 45.79300
C  24.35100 -4.61900 45.38600
C  23.88000 -3.58300 44.35900
C  22.30600 -3.74300 44.41400
C  22.18700 -5.00700 45.28200
C  21.54800 -2.47900 45.05200
C  24.43000 -3.64100 42.98200
C  25.35100 -2.46600 42.47800
H  24.99900 -1.82600 41.11800
N  21.53000 -7.70000 46.83800
C  20.73400 -7.01700 46.06600
C  19.38800 -7.63800 46.15200
C  19.47700 -8.82300 46.96000
C  20.86000 -8.77500 47.47100
C  18.20600 -7.16400 45.41700
C  18.40000 -9.80600 47.28200
O  17.25200 -9.60100 46.91700
C  18.65000 -11.01200 48.08000
N  23.89600 -8.92800 48.30000
C  22.92600 -9.76800 48.82600
C  23.52300 -10.95100 49.49600
C  25.01300 -10.52400 49.69000
C  25.09400 -9.31200 48.77500
C  22.76800 -11.37600 50.77000
C  26.06900 -11.65400 49.24300
C  27.08100 -12.09100 50.28300
N  25.57700 -6.71700 47.41200
C  26.60600 -7.45300 47.96800
C  27.86000 -6.69400 47.87200
C  27.55000 -5.59900 47.02000
C  26.17400 -5.70100 46.73900
C  29.15800 -7.06200 48.37400
C  28.09100 -4.46100 46.38500
O  29.19900 -3.93000 46.35800
C  26.91500 -3.85400 45.50200
C  26.82200 -2.41100 45.99300
O  26.29200 -2.08900 47.06300
O  27.44700 -1.59700 45.07600
C  27.73900 -0.32800 45.81100
H  20.21400 -5.28300 45.00000
H  20.84600 -10.39400 48.76200
H  27.24300 -8.95500 49.05400
H  23.99200 -2.64400 44.90100
H  21.81100 -3.86400 43.45100
H  21.55300 -2.60800 46.13500
H  20.55800 -2.34600 44.61500
H  22.16500 -1.67000 44.66300
H  23.67600 -3.62200 42.19500
H  24.97100 -4.57000 42.80000
H  26.41700 -2.68800 42.52900
H  25.25900 -1.67500 43.22200
H  17.73800 -6.30300 45.89300
H  17.40800 -7.84500 45.12000
H  18.48400 -6.62900 44.50900
H  17.69000 -11.52200 48.16200
H  18.76900 -10.84600 49.15000
H  19.32700 -11.70100 47.57600
H  23.46900 -11.74700 48.75400
H  25.26000 -10.25100 50.71600
H  21.92100 -10.77900 51.10700
H  23.52300 -11.45400 51.55200
H  22.40500 -12.39100 50.60600
H  26.62100 -11.50200 48.31500
H  25.46900 -12.54400 49.05500
H  28.03400 -11.73700 49.89000
H  27.10900 -13.17600 50.38300
H  26.92200 -11.57700 51.23100
H  28.97700 -7.65600 49.26900
H  29.81200 -6.25800 48.71300
H  29.67500 -7.67500 47.63500
H  27.27100 -3.88700 44.47300
H  26.79600 0.17300 46.02700
H  28.22900 0.45600 45.23300
H  28.31200 -0.51100 46.72000
Mg 10.00600 47.67000 26.70500
C  7.90800 47.72800 29.51100
C  12.53200 49.04600 28.59500
C  11.86400 47.78900 23.99400
C  7.09600 47.49300 24.68600
N  10.18600 48.15300 28.83400
C  9.25300 48.10100 29.88700
C  9.88300 48.45700 31.20400
C  11.10600 49.29600 30.69000
C  11.36600 48.71900 29.29800
C  10.87400 50.78400 30.59600
C  10.23700 47.16600 32.05700
C  10.23800 47.21700 33.62300
H  9.70200 46.03400 34.54000
N  11.99000 48.12100 26.34500
C  12.86900 48.70300 27.29000
C  14.17000 48.70300 26.54200
C  14.00300 48.04100 25.26800
C  12.59300 47.98600 25.12700
C  15.46600 49.17100 27.24000
C  14.97700 47.49900 24.20000
O  14.65800 46.78500 23.26300
C  16.46000 47.73500 24.36800
N  9.51900 47.49900 24.59600
C  10.46600 47.71100 23.67800
C  10.00200 47.31300 22.26900
C  8.48300 47.19800 22.45400
C  8.32000 47.41300 23.97800
C  10.49300 48.21100 21.09100
C  7.92400 45.81000 22.06300
C  6.95500 45.87100 20.90100
N  7.91600 47.62700 26.98700
C  6.87700 47.54800 26.10100
C  5.61400 47.44600 26.77600
C  5.96200 47.53400 28.14100
C  7.40200 47.63700 28.20700
C  4.27600 47.41700 26.16200
C  5.45200 47.58600 29.51500
O  4.35700 47.59900 30.00100
C  6.69300 47.70400 30.44600
C  6.90000 46.43300 31.21000
O  7.16700 45.31800 30.79400
O  6.66900 46.71800 32.54000
C  6.64800 45.46000 33.35600
H  13.28000 49.55600 29.20600
H  12.37200 47.48500 23.07600
H  6.28300 47.35500 23.97000
H  9.09600 48.92400 31.79600
H  12.00800 49.17200 31.28800
H  10.89300 51.07900 29.54700
H  11.70000 51.36100 31.01100
H  9.89700 51.04300 31.00500
H  11.25800 46.88800 31.79400
H  9.64700 46.34100 31.65800
H  9.72200 48.11600 33.96000
H  11.25600 47.41000 33.95900
H  15.16700 49.47800 28.24300
H  15.84900 50.07000 26.75700
H  16.25700 48.42300 27.30300
H  16.73600 48.33300 25.23600
H  16.96300 48.03100 23.44700
H  16.92000 46.77300 24.59400
H  10.33100 46.29500 22.05900
H  7.89500 47.98700 21.98700
H  11.07100 49.06900 21.43600
H  9.69800 48.53800 20.42100
H  11.13300 47.64900 20.41100
H  7.31500 45.46900 22.90000
H  8.68100 45.07300 21.79600
H  6.01600 45.35600 21.10000
H  7.39400 45.58300 19.94500
H  6.58700 46.88500 20.74100
H  4.02600 46.44100 25.74600
H  4.16200 48.14600 25.35900
H  3.48300 47.58600 26.89100
H  6.80900 48.55600 31.11700
H  6.65900 45.72800 34.41300
H  7.54600 44.87500 33.16000
H  5.74600 44.86200 33.23000

