158

Mg 7.84500 3.18100 28.04400
C  9.23000 1.68600 30.93600
C  5.97000 5.13100 30.19500
C  6.17600 4.31200 25.47700
C  9.30300 0.57300 26.12000
N  7.60900 3.29000 30.22800
C  8.32900 2.69700 31.27800
C  8.20200 3.33900 32.69600
C  6.94700 4.25700 32.37700
C  6.74900 4.13700 30.82900
C  5.61700 3.93200 33.16500
C  9.49300 4.04100 33.14200
C  10.34300 3.48600 34.33400
H  10.70000 4.52100 35.36800
N  6.32300 4.54900 27.82200
C  5.72000 5.31300 28.75400
C  4.84500 6.26600 28.17600
C  4.93600 6.07200 26.77700
C  5.82100 4.92000 26.65300
C  3.90300 7.20200 28.88900
C  4.15800 6.80500 25.61900
O  4.08100 6.35500 24.47200
C  3.70300 8.14000 25.84800
N  7.69400 2.54400 26.11300
C  7.01100 3.23600 25.18400
C  7.13200 2.60200 23.82200
C  8.22300 1.53500 24.04700
C  8.45400 1.53600 25.52900
C  5.81000 2.05500 23.27700
C  9.48200 1.87300 23.26200
C  10.36800 0.70300 22.85500
N  9.03700 1.53700 28.45100
C  9.56200 0.59700 27.53000
C  10.32100 -0.33100 28.37500
C  10.31300 0.09200 29.67100
C  9.49300 1.15400 29.69100
C  11.05300 -1.54300 27.79000
C  10.79500 -0.18400 30.98000
O  11.59400 -1.09200 31.25200
C  10.15800 0.87500 31.85900
C  9.40200 0.07800 32.88400
O  8.51900 -0.73300 32.65500
O  9.98400 0.30300 34.15900
C  9.19300 -0.21800 35.32900
H  5.49400 5.87300 30.84000
H  5.65600 4.70500 24.60200
H  9.76000 -0.22000 25.52600
H  7.84300 2.57200 33.38200
H  7.13900 5.32000 32.51700
H  4.72900 3.71300 32.57200
H  5.31900 4.85100 33.66900
H  5.84000 3.04500 33.75800
H  9.34200 5.10600 33.31800
H  10.09800 3.98100 32.23600
H  11.29500 3.02800 34.06400
H  9.71700 2.78000 34.88100
H  3.55100 6.73000 29.80600
H  2.94000 7.24700 28.38000
H  4.33000 8.15500 29.20200
H  4.51100 8.65100 26.37200
H  2.85200 8.13600 26.52900
H  3.44700 8.58800 24.88800
H  7.56400 3.32700 23.13200
H  7.81900 0.61900 23.61600
H  4.88300 2.41600 23.72300
H  5.84800 0.96700 23.21200
H  5.73000 2.28800 22.21500
H  10.21000 2.43600 23.84700
H  9.26100 2.41100 22.34100
H  10.55200 0.62000 21.78400
H  9.95300 -0.22700 23.24500
H  11.37100 0.82000 23.26500
H  10.54400 -1.89800 26.89400
H  11.06700 -2.35100 28.52100
H  12.07900 -1.22900 27.60100
H  10.96700 1.46800 32.28600
H  8.77900 -1.19500 35.08000
H  8.40400 0.49800 35.55700
H  9.88200 -0.27300 36.17200
Mg 44.99100 4.60600 47.18700
C  43.25400 7.63900 46.72200
C  42.00800 3.00500 46.41900
C  46.78700 1.80300 46.85800
C  47.93400 6.54300 47.06400
N  42.85400 5.30000 46.55200
C  42.38600 6.55700 46.61400
C  40.88400 6.60700 46.32100
C  40.50400 5.09400 46.33600
C  41.84500 4.40100 46.43200
C  39.54900 4.58200 47.40900
C  40.41700 7.54900 45.18900
C  41.13500 7.70200 43.84800
H  40.30300 7.32800 42.60100
N  44.44200 2.68800 46.78500
C  43.15800 2.18000 46.55800
C  43.20800 0.78300 46.31400
C  44.61500 0.44500 46.47100
C  45.30900 1.69800 46.74400
C  42.07600 -0.04600 45.73300
C  45.15200 -0.97500 46.21900
O  44.39900 -1.89700 46.02700
C  46.67500 -1.29600 46.24700
N  47.09400 4.25700 46.85400
C  47.55300 2.94300 47.05500
C  49.10200 2.88600 47.09300
C  49.43100 4.35800 47.02700
C  48.06600 5.12100 46.93100
C  49.58400 2.08100 48.38500
C  50.38500 4.86800 45.86600
C  51.56800 5.89600 46.17300
N  45.53900 6.70300 47.08700
C  46.75200 7.31000 47.12300
C  46.59400 8.79400 47.21100
C  45.22100 8.95300 47.08000
C  44.62000 7.63400 46.91800
C  47.72900 9.84500 47.23600
C  44.16900 9.92200 46.91300
O  44.23900 11.15600 46.99800
C  42.92200 9.09900 46.67700
C  41.96400 9.39300 47.76600
O  41.72400 8.68200 48.75000
O  41.33700 10.51200 47.47800
C  39.94400 10.41100 47.96100
H  41.07800 2.47000 46.22200
H  47.41600 0.91500 46.94300
H  48.83400 7.14800 47.19100
H  40.43600 7.12000 47.17200
H  40.17500 4.80100 45.33900
H  38.81500 5.27500 47.81900
H  40.16900 4.30600 48.26200
H  38.92800 3.73000 47.13400
H  40.22400 8.56800 45.52200
H  39.44700 7.20700 44.82900
H  42.07200 7.14600 43.79900
H  41.29500 8.77400 43.73100
H  42.38300 -0.50900 44.79500
H  41.20300 0.58900 45.58700
H  41.96900 -0.89200 46.41200
H  46.72700 -2.37600 46.11100
H  47.02600 -1.01600 47.24000
H  47.30000 -0.75100 45.53900
H  49.31300 2.42300 46.12900
H  49.86300 4.74900 47.94800
H  49.37300 1.01200 48.39900
H  49.14200 2.57800 49.24900
H  50.65200 2.26100 48.50500
H  49.83600 5.22200 44.99400
H  50.90900 3.98100 45.51100
H  51.38800 6.75100 45.52200
H  52.52700 5.48700 45.85600
H  51.50400 6.30400 47.18200
H  48.12500 10.19500 46.28300
H  48.46000 9.16000 47.66700
H  47.70600 10.64700 47.97300
H  42.41300 9.41600 45.76700
H  39.37900 11.25300 47.56000
H  39.84100 10.32100 49.04300
H  39.40300 9.56100 47.54600

