158

Mg 54.20000 24.46500 44.80900
C  51.68800 26.72400 43.65200
C  52.43400 21.85900 43.51800
C  57.10800 22.79100 44.85100
C  56.00200 27.46900 45.78400
N  52.33200 24.30000 43.67900
C  51.49000 25.38100 43.28900
C  50.21000 24.73200 42.64200
C  50.31800 23.18500 43.11900
C  51.78300 23.08400 43.41300
C  49.54400 22.74300 44.34200
C  50.06800 24.86400 41.07300
C  51.27400 25.06500 40.23700
H  52.30300 23.97300 40.05300
N  54.66500 22.55300 44.42700
C  53.80000 21.61000 43.89000
C  54.46900 20.36800 43.79400
C  55.83000 20.56100 44.29300
C  55.93400 22.03100 44.58100
C  53.82600 19.18800 43.24900
C  56.96000 19.55400 44.46100
O  56.78900 18.34800 44.20200
C  58.34800 19.93600 44.99000
N  56.23600 25.02400 45.32200
C  57.23300 24.12300 45.22200
C  58.58600 24.76100 45.28500
C  58.26000 26.22400 45.52100
C  56.78300 26.28000 45.58900
C  59.60600 24.19000 46.31600
C  58.80600 27.17200 44.31400
C  59.78100 28.37600 44.75800
N  53.93400 26.66400 44.84900
C  54.65800 27.68300 45.38900
C  53.84900 28.90100 45.52200
C  52.62900 28.55000 44.87800
C  52.74800 27.17100 44.46600
C  54.26600 30.25400 46.14200
C  51.35700 29.03100 44.43100
O  50.80600 30.09500 44.55200
C  50.73700 27.91900 43.49200
C  50.60200 28.41500 42.07300
O  51.46300 28.91000 41.32800
O  49.31500 28.15300 41.77200
C  48.89200 28.54200 40.36000
H  51.77600 20.98900 43.45900
H  58.03600 22.22400 44.76000
H  56.50600 28.40600 46.03300
H  49.29200 25.13700 43.06700
H  49.98900 22.45800 42.37700
H  50.23300 22.13500 44.92700
H  48.67600 22.16400 44.02800
H  49.27600 23.55400 45.02000
H  49.38800 25.69300 40.87800
H  49.55000 24.05400 40.56000
H  51.69300 25.89800 40.80200
H  50.98300 25.15100 39.19000
H  53.47600 19.50200 42.26600
H  52.99800 18.91300 43.90200
H  54.54800 18.38600 43.09800
H  58.91800 19.05600 45.28700
H  58.30700 20.56100 45.88200
H  59.05100 20.45100 44.33500
H  59.05700 24.57600 44.32000
H  58.52900 26.54100 46.52900
H  59.09500 23.62200 47.09300
H  60.23300 24.93000 46.81300
H  60.36800 23.60800 45.79800
H  57.98500 27.65600 43.78500
H  59.28500 26.69100 43.46100
H  60.82500 28.27600 44.46400
H  59.82200 28.54800 45.83400
H  59.19800 29.21600 44.37900
H  55.20700 30.62400 45.73500
H  54.27800 30.04300 47.21100
H  53.50300 31.03200 46.14100
H  49.75500 27.61800 43.85600
H  49.66400 28.93900 39.70200
H  48.04000 29.22000 40.32100
H  48.46500 27.64600 39.91000
Mg -4.75300 25.16200 25.35800
C  -3.52800 26.29200 28.49700
C  -6.69600 22.95700 27.02200
C  -5.40300 23.62100 22.45000
C  -2.41900 27.22300 23.78800
N  -4.79700 24.51800 27.47900
C  -4.36700 25.27500 28.57100
C  -4.92900 24.74300 29.87100
C  -5.78900 23.51600 29.31100
C  -5.74600 23.63900 27.82800
C  -5.43800 22.03600 29.89800
C  -5.78000 25.75300 30.75100
C  -5.25100 25.86300 32.20700
H  -6.19700 25.35200 33.35300
N  -5.97300 23.62000 24.80500
C  -6.80600 22.98700 25.63900
C  -7.74500 22.11700 24.94400
C  -7.23500 22.08400 23.62400
C  -6.15600 23.10500 23.56100
C  -8.97000 21.42500 25.51900
C  -7.52800 21.13200 22.45600
O  -6.87900 20.94000 21.50400
C  -8.80300 20.34900 22.67300
N  -3.86200 25.24400 23.45900
C  -4.39600 24.54500 22.45000
C  -3.77200 24.89900 21.09000
C  -3.08600 26.28600 21.46700
C  -3.12100 26.27300 22.98400
C  -2.84300 23.82300 20.48200
C  -3.83000 27.52400 20.79500
C  -3.66900 27.54800 19.30600
N  -3.34400 26.65300 25.94300
C  -2.46100 27.36500 25.20900
C  -1.66200 28.23600 26.11600
C  -2.00000 27.84900 27.39500
C  -3.05200 26.86200 27.24000
C  -0.58500 29.24200 25.80700
C  -1.64800 28.03400 28.75500
O  -0.88300 28.79600 29.37300
C  -2.74500 27.10900 29.55600
C  -1.88700 26.36800 30.47700
O  -1.45900 25.20200 30.38600
O  -1.71600 27.02400 31.68100
C  -1.00500 26.32900 32.72800
H  -7.42400 22.30700 27.51300
H  -5.59400 23.06300 21.53100
H  -1.74000 27.83600 23.19100
H  -4.02300 24.46300 30.40800
H  -6.84200 23.53100 29.59300
H  -4.48100 22.05400 30.42000
H  -5.17800 21.30600 29.13200
H  -6.23100 21.58000 30.49100
H  -6.84500 25.56800 30.88900
H  -5.82800 26.70300 30.21900
H  -5.02600 26.89800 32.46500
H  -4.27100 25.40200 32.33700
H  -8.91500 20.33700 25.51400
H  -9.96400 21.68000 25.15000
H  -9.15500 21.58700 26.58100
H  -9.69300 20.97500 22.73000
H  -8.64200 19.69400 23.52900
H  -8.87500 19.62700 21.86000
H  -4.55600 25.05000 20.34800
H  -2.05100 26.41000 21.15000
H  -1.81200 24.17600 20.48000
H  -3.19100 23.45400 19.51700
H  -2.94400 23.02700 21.21900
H  -3.32700 28.41900 21.16400
H  -4.87300 27.58700 21.10400
H  -4.59000 27.11100 18.92000
H  -2.83500 26.99400 18.87400
H  -3.45600 28.55700 18.95400
H  -0.88300 29.83400 24.94200
H  0.42600 28.84500 25.72300
H  -0.56300 29.88900 26.68400
H  -3.43200 27.65800 30.20000
H  0.03900 26.30500 32.41500
H  -1.28900 25.27900 32.78400
H  -1.16800 26.85400 33.67000

