158

Mg 30.05100 59.18700 41.24200
C  26.90800 57.99900 40.18300
C  31.58600 56.54900 39.57100
C  32.95600 60.94500 41.28100
C  28.34000 62.12700 42.30600
N  29.27800 57.58200 40.02000
C  27.99100 57.19300 39.73000
C  27.91600 55.89200 38.93500
C  29.38100 55.27100 39.09800
C  30.19800 56.56300 39.58800
C  29.47500 54.04700 40.07500
C  27.43900 56.14300 37.47400
C  26.73100 54.94300 36.76700
H  26.69200 54.82800 35.22500
N  32.00600 58.73300 40.73800
C  32.43300 57.58800 40.05600
C  33.89300 57.65600 39.83800
C  34.36400 58.90100 40.34800
C  33.11700 59.60900 40.87800
C  34.69800 56.56900 39.14100
C  35.79000 59.43400 40.29900
O  36.66600 58.79900 39.70600
C  36.18300 60.78100 40.90700
N  30.59200 61.27900 41.59500
C  31.87600 61.78400 41.48400
C  31.94300 63.25200 42.05800
C  30.48300 63.39000 42.69200
C  29.72000 62.25200 42.15500
C  33.05000 63.29100 43.13100
C  29.79000 64.74500 42.28300
C  28.78700 65.34800 43.25500
N  28.03000 60.01400 41.25700
C  27.53400 61.10100 41.79200
C  26.13100 61.16700 41.66000
C  25.74500 59.89800 41.03600
C  27.01000 59.19400 40.87600
C  25.12000 62.24900 42.09400
C  24.75000 58.97200 40.54100
O  23.49200 59.14500 40.44600
C  25.43600 57.66900 40.04000
C  25.11800 56.47400 40.81100
O  25.26400 56.34600 42.02300
O  24.56200 55.50100 39.96400
C  24.14900 54.25300 40.66500
H  32.02500 55.64800 39.13900
H  33.84300 61.58100 41.26200
H  27.79200 62.93400 42.79700
H  27.18000 55.23100 39.39400
H  29.77300 54.94800 38.13300
H  29.81700 54.38400 41.05400
H  30.11000 53.23400 39.72300
H  28.53000 53.52900 40.23900
H  28.29700 56.35700 36.83700
H  26.71700 56.95600 37.39900
H  25.70000 54.78300 37.08400
H  27.24100 54.00300 36.98000
H  35.15800 56.95000 38.23000
H  34.03400 55.76800 38.81400
H  35.39000 56.18600 39.89100
H  35.79600 61.63800 40.35700
H  37.26800 60.83800 41.00000
H  35.87100 60.77400 41.95200
H  32.11400 63.83000 41.15000
H  30.54900 63.32300 43.77800
H  32.65700 63.61400 44.09600
H  33.75900 64.06600 42.84200
H  33.48600 62.31300 43.33500
H  29.23300 64.48300 41.38300
H  30.49600 65.46700 41.87200
H  29.17400 66.35900 43.37800
H  28.76200 64.82100 44.20900
H  27.84400 65.30800 42.70900
H  25.05700 62.17500 43.18000
H  24.14100 62.19000 41.61700
H  25.61700 63.19600 41.88400
H  25.04100 57.65500 39.02400
H  24.46800 54.10100 41.69600
H  24.69900 53.44200 40.18700
H  23.08200 54.05900 40.76900
Mg 9.15600 46.85400 25.64900
C  6.82300 47.04500 28.25100
C  11.61400 47.88900 27.69500
C  11.34200 47.25500 22.91600
C  6.52000 46.60300 23.42800
N  9.11000 47.57400 27.70300
C  8.14100 47.34800 28.62900
C  8.60500 47.68100 30.06600
C  10.09400 48.22100 29.78100
C  10.36800 47.87100 28.25300
C  10.37800 49.73300 30.05500
C  8.50100 46.42500 31.02300
C  9.55100 46.29200 32.25700
H  8.96000 45.88900 33.59100
N  11.23700 47.25700 25.38800
C  12.12800 47.57500 26.38200
C  13.49000 47.76700 25.85300
C  13.42500 47.47500 24.45400
C  11.97700 47.33400 24.20600
C  14.64000 48.12900 26.77700
C  14.50000 47.34700 23.43900
O  14.25100 46.94200 22.28800
C  15.92100 47.56000 23.81800
N  8.91500 46.97800 23.48200
C  9.95200 47.11400 22.58100
C  9.47900 47.04000 21.16200
C  7.94700 46.77600 21.35500
C  7.77300 46.76300 22.83200
C  9.99800 48.09000 20.21400
C  7.39700 45.49400 20.65900
C  6.20600 45.78500 19.72700
N  7.03700 46.77600 25.75900
C  6.15700 46.61200 24.77300
C  4.84100 46.61600 25.38100
C  5.06900 46.71800 26.74600
C  6.42300 46.88300 26.92300
C  3.50300 46.46600 24.72700
C  4.39500 46.74100 28.00200
O  3.20900 46.57500 28.23400
C  5.52600 47.01700 29.13400
C  5.50000 45.75800 30.05000
O  5.94000 44.64400 29.68500
O  4.91000 46.05700 31.24600
C  4.98900 45.05100 32.36500
H  12.33900 48.23100 28.43700
H  11.96200 47.44000 22.03700
H  5.76200 46.28300 22.70900
H  7.95200 48.40800 30.54900
H  10.79200 47.61500 30.35800
H  11.21500 49.68900 30.75100
H  9.47400 50.06800 30.56500
H  10.67100 50.49600 29.33400
H  8.55700 45.47500 30.49200
H  7.46900 46.46800 31.37300
H  10.09200 47.22000 32.44300
H  10.29600 45.55800 31.95000
H  15.28300 48.90400 26.35900
H  15.30700 47.27400 26.88200
H  14.27700 48.31000 27.78900
H  16.55500 47.27000 22.98000
H  16.11300 47.11400 24.79400
H  15.99100 48.63100 24.00900
H  9.93100 46.11600 20.80400
H  7.50600 47.73100 21.06600
H  11.02000 48.38500 20.45400
H  9.54000 49.04900 20.45600
H  9.92500 47.86600 19.15000
H  7.01300 44.85000 21.45000
H  8.17900 44.90100 20.18500
H  5.32200 45.60200 20.33900
H  6.26600 45.18200 18.82100
H  6.24000 46.86800 19.61000
H  3.11200 45.51500 25.09000
H  3.60900 46.67600 23.66300
H  2.71000 47.11400 25.09800
H  5.44800 47.92700 29.72800
H  5.97900 44.63000 32.54400
H  4.18400 44.31800 32.30900
H  4.93900 45.55800 33.32800

