158

Mg 47.24200 16.15100 28.10400
C  45.26600 15.75600 30.96200
C  49.32400 18.30100 29.83000
C  48.82900 17.03700 25.15100
C  44.60600 14.73100 26.24900
N  47.10600 17.05300 30.11300
C  46.40400 16.62400 31.16400
C  46.94700 17.21300 32.54700
C  48.02400 18.19600 32.09800
C  48.21000 17.85300 30.56600
C  47.73000 19.72100 32.37800
C  47.52400 16.15800 33.62500
C  46.60800 16.10900 34.93100
H  46.61100 17.47700 35.64000
N  48.97800 17.37400 27.61300
C  49.64700 18.16100 28.48500
C  50.78700 18.71500 27.83400
C  50.71500 18.28600 26.48400
C  49.46900 17.47700 26.35200
C  51.75500 19.61800 28.42300
C  51.60600 18.58600 25.29800
O  51.36600 18.21300 24.18200
C  52.78200 19.41700 25.47300
N  46.78800 15.83100 26.05600
C  47.58000 16.30700 25.07300
C  47.13200 15.88100 23.70900
C  45.88100 14.91100 24.07500
C  45.76000 15.18500 25.56600
C  46.78300 16.99800 22.68300
C  46.07800 13.38700 23.67600
C  45.18200 12.88200 22.52500
N  45.38300 15.22300 28.42900
C  44.46600 14.62300 27.61900
C  43.35900 14.02900 28.41500
C  43.65900 14.41600 29.74300
C  44.89600 15.14200 29.71800
C  42.23600 13.16900 27.90900
C  43.20900 14.38600 31.08600
O  42.24600 13.81900 31.54500
C  44.19200 15.18900 31.95800
C  43.27600 16.27500 32.51800
O  42.65500 17.04500 31.80200
O  43.31900 16.27800 33.94400
C  42.70900 17.41700 34.64100
H  50.00200 18.90800 30.43400
H  49.23500 17.25200 24.16000
H  43.88100 14.31600 25.54600
H  46.10100 17.76400 32.95500
H  49.00500 17.96000 32.51000
H  48.65300 20.16700 32.75000
H  46.87800 19.84700 33.04500
H  47.47700 20.24500 31.45600
H  48.61400 16.14200 33.63900
H  47.28400 15.18300 33.19900
H  47.05100 15.38600 35.61600
H  45.61700 15.77100 34.62900
H  51.95500 20.48600 27.79500
H  52.60700 19.08200 28.84000
H  51.36100 20.07400 29.33100
H  53.46800 19.25100 24.64300
H  53.37500 19.01400 26.29300
H  52.47300 20.44600 25.66000
H  47.89000 15.21300 23.30000
H  44.95700 15.30400 23.65200
H  45.73100 16.98700 22.39700
H  47.33100 16.99000 21.74100
H  47.07200 17.97700 23.06700
H  45.71900 12.77600 24.50400
H  47.09100 13.04300 23.46900
H  45.70700 12.90700 21.57000
H  44.25300 13.42600 22.35200
H  44.90700 11.84100 22.69200
H  42.36700 12.88200 26.86600
H  41.30600 13.73800 27.89600
H  42.04000 12.35200 28.60400
H  44.58400 14.52700 32.73000
H  43.01300 18.35800 34.18000
H  42.82900 17.32100 35.72000
H  41.65000 17.32000 34.40300
Mg -1.38400 34.28100 28.10300
C  -3.16000 32.55700 30.47100
C  -0.26600 36.44300 30.63300
C  0.32200 36.00000 25.64200
C  -2.79600 32.22400 25.57200
N  -1.73700 34.38600 30.28100
C  -2.46400 33.56700 31.03700
C  -2.32400 33.89700 32.56700
C  -1.59700 35.26300 32.55900
C  -1.11700 35.35100 31.07800
C  -2.62700 36.43100 32.90900
C  -1.53000 32.83200 33.42400
C  -2.36300 32.22100 34.57800
H  -1.51600 32.07500 35.84500
N  -0.10700 36.02400 28.12500
C  0.11900 36.83000 29.26500
C  0.98000 37.85500 28.82700
C  1.29900 37.69000 27.47400
C  0.51900 36.55100 26.98800
C  1.33300 38.87000 29.88100
C  2.25800 38.53300 26.56900
O  2.33400 38.31200 25.36400
C  3.03800 39.64700 27.17400
N  -1.22100 34.19800 25.90800
C  -0.38400 34.89600 25.18300
C  -0.44800 34.42300 23.71600
C  -1.18000 33.06000 23.80000
C  -1.79500 33.12700 25.19300
C  -1.14100 35.42300 22.78500
C  -0.39000 31.69400 23.64200
C  0.73000 31.43900 24.68100
N  -2.73100 32.74900 27.98400
C  -3.28000 32.07000 26.94000
C  -4.21400 31.07800 27.39100
C  -4.07800 31.10600 28.79000
C  -3.26000 32.20900 29.09400
C  -5.03900 30.19800 26.57000
C  -4.49500 30.47900 30.06900
O  -5.23600 29.56000 30.39600
C  -3.95900 31.40200 31.15900
C  -5.17800 31.89100 31.95700
O  -6.14800 32.48300 31.41400
O  -5.07700 31.52400 33.24200
C  -6.20000 31.82900 34.17000
H  0.06200 36.98300 31.52300
H  0.98800 36.45000 24.90300
H  -3.20300 31.55000 24.81500
H  -3.37000 33.94900 32.86900
H  -0.76300 35.36000 33.25400
H  -3.01000 36.89200 31.99900
H  -2.02300 37.15400 33.45800
H  -3.42000 36.01000 33.52700
H  -0.59600 33.28100 33.76100
H  -1.25000 32.03000 32.74200
H  -2.76500 31.23900 34.32800
H  -3.14900 32.94500 34.79300
H  0.74600 39.77400 29.71900
H  2.38700 39.07400 29.69000
H  1.19500 38.59400 30.92600
H  3.53300 40.40000 26.56000
H  3.80300 39.19100 27.80200
H  2.30200 40.19600 27.76200
H  0.59200 34.25400 23.43700
H  -2.03200 32.96500 23.12700
H  -0.60700 35.51800 21.84000
H  -1.26200 36.42700 23.19100
H  -2.14500 35.14800 22.46100
H  0.05200 31.74800 22.64700
H  -0.97600 30.77500 23.65300
H  0.89500 30.45400 25.11800
H  0.74300 32.15100 25.50700
H  1.67000 31.62000 24.16000
H  -5.72000 30.76800 25.93800
H  -5.63700 29.68500 27.32400
H  -4.38100 29.52100 26.02600
H  -3.30500 30.88700 31.86300
H  -6.57300 30.91200 34.62700
H  -7.00300 32.37900 33.68100
H  -5.85500 32.49400 34.96200

