158

Mg 15.76400 -2.11500 27.64300
C  14.60600 0.13700 30.19400
C  17.78500 -3.42100 30.04000
C  17.08700 -3.93800 25.19400
C  13.81500 -0.25900 25.39000
N  16.33800 -1.50200 29.79100
C  15.60800 -0.74200 30.64000
C  16.10900 -0.85400 32.04900
C  17.22700 -1.90000 31.96900
C  17.19200 -2.24900 30.49600
C  18.62800 -1.55000 32.53400
C  15.08200 -1.26500 33.16900
C  15.15100 -0.64700 34.56000
H  16.43200 0.09900 34.99700
N  17.11800 -3.56600 27.65400
C  17.73900 -4.06200 28.78200
C  18.50400 -5.19300 28.41200
C  18.27100 -5.39400 27.00700
C  17.41200 -4.29200 26.56000
C  19.33200 -5.89800 29.43600
C  18.98500 -6.36300 26.01700
O  18.84000 -6.29000 24.79300
C  19.93500 -7.49100 26.47200
N  15.68500 -1.95900 25.52600
C  16.32500 -2.81800 24.72600
C  16.11800 -2.53200 23.30000
C  14.86400 -1.54100 23.36700
C  14.70100 -1.23900 24.83200
C  17.27500 -2.11500 22.39300
C  13.51900 -2.07500 22.76600
C  13.02600 -1.32100 21.44200
N  14.50000 -0.42500 27.70700
C  13.71900 0.11600 26.72600
C  12.90300 1.24300 27.31300
C  13.22300 1.21800 28.63400
C  14.13900 0.20400 28.85900
C  11.96500 2.08600 26.54700
C  13.04100 1.91500 29.88800
O  12.36500 2.85400 30.21500
C  13.84200 1.17100 31.01400
C  14.83900 2.07300 31.76300
O  15.98600 2.37400 31.44900
O  14.17800 2.65200 32.85700
C  14.96300 3.60800 33.66100
H  18.09500 -3.95800 30.93900
H  17.40400 -4.58400 24.37300
H  13.10700 0.21900 24.70900
H  16.58300 0.12000 32.17200
H  16.89100 -2.81600 32.45500
H  18.87100 -2.14300 33.41500
H  18.69600 -0.48100 32.73900
H  19.42800 -1.79200 31.83400
H  15.05500 -2.34800 33.29100
H  14.09600 -0.93800 32.83900
H  14.93100 -1.45200 35.26200
H  14.34000 0.08000 34.50900
H  18.74200 -6.18100 30.30700
H  20.05600 -5.19000 29.83900
H  19.82800 -6.82500 29.14300
H  20.31700 -7.89400 25.53500
H  19.65600 -8.29100 27.15800
H  20.80400 -7.04600 26.95800
H  15.73400 -3.43600 22.82700
H  15.11900 -0.58800 22.90300
H  17.14900 -1.06100 22.14700
H  17.50300 -2.79400 21.57100
H  18.02800 -2.23400 23.17200
H  12.74900 -1.96100 23.52800
H  13.65800 -3.14800 22.63300
H  12.59600 -2.04900 20.75400
H  13.84700 -0.73000 21.03700
H  12.26900 -0.57200 21.67500
H  11.01600 1.91900 27.05800
H  11.81200 1.61900 25.57400
H  12.19000 3.14100 26.39200
H  13.05400 0.89100 31.71300
H  15.89600 4.04800 33.30800
H  15.12500 3.20200 34.66000
H  14.42200 4.53700 33.84100
Mg 29.42100 57.92800 40.43100
C  26.48800 56.05400 39.41700
C  31.34900 55.42700 39.09300
C  31.94800 59.89500 41.00200
C  27.15400 60.59300 41.07000
N  28.87500 56.02700 39.22800
C  27.70500 55.39000 39.02800
C  27.88100 53.96300 38.62700
C  29.38900 53.81200 38.52500
C  29.95100 55.21900 39.02000
C  30.02200 52.57600 39.22500
C  27.15900 53.40700 37.21300
C  26.88400 54.41400 36.11600
H  27.77900 54.34900 34.83900
N  31.41700 57.71800 40.19500
C  32.03800 56.63700 39.51100
C  33.40500 56.88800 39.37200
C  33.64000 58.14000 39.89300
C  32.36700 58.67600 40.44800
C  34.43200 55.90700 38.73200
C  35.04100 58.80500 40.11300
O  36.03900 58.25500 39.63500
C  35.19900 60.12700 40.83400
N  29.51800 60.01600 41.03700
C  30.73900 60.59100 41.25700
C  30.62200 62.10300 41.64200
C  29.11400 62.18000 41.80000
C  28.55000 60.85600 41.22600
C  31.36200 62.59300 42.97600
C  28.48100 63.45300 41.22400
C  27.45600 64.19000 42.14400
N  27.28000 58.32700 40.27000
C  26.57400 59.40100 40.68200
C  25.14200 59.11600 40.76500
C  25.10100 57.73000 40.36500
C  26.41400 57.35700 39.98600
C  24.15300 60.03800 41.39700
C  24.21800 56.57700 40.17500
O  23.04800 56.45700 40.40300
C  25.10600 55.43300 39.54100
C  25.00300 54.29800 40.49200
O  25.45800 54.39800 41.66200
O  24.49000 53.16400 39.88500
C  24.70900 51.91700 40.66000
H  31.95600 54.57900 38.76800
H  32.72400 60.62600 41.24200
H  26.45300 61.39800 41.30000
H  27.48300 53.36200 39.44500
H  29.65800 53.66700 37.47800
H  30.71800 53.00100 39.94900
H  30.55900 51.89400 38.56600
H  29.21200 52.08200 39.76200
H  26.19400 52.93700 37.40300
H  27.89200 52.70700 36.81000
H  26.84800 55.45600 36.43400
H  25.92800 54.15000 35.66300
H  34.96400 56.37000 37.90100
H  33.85600 55.10600 38.26700
H  35.12000 55.48900 39.46700
H  34.80800 61.01900 40.34500
H  36.27500 60.28500 40.89300
H  34.94100 60.18100 41.89200
H  31.02600 62.59500 40.75700
H  28.88900 62.06600 42.86000
H  31.91500 61.77900 43.44300
H  30.67400 63.08300 43.66500
H  32.13100 63.26300 42.59100
H  27.88000 63.30800 40.32700
H  29.27200 64.15300 40.95300
H  26.48900 64.40800 41.69300
H  27.86200 65.13900 42.49500
H  27.23800 63.61800 43.04600
H  24.60100 60.74000 42.10000
H  23.44300 59.50900 42.03100
H  23.48700 60.56300 40.71200
H  24.78200 55.15200 38.53900
H  24.35100 52.02500 41.68300
H  25.78400 51.78400 40.78800
H  24.20400 51.15000 40.07300

