158

Mg 28.64800 59.25500 41.47900
C  26.16100 57.19600 39.91300
C  31.10000 57.25100 39.95100
C  30.65000 61.72600 42.05600
C  25.95200 61.11900 42.74500
N  28.56200 57.32500 40.19700
C  27.44600 56.78600 39.54300
C  27.83800 55.61200 38.59600
C  29.35900 55.47300 38.98300
C  29.68100 56.74400 39.72800
C  29.67200 54.29800 39.87500
C  27.71600 55.94900 37.09200
C  27.22600 54.70700 36.25300
H  26.44100 54.86300 34.97900
N  30.62000 59.41800 41.21700
C  31.46300 58.45900 40.64700
C  32.75300 58.94200 40.61100
C  32.76600 60.28100 41.17300
C  31.36200 60.56200 41.51100
C  33.90100 58.02800 40.13400
C  34.00300 61.11300 41.33500
O  35.10900 60.61800 41.06600
C  33.97300 62.47000 41.94200
N  28.26200 61.16700 42.22900
C  29.30300 61.94100 42.48000
C  28.95700 63.27600 43.10100
C  27.57400 62.94300 43.61800
C  27.18900 61.69100 42.78500
C  29.96300 63.78500 44.11100
C  26.48600 64.11600 43.47000
C  25.93200 64.75200 44.74400
N  26.42900 59.20000 41.36100
C  25.54400 59.97900 42.02200
C  24.26000 59.47700 41.86000
C  24.43700 58.32900 41.04300
C  25.79900 58.21600 40.76400
C  22.92000 59.94300 42.52800
C  23.69200 57.33700 40.39500
O  22.45600 57.21300 40.24000
C  24.81100 56.49900 39.65400
C  24.72200 55.23500 40.32500
O  24.83000 55.15600 41.49300
O  24.52700 54.19700 39.40500
C  24.34700 52.85400 40.05100
H  31.74900 56.50900 39.48000
H  31.27800 62.58500 42.30100
H  25.22100 61.76800 43.23100
H  27.23200 54.74300 38.84800
H  30.01900 55.47400 38.11600
H  30.63200 53.81700 39.68500
H  28.88500 53.55200 39.98800
H  29.81800 54.62200 40.90500
H  28.71800 56.05600 36.67500
H  27.08700 56.79100 36.80500
H  26.57500 54.03500 36.81300
H  28.14100 54.17200 35.99900
H  33.93500 57.80700 39.06800
H  33.71300 57.02100 40.50600
H  34.89500 58.31900 40.47400
H  33.04700 62.98900 41.69600
H  34.91100 62.97000 41.70100
H  33.93300 62.45800 43.03100
H  28.82500 63.99200 42.29000
H  27.62500 62.69600 44.67800
H  29.51500 64.07200 45.06200
H  30.53300 64.65800 43.79400
H  30.74500 63.06700 44.35600
H  25.58700 63.82600 42.92500
H  27.01700 64.92500 42.96800
H  24.88800 64.45000 44.82600
H  26.03700 65.83700 44.76800
H  26.43200 64.38400 45.64000
H  22.07700 59.50700 41.99100
H  22.93100 60.98400 42.20200
H  22.95800 59.66400 43.58100
H  24.67400 56.32300 38.58700
H  23.27300 52.66900 40.07700
H  24.84600 52.73900 41.01300
H  24.58800 52.02200 39.38900
Mg 17.44600 52.46500 25.58000
C  19.16200 50.89100 28.17600
C  15.32300 53.76600 27.96900
C  15.82700 53.99400 23.12300
C  19.56500 50.94000 23.37900
N  17.20200 52.17400 27.80400
C  18.11700 51.60000 28.62300
C  17.72800 52.04800 30.10300
C  16.36500 52.76600 30.05100
C  16.23600 52.87200 28.49900
C  15.18100 52.08100 30.81100
C  18.92300 52.90700 30.72000
C  19.16000 52.78300 32.25600
H  18.09200 52.07900 33.15500
N  15.67900 53.56500 25.50300
C  15.06100 54.02800 26.62300
C  13.84800 54.74300 26.18500
C  13.92800 54.87900 24.78300
C  15.18300 54.11200 24.42700
C  12.73600 55.05200 27.18400
C  13.03000 55.71700 23.86200
O  13.23400 55.77900 22.63500
C  11.88500 56.56900 24.44300
N  17.46200 52.18900 23.59100
C  16.85500 53.09300 22.77600
C  17.12800 52.94900 21.34600
C  18.53900 52.21800 21.40400
C  18.53200 51.68000 22.86200
C  16.03900 52.12600 20.56000
C  19.78300 52.96300 20.86300
C  20.89600 52.10100 20.39000
N  18.99900 51.13000 25.70200
C  19.84600 50.66100 24.70800
C  20.98300 49.97100 25.24800
C  20.67800 49.95400 26.61500
C  19.47500 50.70400 26.84700
C  22.03000 49.12300 24.40000
C  21.19100 49.59800 27.88500
O  22.18200 49.05900 28.21200
C  20.23400 50.22500 28.99600
C  19.72100 49.19300 29.86500
O  18.95700 48.33900 29.53900
O  20.17600 49.39800 31.14600
C  19.46400 48.43500 32.06400
H  14.77000 54.42400 28.64300
H  15.40500 54.62400 22.33700
H  20.46200 50.83400 22.76500
H  17.58700 51.13700 30.68500
H  16.36000 53.76200 30.49400
H  14.60200 52.71800 31.48100
H  15.62200 51.38000 31.52000
H  14.62300 51.72000 29.94800
H  18.55600 53.92600 30.59400
H  19.78400 52.72300 30.07800
H  19.33300 53.78000 32.66200
H  20.10000 52.34200 32.58600
H  12.98800 55.95400 27.74200
H  12.61800 54.36600 28.02300
H  11.77300 55.17400 26.68800
H  12.28500 57.05100 25.33600
H  11.19100 55.73200 24.50500
H  11.45000 57.31400 23.77700
H  17.34100 53.85800 20.78300
H  18.57700 51.25600 20.89300
H  15.35300 51.77400 21.33100
H  16.55800 51.29900 20.07600
H  15.61000 52.87200 19.89100
H  20.14900 53.52700 21.72100
H  19.38600 53.56900 20.04800
H  20.57500 51.06100 20.32400
H  21.75600 52.27900 21.03600
H  21.02800 52.45100 19.36600
H  21.85100 49.20000 23.32700
H  21.93300 48.07700 24.69100
H  23.06400 49.35800 24.65200
H  20.88900 50.77100 29.67600
H  18.38700 48.60200 32.04500
H  19.82200 48.44400 33.09300
H  19.66900 47.42900 31.69900

