158

Mg -2.31500 17.24400 27.28200
C  -2.82900 15.39700 30.15600
C  -2.82600 20.12600 29.22200
C  -2.44200 19.13700 24.53500
C  -2.29700 14.33100 25.39900
N  -2.71800 17.63400 29.50600
C  -2.77700 16.75000 30.51000
C  -2.89300 17.43200 31.79000
C  -3.11900 18.88200 31.46800
C  -2.77200 18.87200 29.99300
C  -4.39800 19.55600 31.98000
C  -1.70200 17.19300 32.76000
C  -1.50600 18.05600 34.07800
H  -1.14100 17.39100 35.42700
N  -2.49900 19.35500 26.98400
C  -2.80800 20.31100 27.84200
C  -2.91700 21.56700 27.16300
C  -2.51400 21.35400 25.77600
C  -2.43000 19.86600 25.70400
C  -3.24100 22.86200 27.98000
C  -2.42100 22.36300 24.63100
O  -2.20500 22.02400 23.50500
C  -2.61800 23.81100 24.92200
N  -2.46400 16.67900 25.24300
C  -2.48600 17.68700 24.34400
C  -2.50800 17.07600 22.89600
C  -2.11200 15.63200 23.21500
C  -2.36000 15.47900 24.65600
C  -3.96800 17.28800 22.26500
C  -0.71500 15.20700 22.83300
C  0.41600 16.11700 23.17200
N  -2.40900 15.20400 27.66300
C  -2.41300 14.18600 26.80600
C  -2.58100 12.92000 27.52500
C  -2.69500 13.35300 28.85300
C  -2.59300 14.72300 28.90400
C  -2.80800 11.50200 26.99200
C  -3.05400 12.90100 30.20000
O  -3.38000 11.83100 30.77900
C  -2.93700 14.16900 31.07900
C  -1.73000 13.86500 31.83800
O  -0.62300 14.24600 31.52300
O  -2.01300 13.43500 33.04800
C  -0.92000 13.41100 34.09900
H  -3.03700 20.99800 29.84400
H  -2.47500 19.68100 23.58900
H  -1.98700 13.45400 24.82700
H  -3.80700 17.14400 32.30900
H  -2.27400 19.42400 31.89300
H  -4.12900 20.32400 32.70600
H  -4.97400 18.83300 32.55800
H  -5.04300 19.91500 31.17900
H  -0.79800 17.29200 32.16000
H  -1.69200 16.21300 33.23700
H  -2.26600 18.82900 34.19300
H  -0.57000 18.56000 33.83800
H  -3.65000 22.68100 28.97400
H  -3.95900 23.47500 27.43500
H  -2.38900 23.52300 28.14100
H  -2.32300 24.33600 24.01300
H  -2.02300 24.09500 25.79000
H  -3.69700 23.89400 25.05200
H  -1.80500 17.61800 22.26300
H  -2.73400 14.84500 22.78800
H  -4.54100 17.97500 22.88700
H  -4.57300 16.39100 22.39200
H  -3.81400 17.50700 21.20800
H  -0.76900 15.16100 21.74600
H  -0.45700 14.17700 23.08100
H  -0.08100 16.64100 23.98800
H  0.77900 16.81100 22.41500
H  1.24300 15.54100 23.58700
H  -3.85000 11.40100 27.29400
H  -2.10400 10.92300 27.58900
H  -2.73100 11.38400 25.91100
H  -3.81700 14.24000 31.71700
H  -0.87600 14.33600 34.67300
H  0.12000 13.32300 33.78300
H  -0.86500 12.64000 34.86700
Mg 47.72800 25.17900 28.70400
C  48.59000 27.48400 31.21000
C  47.21400 22.76800 31.16700
C  47.36600 22.78900 26.30700
C  49.02800 27.36900 26.37100
N  47.94100 25.16900 30.95400
C  48.13700 26.26500 31.74400
C  47.82800 25.96200 33.18400
C  47.49900 24.48200 33.15200
C  47.61300 24.00400 31.65400
C  48.40400 23.62800 34.11100
C  46.78300 26.93800 33.80200
C  47.25200 27.79300 35.02300
H  46.18800 28.05500 36.06900
N  47.17800 23.11800 28.74500
C  47.02400 22.36100 29.85800
C  46.48500 21.09200 29.38800
C  46.60700 21.01400 27.98400
C  47.05100 22.34500 27.62000
C  45.97200 20.12700 30.40800
C  46.33600 19.85800 27.04700
O  46.57000 19.89100 25.85100
C  45.73400 18.63400 27.61000
N  48.06700 25.08800 26.60000
C  47.86200 23.99500 25.82100
C  48.26100 24.24900 24.38100
C  48.69900 25.80900 24.40100
C  48.60700 26.13000 25.84200
C  49.37900 23.33400 23.84300
C  47.74100 26.77700 23.64400
C  48.36400 28.11700 23.03900
N  48.55000 27.08900 28.72700
C  49.05500 27.86100 27.68100
C  49.54300 29.08900 28.18800
C  49.42500 28.94400 29.58400
C  48.79900 27.73800 29.87300
C  50.23900 30.16500 27.43000
C  49.67800 29.71800 30.81600
O  50.26800 30.79100 31.07700
C  49.17400 28.70900 31.93300
C  50.28600 28.38500 32.85500
O  51.10700 27.47600 32.76500
O  50.16900 29.15300 33.93700
C  51.16400 28.80200 35.02900
H  46.97100 22.03900 31.94200
H  47.20200 22.09000 25.48400
H  49.37200 28.05900 25.59800
H  48.83800 26.12500 33.56200
H  46.45300 24.31800 33.41300
H  47.83200 23.49800 35.03000
H  49.34500 24.13700 34.32200
H  48.57900 22.62400 33.72600
H  45.86300 26.45700 34.13500
H  46.56300 27.62400 32.98400
H  47.58100 28.78600 34.71400
H  48.08800 27.30000 35.51900
H  44.94900 19.88900 30.11500
H  45.91500 20.36900 31.46900
H  46.57400 19.22400 30.50500
H  46.42100 17.86500 27.96200
H  45.36700 18.04500 26.77000
H  44.92000 18.83900 28.30500
H  47.37600 24.24200 23.74500
H  49.73100 26.01200 24.11500
H  49.51600 22.39900 24.38700
H  50.34300 23.82800 23.72400
H  49.23400 23.08100 22.79200
H  47.01000 27.08200 24.39300
H  47.17000 26.24400 22.88500
H  47.75000 28.38500 22.17900
H  49.43200 27.98000 22.87300
H  48.23800 28.87100 23.81600
H  49.53600 30.99700 27.44900
H  50.42200 29.87500 26.39600
H  51.09600 30.55500 27.97900
H  48.38300 29.26700 32.43400
H  52.20400 28.66800 34.73200
H  50.98500 27.85100 35.53100
H  51.19200 29.64200 35.72300

