158

Mg 35.16600 3.33400 29.44400
C  33.11100 4.39400 31.86400
C  37.93500 3.20800 31.41000
C  37.10100 2.65000 26.75800
C  32.45500 3.91400 27.08700
N  35.54700 3.97000 31.34400
C  34.48600 4.11100 32.23700
C  35.02000 4.12800 33.66000
C  36.61000 3.98200 33.41700
C  36.75400 3.70300 31.95500
C  37.42900 5.23300 33.88100
C  34.28700 3.03600 34.49600
C  33.98800 3.36200 35.98500
H  34.99000 4.29800 36.72200
N  37.14600 2.77000 29.16800
C  38.10900 2.72800 30.13400
C  39.24300 2.05800 29.64400
C  39.07300 1.94600 28.25000
C  37.74700 2.47500 28.00400
C  40.45900 1.71600 30.44600
C  40.09200 1.51000 27.16800
O  39.74700 1.45600 25.95600
C  41.53100 1.34600 27.58500
N  34.83300 3.38300 27.27000
C  35.81800 3.02100 26.41000
C  35.36100 2.88900 24.97200
C  33.85900 3.32000 25.08000
C  33.64200 3.54000 26.58700
C  36.10000 3.77000 23.99100
C  32.82800 2.25600 24.47400
C  32.45100 0.98200 25.25400
N  33.13400 4.01300 29.44300
C  32.18000 4.20700 28.45800
C  30.93300 4.58700 29.06400
C  31.24700 4.71200 30.44800
C  32.60800 4.37200 30.56500
C  29.64200 4.61700 28.36400
C  30.65600 5.04900 31.71300
O  29.52100 5.40300 32.02500
C  31.82900 4.65700 32.69600
C  31.94500 5.68400 33.74100
O  32.69700 6.64000 33.69700
O  31.19100 5.40900 34.86100
C  31.19500 6.46100 35.88200
H  38.73300 3.09400 32.14700
H  37.59600 2.33600 25.83700
H  31.72200 4.25400 26.35200
H  34.75700 5.03500 34.20500
H  37.06700 3.12600 33.91300
H  36.86400 6.04500 34.33800
H  38.04200 5.74400 33.13800
H  38.18900 4.81300 34.53900
H  34.73100 2.04100 34.53000
H  33.27800 2.94300 34.09500
H  33.79300 2.49400 36.61600
H  33.05800 3.92600 35.92100
H  41.38500 2.20400 30.14100
H  40.59900 0.63600 30.39000
H  40.28900 1.99700 31.48500
H  42.18300 0.96000 26.80200
H  41.69500 0.66200 28.41800
H  41.82800 2.33000 27.94800
H  35.48200 1.82500 24.77100
H  33.67500 4.31700 24.67900
H  36.33700 4.75500 24.39400
H  35.46400 3.85600 23.11000
H  37.07000 3.33900 23.74300
H  33.16600 1.92600 23.49200
H  31.92200 2.82300 24.26000
H  31.37500 0.82000 25.31600
H  32.95100 0.87800 26.21700
H  32.77400 0.14000 24.64300
H  29.71000 4.90200 27.31400
H  28.98900 5.32900 28.86900
H  29.10700 3.67800 28.50500
H  31.65900 3.73500 33.25300
H  32.09800 6.33800 36.48000
H  30.34800 6.29400 36.54800
H  31.10700 7.43100 35.39400
Mg -10.64900 38.59300 41.01400
C  -8.59500 35.79600 40.53700
C  -8.46500 40.50600 39.35000
C  -12.92700 41.07200 41.24300
C  -13.12400 36.40200 42.49200
N  -8.83600 38.11500 39.84500
C  -8.15800 36.90700 39.77300
C  -6.88600 37.05900 38.94500
C  -6.81600 38.60300 38.65000
C  -8.10400 39.15700 39.37100
C  -5.47800 39.17900 39.14400
C  -6.93300 36.12700 37.70000
C  -5.60100 35.40300 37.31300
H  -4.54900 36.17900 36.45100
N  -10.64300 40.53600 40.41400
C  -9.59900 41.21700 39.76000
C  -9.94700 42.60300 39.58800
C  -11.31700 42.80900 40.03300
C  -11.70900 41.46200 40.64800
C  -8.96500 43.65800 39.16800
C  -12.06800 44.17500 40.00300
O  -11.61800 45.17600 39.54800
C  -13.41600 44.23100 40.75800
N  -12.80400 38.60600 41.48800
C  -13.39600 39.80800 41.63900
C  -14.84300 39.70500 42.17100
C  -15.01400 38.18300 42.34400
C  -13.56500 37.65600 42.12700
C  -15.17000 40.59400 43.36800
C  -16.01800 37.50200 41.32300
C  -15.53500 36.88800 40.00800
N  -10.86500 36.58600 41.44500
C  -11.84300 35.87100 42.10900
C  -11.34400 34.57700 42.44200
C  -10.09900 34.51700 41.83700
C  -9.84800 35.76800 41.23200
C  -12.15500 33.49900 43.10300
C  -8.98000 33.65500 41.58100
O  -8.88600 32.51700 41.91800
C  -7.95900 34.42700 40.80600
C  -6.66000 34.33900 41.52200
O  -5.97200 33.32200 41.49600
O  -6.36400 35.51100 42.23400
C  -5.15000 35.50300 43.13600
H  -7.63600 41.11100 38.97600
H  -13.69300 41.80700 41.49800
H  -13.83300 35.71100 42.95300
H  -6.00100 36.73800 39.49300
H  -6.80000 38.97100 37.62400
H  -5.59900 39.61900 40.13400
H  -5.10400 39.96500 38.48700
H  -4.73800 38.40300 39.33900
H  -7.18100 36.83700 36.91200
H  -7.71700 35.38600 37.85700
H  -5.96100 34.57500 36.70200
H  -5.12400 35.00700 38.21000
H  -7.95000 43.26100 39.19000
H  -9.05500 44.39700 39.96400
H  -9.15200 44.18800 38.23500
H  -13.23900 44.06000 41.82000
H  -14.07500 43.48900 40.30700
H  -13.88900 45.21100 40.70700
H  -15.48000 39.95900 41.32400
H  -15.34700 37.91100 43.34500
H  -14.18800 40.92700 43.70400
H  -15.61400 39.99500 44.16300
H  -15.75600 41.45000 43.03000
H  -16.83500 38.16800 41.04900
H  -16.38400 36.60600 41.82500
H  -16.13200 37.05200 39.11200
H  -15.32800 35.81800 40.00500
H  -14.56100 37.36400 39.89100
H  -12.55100 33.80800 44.07000
H  -11.42300 32.75800 43.42300
H  -12.94700 33.07000 42.48900
H  -8.06800 33.96600 39.82500
H  -5.38800 35.59100 44.19600
H  -4.65800 36.47400 43.07100
H  -4.39000 34.74100 42.96500

