158

Mg 55.23700 24.64900 45.06200
C  52.25800 26.51000 43.97900
C  53.71500 21.84500 44.12400
C  58.15800 23.23500 45.66900
C  56.70300 27.92800 45.54400
N  53.33300 24.31400 43.94600
C  52.29500 25.10600 43.59100
C  51.25800 24.36200 42.89400
C  51.54100 22.89800 43.48900
C  52.98900 23.01800 43.85300
C  50.66700 22.48900 44.74900
C  51.47500 24.49200 41.37900
C  50.30700 25.04300 40.59100
H  50.10200 24.42900 39.22500
N  55.91300 22.77800 44.89100
C  55.12500 21.69700 44.47800
C  55.88900 20.46100 44.65600
C  57.19200 20.87600 45.11700
C  57.13200 22.35500 45.32300
C  55.30900 19.12800 44.36600
C  58.36400 19.79400 45.29900
O  58.15400 18.63300 44.98000
C  59.72500 20.23900 45.65900
N  57.23600 25.51200 45.44300
C  58.29200 24.62600 45.69900
C  59.52000 25.44500 46.08900
C  58.97300 26.94600 46.15000
C  57.57600 26.80100 45.70900
C  60.24900 24.95400 47.43600
C  59.71800 27.87400 45.18900
C  60.64300 28.87900 45.77400
N  54.63100 26.74600 45.02400
C  55.33500 27.91900 45.31800
C  54.43500 28.99800 45.37100
C  53.26400 28.53500 44.76300
C  53.39500 27.14000 44.57700
C  54.68500 30.37900 45.81300
C  51.87700 28.92800 44.46100
O  51.25000 30.00200 44.55800
C  51.23100 27.60900 43.84900
C  50.73400 28.01600 42.49800
O  51.46900 28.35200 41.49600
O  49.38200 28.08600 42.53400
C  48.82400 28.58200 41.32100
H  53.17900 20.90200 43.99300
H  59.00200 22.65700 46.05200
H  57.16900 28.86900 45.84200
H  50.29500 24.82200 43.11500
H  51.41400 22.12500 42.73000
H  50.03700 23.33600 45.02400
H  51.29400 22.23600 45.60400
H  50.03900 21.66800 44.40600
H  51.51400 23.46100 41.02600
H  52.38500 25.03800 41.12700
H  50.54600 26.08500 40.37800
H  49.38600 24.95700 41.16700
H  54.31900 19.12400 44.82200
H  55.91300 18.24200 44.56000
H  55.19400 19.09200 43.28200
H  60.20700 19.30400 45.94600
H  59.68600 20.79200 46.59800
H  60.09800 20.84000 44.83000
H  60.34400 25.23200 45.40700
H  59.00000 27.40800 47.13700
H  60.40100 25.77500 48.13600
H  61.25200 24.58500 47.22100
H  59.63300 24.26200 48.01000
H  59.00700 28.29000 44.47600
H  60.37300 27.27000 44.56100
H  61.17700 29.34800 44.94700
H  61.34300 28.40400 46.46100
H  60.04700 29.61800 46.31000
H  53.80700 30.97700 45.56700
H  55.53000 30.77000 45.24700
H  54.75600 30.47000 46.89600
H  50.34800 27.30800 44.41200
H  49.24400 29.57300 41.14800
H  47.75000 28.46100 41.46100
H  49.10800 28.06800 40.40300
Mg 48.10400 16.42200 29.61000
C  45.54700 16.10800 32.00800
C  50.01700 17.85500 32.06600
C  50.21700 16.78800 27.23100
C  45.79200 14.87000 27.31300
N  47.72100 17.04100 31.80500
C  46.72700 16.61400 32.54800
C  47.01200 16.81400 33.95300
C  48.41700 17.61900 34.01300
C  48.77100 17.52400 32.53900
C  48.39400 19.04300 34.53000
C  46.92200 15.56100 34.87800
C  47.78000 15.50900 36.10400
H  47.83500 16.65200 37.10900
N  49.89600 17.22900 29.62800
C  50.60500 17.65400 30.74700
C  51.96800 18.01500 30.27000
C  51.95300 17.89700 28.81000
C  50.63700 17.26800 28.50700
C  52.98400 18.52700 31.26800
C  53.04500 18.26900 27.80800
O  52.92700 18.18400 26.56400
C  54.31600 18.88600 28.32400
N  47.94100 16.12900 27.41500
C  49.04200 16.26000 26.71200
C  48.83600 15.70700 25.28500
C  47.47100 14.91900 25.37100
C  47.05500 15.29700 26.83700
C  48.81900 16.86300 24.20900
C  47.54200 13.33700 25.24700
C  46.91600 12.68500 23.94000
N  46.19700 15.52800 29.64600
C  45.39600 14.96400 28.64800
C  44.13300 14.51800 29.24900
C  44.17300 14.97500 30.56500
C  45.37200 15.63300 30.71900
C  43.02500 13.78600 28.49200
C  43.41100 14.90700 31.85800
O  42.34500 14.42100 32.18200
C  44.28000 15.69600 32.82100
C  43.62900 16.83300 33.63300
O  43.76600 18.04000 33.49400
O  43.02100 16.12600 34.64400
C  42.61600 16.99200 35.74000
H  50.77500 18.28500 32.72400
H  51.05700 16.64600 26.54800
H  45.28700 14.11700 26.70300
H  46.22800 17.51100 34.25000
H  49.18700 16.96600 34.42300
H  49.24900 19.27200 35.16500
H  47.53800 19.12300 35.20000
H  48.43600 19.83100 33.77900
H  47.12900 14.69900 34.24500
H  45.90000 15.52200 35.25600
H  48.73900 15.13200 35.74800
H  47.37600 14.65700 36.65100
H  53.48100 17.64300 31.66800
H  52.48700 18.99700 32.11700
H  53.68200 19.21900 30.79800
H  54.63600 18.23300 29.13700
H  54.12900 19.91600 28.62800
H  55.06400 18.83800 27.53300
H  49.62200 14.97300 25.10100
H  46.74800 15.26000 24.63000
H  49.45600 16.68700 23.34200
H  49.16700 17.77200 24.70000
H  47.81200 17.02700 23.82800
H  46.92300 12.91600 26.03900
H  48.55000 12.99400 25.48000
H  47.57000 12.05000 23.34200
H  46.69700 13.51900 23.27200
H  46.02500 12.09300 24.14700
H  43.02400 14.01300 27.42600
H  42.11900 14.20100 28.93500
H  43.14000 12.71000 28.61900
H  44.57500 14.96300 33.57100
H  41.89700 16.44100 36.34700
H  41.92000 17.80500 35.52900
H  43.42400 17.08800 36.46500

