158

Mg -1.44400 17.14300 26.19500
C  -1.55300 14.91700 28.95500
C  -1.91100 19.64200 28.50200
C  -1.61200 19.15900 23.64900
C  -1.48600 14.27900 24.11000
N  -1.63700 17.19700 28.40400
C  -1.50900 16.22200 29.38400
C  -1.79500 16.83300 30.79100
C  -2.41600 18.27000 30.46200
C  -2.00800 18.38400 29.02700
C  -3.93200 18.28300 30.62100
C  -0.63100 16.87700 31.83300
C  -1.12400 16.37900 33.29900
H  -0.05600 16.06800 34.47200
N  -1.62100 19.21300 26.03600
C  -1.73000 20.06900 27.09800
C  -1.68700 21.40200 26.61600
C  -1.61300 21.31200 25.22400
C  -1.64700 19.88300 24.90200
C  -1.69700 22.58600 27.56900
C  -1.43500 22.41900 24.13000
O  -1.30700 22.24200 22.89100
C  -1.26900 23.79400 24.69500
N  -1.40000 16.77000 24.21700
C  -1.60200 17.75800 23.29700
C  -1.69100 17.25600 21.93000
C  -1.38400 15.72000 22.05200
C  -1.34900 15.53100 23.55100
C  -3.09600 17.60200 21.18100
C  0.00900 15.20400 21.41700
C  -0.14800 14.83100 19.95900
N  -1.52100 15.07200 26.43500
C  -1.65900 14.01000 25.48500
C  -1.74600 12.71300 26.13100
C  -1.72900 12.98700 27.52900
C  -1.52100 14.43900 27.67700
C  -1.94800 11.39200 25.52200
C  -1.81600 12.37900 28.88300
O  -1.90700 11.18400 29.22600
C  -1.82900 13.63800 29.87900
C  -0.90000 13.47000 30.95900
O  0.34100 13.57700 30.98000
O  -1.56100 13.04200 32.00500
C  -0.76600 12.38900 33.06700
H  -2.00200 20.31200 29.35900
H  -1.77700 19.74300 22.74100
H  -1.62000 13.41300 23.45800
H  -2.62600 16.22700 31.15400
H  -2.05300 19.03300 31.15100
H  -4.32000 17.31600 30.94100
H  -4.44400 18.59000 29.70900
H  -4.25300 18.94000 31.43000
H  -0.35800 17.92500 31.95600
H  0.29600 16.41300 31.49600
H  -1.53100 15.39400 33.07000
H  -1.89300 17.05900 33.66300
H  -2.02100 22.40900 28.59400
H  -2.30500 23.41800 27.21300
H  -0.64000 22.85100 27.61400
H  -0.54700 23.87600 25.50700
H  -2.24300 24.07400 25.09700
H  -0.97300 24.51200 23.93000
H  -0.96800 17.71900 21.25900
H  -2.25400 15.14800 21.72900
H  -2.84600 18.00500 20.19900
H  -3.68400 18.35300 21.70900
H  -3.68500 16.69700 21.03100
H  0.39600 14.39300 22.03500
H  0.77900 15.97500 21.43900
H  0.49400 15.47100 19.35300
H  -1.14500 14.80700 19.51700
H  0.44800 13.92700 19.83800
H  -0.98700 10.98200 25.21000
H  -2.48600 11.54000 24.58600
H  -2.57300 10.85800 26.23800
H  -2.79200 13.79400 30.36600
H  -1.54200 11.97800 33.71300
H  -0.24300 13.14400 33.65300
H  -0.02200 11.70200 32.66400
Mg 9.07500 3.06100 27.69700
C  10.42800 1.77100 30.67300
C  7.09200 5.14000 29.67400
C  7.52300 4.02000 25.06300
C  10.56800 0.29000 26.10700
N  8.60000 3.16400 29.93300
C  9.49300 2.75500 30.90400
C  9.20800 3.40300 32.27800
C  7.91400 4.21700 31.95300
C  7.88000 4.20900 30.38900
C  6.63100 3.58400 32.52400
C  10.43200 4.27600 32.75500
C  10.88900 4.12800 34.21200
H  9.90400 3.65100 35.20800
N  7.60500 4.54600 27.37400
C  7.01100 5.32200 28.29000
C  6.25200 6.26600 27.57000
C  6.24300 5.96000 26.19900
C  7.13000 4.80300 26.10800
C  5.58600 7.50700 28.27100
C  5.50500 6.62200 25.06000
O  5.63100 6.16100 23.91600
C  4.49800 7.86300 25.31700
N  9.23900 2.41700 25.81300
C  8.38800 2.90100 24.89500
C  8.61700 2.29700 23.48200
C  9.44500 1.10800 23.92100
C  9.77700 1.21900 25.38800
C  7.32300 1.87600 22.71800
C  10.68500 0.87400 23.06900
C  10.65600 -0.40400 22.23700
N  10.45000 1.52800 28.22100
C  10.94000 0.52600 27.44000
C  11.81400 -0.31700 28.25500
C  11.69500 0.12900 29.52000
C  10.73000 1.16100 29.45800
C  12.70600 -1.37600 27.70300
C  12.14300 -0.00500 30.86700
O  13.06300 -0.68900 31.29800
C  11.27000 1.03800 31.65800
C  10.46400 0.30000 32.75100
O  9.30300 -0.12500 32.65300
O  11.27200 0.04800 33.85400
C  10.59700 -0.65600 34.86700
H  6.46600 5.88000 30.17700
H  7.16100 4.35000 24.08700
H  10.76500 -0.64900 25.58600
H  8.93900 2.62100 32.98900
H  7.95100 5.22700 32.36100
H  6.37500 4.15900 33.41400
H  6.98200 2.58400 32.78000
H  5.89300 3.39600 31.74500
H  10.12100 5.31200 32.61700
H  11.18700 4.17700 31.97600
H  11.24700 5.12700 34.45600
H  11.79900 3.52900 34.24400
H  6.01600 7.78300 29.23400
H  4.51100 7.34300 28.33700
H  5.68400 8.38300 27.62900
H  3.89900 8.11500 24.44200
H  5.12700 8.72400 25.54400
H  3.84400 7.59600 26.14700
H  9.25500 3.00800 22.95700
H  8.81400 0.22000 23.90800
H  6.49100 2.02500 23.40600
H  7.23800 0.88200 22.27900
H  7.26500 2.47100 21.80700
H  11.58700 0.96200 23.67500
H  10.72400 1.58300 22.24200
H  11.32600 -0.30800 21.38300
H  9.69700 -0.68600 21.80300
H  11.09400 -1.27000 22.73400
H  13.55500 -1.58400 28.35400
H  13.01700 -1.20900 26.67100
H  11.98100 -2.18900 27.65900
H  12.02500 1.71600 32.05600
H  11.14700 -0.52100 35.79800
H  10.56300 -1.72500 34.65600
H  9.58000 -0.31800 35.06400

