158

Mg -0.67600 7.80100 26.58500
C  0.26400 9.39900 29.63400
C  -0.76900 4.89900 28.24900
C  -0.62800 6.51700 23.70600
C  0.05500 11.04500 25.03500
N  -0.21300 7.30900 28.73700
C  -0.07900 8.06800 29.81500
C  -0.30900 7.32700 31.14100
C  -0.58000 5.86100 30.55200
C  -0.42900 5.98100 29.04200
C  0.20700 4.71600 31.21700
C  -1.53200 7.84000 32.00100
C  -1.32300 8.27500 33.43300
H  0.02800 7.84100 34.13100
N  -0.76800 5.92500 26.04400
C  -0.90400 4.80400 26.83500
C  -1.10100 3.62800 26.01200
C  -1.00600 4.18600 24.65100
C  -0.84800 5.67000 24.79100
C  -1.21200 2.18100 26.57700
C  -1.18000 3.43200 23.34500
O  -1.33900 3.96500 22.24800
C  -1.34400 1.91600 23.42100
N  -0.53900 8.72900 24.60800
C  -0.42700 7.89800 23.58300
C  -0.12300 8.70000 22.26600
C  -0.38800 10.18400 22.75300
C  -0.34900 10.04000 24.26100
C  1.35700 8.47600 21.87100
C  -1.60800 10.77100 22.03100
C  -1.34100 11.43100 20.65800
N  -0.04500 9.86400 27.18500
C  0.25900 11.01200 26.43600
C  0.79300 11.97900 27.29800
C  0.75800 11.41300 28.60200
C  0.25200 10.14200 28.43600
C  1.18800 13.36600 26.98700
C  1.05800 11.69500 29.95400
O  1.61400 12.61800 30.54800
C  0.53100 10.40600 30.72300
C  1.62800 10.08600 31.71100
O  2.63100 9.41700 31.45600
O  1.38500 10.80000 32.86800
C  2.56900 10.87800 33.70200
H  -1.00500 3.93500 28.70500
H  -0.52300 6.05200 22.72300
H  0.37700 12.02100 24.66600
H  0.62300 7.26900 31.70400
H  -1.63300 5.58800 30.49100
H  0.83300 5.17000 31.98500
H  0.99400 4.38800 30.53700
H  -0.43500 3.90300 31.55800
H  -2.32000 7.09300 31.89900
H  -1.83000 8.75900 31.49800
H  -2.12900 7.97900 34.10400
H  -1.26300 9.35700 33.55200
H  -0.38700 1.62100 26.13600
H  -2.13300 1.70900 26.23400
H  -0.94800 1.98400 27.61600
H  -1.48100 1.58700 22.39100
H  -2.23000 1.64300 23.99400
H  -0.48100 1.37900 23.81600
H  -0.86000 8.54300 21.47800
H  0.46000 10.83300 22.53600
H  1.95000 9.37300 22.05000
H  1.43900 8.10700 20.84900
H  1.79300 7.69500 22.49500
H  -1.92700 11.61200 22.64700
H  -2.39500 10.03900 21.84900
H  -0.69200 10.78300 20.06900
H  -0.91800 12.42600 20.79900
H  -2.31200 11.46600 20.16300
H  0.64400 14.08700 27.59700
H  1.08300 13.65400 25.94100
H  2.23700 13.41000 27.27700
H  -0.30400 10.60300 31.39700
H  3.23100 11.61400 33.24700
H  2.96300 9.86800 33.81100
H  2.30400 11.25900 34.68800
Mg -11.08800 38.94500 41.36300
C  -8.74000 36.12100 40.96100
C  -9.04200 40.80000 39.51300
C  -13.63700 41.07800 40.99500
C  -13.36500 36.43500 42.38300
N  -9.17000 38.46500 40.21600
C  -8.40800 37.30800 40.24300
C  -7.10300 37.54400 39.51400
C  -7.15700 39.07100 39.09500
C  -8.53500 39.48900 39.67200
C  -5.96600 39.97600 39.61800
C  -7.05900 36.62600 38.26500
C  -5.72400 35.89100 38.20900
H  -4.95700 36.11900 36.93900
N  -11.19900 40.73700 40.47800
C  -10.22800 41.33900 39.84400
C  -10.61500 42.69700 39.51200
C  -11.98400 42.80600 39.83500
C  -12.35100 41.51400 40.48000
C  -9.73400 43.83200 38.79000
C  -12.87400 43.98600 39.55300
O  -12.40200 45.01700 38.97400
C  -14.31500 44.04400 39.81200
N  -13.21000 38.76900 41.67600
C  -14.02300 39.86000 41.54800
C  -15.50700 39.48800 41.96500
C  -15.36500 37.95200 42.36400
C  -13.91700 37.70400 42.13600
C  -16.14400 40.32100 43.15100
C  -16.30100 37.02700 41.59500
C  -17.06900 36.02600 42.55600
N  -11.14500 36.74700 41.72000
C  -12.10400 35.92700 42.20100
C  -11.57300 34.61900 42.47600
C  -10.33400 34.66600 41.97700
C  -10.05000 35.97500 41.51700
C  -12.37700 33.59200 43.10400
C  -9.13000 33.85800 41.81400
O  -8.96500 32.67600 41.99600
C  -8.07800 34.78700 41.05500
C  -6.72600 34.78500 41.70400
O  -5.83800 33.95100 41.61300
O  -6.55700 36.00900 42.38600
C  -5.25800 36.25900 43.14700
H  -8.28500 41.45700 39.07900
H  -14.54800 41.67300 40.90000
H  -14.04000 35.74700 42.89600
H  -6.17000 37.50400 40.07600
H  -7.20400 39.23000 38.01800
H  -6.41300 40.62000 40.37600
H  -5.56700 40.60700 38.82400
H  -5.10500 39.54800 40.13200
H  -7.34100 37.20400 37.38400
H  -7.87000 35.89800 38.24200
H  -5.92400 34.82700 38.32700
H  -5.05700 36.19300 39.01800
H  -10.16800 43.99300 37.80400
H  -8.71800 43.47500 38.62800
H  -9.65500 44.79700 39.29200
H  -14.31700 43.94200 40.89700
H  -14.83900 43.23000 39.31100
H  -14.73200 44.98600 39.45700
H  -16.20600 39.59300 41.13500
H  -15.53400 37.82300 43.43400
H  -16.51500 41.28600 42.80600
H  -15.54600 40.43600 44.05500
H  -16.90200 39.65600 43.56500
H  -15.79000 36.43300 40.83700
H  -17.05900 37.57700 41.03700
H  -17.00100 35.02500 42.13000
H  -18.01500 36.47600 42.85800
H  -16.55600 35.93200 43.51300
H  -13.04400 33.91300 43.90500
H  -11.60300 33.07200 43.66900
H  -12.78200 32.97100 42.30600
H  -8.06200 34.46900 40.01300
H  -5.24800 35.57700 43.99700
H  -5.04800 37.30200 43.38200
H  -4.51200 36.15600 42.35900

