158

Mg 25.60200 51.70900 26.55300
C  23.17100 52.53900 29.03500
C  27.72600 50.69500 29.14100
C  28.08400 51.24600 24.41100
C  23.53700 52.94400 24.03800
N  25.49100 51.77400 28.85900
C  24.35600 52.00500 29.56900
C  24.66200 51.60300 30.98500
C  26.13100 51.06500 31.02100
C  26.51800 51.18100 29.57400
C  27.10800 51.72200 32.10800
C  23.67000 50.60100 31.58000
C  22.98700 51.06500 32.83400
H  23.14200 50.25600 34.11600
N  27.63900 51.08300 26.74100
C  28.28300 50.68200 27.89400
C  29.66700 50.35900 27.55100
C  29.80400 50.38200 26.12600
C  28.47000 50.92800 25.72100
C  30.55000 49.66900 28.58700
C  31.01000 49.97900 25.26200
O  31.12100 50.06000 24.00800
C  32.32200 49.40200 25.93600
N  25.75300 52.00800 24.52000
C  26.87600 51.76500 23.94500
C  26.66000 51.89400 22.43500
C  25.23600 52.42600 22.29400
C  24.76100 52.41700 23.67700
C  27.70300 52.82100 21.66000
C  24.36500 51.55000 21.35800
C  23.36100 52.30100 20.48200
N  23.76000 52.53600 26.48800
C  23.06200 53.06700 25.37000
C  21.74300 53.51200 25.88800
C  21.79400 53.33500 27.29100
C  22.97100 52.71600 27.60600
C  20.63800 53.98400 25.06800
C  20.97200 53.42100 28.45000
O  19.80600 53.75200 28.51000
C  21.82400 52.90400 29.62100
C  22.10000 54.01700 30.53300
O  22.56200 55.10300 30.22200
O  21.51300 53.64900 31.71800
C  21.26500 54.87200 32.54900
H  28.40700 50.32700 29.91100
H  28.80400 51.18300 23.59200
H  22.91400 53.41000 23.27200
H  24.63700 52.53200 31.55500
H  26.24100 49.98500 30.92400
H  27.55500 50.93300 32.71300
H  26.51800 52.44100 32.67800
H  27.85500 52.27000 31.53400
H  24.18000 49.66500 31.81000
H  22.94500 50.47400 30.77600
H  21.91700 51.05900 32.62700
H  23.21500 52.11200 33.03100
H  30.59100 48.58600 28.47000
H  30.39500 49.91500 29.63700
H  31.54700 50.02500 28.33000
H  32.05300 48.55500 26.56600
H  32.81000 50.20500 26.48800
H  33.06700 49.05600 25.21800
H  26.73100 50.87600 22.05100
H  25.25500 53.45700 21.94100
H  27.13000 53.55100 21.08800
H  28.41300 52.28300 21.03300
H  28.31500 53.38200 22.36600
H  23.94200 50.77700 22.00000
H  25.01000 51.04300 20.64100
H  23.48400 52.07800 19.42200
H  23.37700 53.37200 20.68600
H  22.36900 51.95100 20.76700
H  19.78800 53.63100 25.65100
H  20.68000 53.55300 24.06800
H  20.44600 55.05300 24.97500
H  21.36100 52.03400 30.08600
H  21.45100 55.84900 32.10300
H  21.70300 54.84700 33.54600
H  20.21800 54.88600 32.84900
Mg 0.08200 43.52400 26.63400
C  2.16100 42.73900 29.29500
C  -2.66400 42.50100 28.55800
C  -1.92400 44.03600 24.01100
C  2.84000 44.19900 24.61300
N  -0.20400 42.75800 28.70200
C  0.77500 42.68500 29.60400
C  0.23900 42.50300 30.98700
C  -1.29200 42.07800 30.70500
C  -1.41900 42.43100 29.24500
C  -1.71000 40.62000 30.94300
C  0.48100 43.79700 31.85700
C  1.22800 43.52700 33.17300
H  0.97500 42.26800 33.98000
N  -1.99600 43.30300 26.30000
C  -2.94300 42.82900 27.17200
C  -4.21900 42.77400 26.56700
C  -3.96000 43.15900 25.20700
C  -2.56100 43.48700 25.11700
C  -5.54300 42.47900 27.31300
C  -4.89800 43.26600 24.06100
O  -4.74600 43.76500 22.96900
C  -6.32300 42.65200 24.23700
N  0.49600 44.01900 24.52700
C  -0.57200 44.39700 23.83600
C  -0.14000 45.09200 22.56500
C  1.38600 45.42000 22.87000
C  1.61200 44.49100 24.02700
C  -0.31500 44.43500 21.25600
C  1.52100 47.00000 23.17600
C  1.68000 47.96800 22.06500
N  2.03800 43.49300 26.83000
C  3.08300 43.70900 25.93000
C  4.35400 43.67900 26.59800
C  4.03600 43.12100 27.86400
C  2.63000 43.07500 28.00700
C  5.65500 43.82600 25.92600
C  4.59500 42.70500 29.15000
O  5.80300 42.50500 29.39700
C  3.38200 42.58900 30.17700
C  3.50400 41.22800 30.75100
O  3.35600 40.22200 30.10900
O  3.95800 41.26600 32.03400
C  4.39700 39.99000 32.50700
H  -3.39600 41.97500 29.17400
H  -2.54800 44.08700 23.11700
H  3.72400 44.42700 24.01300
H  0.71000 41.61400 31.40700
H  -1.92400 42.69800 31.34200
H  -2.47100 40.56200 31.72100
H  -0.91000 40.04200 31.40800
H  -2.10000 40.09600 30.07100
H  -0.50600 44.19000 32.10100
H  1.06300 44.55100 31.32700
H  0.93200 44.30100 33.88100
H  2.28500 43.61400 32.92200
H  -5.98800 41.50500 27.10900
H  -6.38400 43.12300 27.05500
H  -5.33700 42.54800 28.38100
H  -6.84200 43.33500 24.90900
H  -6.28200 41.66500 24.69800
H  -6.68900 42.57000 23.21300
H  -0.74400 45.99900 22.52800
H  1.97000 45.16700 21.98400
H  -1.01100 45.03700 20.67100
H  -0.75700 43.43900 21.25600
H  0.57600 44.17500 20.68600
H  2.41200 47.11900 23.79300
H  0.64800 47.24500 23.78200
H  0.97600 48.77900 22.25300
H  1.31900 47.54400 21.12900
H  2.66600 48.41700 21.94300
H  5.83500 44.86500 25.65000
H  5.61300 43.20600 25.03000
H  6.44000 43.46900 26.59400
H  3.39100 43.40900 30.89500
H  3.61700 39.24900 32.68000
H  4.93900 40.09800 33.44700
H  5.11200 39.64800 31.75900

