158

Mg 1.61400 -1.12500 44.45300
C  4.96300 0.04600 44.02700
C  0.57300 1.76300 42.78300
C  -1.35000 -2.51700 44.31100
C  3.02200 -4.01100 45.97200
N  2.64900 0.69400 43.56000
C  3.99500 0.85200 43.44000
C  4.21000 2.16500 42.73100
C  2.89600 2.90500 42.73900
C  1.99500 1.65900 42.95900
C  2.78900 3.99900 43.88100
C  4.89000 1.86900 41.27100
C  6.29600 2.54000 41.02700
H  7.38300 1.68100 40.33300
N  -0.14700 -0.51100 43.67900
C  -0.38900 0.76600 43.11200
C  -1.75900 0.78200 42.63900
C  -2.39900 -0.42300 43.10300
C  -1.33700 -1.20500 43.76500
C  -2.37000 1.97700 41.94000
C  -3.84300 -0.74100 42.93500
O  -4.61100 0.12100 42.42400
C  -4.37900 -2.12600 43.19800
N  1.00100 -3.07900 44.87900
C  -0.33600 -3.34300 44.89500
C  -0.74000 -4.68400 45.51800
C  0.71000 -5.21900 46.00900
C  1.68300 -4.05400 45.68100
C  -1.82300 -4.59000 46.61400
C  1.12500 -6.57100 45.32800
C  1.75400 -7.62000 46.27800
N  3.56100 -1.88800 44.81900
C  3.94600 -3.00600 45.48300
C  5.37300 -3.08100 45.62300
C  5.83100 -1.83600 45.09500
C  4.68600 -1.17900 44.58200
C  6.14800 -4.22000 46.13600
C  7.01100 -0.97900 44.84500
O  8.18700 -1.15000 45.12500
C  6.46800 0.27000 44.01600
C  6.85900 1.42200 44.96000
O  6.10500 1.92000 45.78800
O  8.08200 1.91000 44.59900
C  8.52900 3.03100 45.44600
H  0.29200 2.63900 42.19500
H  -2.34900 -2.89300 44.54400
H  3.41800 -4.92500 46.42000
H  4.93700 2.79900 43.23800
H  2.69500 3.32100 41.75200
H  3.70300 4.30100 44.39300
H  2.20300 3.69000 44.74600
H  2.39200 4.90000 43.41400
H  4.24100 2.36300 40.54800
H  4.70200 0.84900 40.93400
H  6.75400 2.81900 41.97600
H  6.22700 3.48100 40.48200
H  -2.98400 2.55800 42.62700
H  -2.91000 1.60000 41.07100
H  -1.62800 2.62700 41.47800
H  -3.94800 -2.86300 42.52100
H  -5.45200 -2.16600 43.01000
H  -4.23600 -2.42200 44.23700
H  -1.07000 -5.23300 44.63600
H  0.64000 -5.35400 47.08800
H  -1.55500 -4.84100 47.64000
H  -2.70800 -5.13400 46.28200
H  -2.16700 -3.56300 46.73100
H  1.87900 -6.33900 44.57500
H  0.23000 -6.91900 44.81300
H  2.77900 -7.76600 45.93600
H  1.30600 -8.61100 46.34800
H  1.86400 -7.24100 47.29400
H  7.01200 -3.75100 46.60600
H  6.40900 -4.88700 45.31400
H  5.57100 -4.69900 46.92700
H  6.84400 0.47400 43.01300
H  8.30400 4.05700 45.15300
H  9.61400 2.96700 45.51800
H  8.16700 3.00900 46.47400
Mg 23.76900 -5.00700 45.78000
C  26.04500 -2.76500 44.24400
C  21.32300 -3.83800 43.69500
C  22.07400 -7.65100 46.73300
C  26.67500 -6.60600 47.43200
N  23.76000 -3.53000 44.04100
C  24.77400 -2.68000 43.70500
C  24.28900 -1.55700 42.81800
C  22.81000 -1.79500 42.68200
C  22.56800 -3.14400 43.51500
C  21.84800 -0.71600 43.18000
C  24.95900 -1.59200 41.39900
C  24.96400 -0.26900 40.66900
H  24.45000 -0.20200 39.17600
N  21.87800 -5.60200 45.36400
C  20.99100 -5.03700 44.51000
C  19.79000 -5.76200 44.51300
C  20.02200 -6.95400 45.34600
C  21.38700 -6.79900 45.84700
C  18.64800 -5.26200 43.67900
C  18.96000 -7.95800 45.57800
O  17.78700 -7.81500 45.24700
C  19.25900 -9.21100 46.38900
N  24.34800 -6.92000 46.91100
C  23.35600 -7.73700 47.30800
C  23.94700 -8.97300 47.91400
C  25.38400 -8.64300 48.18100
C  25.53600 -7.29400 47.49200
C  23.15900 -9.44100 49.16400
C  26.39300 -9.69500 47.71300
C  27.49200 -10.04500 48.72200
N  25.89000 -4.71300 45.91300
C  26.85500 -5.42800 46.62200
C  28.05900 -4.71800 46.38900
C  27.82300 -3.71500 45.50000
C  26.47600 -3.74400 45.24700
C  29.38400 -5.15400 46.95200
C  28.40400 -2.60700 44.68400
O  29.62100 -2.22200 44.61900
C  27.28000 -1.96100 43.88100
C  27.21700 -0.54600 44.21000
O  27.26600 -0.04200 45.32700
O  27.18900 0.22200 42.98900
C  27.32100 1.63500 43.16300
H  20.47700 -3.36600 43.19100
H  21.66900 -8.61700 47.04200
H  27.55500 -7.06700 47.88500
H  24.52300 -0.59100 43.26700
H  22.47400 -2.12100 41.69800
H  21.10300 -1.21300 43.80200
H  21.36900 -0.36200 42.26700
H  22.27200 0.14200 43.70100
H  24.41400 -2.29300 40.76700
H  25.96300 -2.00700 41.48400
H  26.02800 -0.05100 40.57900
H  24.59000 0.56900 41.25800
H  17.73900 -5.82900 43.87800
H  18.81900 -5.31300 42.60300
H  18.35100 -4.25200 43.96300
H  19.99600 -9.81900 45.86600
H  18.35500 -9.82000 46.38000
H  19.61100 -8.93700 47.38400
H  23.92600 -9.75200 47.15300
H  25.58900 -8.52600 49.24500
H  23.00200 -10.50500 48.98900
H  22.15100 -9.04400 49.28600
H  23.78600 -9.33300 50.05000
H  26.88400 -9.15900 46.90100
H  26.06100 -10.63300 47.26800
H  27.48600 -11.13200 48.81100
H  27.33400 -9.70500 49.74500
H  28.49800 -9.72300 48.45600
H  29.65000 -6.09600 46.47000
H  29.25900 -5.33800 48.01900
H  30.08700 -4.35700 46.70900
H  27.55900 -2.01800 42.82900
H  26.50900 2.28100 42.82800
H  28.17500 2.05700 42.63500
H  27.55700 1.96900 44.17300

