158

Mg 44.39400 3.04400 46.66300
C  42.56700 5.95600 46.21100
C  41.57100 1.26100 46.15700
C  46.50000 0.42100 46.40100
C  47.36300 5.12900 46.27000
N  42.26700 3.56100 46.05100
C  41.75400 4.84400 45.95800
C  40.17700 4.75600 45.98300
C  39.95600 3.27300 46.11400
C  41.30300 2.63800 46.17100
C  39.04400 2.75900 47.22700
C  39.55000 5.43000 44.76300
C  40.10700 4.80200 43.39600
H  40.99500 5.53800 42.49200
N  44.07400 1.15400 46.28500
C  42.80400 0.57300 46.10800
C  43.01900 -0.87100 46.00100
C  44.41400 -1.10000 45.93700
C  45.12000 0.20300 46.24000
C  41.92300 -1.87400 45.89000
C  45.16000 -2.44600 45.67100
O  44.61500 -3.49300 45.45000
C  46.58400 -2.54900 45.50400
N  46.59700 2.80800 46.43900
C  47.20600 1.60500 46.55800
C  48.76100 1.71900 46.69800
C  48.92900 3.22900 46.30800
C  47.52200 3.71700 46.38800
C  49.17500 1.22500 48.15200
C  49.60800 3.43300 44.92200
C  51.10500 3.70800 44.92200
N  44.90900 5.09000 46.40100
C  46.10600 5.78900 46.34500
C  45.92000 7.21700 46.36000
C  44.48500 7.28100 46.36700
C  43.97300 5.98900 46.33800
C  46.99200 8.17900 46.37100
C  43.43500 8.21200 46.33900
O  43.47300 9.47800 46.31300
C  42.08300 7.41900 46.17700
C  41.27000 7.61800 47.47500
O  41.09000 6.79100 48.36100
O  40.53600 8.83000 47.44600
C  39.42000 8.91100 48.37000
H  40.68100 0.64000 46.03300
H  47.24700 -0.35900 46.56000
H  48.20800 5.81700 46.35400
H  39.71100 5.23900 46.84100
H  39.64800 2.80400 45.18000
H  38.16500 2.27700 46.80100
H  38.79100 3.58300 47.89500
H  39.47700 1.97700 47.85200
H  39.83700 6.48100 44.71100
H  38.46100 5.38400 44.78300
H  39.20000 4.68000 42.80400
H  40.58900 3.82600 43.46300
H  41.52000 -1.94000 44.87900
H  41.07000 -1.59900 46.51000
H  42.16000 -2.90500 46.15100
H  46.93300 -1.72800 44.87700
H  46.80500 -3.54000 45.10700
H  47.05200 -2.55800 46.48800
H  49.13800 0.95000 46.02400
H  49.50700 3.80600 47.03000
H  49.77600 1.95800 48.69100
H  49.72400 0.28500 48.11100
H  48.29300 1.09200 48.77900
H  49.06600 4.00500 44.16800
H  49.70700 2.46300 44.43300
H  51.55600 3.77900 45.91100
H  51.19000 4.64600 44.37200
H  51.62100 2.94300 44.34200
H  47.51900 8.17000 47.32500
H  46.54500 9.17100 46.31300
H  47.57300 7.97100 45.47300
H  41.45500 7.69300 45.32900
H  39.17100 9.96500 48.49500
H  39.45900 8.41600 49.34000
H  38.60100 8.40700 47.85800
Mg -4.87600 24.93800 26.44200
C  -3.35400 26.66900 29.10400
C  -5.82000 22.65800 28.75100
C  -6.34700 23.54700 23.90500
C  -3.30700 27.32300 24.18600
N  -4.69000 24.80100 28.68100
C  -4.18000 25.65900 29.53300
C  -4.51500 25.35200 30.96000
C  -4.75800 23.77900 30.95300
C  -5.13500 23.74600 29.39500
C  -3.45200 22.99700 31.23600
C  -5.74100 26.17100 31.50900
C  -5.49400 26.94800 32.83800
H  -4.96000 26.18800 34.03400
N  -5.99200 23.31500 26.28500
C  -6.25900 22.45000 27.38900
C  -7.11300 21.40400 26.88300
C  -7.32200 21.69100 25.46800
C  -6.50500 22.89700 25.15700
C  -7.55000 20.27400 27.70100
C  -8.15300 21.00800 24.38400
O  -8.23900 21.27300 23.20200
C  -9.12000 19.96800 24.88300
N  -4.62400 25.28100 24.33300
C  -5.53700 24.68100 23.56400
C  -5.40200 25.13400 22.09600
C  -4.30600 26.21000 22.11100
C  -4.07800 26.33500 23.64300
C  -5.05500 23.94000 21.15400
C  -4.71700 27.56100 21.43100
C  -3.82600 28.01200 20.27500
N  -3.55400 26.59400 26.57100
C  -3.04900 27.44100 25.58800
C  -2.18700 28.40400 26.22800
C  -2.27100 28.13400 27.59300
C  -3.13700 27.06400 27.72900
C  -1.36300 29.59500 25.71500
C  -1.74400 28.58100 28.92600
O  -0.95700 29.45500 29.27600
C  -2.62300 27.69000 29.90900
C  -1.69000 27.10200 30.91500
O  -0.69900 26.44900 30.65700
O  -1.97300 27.40000 32.17100
C  -1.04600 26.95500 33.20500
H  -6.06400 21.86100 29.45700
H  -6.92400 23.25300 23.02500
H  -2.88800 28.12700 23.57700
H  -3.69800 25.63400 31.62400
H  -5.53800 23.57200 31.68600
H  -3.53400 22.35500 32.11400
H  -2.63100 23.69100 31.41400
H  -3.22800 22.38500 30.36200
H  -6.67500 25.61400 31.58000
H  -5.99500 26.92800 30.76700
H  -6.41900 27.33500 33.26400
H  -4.86600 27.83200 32.73400
H  -8.63900 20.24400 27.73900
H  -7.13700 20.29800 28.70900
H  -7.15300 19.35900 27.26200
H  -8.56500 19.06300 25.13000
H  -9.72600 19.71000 24.01500
H  -9.75000 20.35800 25.68200
H  -6.32000 25.51300 21.64500
H  -3.32200 25.84800 21.81300
H  -5.80100 23.88400 20.36100
H  -5.05400 22.98100 21.67300
H  -4.04700 24.07500 20.76200
H  -4.78200 28.34500 22.18400
H  -5.69100 27.34400 20.99200
H  -2.89500 28.53200 20.50000
H  -4.42300 28.66200 19.63600
H  -3.61400 27.23100 19.54400
H  -1.48300 29.71200 24.63800
H  -0.28400 29.45200 25.76800
H  -1.62000 30.43200 26.36500
H  -3.29000 28.31500 30.50200
H  -0.82200 25.89100 33.12400
H  -1.61500 27.21800 34.09600
H  -0.08900 27.47300 33.25700

