158

Mg 46.42700 45.27100 42.92900
C  42.99500 44.45700 42.92800
C  47.10100 42.02000 42.31300
C  49.65900 46.11700 42.54500
C  45.50900 48.73600 43.16800
N  45.13000 43.43300 42.45100
C  43.79400 43.31100 42.73200
C  43.36000 41.84700 42.56300
C  44.72700 41.05600 42.58800
C  45.68800 42.24000 42.47800
C  45.04900 40.14600 43.83900
C  42.52600 41.64500 41.29300
C  42.79700 42.49300 40.15600
H  42.43600 42.04200 38.68500
N  48.12500 44.22100 42.56700
C  48.22500 42.89600 42.32800
C  49.61500 42.49600 42.17000
C  50.35800 43.70300 42.21800
C  49.40800 44.74500 42.36200
C  50.11800 41.07100 41.86200
C  51.86400 43.84000 42.00800
O  52.49600 42.78300 41.82000
C  52.58600 45.25600 41.92600
N  47.40200 47.14900 42.67300
C  48.79000 47.18700 42.81300
C  49.36100 48.61700 42.88600
C  48.04600 49.47000 42.78100
C  46.90900 48.43400 42.94400
C  50.21100 48.77300 44.16500
C  47.89900 50.33600 41.50300
C  48.82300 51.59900 41.53600
N  44.69800 46.48400 43.02100
C  44.41000 47.80700 43.18800
C  42.98200 48.09900 43.39800
C  42.39200 46.76400 43.26200
C  43.44600 45.82000 43.04000
C  42.25900 49.36000 43.62700
C  41.17700 46.09000 43.22200
O  40.01300 46.43200 43.25000
C  41.54100 44.56300 43.17700
C  41.00900 43.90900 44.42400
O  40.18400 43.01500 44.33100
O  41.83000 44.17100 45.48100
C  41.79500 43.08900 46.46700
H  47.41600 40.97600 42.26200
H  50.67800 46.48200 42.68500
H  45.21000 49.78400 43.23600
H  42.67900 41.57200 43.36800
H  44.93800 40.40800 41.73700
H  45.88900 40.55300 44.40200
H  45.37800 39.21500 43.37800
H  44.13100 39.98100 44.40400
H  41.44700 41.70700 41.42800
H  42.73600 40.63400 40.94300
H  43.87400 42.63300 40.06500
H  42.30600 43.45200 40.31800
H  50.29500 41.09600 40.78600
H  49.35400 40.32600 42.08200
H  51.04700 40.83800 42.38100
H  52.12000 45.91100 41.18900
H  53.64700 45.04500 41.79300
H  52.47700 45.61900 42.94800
H  49.96500 48.92700 42.03300
H  47.85200 50.01700 43.70300
H  50.36900 49.78100 44.54700
H  51.20900 48.34400 44.07300
H  49.69400 48.22100 44.94900
H  46.90200 50.77400 41.46600
H  48.11300 49.74900 40.60900
H  49.50700 51.78900 40.70900
H  49.44900 51.55300 42.42800
H  48.19800 52.49100 41.56900
H  41.44600 49.59300 42.94000
H  43.04000 50.11400 43.72300
H  41.82100 49.29300 44.62200
H  40.96000 44.14200 42.35700
H  41.15500 43.39500 47.29400
H  42.84700 43.07000 46.75100
H  41.53200 42.08500 46.13400
Mg 10.41900 47.60900 26.10200
C  8.09100 47.41300 28.76100
C  12.75600 48.41900 28.58700
C  12.37500 48.49700 23.63200
C  7.77200 47.26000 23.84100
N  10.42400 47.94300 28.47700
C  9.29600 47.71800 29.29300
C  9.64200 47.95100 30.75400
C  11.16600 48.28600 30.73800
C  11.48000 48.32000 29.16700
C  11.52000 49.57700 31.54600
C  9.32900 46.75300 31.80700
C  10.14600 46.64200 33.12400
H  9.51200 45.84100 34.24000
N  12.35600 48.20800 26.07600
C  13.15500 48.43900 27.19100
C  14.45800 48.68100 26.70900
C  14.42200 48.73700 25.26000
C  12.97900 48.52000 24.93100
C  15.67400 48.91900 27.66000
C  15.53100 48.89500 24.29600
O  15.27900 49.17900 23.11800
C  17.01400 48.83000 24.68800
N  10.05400 47.99600 23.98800
C  11.09900 48.29400 23.15100
C  10.68000 48.42300 21.71500
C  9.29400 47.83600 21.80600
C  8.97200 47.70500 23.27500
C  10.80300 49.86300 21.20300
C  9.06000 46.50900 21.04400
C  8.20600 46.62900 19.71700
N  8.33100 47.19900 26.27200
C  7.42700 47.05100 25.21100
C  6.07400 46.81800 25.72800
C  6.30600 46.92800 27.17000
C  7.68300 47.17200 27.40900
C  4.76300 46.73500 24.99600
C  5.65900 46.89600 28.40300
O  4.53000 46.51300 28.76400
C  6.73700 47.25700 29.50700
C  6.65900 46.08500 30.39000
O  7.22500 45.02000 30.24500
O  5.72100 46.41300 31.39000
C  5.72700 45.44500 32.54300
H  13.49900 48.56300 29.37300
H  13.06700 48.57700 22.79100
H  6.93600 47.12200 23.15300
H  9.05300 48.85400 30.91500
H  11.86500 47.49700 31.01600
H  11.70400 50.50800 31.00900
H  12.38100 49.33500 32.16900
H  10.74300 49.66300 32.30600
H  9.41900 45.80200 31.28200
H  8.31700 46.90800 32.18100
H  10.53200 47.61600 33.42400
H  11.03400 46.11100 32.78000
H  16.66000 48.50600 27.44900
H  15.48000 48.84300 28.73000
H  15.85200 49.97700 27.46900
H  17.22500 49.59800 25.43100
H  17.71400 49.05600 23.88400
H  17.14200 47.82900 25.10100
H  11.39500 47.81400 21.16200
H  8.59900 48.55300 21.36800
H  11.14400 50.53100 21.99400
H  9.84500 50.28100 20.89200
H  11.36400 49.81800 20.27000
H  8.72500 45.77600 21.77900
H  10.05800 46.14400 20.79900
H  7.78400 47.62500 19.57900
H  7.42600 45.88200 19.86700
H  8.68400 46.26500 18.80800
H  4.66800 45.66000 24.84000
H  4.77100 47.32900 24.08200
H  3.87400 47.01200 25.56300
H  6.40800 48.05500 30.17200
H  5.52500 46.11500 33.37900
H  6.63300 44.84000 32.59500
H  4.86200 44.86200 32.23000

