158

Mg 1.53700 -2.04800 44.31000
C  4.85300 -1.30700 43.88100
C  0.77100 0.83800 42.76400
C  -1.73200 -3.11600 44.30100
C  2.62600 -5.16900 45.60100
N  2.70000 -0.55000 43.44300
C  4.00000 -0.36400 43.41800
C  4.43400 0.91300 42.62100
C  3.06000 1.68600 42.58700
C  2.13600 0.58500 42.91900
C  2.87600 2.92500 43.49500
C  5.07900 0.55700 41.30500
C  6.31900 1.30000 40.89700
H  6.23200 2.18700 39.71100
N  -0.21200 -1.23700 43.75600
C  -0.28700 0.01800 43.12200
C  -1.68200 0.33400 42.89000
C  -2.43900 -0.82000 43.20100
C  -1.44000 -1.77800 43.78300
C  -2.10700 1.69100 42.42400
C  -3.99900 -1.04700 43.02000
O  -4.71100 -0.18000 42.55300
C  -4.80100 -2.30600 43.30900
N  0.60500 -3.90300 44.73800
C  -0.82600 -4.04200 44.69800
C  -1.21300 -5.46600 45.19100
C  0.18600 -6.09500 45.56900
C  1.19900 -4.92800 45.32300
C  -2.32900 -5.43600 46.27900
C  0.61600 -7.34800 44.64600
C  0.72700 -8.72600 45.32100
N  3.38300 -3.05800 44.73900
C  3.65700 -4.27700 45.27100
C  5.06600 -4.40100 45.58000
C  5.62800 -3.22500 45.03300
C  4.52900 -2.50900 44.50900
C  5.69700 -5.52200 46.40300
C  6.87900 -2.57500 44.73400
O  8.09800 -2.84800 44.99600
C  6.40300 -1.29600 43.94400
C  6.78400 -0.07700 44.74300
O  6.46400 0.18900 45.89700
O  7.57300 0.73600 43.99800
C  7.86900 2.03100 44.50600
H  0.49300 1.74200 42.21900
H  -2.74400 -3.48800 44.47000
H  2.79800 -6.03900 46.23800
H  5.08000 1.53600 43.24000
H  2.91200 2.01100 41.55700
H  2.16200 2.74400 44.29900
H  2.60100 3.71600 42.79700
H  3.86200 3.16300 43.89400
H  4.37700 0.51800 40.47200
H  5.40000 -0.46400 41.51100
H  7.12800 0.57500 40.98900
H  6.45400 2.03700 41.68700
H  -2.32400 1.60700 41.35900
H  -1.35700 2.44600 42.66100
H  -3.10500 1.97300 42.75900
H  -4.23600 -3.11600 42.84600
H  -5.76400 -2.21500 42.80800
H  -4.84300 -2.27900 44.39800
H  -1.57600 -5.97400 44.29800
H  0.25200 -6.40000 46.61400
H  -2.01300 -5.95800 47.18200
H  -3.17100 -5.98000 45.85000
H  -2.69700 -4.44000 46.52500
H  1.63300 -7.27500 44.26100
H  0.02100 -7.62800 43.77600
H  1.23800 -9.40700 44.64000
H  -0.29600 -9.05900 45.49500
H  1.30800 -8.61000 46.23600
H  5.22500 -6.35300 45.88000
H  5.31100 -5.56800 47.42100
H  6.76300 -5.51200 46.17700
H  6.75500 -1.25700 42.91300
H  8.18000 2.66600 43.67600
H  8.69100 2.05100 45.22200
H  7.00400 2.59600 44.85200
Mg -4.85700 25.32300 26.17400
C  -3.68500 26.62500 29.03200
C  -6.93000 23.26000 28.17500
C  -5.70100 23.73500 23.43600
C  -2.38700 27.08300 24.27800
N  -5.06500 24.78000 28.37200
C  -4.56700 25.63300 29.35000
C  -5.19500 25.36100 30.69400
C  -5.94200 23.94900 30.44500
C  -5.98100 23.91400 28.93300
C  -5.27200 22.67200 30.98800
C  -6.17800 26.48800 31.24300
C  -6.20400 26.69600 32.78400
H  -5.72800 25.61700 33.75400
N  -6.15000 23.79900 25.84300
C  -7.02500 23.09900 26.74600
C  -7.91900 22.19000 25.99300
C  -7.56300 22.30900 24.61200
C  -6.42300 23.35400 24.60200
C  -8.86300 21.38100 26.68000
C  -8.16000 21.54900 23.42100
O  -7.81700 21.82400 22.21900
C  -9.25700 20.49000 23.69200
N  -4.20700 25.46900 24.15400
C  -4.76400 24.69000 23.20900
C  -4.15900 25.01800 21.77300
C  -3.16700 26.13600 22.07800
C  -3.26000 26.24400 23.58800
C  -3.56900 23.74800 21.04900
C  -3.47200 27.44500 21.28000
C  -2.50000 27.79600 20.16800
N  -3.38100 26.62300 26.49300
C  -2.53000 27.37100 25.66500
C  -1.71500 28.29600 26.47600
C  -2.17000 28.10500 27.72100
C  -3.06800 26.97500 27.77000
C  -0.63400 29.21100 25.98600
C  -2.06300 28.50000 29.06700
O  -1.36200 29.34100 29.53800
C  -2.89600 27.49000 29.95300
C  -1.95900 26.67400 30.77400
O  -1.21500 25.75400 30.30300
O  -1.83700 27.27200 32.04200
C  -0.91900 26.77000 33.04200
H  -7.50900 22.58900 28.81100
H  -6.00800 23.22600 22.52000
H  -1.70200 27.64200 23.63700
H  -4.36400 25.22700 31.38600
H  -6.98400 23.94400 30.76500
H  -4.70600 22.18300 30.19500
H  -6.11100 22.05800 31.31300
H  -4.58800 22.92300 31.79800
H  -7.22300 26.33000 30.97500
H  -5.81700 27.45700 30.89800
H  -7.23800 26.98100 32.97800
H  -5.69800 27.64400 32.96800
H  -8.43900 20.37900 26.73100
H  -9.81700 21.50300 26.16700
H  -8.98200 21.66600 27.72500
H  -9.03600 19.74800 24.46000
H  -9.51500 19.95900 22.77600
H  -10.15600 21.01200 24.02200
H  -4.96100 25.30300 21.09200
H  -2.16700 25.84600 21.75500
H  -2.53700 23.89900 20.73200
H  -4.11300 23.41100 20.16600
H  -3.67200 22.94900 21.78300
H  -3.55700 28.23900 22.02200
H  -4.39600 27.42400 20.70200
H  -1.81700 28.54800 20.56300
H  -3.09000 28.17300 19.33300
H  -1.92600 26.96600 19.75400
H  -0.92100 29.34300 24.94300
H  0.36400 28.77300 26.01500
H  -0.70300 30.11500 26.59000
H  -3.56500 27.94600 30.68200
H  0.09800 27.13300 32.88800
H  -0.96200 25.68700 32.92600
H  -1.24700 27.05000 34.04300

