158

Mg 8.77000 3.33800 27.83000
C  10.11500 2.01300 30.66500
C  7.22100 5.75300 29.70200
C  7.04500 4.34100 25.05400
C  10.06300 0.65500 26.01800
N  8.79100 3.88100 29.93900
C  9.47100 3.25700 30.92400
C  9.26900 3.83400 32.35800
C  8.31900 5.01300 32.05900
C  8.10500 4.93800 30.49100
C  7.03200 5.13700 32.88700
C  10.63600 4.22400 33.07300
C  10.51100 5.26600 34.19400
H  11.22800 4.87700 35.50400
N  7.40800 4.92900 27.40200
C  6.88400 5.76200 28.34600
C  6.05400 6.74900 27.69600
C  5.98600 6.41900 26.32500
C  6.78400 5.16100 26.16000
C  5.43800 7.99800 28.28900
C  5.16700 7.03500 25.24500
O  5.34400 6.77200 24.06100
C  4.08500 8.15600 25.58000
N  8.53200 2.61300 25.84400
C  7.79900 3.21900 24.89500
C  7.89400 2.42300 23.59400
C  9.05300 1.50700 23.81700
C  9.24900 1.55700 25.34900
C  6.58300 1.62600 23.15800
C  10.36200 1.88700 23.02000
C  11.32600 0.72400 22.82500
N  10.04000 1.73800 28.17100
C  10.38300 0.71200 27.39300
C  11.16400 -0.24400 28.18400
C  11.07700 0.25900 29.43900
C  10.31200 1.41400 29.38000
C  11.75900 -1.56300 27.78100
C  11.57200 -0.02200 30.78700
O  12.40100 -0.81200 31.17400
C  10.94100 1.11600 31.60200
C  10.25900 0.51800 32.80300
O  9.21300 -0.12200 32.73200
O  11.09800 0.84200 33.89400
C  10.50000 0.23700 35.10100
H  6.80100 6.62800 30.20300
H  6.45200 4.65500 24.19200
H  10.44800 -0.24100 25.52700
H  8.74600 3.07300 32.93800
H  8.77800 5.99000 32.20900
H  6.14700 5.01200 32.26400
H  7.00600 6.13200 33.33100
H  6.87300 4.43300 33.70400
H  11.27400 4.59800 32.27100
H  11.08000 3.36300 33.57100
H  9.45500 5.33300 34.45700
H  10.78300 6.20800 33.71800
H  6.04400 8.34900 29.12400
H  4.41800 7.74900 28.58000
H  5.41900 8.90700 27.68900
H  3.62900 7.89400 26.53500
H  3.55700 8.31900 24.64000
H  4.70900 9.04300 25.68200
H  8.11200 3.19200 22.85200
H  8.88000 0.47400 23.51400
H  5.74700 2.25200 22.84500
H  6.26600 0.92900 23.93300
H  6.78100 0.96700 22.31200
H  10.92400 2.62400 23.59500
H  10.18200 2.38300 22.06600
H  12.00300 0.70800 23.67900
H  11.87700 0.95900 21.91400
H  10.73400 -0.19000 22.78600
H  11.43100 -1.97000 26.82500
H  11.58900 -2.37500 28.48900
H  12.83900 -1.42500 27.73500
H  11.73000 1.77100 31.97100
H  9.88800 -0.63300 34.86600
H  9.98300 0.98000 35.70800
H  11.26500 -0.20000 35.74400
Mg 47.53300 15.28000 27.61800
C  45.36200 15.17500 30.12800
C  49.81600 17.07400 29.48400
C  49.74200 15.40200 24.92900
C  45.14200 13.56900 25.54700
N  47.51900 16.22100 29.53400
C  46.53800 15.89700 30.49500
C  47.00900 16.36500 31.87600
C  48.20500 17.27300 31.53800
C  48.60100 16.76100 30.10200
C  47.98500 18.73600 31.36600
C  47.19400 15.30700 33.05400
C  47.16800 15.87600 34.45600
H  48.31700 15.53500 35.35700
N  49.50000 16.17800 27.24200
C  50.26500 16.86600 28.20100
C  51.49600 17.27100 27.62800
C  51.48600 16.90300 26.28200
C  50.22700 16.05700 26.10500
C  52.62900 18.07000 28.37200
C  52.54100 17.08700 25.22400
O  52.46100 16.44600 24.21100
C  53.77200 17.95700 25.34200
N  47.42900 14.68900 25.52200
C  48.52900 14.80700 24.64000
C  48.26600 14.06800 23.31400
C  46.87600 13.35100 23.64000
C  46.37600 13.97100 24.90500
C  48.20300 15.05800 22.15800
C  46.94600 11.83700 23.75600
C  47.81800 11.05000 22.77900
N  45.59500 14.64000 27.69200
C  44.78800 13.92800 26.90700
C  43.58400 13.67800 27.53400
C  43.76700 14.12900 28.82000
C  45.03600 14.66900 28.88100
C  42.42700 12.90800 27.02900
C  43.20400 14.17300 30.13500
O  42.11300 13.82900 30.50300
C  44.21600 14.80300 31.03700
C  43.71400 15.93000 31.83600
O  43.48400 17.06700 31.42400
O  43.65700 15.54900 33.16400
C  43.10700 16.41500 34.18300
H  50.49300 17.54500 30.19900
H  50.35600 15.38900 24.02600
H  44.42600 12.93000 25.02600
H  46.21900 17.02500 32.23400
H  49.11100 17.04300 32.09800
H  47.74200 19.00200 30.33800
H  48.83600 19.35000 31.66500
H  47.13400 19.00800 31.99100
H  48.13800 14.77800 32.92100
H  46.50400 14.52400 32.73800
H  46.26300 15.44700 34.88600
H  47.00600 16.92500 34.20900
H  52.79300 19.05000 27.92500
H  53.48500 17.39600 28.36700
H  52.51200 18.26600 29.43800
H  53.60200 18.99300 25.63300
H  54.15800 17.93600 24.32300
H  54.47300 17.52600 26.05800
H  49.09200 13.36100 23.23100
H  46.20100 13.67300 22.84700
H  47.18800 15.36200 21.90300
H  48.66100 14.61300 21.27500
H  48.78200 15.95400 22.38000
H  45.92800 11.44700 23.73700
H  47.42100 11.58600 24.70400
H  48.66000 10.55700 23.26400
H  48.33000 11.64800 22.02400
H  47.26500 10.24000 22.30500
H  42.40300 12.81100 25.94300
H  41.59400 13.38500 27.54500
H  42.46200 11.96100 27.56800
H  44.53000 13.99900 31.70400
H  43.86200 16.85700 34.83300
H  42.43700 15.80500 34.79000
H  42.50500 17.19800 33.72200

