158

Mg 47.83500 15.13100 28.14400
C  45.80300 14.80500 30.99800
C  50.00100 17.09700 30.19900
C  49.63900 15.83000 25.47500
C  45.39200 13.51900 26.22600
N  47.91400 15.75200 30.37000
C  46.95900 15.55600 31.27300
C  47.38500 15.99900 32.61200
C  48.47000 17.09200 32.22300
C  48.82500 16.62900 30.86100
C  48.01700 18.56000 32.33700
C  47.96600 14.82500 33.46800
C  48.40500 15.19200 34.94900
H  48.09000 16.60300 35.46100
N  49.71400 16.20100 27.93200
C  50.42400 16.82700 28.91300
C  51.53400 17.43900 28.22600
C  51.41900 17.15800 26.88300
C  50.29200 16.32000 26.68800
C  52.49200 18.30100 28.99200
C  52.31000 17.72900 25.76000
O  52.12200 17.37400 24.60800
C  53.67300 18.48600 25.93800
N  47.50000 14.75100 26.17300
C  48.48700 15.04200 25.24800
C  48.10700 14.49700 23.85000
C  46.76300 13.74500 24.08300
C  46.47800 13.98700 25.58600
C  48.14600 15.55400 22.66800
C  46.64800 12.24900 23.71300
C  45.63600 11.86800 22.63300
N  45.95300 14.36100 28.51600
C  45.02200 13.78700 27.64000
C  43.81200 13.47600 28.38800
C  44.07100 13.94600 29.66900
C  45.38900 14.37600 29.76600
C  42.62600 12.70300 27.79300
C  43.49100 14.08200 30.93700
O  42.41000 13.79000 31.45100
C  44.60900 14.64000 31.88300
C  44.07700 15.89200 32.48500
O  43.90300 16.94200 31.87300
O  43.92200 15.75900 33.87700
C  43.44700 16.84800 34.73700
H  50.52800 17.84300 30.79800
H  50.21400 16.14900 24.60300
H  44.62100 13.06500 25.60000
H  46.60200 16.41800 33.24300
H  49.30800 16.83400 32.87100
H  46.93500 18.62700 32.45700
H  48.28000 19.10400 31.43000
H  48.69000 19.02300 33.05900
H  48.82400 14.41100 32.93800
H  47.30200 13.96100 33.48600
H  49.48700 15.06000 34.95900
H  47.94100 14.60700 35.74300
H  53.49800 17.98800 28.71400
H  52.52300 18.21800 30.07900
H  52.24500 19.33300 28.74200
H  53.51600 19.37200 26.55200
H  54.07100 18.89800 25.01000
H  54.39700 17.82200 26.41000
H  48.84200 13.71500 23.66000
H  45.96200 14.22400 23.51900
H  48.24900 16.57500 23.03600
H  47.27400 15.63000 22.01800
H  48.97600 15.39300 21.98000
H  46.20000 11.80200 24.60100
H  47.62300 11.85700 23.42500
H  46.08300 11.07400 22.03500
H  45.35400 12.76900 22.08900
H  44.77800 11.43800 23.15000
H  42.57800 12.94000 26.73000
H  41.77400 13.10500 28.34200
H  42.80700 11.66900 28.08600
H  44.80700 13.94100 32.69600
H  42.40400 16.59500 34.92300
H  43.40600 17.77900 34.17000
H  43.94700 16.81900 35.70500
Mg -10.57400 38.75900 40.82900
C  -9.55200 35.51700 39.96600
C  -7.66800 39.98400 39.47500
C  -11.90400 41.83900 40.50200
C  -13.66500 37.42100 41.76600
N  -8.77800 37.78100 39.89900
C  -8.55100 36.44100 39.72100
C  -7.16100 36.21600 39.17400
C  -6.55300 37.68400 39.11100
C  -7.67200 38.55800 39.59500
C  -5.30900 37.91300 39.99300
C  -7.17100 35.35200 37.89400
C  -6.75700 36.01100 36.56400
H  -7.90700 36.79100 35.77600
N  -9.80100 40.70600 40.20200
C  -8.57700 40.96700 39.72600
C  -8.36600 42.41000 39.51400
C  -9.58900 42.96700 39.95600
C  -10.59000 41.82800 40.20100
C  -7.12200 42.96300 38.97000
C  -9.83500 44.44700 40.06500
O  -8.93600 45.19100 39.73500
C  -11.12500 45.02800 40.49900
N  -12.52400 39.50300 41.01800
C  -12.86100 40.84800 40.89000
C  -14.39300 41.07000 41.12000
C  -14.84300 39.63900 41.59200
C  -13.59400 38.77600 41.41200
C  -15.04000 42.13100 41.96800
C  -16.12700 39.07700 40.86300
C  -15.84800 38.32400 39.61400
N  -11.39600 36.85800 41.15700
C  -12.64700 36.49800 41.50300
C  -12.69300 35.05900 41.57400
C  -11.53500 34.66400 40.89100
C  -10.81700 35.81700 40.62200
C  -13.86500 34.20200 42.14900
C  -10.76300 33.46100 40.46200
O  -11.00600 32.31200 40.38800
C  -9.49200 34.01500 39.77400
C  -8.28500 33.29800 40.28900
O  -7.93500 33.30600 41.46700
O  -7.61400 32.67000 39.30200
C  -6.53600 31.80300 39.72300
H  -6.63700 40.31000 39.32100
H  -12.39900 42.76300 40.19700
H  -14.61100 37.02200 42.13900
H  -6.68600 35.71400 40.01700
H  -6.42600 38.07400 38.10100
H  -5.55000 38.75100 40.64800
H  -4.40500 38.10700 39.41500
H  -5.28800 37.06900 40.68300
H  -8.10000 34.82800 37.67100
H  -6.41300 34.57700 38.00900
H  -6.45400 35.21800 35.88100
H  -5.85600 36.60400 36.72400
H  -6.64500 42.34100 38.21300
H  -6.43600 43.03600 39.81500
H  -7.32300 43.92500 38.49800
H  -11.41800 44.65800 41.48200
H  -11.85200 44.97700 39.68800
H  -10.89300 46.09200 40.54800
H  -14.76000 41.19900 40.10100
H  -14.97200 39.63200 42.67400
H  -15.92600 41.81100 42.51700
H  -15.39800 42.99900 41.41400
H  -14.25000 42.34700 42.68800
H  -16.64600 39.98300 40.55300
H  -16.79600 38.53600 41.53300
H  -16.42000 38.79700 38.81600
H  -16.03700 37.25900 39.75100
H  -14.86000 38.37500 39.15800
H  -13.60500 33.81600 43.13500
H  -14.09900 33.37600 41.47800
H  -14.77800 34.79200 42.22400
H  -9.68600 33.66400 38.76000
H  -6.16700 31.99500 40.73000
H  -5.76600 32.03800 38.98900
H  -6.78100 30.74300 39.64600

