158

Mg 35.40100 2.44100 30.31900
C  32.74000 3.17400 32.46800
C  37.62800 2.53600 32.90900
C  37.95500 1.97500 28.10300
C  33.19200 2.70600 27.64800
N  35.19900 2.75600 32.39500
C  33.96800 2.98700 33.10500
C  34.24900 3.10700 34.63700
C  35.77400 3.19300 34.68400
C  36.26600 2.74100 33.24200
C  36.37000 4.55800 35.20800
C  33.70300 1.92500 35.50200
C  33.16400 2.19000 36.91800
H  33.91600 3.23100 37.82500
N  37.49100 2.10300 30.53000
C  38.17900 2.20300 31.70500
C  39.52500 1.73400 31.42100
C  39.65400 1.40200 30.09200
C  38.37400 1.85800 29.48800
C  40.64100 1.58100 32.42900
C  40.74200 0.76000 29.29600
O  40.63400 0.61200 28.05700
C  41.97800 0.23100 29.86100
N  35.59200 2.59200 28.16400
C  36.72400 2.32600 27.54300
C  36.55300 2.28200 26.00500
C  34.96300 2.42600 25.87000
C  34.54400 2.61000 27.30700
C  37.40500 3.44000 25.34200
C  34.22900 1.19000 25.31600
C  32.92800 1.32200 24.44300
N  33.37800 2.78400 30.06400
C  32.58300 2.82600 28.85500
C  31.20300 3.05000 29.24200
C  31.21400 3.35400 30.62500
C  32.56500 3.12100 31.09500
C  30.16200 3.23600 28.28200
C  30.43600 3.78000 31.77400
O  29.27900 4.20700 31.89700
C  31.42700 3.62100 32.98500
C  31.63700 4.94300 33.64200
O  32.00400 6.03100 33.14200
O  31.48900 4.78000 34.95000
C  31.61300 5.94900 35.91100
H  38.21100 2.58800 33.83100
H  38.73900 1.74000 27.38000
H  32.51000 2.78300 26.79800
H  33.83600 4.01500 35.07700
H  36.28600 2.37500 35.19100
H  35.75000 5.15800 35.87400
H  36.50300 5.20200 34.33800
H  37.33400 4.34500 35.67000
H  34.48100 1.16200 35.51800
H  32.83100 1.54900 34.96600
H  33.35300 1.21700 37.37200
H  32.08400 2.33200 36.92300
H  41.55600 1.81200 31.88300
H  40.63300 0.53800 32.74500
H  40.68100 2.23600 33.30000
H  42.50500 -0.40400 29.14900
H  41.70700 -0.29500 30.77700
H  42.60800 1.09100 30.08600
H  36.90500 1.38700 25.49200
H  34.70100 3.24300 25.19700
H  36.82100 3.92400 24.55900
H  38.32400 3.09200 24.86900
H  37.67200 4.19600 26.08100
H  33.89800 0.61000 26.17700
H  34.91200 0.57400 24.73100
H  32.68500 2.33000 24.10700
H  32.05800 0.95000 24.98500
H  33.16300 0.72600 23.56200
H  30.44500 3.53500 27.27300
H  29.41200 3.93700 28.64900
H  29.69200 2.26300 28.14300
H  30.89200 3.03000 33.72800
H  30.93100 5.90500 36.76000
H  31.36500 6.88600 35.41200
H  32.64100 5.99700 36.27000
Mg 35.60500 49.28700 25.65200
C  36.05000 47.23000 28.48400
C  34.24300 51.56600 27.79500
C  34.47200 50.76000 22.84900
C  36.42200 46.41100 23.69700
N  35.28400 49.39000 27.86900
C  35.62200 48.47600 28.79500
C  35.58300 49.05400 30.27600
C  34.68000 50.32600 29.95100
C  34.80700 50.46700 28.44200
C  33.17900 50.24600 30.33700
C  37.01600 49.42300 30.84600
C  37.31400 49.26000 32.37700
H  36.09700 49.24000 33.31000
N  34.57200 51.01100 25.40600
C  34.12700 51.84200 26.40500
C  33.66600 53.07100 25.76500
C  33.59600 52.84100 24.34800
C  34.27300 51.53500 24.13100
C  33.50800 54.41200 26.53500
C  33.06700 53.65700 23.21900
O  33.31800 53.35800 22.07500
C  32.47400 55.02800 23.57400
N  35.46100 48.66700 23.59700
C  35.06800 49.51100 22.65300
C  35.24100 48.93900 21.24700
C  35.98500 47.52200 21.55300
C  36.00400 47.54300 23.04300
C  33.95200 48.85000 20.40000
C  37.34500 47.39300 20.87300
C  37.55900 46.38900 19.84300
N  36.19400 47.28200 25.93700
C  36.47600 46.25300 25.10200
C  36.96100 45.09000 25.80400
C  36.80300 45.45100 27.14000
C  36.32100 46.78900 27.13900
C  37.35900 43.80400 25.24500
C  36.90800 44.97900 28.52200
O  37.31100 43.93100 28.92300
C  36.46500 46.10800 29.41900
C  35.36500 45.55800 30.24500
O  34.24500 45.33700 29.88200
O  35.84800 45.32200 31.53000
C  34.92400 45.08000 32.61900
H  33.78600 52.27100 28.49300
H  34.18000 51.33600 21.96800
H  36.67800 45.61400 22.99600
H  34.96800 48.38600 30.87900
H  35.02800 51.20300 30.49800
H  32.96100 51.14500 30.91300
H  32.94200 49.38000 30.95600
H  32.40500 50.47500 29.60400
H  37.25200 50.43100 30.50500
H  37.71500 48.71700 30.39600
H  37.78000 50.23500 32.52200
H  37.96300 48.39100 32.47900
H  33.87600 54.37900 27.56000
H  32.50300 54.83000 26.59100
H  33.86600 55.26900 25.96400
H  33.21300 55.70700 23.99800
H  31.59100 54.95500 24.20900
H  32.14100 55.46100 22.63100
H  35.83000 49.62300 20.63700
H  35.26700 46.77300 21.22100
H  33.99800 49.66900 19.68200
H  33.08500 48.94000 21.05500
H  33.88300 47.91600 19.84300
H  38.09700 47.20400 21.64000
H  37.34000 48.34700 20.34700
H  38.21300 46.71600 19.03500
H  36.63600 46.09800 19.34000
H  38.04900 45.55500 20.34600
H  37.50600 43.82700 24.16500
H  36.62400 43.06100 25.55500
H  38.34700 43.54200 25.62300
H  37.15200 46.49500 30.17200
H  35.56000 44.82600 33.46700
H  34.20900 44.31000 32.32700
H  34.33600 45.97200 32.83500

