158

Mg 1.36100 8.68500 26.97000
C  1.87700 10.73900 29.74700
C  1.49400 5.94400 29.18500
C  1.22800 6.54400 24.32100
C  1.90700 11.38900 24.84200
N  1.55900 8.38800 29.16900
C  1.69300 9.41800 30.14200
C  1.53600 8.89100 31.56500
C  1.87600 7.35800 31.35900
C  1.61100 7.15400 29.85800
C  3.23900 6.85300 31.73800
C  0.07200 9.16400 32.05400
C  -0.23600 9.06500 33.53700
H  0.84700 8.68700 34.57300
N  1.43200 6.57200 26.73500
C  1.40500 5.62900 27.81500
C  1.14200 4.29700 27.25900
C  0.90400 4.46800 25.86400
C  1.22000 5.90100 25.55100
C  1.14400 3.11800 28.28000
C  0.32200 3.48500 24.83500
O  -0.09800 3.83700 23.72500
C  0.15800 2.13200 25.30100
N  1.69800 8.99800 24.75700
C  1.48500 7.88600 23.97000
C  1.38200 8.49700 22.50500
C  1.27400 10.07000 22.68700
C  1.70600 10.18000 24.14900
C  2.64100 8.11100 21.79200
C  -0.13200 10.69600 22.43100
C  -0.20500 11.99500 21.61800
N  1.77400 10.69200 27.18200
C  1.97000 11.65800 26.20300
C  2.20800 12.95800 26.90500
C  2.22700 12.63700 28.28500
C  1.94100 11.20900 28.36700
C  2.32600 14.29700 26.17600
C  2.24700 13.19300 29.64500
O  2.44200 14.32600 30.09600
C  1.92000 11.96100 30.62200
C  2.91600 11.94600 31.71000
O  4.12200 11.82600 31.56200
O  2.30500 12.23500 32.88000
C  3.20000 12.60600 33.96600
H  1.36900 5.15700 29.93100
H  1.28000 5.90500 23.43700
H  1.93500 12.23500 24.15200
H  2.34800 9.18500 32.23000
H  1.18400 6.71800 31.90600
H  3.89300 6.46800 30.95400
H  3.10100 6.07000 32.48400
H  3.82200 7.68900 32.12400
H  -0.52200 8.42700 31.51300
H  -0.19900 10.19300 31.81800
H  -1.01100 8.29900 33.55700
H  -0.69400 10.03300 33.74000
H  2.11100 3.33300 28.73500
H  1.14300 2.14400 27.79000
H  0.39200 3.26600 29.05600
H  -0.54300 2.27900 26.12300
H  1.14500 1.69100 25.44200
H  -0.24100 1.48800 24.51700
H  0.48800 8.14300 21.99000
H  1.96300 10.60000 22.03000
H  3.24400 8.97600 21.51300
H  2.42500 7.47700 20.93200
H  3.15400 7.53200 22.55900
H  -0.54400 10.89400 23.42000
H  -0.72900 9.91900 21.95300
H  0.74200 12.15900 21.10300
H  -0.63600 12.79600 22.21900
H  -0.89400 11.86500 20.78500
H  2.32000 15.14200 26.86500
H  1.46400 14.46000 25.53000
H  3.17600 14.25600 25.49600
H  0.98200 12.26700 31.08400
H  3.80200 13.43200 33.58800
H  3.91700 11.83900 34.26300
H  2.61300 13.08200 34.75100
Mg 9.36900 48.29900 25.50000
C  6.99400 48.54700 28.15200
C  11.69000 49.63800 27.66800
C  11.58300 47.86000 23.08100
C  6.70000 47.51600 23.46100
N  9.29300 49.01600 27.61200
C  8.29100 48.86300 28.53000
C  8.76700 49.30500 29.95400
C  10.07000 50.08600 29.62100
C  10.40400 49.51100 28.21000
C  9.95800 51.63700 29.52200
C  8.93300 48.11700 30.92800
C  8.48400 48.32200 32.33400
H  8.29700 47.04100 33.16900
N  11.40900 48.55200 25.38400
C  12.15300 49.11100 26.40000
C  13.55900 49.11200 26.00100
C  13.55300 48.70700 24.56700
C  12.14800 48.33500 24.30100
C  14.61900 49.73500 26.83600
C  14.65000 48.68900 23.57400
O  14.33900 48.28500 22.48200
C  15.94100 49.33200 23.78700
N  9.12600 47.84500 23.50300
C  10.22900 47.67300 22.71300
C  9.70600 47.12600 21.35300
C  8.23800 46.97000 21.48700
C  7.98000 47.39800 22.93100
C  10.21400 47.95500 20.11100
C  7.73600 45.52500 21.25200
C  8.46200 44.34400 21.95200
N  7.19500 48.08500 25.70000
C  6.29000 47.84200 24.73200
C  4.95600 47.79900 25.34300
C  5.19000 48.12400 26.70700
C  6.55200 48.18500 26.87500
C  3.68900 47.50300 24.55300
C  4.51200 48.27700 27.96500
O  3.34600 48.21200 28.29000
C  5.68000 48.62200 29.06300
C  5.63800 47.53500 30.06800
O  6.28200 46.48600 30.03400
O  4.81000 47.86200 31.12200
C  4.57100 46.80600 32.18000
H  12.46000 50.00700 28.34800
H  12.18500 47.73500 22.17900
H  5.88800 47.14300 22.83400
H  8.17700 50.10400 30.40300
H  10.85700 49.81100 30.32400
H  10.53800 52.10500 30.31800
H  8.98900 52.13200 29.57600
H  10.35700 51.81100 28.52300
H  9.97800 47.87700 31.12700
H  8.55000 47.19900 30.48300
H  7.57700 48.91600 32.44500
H  9.33000 48.74600 32.87500
H  14.88100 50.71900 26.44600
H  15.48800 49.08100 26.75700
H  14.35600 49.78800 27.89200
H  16.38400 49.20800 24.77500
H  15.67400 50.38100 23.66000
H  16.58100 49.13200 22.92700
H  10.18500 46.14700 21.33800
H  7.67300 47.61200 20.81100
H  11.03900 48.58800 20.43900
H  9.39800 48.60200 19.79000
H  10.50000 47.26400 19.31800
H  7.85800 45.37100 20.18000
H  6.70100 45.39000 21.56700
H  9.20500 44.66800 22.68100
H  8.87500 43.77400 21.12000
H  7.73200 43.73700 22.48700
H  3.85700 47.24300 23.50800
H  2.97800 48.32900 24.51800
H  3.16600 46.74200 25.13200
H  5.62600 49.62600 29.48300
H  4.81900 45.82800 31.76800
H  3.58400 46.86700 32.64000
H  5.28200 47.11100 32.94700

