158

Mg 1.49800 -2.93300 45.07300
C  4.90600 -1.98200 44.28700
C  0.49900 -0.35400 42.90700
C  -1.55800 -4.04100 45.39500
C  2.78600 -5.42100 46.96300
N  2.57300 -1.48600 43.55900
C  3.88800 -1.21000 43.53400
C  4.14300 -0.01800 42.65500
C  2.72400 0.56800 42.35300
C  1.88500 -0.49000 43.00900
C  2.59100 1.98400 42.94000
C  5.01000 -0.43300 41.42400
C  6.10000 0.54300 40.99900
H  5.88500 1.39200 39.71900
N  -0.22700 -2.27300 44.23700
C  -0.47500 -1.21600 43.37800
C  -1.89900 -1.11800 43.17000
C  -2.49200 -2.24500 43.79900
C  -1.41800 -2.93700 44.49800
C  -2.65000 -0.10300 42.37600
C  -4.01500 -2.51800 43.75400
O  -4.86700 -1.79800 43.24200
C  -4.60200 -3.75800 44.40000
N  0.78900 -4.53600 45.87500
C  -0.52200 -4.80400 45.96500
C  -0.78300 -6.09200 46.76100
C  0.57800 -6.46200 47.42300
C  1.45600 -5.43000 46.69400
C  -1.93800 -6.04200 47.83100
C  1.03700 -7.97500 47.16200
C  1.44700 -8.66700 48.46300
N  3.41800 -3.68800 45.53500
C  3.78900 -4.63900 46.42900
C  5.22000 -4.77300 46.50900
C  5.67800 -3.69800 45.80800
C  4.56600 -3.10700 45.12600
C  6.00300 -5.87400 47.23900
C  6.83600 -2.99400 45.35500
O  8.00200 -3.13100 45.67100
C  6.40000 -1.74600 44.54500
C  6.51500 -0.50200 45.43400
O  5.76300 -0.35900 46.37800
O  7.47500 0.37500 44.97700
C  7.50200 1.71900 45.61300
H  0.14700 0.50100 42.32500
H  -2.54700 -4.43600 45.63800
H  3.24100 -6.12700 47.66100
H  4.80400 0.61600 43.24700
H  2.59800 0.54300 41.27100
H  3.52400 2.36600 43.35400
H  1.79000 2.13500 43.66400
H  2.46100 2.74100 42.16600
H  4.33700 -0.29600 40.57700
H  5.47200 -1.39300 41.65400
H  6.98300 -0.05000 40.76400
H  6.43500 1.21500 41.79000
H  -3.25700 0.45700 43.08800
H  -3.30500 -0.42700 41.56800
H  -2.02500 0.62300 41.85600
H  -4.55700 -3.58300 45.47500
H  -3.96100 -4.56800 44.05200
H  -5.58900 -3.90000 43.96000
H  -1.04800 -6.70800 45.90200
H  0.57500 -6.34400 48.50600
H  -2.32200 -5.02900 47.95200
H  -1.63600 -6.47600 48.78500
H  -2.67200 -6.66300 47.31600
H  1.77700 -7.98900 46.36100
H  0.25500 -8.58800 46.71400
H  1.54300 -7.94500 49.27400
H  2.36200 -9.19700 48.19800
H  0.79400 -9.47600 48.79000
H  5.66900 -5.69800 48.26200
H  7.07300 -5.75200 47.07500
H  5.75900 -6.89400 46.94200
H  6.94700 -1.56600 43.61900
H  7.76700 2.46800 44.86700
H  8.16200 1.69600 46.48100
H  6.52300 1.93300 46.04100
Mg 27.67600 49.82800 26.83200
C  25.54700 50.83700 29.45700
C  30.01600 49.09700 29.13900
C  29.65800 49.18400 24.20400
C  25.19600 50.73200 24.58900
N  27.67800 49.90100 29.14000
C  26.71700 50.28300 30.01000
C  27.17400 50.26800 31.51500
C  28.71400 49.87900 31.30000
C  28.81300 49.60600 29.75300
C  29.71600 50.98600 31.75700
C  26.35500 49.24300 32.28600
C  25.48200 49.76100 33.47400
H  25.30800 48.90200 34.69600
N  29.57300 49.19300 26.69700
C  30.36600 48.94900 27.76700
C  31.62300 48.50600 27.20400
C  31.62200 48.55700 25.77900
C  30.21000 48.95000 25.50000
C  32.75700 48.00500 28.08700
C  32.68900 48.16900 24.68900
O  32.50400 48.29000 23.47000
C  34.04600 47.70800 25.23500
N  27.37800 49.74900 24.59300
C  28.37200 49.47900 23.74600
C  27.96800 49.69000 22.27900
C  26.48400 50.15000 22.36800
C  26.33800 50.24600 23.90600
C  28.77900 50.68500 21.49600
C  25.41800 49.26200 21.62100
C  24.45400 50.03200 20.64100
N  25.81800 50.61500 27.02400
C  24.95900 50.91100 25.98500
C  23.81700 51.58800 26.55400
C  23.96100 51.52800 27.95700
C  25.21600 50.95800 28.12200
C  22.70500 52.18100 25.76900
C  23.31100 51.88500 29.23500
O  22.20200 52.36100 29.44300
C  24.40800 51.42900 30.29400
C  24.75500 52.63800 30.96900
O  25.74400 53.33700 30.71000
O  23.96300 52.83200 32.05700
C  24.34300 53.85300 33.02300
H  30.77900 48.91800 29.90000
H  30.34800 49.03600 23.37100
H  24.33500 50.92700 23.94700
H  27.22400 51.31400 31.81700
H  28.90900 48.93600 31.81100
H  29.21100 51.70600 32.40100
H  30.20100 51.48600 30.91800
H  30.53000 50.53300 32.32400
H  27.02500 48.51100 32.73700
H  25.64400 48.67800 31.68200
H  24.47400 50.02300 33.15500
H  25.92900 50.72200 33.72900
H  32.84100 46.93800 27.87900
H  32.70500 48.08300 29.17300
H  33.72200 48.36500 27.73100
H  34.73300 47.41000 24.44300
H  33.77000 46.92400 25.94100
H  34.48000 48.54400 25.78400
H  28.09700 48.68100 21.88800
H  26.35500 51.15300 21.96000
H  29.55000 51.17600 22.09000
H  28.22500 51.52900 21.08400
H  29.26000 50.07800 20.72800
H  24.72100 48.80300 22.32100
H  25.83000 48.50100 20.95900
H  25.05700 50.87800 20.31100
H  23.61000 50.40100 21.22400
H  24.14200 49.37500 19.82900
H  22.36000 51.56800 24.93700
H  22.98700 53.17500 25.42300
H  21.87200 52.41400 26.43300
H  23.94800 50.73100 30.99400
H  25.09700 54.55000 32.65600
H  24.56300 53.43700 34.00600
H  23.41600 54.42100 33.10600

