158

Mg 27.22500 49.81300 27.35900
C  25.09900 50.98900 29.97300
C  29.27600 48.73200 29.85700
C  29.27900 49.05400 24.89200
C  24.88100 51.04200 25.06600
N  27.09300 49.94700 29.58400
C  26.15900 50.36100 30.50100
C  26.41300 50.03400 31.99800
C  27.73400 49.21000 31.82600
C  28.09400 49.29100 30.32700
C  29.00700 49.55600 32.74800
C  25.27500 49.35500 32.75500
C  24.88300 50.11400 34.08900
H  24.59700 49.30500 35.30000
N  29.07300 49.06000 27.42500
C  29.77900 48.62900 28.49300
C  31.12600 48.26500 28.02100
C  31.17700 48.39800 26.61800
C  29.80000 48.80100 26.25600
C  32.23700 47.85200 29.03500
C  32.31200 48.12200 25.64100
O  32.22300 48.33100 24.41000
C  33.60400 47.64400 26.13300
N  27.12200 50.11700 25.32600
C  27.99700 49.51200 24.51900
C  27.69900 49.56900 23.01600
C  26.20700 50.07200 23.09000
C  26.05400 50.50300 24.53000
C  28.69300 50.38900 22.11800
C  25.06300 49.08200 22.60400
C  23.80600 49.85200 21.96600
N  25.35600 50.86100 27.42000
C  24.51700 51.28400 26.42600
C  23.31500 51.88000 26.99500
C  23.54900 51.85500 28.38000
C  24.80800 51.19400 28.57300
C  22.16700 52.38500 26.19100
C  22.87500 52.11600 29.61200
O  21.72700 52.45600 29.85600
C  23.92000 51.59600 30.66500
C  24.31400 52.72000 31.63000
O  25.26400 53.51300 31.45700
O  23.44200 52.87600 32.70100
C  23.83900 53.86400 33.68700
H  29.85600 48.33000 30.69000
H  29.86000 48.84300 23.99200
H  24.17800 51.33300 24.28300
H  26.65000 50.99200 32.46100
H  27.35800 48.20200 31.99900
H  28.62000 49.92100 33.69900
H  29.69700 50.30600 32.36000
H  29.59300 48.68300 33.03500
H  25.59600 48.35400 33.04300
H  24.42800 49.22600 32.08100
H  23.95500 50.66700 33.94500
H  25.61300 50.84200 34.44200
H  33.20000 48.36200 29.00700
H  32.46300 46.79400 28.90200
H  31.90700 47.98500 30.06600
H  33.20400 46.82300 26.72800
H  34.15800 48.36300 26.73600
H  34.22800 47.33900 25.29200
H  27.70000 48.54300 22.64700
H  26.19500 51.01900 22.55000
H  29.42200 50.84300 22.78900
H  28.19100 51.25000 21.67700
H  29.07000 49.87500 21.23400
H  24.69300 48.51700 23.45900
H  25.38400 48.43600 21.78700
H  23.85400 49.56000 20.91700
H  23.72600 50.93900 21.98100
H  22.82900 49.60300 22.38100
H  21.23900 51.87300 26.44400
H  22.35700 52.53800 25.12900
H  22.00900 53.39200 26.57800
H  23.29600 50.91500 31.24400
H  24.85700 53.59000 33.96300
H  23.09500 53.96000 34.47800
H  23.81800 54.80800 33.14200
Mg 9.90900 47.04400 26.41700
C  7.78300 47.42500 29.23200
C  12.43300 48.36800 28.16100
C  11.66200 46.85900 23.67000
C  6.87400 46.47500 24.48100
N  10.11100 47.84100 28.50800
C  9.14200 47.74100 29.50400
C  9.79000 48.25200 30.82900
C  11.06200 49.04000 30.37000
C  11.22000 48.37300 28.96100
C  10.94700 50.59600 30.28000
C  10.12100 47.05200 31.79700
C  9.45200 47.29900 33.21100
H  9.29500 46.04900 34.06600
N  11.78600 47.35500 25.99800
C  12.75300 47.80700 26.86200
C  14.07700 47.91300 26.25700
C  13.87400 47.55100 24.89500
C  12.38600 47.26200 24.78400
C  15.28200 48.19800 27.01000
C  14.87600 47.22800 23.87800
O  14.55200 47.15300 22.70400
C  16.40400 47.15600 24.17400
N  9.27200 46.75200 24.33800
C  10.25700 46.69600 23.43900
C  9.63500 46.79200 22.06400
C  8.15300 46.37400 22.24700
C  8.06600 46.53000 23.76700
C  9.80800 48.20500 21.42700
C  7.77500 44.99800 21.65600
C  8.68400 43.75800 21.97000
N  7.84700 46.94200 26.71300
C  6.74700 46.66300 25.83200
C  5.50800 46.53000 26.60100
C  5.84500 46.85200 27.94200
C  7.29000 47.10800 27.92500
C  4.08400 46.37300 25.97300
C  5.28100 47.10000 29.29400
O  4.13100 47.16800 29.74500
C  6.58900 47.31000 30.17600
C  6.68500 46.15900 31.13200
O  7.37800 45.14900 30.84000
O  6.00800 46.35000 32.34600
C  5.83500 45.05600 33.09900
H  13.25600 48.80700 28.72800
H  12.31300 46.86500 22.79300
H  5.99800 46.20600 23.88700
H  9.04100 48.90900 31.27100
H  11.96400 48.85200 30.95300
H  11.65800 51.02600 30.98600
H  9.93000 50.91100 30.51100
H  11.11100 51.03400 29.29600
H  11.20500 47.06300 31.91700
H  9.78400 46.10000 31.38800
H  8.51300 47.77000 32.92100
H  9.97100 48.01800 33.84600
H  15.14800 48.15800 28.09100
H  15.73900 49.17300 26.84300
H  16.05300 47.43400 26.90800
H  16.72900 47.93600 24.86400
H  16.93200 47.19300 23.22200
H  16.59100 46.12400 24.47000
H  10.19600 46.15700 21.37800
H  7.61200 47.23700 21.85800
H  10.79600 48.57200 21.70600
H  9.07400 48.94800 21.73900
H  9.86300 48.04600 20.35000
H  7.76300 45.00500 20.56600
H  6.80400 44.67400 22.02900
H  9.34400 43.93800 22.81900
H  9.22700 43.48100 21.06600
H  7.94700 43.06200 22.37000
H  3.59700 45.42300 26.19400
H  4.15900 46.52900 24.89700
H  3.44100 47.16700 26.35200
H  6.43200 48.16200 30.83600
H  5.63300 45.55000 34.04900
H  6.74200 44.47500 33.26700
H  4.95000 44.52000 32.75500

