158

Mg 16.96100 -2.81800 28.77100
C  16.06400 -0.79100 31.44600
C  18.48300 -4.96600 31.10400
C  18.01700 -4.70500 26.20100
C  15.75200 -0.38600 26.63300
N  17.19700 -2.92600 30.96700
C  16.72800 -1.99900 31.82200
C  16.97100 -2.38300 33.32000
C  18.02500 -3.51800 33.16500
C  17.92500 -3.88500 31.68500
C  19.50100 -3.23500 33.63200
C  15.64900 -2.61500 34.18900
C  15.63700 -2.10600 35.65900
H  16.98600 -2.11200 36.47900
N  18.01000 -4.59200 28.68100
C  18.48300 -5.30600 29.74900
C  19.23400 -6.49100 29.22800
C  18.98900 -6.52900 27.79400
C  18.26300 -5.29700 27.47300
C  19.84000 -7.54600 30.07900
C  19.43100 -7.51300 26.76100
O  19.07100 -7.49100 25.62600
C  20.22900 -8.74200 27.12100
N  17.01100 -2.45300 26.66900
C  17.50600 -3.43400 25.86900
C  17.44400 -2.90700 24.40700
C  16.71100 -1.50100 24.47300
C  16.33700 -1.48300 25.98500
C  18.80300 -2.71800 23.69400
C  15.59500 -1.43600 23.43200
C  14.15300 -1.88200 23.82600
N  15.99700 -0.96600 28.96600
C  15.50900 -0.14400 28.00200
C  14.86000 0.97900 28.60700
C  15.04400 0.76200 29.97100
C  15.77600 -0.43200 30.12900
C  14.15400 2.07100 28.04200
C  14.77500 1.28500 31.35300
O  14.17000 2.22500 31.73100
C  15.39100 0.30500 32.34800
C  16.41300 1.03400 33.07300
O  17.41600 1.57400 32.69600
O  15.91000 1.25900 34.34900
C  16.79600 1.97000 35.33100
H  19.07100 -5.56000 31.80700
H  18.43200 -5.26300 25.36000
H  15.16700 0.29100 26.00700
H  17.54600 -1.58800 33.79600
H  17.71200 -4.34300 33.80500
H  19.81200 -3.96500 34.38100
H  19.60300 -2.24800 34.08200
H  20.14700 -3.29500 32.75600
H  15.56700 -3.69300 34.33000
H  14.78200 -2.31300 33.60200
H  14.93800 -2.72200 36.22500
H  15.29200 -1.07600 35.56300
H  19.50300 -8.54000 29.78700
H  19.54100 -7.27600 31.09100
H  20.92600 -7.53800 29.98400
H  21.07200 -8.54300 27.78200
H  20.60400 -9.19600 26.20300
H  19.58100 -9.50000 27.56200
H  16.99700 -3.62400 23.71900
H  17.34400 -0.62600 24.32700
H  19.54700 -2.74700 24.48900
H  18.81000 -1.75400 23.18600
H  19.10900 -3.47800 22.97500
H  15.78300 -2.13700 22.61900
H  15.54100 -0.42200 23.03500
H  13.56400 -1.15100 24.38000
H  14.23100 -2.70100 24.54100
H  13.73600 -2.39700 22.96100
H  13.88100 2.79000 28.81500
H  13.25000 1.79400 27.50100
H  14.75300 2.55300 27.27000
H  14.57300 -0.02900 32.98700
H  17.86200 1.85600 35.13500
H  16.56300 1.80700 36.38400
H  16.67700 3.03900 35.15500
Mg 35.76800 0.49500 29.33200
C  33.53400 1.22500 31.80400
C  38.18300 0.25400 31.65800
C  37.96700 -0.27000 26.90300
C  33.25000 0.74400 26.81200
N  35.85700 0.76700 31.34500
C  34.85000 1.01000 32.24700
C  35.35700 1.19200 33.73000
C  36.87800 1.17300 33.55900
C  37.00400 0.69500 32.07600
C  37.69100 2.53000 33.81500
C  34.88000 -0.06200 34.60400
C  34.74500 0.17600 36.17600
H  35.38300 1.41700 36.67400
N  37.81000 0.02300 29.29600
C  38.61800 -0.07200 30.34400
C  39.93900 -0.56400 29.93100
C  39.85300 -0.64500 28.47100
C  38.53000 -0.28600 28.14200
C  41.00700 -0.97100 30.85400
C  40.86900 -1.20700 27.48500
O  40.62800 -1.42600 26.32300
C  42.27700 -1.82700 28.01700
N  35.56600 0.26800 27.17800
C  36.71100 0.01600 26.40700
C  36.32600 -0.11200 24.92900
C  34.85400 0.37400 24.92200
C  34.44200 0.32500 26.36500
C  37.17100 0.79100 24.02100
C  34.00600 -0.59800 24.12400
C  32.96500 -1.50000 24.72400
N  33.79200 0.96400 29.28600
C  32.91800 1.04100 28.21400
C  31.61000 1.40800 28.75400
C  31.79800 1.45700 30.18700
C  33.15200 1.21300 30.44900
C  30.40200 1.40100 27.96900
C  31.09800 1.54500 31.47700
O  29.95200 1.54300 31.78800
C  32.27900 1.60700 32.56500
C  32.23600 2.98100 33.23500
O  32.43300 4.01200 32.58400
O  32.13700 2.87800 34.55600
C  32.14000 4.06900 35.43200
H  38.90300 0.15300 32.47200
H  38.65800 -0.50000 26.09000
H  32.52000 0.86000 26.00800
H  34.98600 2.13600 34.13000
H  37.34600 0.53100 34.30600
H  37.13700 3.15700 34.51300
H  37.69400 2.93300 32.80300
H  38.67000 2.26100 34.21200
H  35.50900 -0.94400 34.48600
H  33.93500 -0.31300 34.12300
H  35.26900 -0.69500 36.57200
H  33.70000 0.23900 36.47900
H  41.99400 -0.59800 30.57900
H  41.00400 -2.05700 30.76400
H  40.81500 -0.45200 31.79300
H  42.80800 -1.09100 28.62100
H  42.79800 -1.93300 27.06500
H  42.01600 -2.73500 28.56000
H  36.44900 -1.19100 24.84400
H  34.61800 1.33400 24.46400
H  36.48200 1.50600 23.57000
H  37.48100 0.27400 23.11300
H  38.08000 1.14400 24.50800
H  34.72200 -1.04300 23.43400
H  33.37500 -0.08800 23.39600
H  31.92800 -1.22600 24.52800
H  33.18800 -1.76300 25.75800
H  33.05100 -2.41700 24.14100
H  30.26300 0.52400 27.33600
H  30.27600 2.15800 27.19600
H  29.51900 1.52600 28.59600
H  32.09200 0.91500 33.38600
H  32.81700 4.88200 35.16900
H  32.38200 3.77600 36.45300
H  31.12500 4.46500 35.45900

