158

Mg 16.88000 -1.09200 27.15300
C  16.13300 1.08500 29.89900
C  19.22800 -2.60300 29.20800
C  18.32900 -2.56300 24.48400
C  15.58400 1.43600 25.10500
N  17.71900 -0.61200 29.27700
C  17.07600 0.14000 30.24700
C  17.62200 -0.27300 31.66600
C  18.69300 -1.37900 31.37500
C  18.61500 -1.46700 29.84100
C  20.23800 -1.05100 31.73800
C  16.54400 -0.73500 32.69200
C  16.42600 0.06100 33.97400
H  17.62100 0.39100 34.95100
N  18.36100 -2.63400 26.96300
C  19.16400 -3.12300 27.91600
C  19.90200 -4.21600 27.42900
C  19.61400 -4.21300 26.00100
C  18.72800 -3.15500 25.75200
C  20.82800 -4.95600 28.30600
C  20.21800 -5.09000 24.94000
O  19.83400 -5.00600 23.75800
C  21.20200 -6.16500 25.30200
N  16.88800 -0.63700 25.06200
C  17.43900 -1.52600 24.13400
C  17.23800 -1.02500 22.78300
C  16.25200 0.18900 22.92800
C  16.15900 0.31100 24.45100
C  18.48300 -0.54500 21.93800
C  14.85000 0.03700 22.36400
C  14.60700 -0.61800 21.03100
N  15.79400 0.75700 27.40600
C  15.29900 1.63200 26.49400
C  14.53500 2.62700 27.19900
C  14.78700 2.48400 28.54800
C  15.62200 1.33400 28.60800
C  13.69700 3.75400 26.61700
C  14.61000 3.07400 29.87900
O  14.04700 4.10900 30.23300
C  15.41300 2.10000 30.82200
C  16.27300 2.97300 31.71300
O  17.39100 3.37300 31.45600
O  15.66100 3.28100 32.88700
C  16.45300 4.10900 33.81400
H  19.92900 -3.13300 29.85600
H  18.76500 -2.90600 23.54400
H  15.12900 2.11500 24.38000
H  18.06200 0.66000 32.01900
H  18.50600 -2.35600 31.82200
H  20.09300 -0.44200 32.63000
H  20.61900 -0.38800 30.96000
H  20.90200 -1.89100 31.93700
H  16.59400 -1.78300 32.98700
H  15.56100 -0.66200 32.22700
H  15.81400 -0.50800 34.67400
H  15.83800 0.93200 33.68300
H  21.19600 -5.93100 27.98900
H  20.60500 -5.21500 29.34100
H  21.73100 -4.35100 28.38400
H  21.67000 -6.67000 24.45700
H  20.57600 -6.91400 25.78700
H  21.89000 -5.74400 26.03600
H  16.71400 -1.85300 22.30500
H  16.70600 1.11900 22.58500
H  19.46000 -0.73700 22.38200
H  18.54400 0.50400 21.64500
H  18.41000 -1.16900 21.04800
H  14.52700 1.06200 22.18600
H  14.20500 -0.41300 23.11900
H  13.84400 -0.14900 20.41000
H  14.33000 -1.65100 21.24300
H  15.50700 -0.51000 20.42600
H  12.64500 3.51800 26.45800
H  14.12600 4.04400 25.65800
H  13.84500 4.68000 27.17300
H  14.71800 1.67300 31.54600
H  16.42600 5.14800 33.48600
H  17.44300 3.66200 33.90700
H  16.10600 4.04600 34.84500
Mg -6.21100 25.21500 26.30700
C  -4.74300 27.10400 28.99900
C  -7.59600 23.07000 28.49300
C  -7.38900 23.42600 23.67200
C  -4.26400 27.21500 24.11600
N  -6.19300 25.19500 28.45300
C  -5.49300 25.98800 29.38700
C  -5.66900 25.45300 30.84900
C  -6.22700 23.97000 30.61700
C  -6.76000 24.11100 29.11000
C  -5.19600 22.92600 30.94600
C  -6.59300 26.37800 31.76200
C  -6.02700 26.86000 33.11900
H  -6.25700 26.04300 34.36900
N  -7.53800 23.67200 26.11800
C  -8.01400 22.94800 27.16900
C  -8.96800 21.94100 26.67200
C  -8.92700 22.02400 25.24200
C  -7.95500 23.09900 24.92000
C  -9.89200 21.23400 27.62300
C  -9.60500 21.18800 24.17600
O  -9.56400 21.50900 22.96900
C  -10.36800 19.99300 24.72100
N  -5.81000 25.27400 24.23800
C  -6.48900 24.45500 23.32900
C  -6.23000 24.91500 21.90000
C  -5.46100 26.24300 21.92300
C  -5.18600 26.27800 23.53400
C  -5.59800 23.79500 21.05800
C  -6.08000 27.46500 21.28000
C  -5.28300 28.14400 20.07500
N  -4.69000 26.79600 26.48100
C  -4.03200 27.48700 25.50600
C  -3.40100 28.65000 26.07700
C  -3.57600 28.49100 27.44900
C  -4.40700 27.39000 27.65500
C  -2.69800 29.74500 25.29900
C  -3.30200 29.12700 28.75500
O  -2.69700 30.15100 29.15500
C  -3.99300 28.14100 29.80200
C  -2.85800 27.42700 30.40900
O  -1.98600 26.89300 29.77500
O  -2.76800 27.69700 31.74700
C  -1.50800 27.40600 32.43500
H  -8.00200 22.35400 29.21100
H  -7.71600 22.91000 22.76600
H  -3.77200 27.89100 23.41400
H  -4.73000 25.41800 31.40100
H  -7.06300 23.82600 31.30100
H  -4.34600 23.31700 31.50600
H  -4.92300 22.39400 30.03500
H  -5.62000 22.19600 31.63500
H  -7.42200 25.79800 32.16700
H  -7.03700 27.18500 31.17900
H  -6.35900 27.88700 33.26500
H  -4.95200 26.74500 32.97700
H  -10.90400 21.00900 27.28500
H  -10.05200 21.69700 28.59600
H  -9.48900 20.26300 27.91100
H  -9.71500 19.45600 25.40900
H  -10.67400 19.36100 23.88700
H  -11.27300 20.27100 25.26100
H  -7.20800 25.02500 21.43200
H  -4.48300 26.02900 21.49200
H  -5.06800 23.07300 21.67800
H  -4.80400 24.20500 20.43300
H  -6.37100 23.34400 20.43600
H  -6.07700 28.23400 22.05300
H  -7.03800 27.15900 20.86100
H  -6.07100 28.02600 19.33100
H  -4.43500 27.58600 19.67800
H  -5.16300 29.21000 20.26500
H  -3.42100 30.53400 25.09500
H  -2.27300 29.44600 24.34100
H  -1.81700 30.06800 25.85500
H  -4.48600 28.47400 30.71500
H  -0.64600 27.99700 32.12500
H  -1.35800 26.34200 32.25400
H  -1.68400 27.60500 33.49200

