158

Mg 1.90200 -1.29400 44.61200
C  5.35900 -0.61700 44.11600
C  1.18600 1.77100 43.01000
C  -1.17600 -2.24400 44.42000
C  2.90700 -4.51700 45.82100
N  3.14600 0.29800 43.61400
C  4.53000 0.38300 43.60400
C  4.97300 1.67900 42.79800
C  3.74300 2.64200 42.87500
C  2.60800 1.53500 43.18600
C  3.76300 3.73900 44.04500
C  5.49500 1.42400 41.39400
C  6.70600 2.15600 40.89100
H  6.67000 3.21800 39.71600
N  0.24100 -0.35500 43.90400
C  0.14300 0.85400 43.26300
C  -1.17000 1.11800 42.91300
C  -1.96300 0.05800 43.42200
C  -0.97000 -0.91400 43.98600
C  -1.55600 2.35900 42.27200
C  -3.46100 -0.08100 43.36100
O  -4.16400 0.76000 42.81700
C  -4.20700 -1.13100 44.12800
N  1.02400 -3.14900 44.99100
C  -0.34400 -3.22300 44.89300
C  -0.82700 -4.59500 45.37200
C  0.40600 -5.22600 46.04700
C  1.54400 -4.27400 45.66800
C  -2.07000 -4.45700 46.28200
C  0.63200 -6.82100 45.69100
C  1.01100 -7.71800 46.88200
N  3.70100 -2.38800 44.91300
C  3.96900 -3.61200 45.48900
C  5.39700 -3.85600 45.54900
C  5.98900 -2.65500 45.06800
C  4.87600 -1.78800 44.70300
C  6.04700 -5.15000 45.80900
C  7.27000 -1.93500 44.82800
O  8.46900 -2.17700 45.04800
C  6.85700 -0.59100 44.12600
C  7.32100 0.51500 44.92800
O  7.06300 0.82800 46.09200
O  8.04400 1.32400 44.08900
C  8.25600 2.66600 44.63800
H  0.95900 2.79600 42.71300
H  -2.23500 -2.51100 44.39000
H  3.11800 -5.43800 46.36800
H  5.69800 2.22400 43.40200
H  3.45000 3.02600 41.89800
H  3.41000 3.35700 45.00300
H  3.06600 4.54500 43.82000
H  4.78600 4.10100 44.15500
H  4.79100 1.72500 40.61800
H  5.76500 0.38700 41.19000
H  7.46700 1.46600 40.52700
H  7.07700 2.64500 41.79200
H  -2.56400 2.54000 42.64400
H  -1.60000 2.39000 41.18300
H  -0.99800 3.21800 42.64600
H  -5.26600 -0.88800 44.21600
H  -3.76100 -1.20100 45.12000
H  -4.00800 -2.09200 43.65300
H  -1.03200 -5.10000 44.42800
H  0.38300 -5.04600 47.12100
H  -2.16800 -5.40200 46.81600
H  -2.84700 -4.16600 45.57500
H  -2.19000 -3.73500 47.08900
H  1.31100 -6.85300 44.83900
H  -0.30700 -7.16700 45.25800
H  1.86800 -8.36600 46.70100
H  0.16800 -8.38500 47.06300
H  1.05300 -7.15000 47.81200
H  5.56700 -5.96200 45.26200
H  5.84800 -5.32400 46.86600
H  7.12400 -5.22600 45.66000
H  7.21400 -0.59200 43.09600
H  7.31300 3.21300 44.63200
H  8.95900 3.14600 43.95700
H  8.67200 2.58600 45.64300
Mg 41.69100 41.36800 26.16000
C  41.14500 43.64300 28.70000
C  42.65300 39.10800 28.60900
C  42.22400 39.12600 23.71100
C  41.49900 43.95200 23.89600
N  41.95400 41.41400 28.34800
C  41.58000 42.41300 29.21000
C  41.84900 42.12700 30.68600
C  42.51300 40.67600 30.63500
C  42.36400 40.37400 29.13400
C  44.00100 40.56300 31.06000
C  40.55000 42.12000 31.57300
C  40.47600 43.01100 32.78400
H  39.99800 42.26800 34.05400
N  42.40500 39.33500 26.20200
C  42.69300 38.60300 27.29900
C  43.04300 37.22100 26.88200
C  42.93500 37.21700 25.45400
C  42.50500 38.59900 25.02800
C  43.28500 36.09200 27.80800
C  43.16800 36.07800 24.49100
O  42.95000 36.24500 23.29400
C  43.69800 34.80400 24.98000
N  42.02100 41.53200 24.10200
C  42.06800 40.48600 23.22600
C  42.07500 40.85500 21.77300
C  42.00100 42.45200 21.82800
C  41.70500 42.67900 23.31600
C  43.25300 40.30800 21.00400
C  40.94400 43.05500 20.81200
C  41.37000 44.35200 20.14800
N  41.28600 43.32000 26.26500
C  41.13600 44.24000 25.22700
C  40.74800 45.52800 25.75400
C  40.69600 45.28600 27.13100
C  41.04900 43.96300 27.39900
C  40.66400 46.82200 25.00000
C  40.52100 46.04700 28.33300
O  40.23100 47.24200 28.51200
C  40.80000 44.97700 29.44400
C  41.93800 45.52400 30.19200
O  43.15100 45.56700 29.81600
O  41.48100 46.03200 31.36200
C  42.49700 46.53600 32.25100
H  43.19400 38.48700 29.32600
H  42.18200 38.44700 22.85700
H  41.43600 44.68700 23.09200
H  42.60900 42.79900 31.08500
H  41.97100 39.95100 31.24200
H  44.09400 40.06500 32.02500
H  44.38400 41.57300 31.20500
H  44.63200 40.11200 30.29400
H  40.27100 41.12600 31.92400
H  39.80600 42.52600 30.88800
H  39.77200 43.82900 32.63400
H  41.44300 43.49700 32.91400
H  44.33500 35.80800 27.74500
H  42.68600 35.25800 27.44200
H  43.10700 36.49600 28.80500
H  43.79800 34.03500 24.21500
H  42.92600 34.35600 25.60600
H  44.66800 34.97400 25.44800
H  41.17200 40.34800 21.43300
H  43.02800 42.76000 21.62900
H  43.99600 39.75500 21.57900
H  43.78700 41.15500 20.57400
H  42.88100 39.60500 20.25900
H  40.02300 43.20100 21.37700
H  40.69900 42.28700 20.07900
H  41.24700 44.02800 19.11400
H  42.45000 44.43400 20.26300
H  40.80500 45.25600 20.37400
H  39.68700 46.91500 24.52400
H  41.37000 46.75200 24.17300
H  40.73300 47.64400 25.71300
H  39.96100 44.95300 30.14000
H  42.83600 45.75300 32.92800
H  41.98000 47.31600 32.81000
H  43.30900 47.04900 31.73500

