158

Mg 3.35000 0.76000 44.07900
C  6.35400 2.58900 43.97500
C  1.87200 3.54600 42.54500
C  0.73100 -1.06400 43.47400
C  5.28300 -2.04000 44.94100
N  4.10700 2.70600 43.09400
C  5.31900 3.23400 43.31400
C  5.42100 4.62200 42.78800
C  3.93900 4.94800 42.33500
C  3.22500 3.71100 42.69600
C  3.32800 6.23600 42.89600
C  6.51800 4.80600 41.71300
C  6.85400 3.67000 40.73800
H  7.15800 4.11100 39.26700
N  1.46300 1.20400 43.21900
C  1.05700 2.42300 42.76200
C  -0.28800 2.28800 42.37500
C  -0.65400 0.91000 42.53700
C  0.51200 0.25900 43.03500
C  -1.05900 3.37900 41.73400
C  -2.02300 0.40200 42.23900
O  -2.87400 1.14400 41.84300
C  -2.38700 -1.06700 42.32900
N  3.10500 -1.37600 43.92300
C  1.87000 -1.83500 43.76800
C  1.79800 -3.34500 44.12300
C  3.29100 -3.68300 44.57400
C  3.93700 -2.25800 44.56400
C  0.65200 -3.89600 45.18600
C  4.20100 -4.66800 43.77100
C  4.83600 -5.95600 44.36900
N  5.36400 0.30200 44.52800
C  5.96000 -0.80600 44.96700
C  7.30000 -0.53300 45.36200
C  7.51300 0.82000 45.03000
C  6.29300 1.28400 44.51400
C  8.33200 -1.50300 45.89400
C  8.50400 1.89800 45.03300
O  9.68400 1.99200 45.39800
C  7.74800 3.14900 44.31800
C  7.71600 4.34900 45.22700
O  8.58200 5.19100 45.19900
O  6.61000 4.38700 46.11000
C  6.56400 5.51600 46.98900
H  1.43700 4.41500 42.04700
H  -0.21700 -1.60100 43.55400
H  5.66200 -2.94100 45.42900
H  5.58900 5.40800 43.52400
H  3.83500 5.00600 41.25200
H  4.14000 6.85200 43.28200
H  2.56600 6.00200 43.63900
H  2.89700 6.77300 42.05100
H  7.38300 5.11100 42.30000
H  6.17300 5.65300 41.12000
H  5.99800 3.02600 40.53700
H  7.84300 3.28100 40.98000
H  -1.99500 3.45200 42.28800
H  -1.13800 3.28200 40.65200
H  -0.70500 4.40400 41.84000
H  -2.53400 -1.19200 43.40200
H  -1.56100 -1.63400 41.89800
H  -3.25100 -1.34200 41.72400
H  1.66400 -3.76500 43.12600
H  3.22000 -4.18500 45.53900
H  0.38500 -2.95000 45.65700
H  0.96100 -4.70800 45.84500
H  -0.19000 -4.35800 44.66900
H  5.03000 -4.11500 43.32900
H  3.54000 -5.12400 43.03500
H  4.72500 -6.80200 43.69000
H  4.48100 -6.29600 45.34200
H  5.91400 -5.85200 44.48700
H  8.21800 -1.48800 46.97800
H  9.29500 -1.06800 45.62700
H  8.19900 -2.49500 45.46000
H  8.41200 3.29800 43.46600
H  7.48900 6.07700 47.12300
H  6.45900 4.97900 47.93200
H  5.71100 6.15600 46.76700
Mg 26.24900 -0.09300 29.40300
C  28.12900 -0.61500 32.30800
C  23.51500 0.18700 31.31800
C  24.55400 0.06400 26.58300
C  29.20100 -0.88400 27.53300
N  25.85300 -0.47400 31.59700
C  26.84000 -0.35100 32.60400
C  26.23400 -0.23400 33.91400
C  24.70100 -0.04800 33.59000
C  24.63700 -0.08300 32.08300
C  23.68800 -1.04800 34.33400
C  26.96200 0.66400 34.97300
C  26.26500 1.04700 36.26500
H  26.57600 0.23500 37.51400
N  24.24300 0.10700 29.01400
C  23.28300 0.18300 29.93600
C  22.05600 0.45800 29.25800
C  22.24900 0.29300 27.84500
C  23.71000 0.12300 27.68300
C  20.76200 0.75200 30.06300
C  21.27800 0.24900 26.67100
O  21.52900 0.03300 25.49200
C  19.96700 0.56300 27.04600
N  26.82600 -0.35200 27.34400
C  25.89300 -0.18400 26.34100
C  26.52900 -0.16100 24.91200
C  28.05500 -0.18900 25.31300
C  28.07000 -0.49100 26.83000
C  26.11900 -1.30700 23.96600
C  28.93100 0.96500 24.97200
C  30.41700 0.73000 24.80700
N  28.33000 -0.66800 29.79400
C  29.35700 -0.98500 28.92700
C  30.51200 -1.28000 29.66200
C  30.10700 -1.04900 30.97200
C  28.75100 -0.71700 31.04800
C  31.77700 -1.74900 29.14500
C  30.57700 -1.11500 32.35500
O  31.73400 -1.30800 32.77800
C  29.32000 -0.77300 33.25100
C  29.21300 -1.83000 34.26900
O  28.60900 -2.91300 34.04000
O  29.83400 -1.51800 35.48200
C  29.75000 -2.49200 36.53500
H  22.62900 0.35300 31.93400
H  24.02000 0.09400 25.63000
H  30.05600 -0.93500 26.85500
H  26.35200 -1.21500 34.37300
H  24.31000 0.93600 33.84800
H  22.92100 -1.37500 33.63200
H  23.25800 -0.52100 35.18600
H  24.17400 -1.86600 34.86600
H  27.41300 1.58300 34.59900
H  27.87100 0.14400 35.27700
H  25.18100 1.11300 36.16600
H  26.48700 2.10300 36.41900
H  20.25500 1.55800 29.53200
H  21.04300 1.14700 31.03900
H  20.03500 -0.05800 30.12200
H  19.36500 0.53700 26.13800
H  19.87000 1.62000 27.29400
H  19.50400 -0.08100 27.79300
H  26.27800 0.81300 24.49000
H  28.52600 -1.08100 24.90000
H  25.41400 -1.95700 24.48500
H  26.95900 -1.83400 23.51400
H  25.49900 -0.93900 23.14900
H  28.95400 1.77400 25.70200
H  28.65700 1.51200 24.06900
H  30.62800 1.13000 23.81600
H  30.67100 -0.33000 24.76500
H  31.04200 1.15300 25.59300
H  32.26200 -2.17200 30.02400
H  32.42800 -1.09800 28.56100
H  31.43500 -2.53400 28.47000
H  29.60200 0.17300 33.71500
H  29.79200 -3.52400 36.18400
H  28.74900 -2.38400 36.95400
H  30.44500 -2.45700 37.37400

