158

Mg -3.20900 17.42300 27.09600
C  -3.76200 15.23300 29.86500
C  -3.68600 19.97200 29.27900
C  -3.11400 19.42300 24.44100
C  -3.41000 14.64200 24.99600
N  -3.65500 17.52100 29.35600
C  -3.71800 16.56600 30.26500
C  -3.79600 17.14000 31.74400
C  -4.10300 18.66100 31.43500
C  -3.81700 18.75400 29.90700
C  -5.48600 19.24600 31.98600
C  -2.54600 16.80700 32.60500
C  -2.30900 17.61600 33.93300
H  -1.87300 16.73900 35.10500
N  -3.28300 19.41600 26.93500
C  -3.52800 20.30200 27.91500
C  -3.48900 21.63600 27.35500
C  -3.23800 21.53900 25.95200
C  -3.22500 20.07000 25.72200
C  -3.70100 22.88500 28.32900
C  -3.00900 22.59100 24.89500
O  -3.02700 22.40000 23.69100
C  -2.67700 23.99900 25.40900
N  -3.20800 17.04700 25.10400
C  -3.09200 18.05700 24.17300
C  -3.01800 17.45500 22.73900
C  -2.86400 15.96500 22.99100
C  -3.21800 15.88500 24.41800
C  -4.16500 17.91200 21.71600
C  -1.50500 15.36400 22.62400
C  -0.24600 15.98400 23.41600
N  -3.49200 15.40800 27.41300
C  -3.57200 14.37000 26.39500
C  -3.80100 13.04500 26.97600
C  -3.81300 13.40700 28.33800
C  -3.67600 14.77800 28.57400
C  -3.93300 11.69300 26.27000
C  -3.89800 12.79600 29.66000
O  -3.96400 11.64700 29.93800
C  -3.92700 13.96100 30.71400
C  -2.91100 13.65000 31.71900
O  -1.71400 13.88800 31.61300
O  -3.51300 13.02300 32.74300
C  -2.73700 12.59200 33.88200
H  -3.55800 20.76800 30.01600
H  -3.14100 20.08800 23.57600
H  -3.57600 13.83300 24.28200
H  -4.69700 16.73000 32.20100
H  -3.25900 19.18500 31.88400
H  -5.35000 20.13200 32.60600
H  -6.09700 18.50900 32.50900
H  -6.16000 19.54100 31.18200
H  -1.71900 17.04100 31.93400
H  -2.56300 15.75800 32.90000
H  -3.19100 18.20200 34.19100
H  -1.55200 18.35000 33.66000
H  -4.32900 23.66200 27.89300
H  -2.73500 23.37700 28.44000
H  -4.14200 22.73000 29.31400
H  -2.04900 24.13200 26.28900
H  -3.58700 24.52900 25.69200
H  -2.15700 24.62700 24.68500
H  -2.08500 17.78600 22.28200
H  -3.73700 15.49100 22.54100
H  -5.12400 17.73900 22.20300
H  -3.99300 17.45200 20.74300
H  -4.20200 18.99400 21.59500
H  -1.40300 15.33200 21.54000
H  -1.47300 14.32900 22.96200
H  -0.17700 15.86000 24.49700
H  -0.24200 17.05900 23.24100
H  0.68600 15.57200 23.03000
H  -3.22200 10.97800 26.68500
H  -3.87400 11.63900 25.18300
H  -4.92200 11.47900 26.67600
H  -4.93200 13.94400 31.13400
H  -2.10100 11.71900 33.74100
H  -3.40100 12.16100 34.63100
H  -2.20900 13.39100 34.40200
Mg 36.43200 49.14800 25.59700
C  36.93300 47.30800 28.27600
C  34.98800 51.52200 27.52400
C  35.54900 50.84700 22.73300
C  37.67400 46.60800 23.45000
N  35.93000 49.30600 27.65800
C  36.23700 48.49300 28.66100
C  35.79800 48.93400 29.96000
C  35.03100 50.26400 29.72600
C  35.33100 50.36100 28.22900
C  33.52800 50.30700 30.09800
C  37.03700 49.06400 30.90600
C  36.69700 48.64400 32.34700
H  35.21100 48.80100 32.83000
N  35.40000 50.94000 25.21200
C  34.93700 51.80600 26.12000
C  34.31400 52.96100 25.50100
C  34.47200 52.78800 24.08800
C  35.12500 51.43500 23.91700
C  33.79100 54.13200 26.38200
C  34.08100 53.78300 22.99100
O  34.29100 53.45400 21.84700
C  33.51000 55.10700 23.27700
N  36.48900 48.74400 23.36900
C  36.13800 49.62200 22.46100
C  36.47800 49.17100 21.06900
C  37.22900 47.79100 21.28100
C  37.11400 47.67500 22.76800
C  35.31000 49.20700 20.03300
C  38.62000 47.76400 20.67900
C  39.73800 48.57400 21.41000
N  37.05500 47.17000 25.71900
C  37.61100 46.27900 24.81800
C  38.08700 45.10400 25.55500
C  37.81800 45.45300 26.96000
C  37.20100 46.68700 26.99200
C  38.74000 43.92800 25.03100
C  37.87700 45.05400 28.32600
O  38.30700 43.98500 28.73800
C  37.26300 46.17000 29.24500
C  36.07700 45.56400 29.93300
O  34.98100 45.53800 29.48600
O  36.48700 45.02700 31.15100
C  35.43200 44.70500 32.11400
H  34.51600 52.22500 28.21300
H  35.28200 51.33400 21.79300
H  38.09200 45.82000 22.82000
H  35.15700 48.21500 30.47000
H  35.62100 51.02700 30.23300
H  33.09000 49.46000 30.62600
H  32.87700 50.52000 29.25000
H  33.48800 51.17000 30.76300
H  37.41500 50.08500 30.87500
H  37.84900 48.45200 30.51300
H  37.33500 49.29100 32.94900
H  37.09100 47.62800 32.35700
H  32.74600 54.34100 26.15200
H  34.36600 55.01400 26.10000
H  33.87500 54.14600 27.46900
H  32.53100 54.86800 23.69400
H  33.38600 55.61500 22.32100
H  34.13700 55.70500 23.93800
H  37.18200 49.89900 20.66600
H  36.61900 47.03700 20.78400
H  34.45100 49.47300 20.64900
H  35.13000 48.30600 19.44600
H  35.55600 49.98900 19.31400
H  38.62600 48.29200 19.72500
H  39.09100 46.78100 20.67600
H  39.82300 48.44500 22.48900
H  39.70800 49.63200 21.15000
H  40.67500 48.21400 20.98400
H  39.67400 43.88300 25.59100
H  38.93100 44.07500 23.96800
H  38.07400 43.09000 25.23800
H  37.93700 46.36500 30.07900
H  35.98600 44.45800 33.02000
H  34.95600 43.75900 31.85700
H  34.65300 45.42000 32.38000

