158

Mg -0.40100 7.87700 26.39400
C  0.51500 10.17900 28.87600
C  -0.20400 5.43200 28.85300
C  -1.20000 5.78300 24.04700
C  -0.22900 10.63500 24.08100
N  -0.02100 7.93600 28.62000
C  0.17100 8.93600 29.47200
C  0.28600 8.50200 30.91600
C  0.30300 6.97000 30.80700
C  0.03100 6.74000 29.29300
C  1.59200 6.23600 31.29200
C  -0.79000 9.09900 31.94000
C  -0.18700 9.33200 33.39000
H  0.74400 8.36900 34.09600
N  -0.70300 5.83900 26.46600
C  -0.57900 5.01100 27.54700
C  -0.75300 3.65200 27.11500
C  -0.96100 3.63600 25.69300
C  -1.03700 5.10600 25.29700
C  -0.58500 2.35300 28.00900
C  -1.18100 2.49900 24.72900
O  -1.60200 2.83000 23.61600
C  -0.97100 1.06300 25.06500
N  -0.48300 8.08000 24.29600
C  -0.96600 7.10100 23.58000
C  -1.36800 7.60800 22.14000
C  -1.10400 9.14900 22.13400
C  -0.62800 9.31600 23.60800
C  -0.74100 6.83300 20.94900
C  -2.28800 10.01800 21.63700
C  -3.38300 10.45400 22.58400
N  0.23000 9.92800 26.37700
C  0.10800 10.92200 25.46200
C  0.54600 12.19700 26.02100
C  0.81600 11.90200 27.34000
C  0.58800 10.53200 27.48500
C  0.65500 13.53300 25.34800
C  1.30700 12.44000 28.56400
O  1.80600 13.53100 28.74500
C  1.02800 11.42900 29.65500
C  2.33500 11.15700 30.32700
O  3.22600 10.56800 29.77100
O  2.36100 11.58000 31.66700
C  3.55300 11.31500 32.50200
H  -0.21900 4.70800 29.67000
H  -1.58300 5.21700 23.19500
H  -0.16500 11.47600 23.38700
H  1.24000 8.93500 31.21500
H  -0.47800 6.50500 31.40800
H  1.31600 5.55700 32.09900
H  2.28600 7.01700 31.60100
H  2.01100 5.55000 30.55600
H  -1.66400 8.45100 31.99700
H  -1.14600 10.03000 31.49800
H  -1.06200 9.34900 34.04000
H  0.35800 10.27300 33.47000
H  -1.47500 1.91800 28.46400
H  0.01300 2.63200 28.87600
H  0.05500 1.69900 27.41700
H  -1.71400 0.75800 25.80200
H  0.05700 1.00000 25.42000
H  -1.23700 0.50600 24.16600
H  -2.40000 7.38100 21.87100
H  -0.19800 9.38600 21.57600
H  -0.45600 7.31100 20.01200
H  -1.46700 6.11400 20.57100
H  0.09100 6.22000 21.29600
H  -2.81300 9.40400 20.90500
H  -1.96100 10.95000 21.17500
H  -4.36000 10.24500 22.14900
H  -3.27600 11.47900 22.93900
H  -3.25300 9.84400 23.47700
H  -0.35700 13.92600 25.25600
H  1.12800 13.43500 24.37000
H  1.25800 14.20500 25.95800
H  0.35700 11.90400 30.37200
H  4.18000 10.45100 32.28300
H  3.29400 11.30000 33.56100
H  4.13700 12.22100 32.33900
Mg 40.99000 9.64800 30.31500
C  42.72400 11.16500 32.88700
C  38.70600 8.42900 32.82500
C  39.12400 8.15300 27.92500
C  43.42200 10.48400 28.01800
N  40.86900 9.75400 32.59400
C  41.73300 10.43500 33.42300
C  41.27800 10.40200 34.91200
C  40.03400 9.41600 34.85900
C  39.81900 9.16600 33.33100
C  40.10600 8.12600 35.66700
C  41.07500 11.79200 35.54400
C  40.05300 12.07400 36.71300
H  40.49800 12.95500 37.91700
N  39.14900 8.47700 30.40700
C  38.45300 8.06300 31.50000
C  37.32800 7.23200 31.04500
C  37.42000 7.21300 29.57700
C  38.55900 8.05800 29.25600
C  36.39200 6.50100 31.99700
C  36.54800 6.56400 28.59100
O  36.77100 6.49600 27.40900
C  35.24900 5.97900 29.13500
N  41.22300 9.33200 28.31800
C  40.29300 8.64100 27.47300
C  40.66400 8.87300 25.97600
C  41.96500 9.68300 26.05000
C  42.24100 9.83500 27.57300
C  40.81800 7.51400 25.18300
C  41.99600 11.05600 25.31600
C  41.14900 12.20400 26.03900
N  42.65500 10.72300 30.32800
C  43.60400 10.92800 29.35600
C  44.67600 11.61300 29.89200
C  44.35300 11.81600 31.29500
C  43.10000 11.22300 31.49600
C  45.76900 12.16000 29.07100
C  44.81500 12.39600 32.60300
O  45.86600 12.94900 32.89600
C  43.76400 11.91900 33.70200
C  44.58200 11.37600 34.90300
O  44.75500 10.20500 35.06200
O  45.03500 12.31000 35.78600
C  45.80700 11.78700 36.97000
H  37.95100 8.23100 33.58900
H  38.67400 7.64600 27.06900
H  44.19100 10.78000 27.30100
H  41.97200 9.78500 35.48400
H  39.17400 10.04300 35.09400
H  39.10700 7.82200 35.97900
H  40.75300 8.31100 36.52400
H  40.56100 7.41900 34.97200
H  40.72000 12.40300 34.71300
H  42.02900 12.16200 35.92000
H  39.69000 11.07600 36.95900
H  39.23600 12.63600 36.26000
H  36.47600 6.95000 32.98700
H  36.61000 5.44800 32.17400
H  35.31800 6.52800 31.81500
H  34.56000 6.70200 29.57200
H  35.68300 5.29000 29.86000
H  34.81600 5.42300 28.30400
H  39.79900 9.40900 25.58700
H  42.84800 9.26400 25.56900
H  40.00700 7.50600 24.45500
H  40.62000 6.69400 25.87500
H  41.78300 7.40200 24.68900
H  41.74600 10.90500 24.26600
H  43.05000 11.32900 25.26300
H  40.66600 11.88100 26.96100
H  40.34800 12.62700 25.43100
H  41.74700 12.99100 26.49700
H  46.38700 12.84700 29.64900
H  45.39900 12.74700 28.23100
H  46.37700 11.33500 28.69900
H  43.16600 12.78100 33.99700
H  45.08800 11.31300 37.63800
H  46.32500 12.56600 37.52800
H  46.48500 10.97900 36.69600

