158

Mg 1.29400 -1.77000 43.47100
C  4.67300 -1.17400 42.82600
C  0.55400 1.11900 41.81800
C  -1.93100 -2.67000 43.57500
C  2.13800 -4.74000 45.07000
N  2.48400 -0.29600 42.37200
C  3.84100 -0.21700 42.27300
C  4.32000 0.97100 41.41700
C  2.96700 1.78800 41.27700
C  1.88700 0.81300 41.91900
C  2.95600 3.13500 42.04800
C  4.92300 0.36300 40.04500
C  6.00900 1.13900 39.51900
H  6.02500 1.71000 38.11500
N  -0.47500 -0.86500 42.73700
C  -0.57700 0.38200 42.15700
C  -1.95600 0.63000 41.85200
C  -2.67000 -0.42900 42.43000
C  -1.67800 -1.40200 43.00800
C  -2.39800 1.88900 41.08400
C  -4.15900 -0.50300 42.40600
O  -4.89100 0.33700 41.83700
C  -4.86400 -1.65500 43.07200
N  0.33700 -3.45200 44.17900
C  -1.01300 -3.62100 44.04000
C  -1.43600 -5.00200 44.59300
C  -0.12100 -5.68200 44.97300
C  0.84600 -4.51200 44.79100
C  -2.47500 -4.87100 45.73800
C  0.26500 -6.91000 44.15000
C  0.32500 -8.18800 45.01300
N  3.04200 -2.85700 43.85000
C  3.26800 -3.96600 44.58300
C  4.69700 -4.20600 44.65900
C  5.33400 -3.06600 44.09200
C  4.30500 -2.35400 43.51300
C  5.25600 -5.41700 45.43100
C  6.60800 -2.40400 43.80100
O  7.83700 -2.63000 44.07100
C  6.17500 -1.15000 42.85200
C  6.83000 0.14100 43.23000
O  7.59900 0.79600 42.51000
O  6.54000 0.55900 44.53700
C  6.99800 1.95700 44.88700
H  0.39600 2.12300 41.41900
H  -2.88200 -3.20200 43.50500
H  2.48200 -5.65100 45.56500
H  5.07000 1.62600 41.85800
H  2.59300 1.84800 40.25500
H  2.33500 3.06700 42.94100
H  2.59600 3.97700 41.45700
H  3.98200 3.29600 42.37800
H  4.18300 0.57300 39.27300
H  5.13600 -0.70200 39.94900
H  6.84600 0.44100 39.52800
H  6.25100 1.98400 40.16300
H  -1.65400 2.66200 40.89400
H  -3.05100 2.43900 41.76200
H  -2.82900 1.58300 40.13000
H  -4.36000 -1.71100 44.03700
H  -4.77100 -2.58600 42.51200
H  -5.92100 -1.42500 43.20600
H  -1.91500 -5.56200 43.79000
H  -0.12300 -5.93500 46.03300
H  -2.62500 -3.82200 45.99700
H  -2.24200 -5.53300 46.57200
H  -3.45300 -5.16800 45.35700
H  1.16500 -6.78500 43.54700
H  -0.53300 -7.09500 43.43100
H  0.02100 -8.99400 44.34400
H  -0.30100 -8.07200 45.89700
H  1.30600 -8.32400 45.46900
H  5.97800 -5.02000 46.14500
H  5.78800 -6.10600 44.77500
H  4.62000 -5.90900 46.16700
H  6.42300 -1.38100 41.81600
H  6.48600 2.66900 44.23900
H  8.07800 2.04600 44.77700
H  6.73500 2.18800 45.91900
Mg -0.46000 7.30200 26.30000
C  0.37600 9.64700 28.80800
C  -0.16700 4.88900 28.73900
C  -0.73000 5.16800 23.76400
C  -0.32000 9.96500 23.90400
N  -0.03800 7.28100 28.52400
C  0.34600 8.32500 29.29400
C  0.34800 7.94600 30.77500
C  0.44200 6.34400 30.70300
C  0.11900 6.13300 29.20300
C  1.84300 5.73800 31.13500
C  -0.88500 8.55700 31.49500
C  -0.56100 9.29700 32.85000
H  0.70900 9.01600 33.59800
N  -0.49500 5.39400 26.29300
C  -0.35900 4.51100 27.37100
C  -0.59000 3.18400 26.90000
C  -0.78600 3.23300 25.46000
C  -0.70800 4.65300 25.10400
C  -0.60700 1.91200 27.76400
C  -1.03400 2.05500 24.41800
O  -1.15700 2.21700 23.18100
C  -1.34900 0.62600 24.88500
N  -0.47500 7.61900 24.05700
C  -0.71400 6.50600 23.28500
C  -0.92700 6.88800 21.87900
C  -1.10000 8.47100 21.93800
C  -0.64300 8.74500 23.37100
C  0.24500 6.41600 20.96000
C  -2.52200 9.00000 21.55200
C  -3.28700 9.82500 22.63900
N  -0.03700 9.36400 26.28600
C  -0.03300 10.29500 25.26600
C  0.47100 11.60500 25.82000
C  0.55100 11.41100 27.16000
C  0.26700 10.01900 27.44500
C  0.72600 12.85200 25.09500
C  0.75600 12.04200 28.41400
O  0.94900 13.22000 28.70300
C  0.58100 10.94400 29.60900
C  1.92500 10.95800 30.26600
O  3.04200 10.63300 29.83600
O  1.77800 11.40400 31.57800
C  3.02500 11.73600 32.31100
H  -0.10100 4.10600 29.49700
H  -0.91800 4.41000 23.00200
H  -0.40200 10.80700 23.21400
H  1.33500 8.33200 31.03100
H  -0.32000 5.80000 31.26200
H  2.54300 5.81100 30.30300
H  1.79300 4.70500 31.48000
H  2.04700 6.36900 32.00000
H  -1.62700 7.79300 31.72700
H  -1.36600 9.27800 30.83400
H  -1.48100 9.32000 33.43400
H  -0.46800 10.34200 32.55400
H  -1.62900 1.56400 27.91700
H  -0.33500 2.04000 28.81100
H  0.04300 1.15200 27.33100
H  -2.14700 0.61200 25.62700
H  -0.46400 0.12800 25.28100
H  -1.66500 -0.02500 24.07000
H  -1.83300 6.40600 21.50900
H  -0.31000 8.86200 21.29700
H  1.02400 6.03900 21.62200
H  0.61200 7.22500 20.32900
H  -0.04800 5.54800 20.36800
H  -3.11500 8.13000 21.27000
H  -2.46800 9.67400 20.69700
H  -3.13100 9.30400 23.58400
H  -4.35700 9.67300 22.49600
H  -3.00400 10.87700 22.65200
H  1.17100 12.72000 24.10900
H  1.34400 13.53800 25.67400
H  -0.28300 13.25600 25.01000
H  -0.18400 11.25500 30.32000
H  2.83700 12.30300 33.22300
H  3.60400 12.38700 31.65600
H  3.68200 10.88600 32.49500

