158

Mg 17.16400 51.52900 25.74100
C  18.90800 50.60300 28.49000
C  14.57100 52.66800 27.80600
C  15.29700 51.93600 23.03500
C  19.74900 50.56600 23.71000
N  16.82400 51.68000 27.95900
C  17.70000 51.25300 28.91400
C  17.21700 51.50500 30.28900
C  15.80200 52.14200 30.06600
C  15.67900 52.18200 28.50900
C  14.60900 51.39600 30.74600
C  18.14700 52.30700 31.21800
C  18.23200 51.73000 32.61100
H  17.08000 50.90000 33.20200
N  15.27100 52.28600 25.39100
C  14.35500 52.73600 26.37900
C  13.08200 53.08600 25.74800
C  13.30900 52.96600 24.32200
C  14.62200 52.35600 24.14500
C  11.86300 53.60300 26.53000
C  12.43700 53.39700 23.19400
O  12.77900 53.34000 22.01400
C  11.04500 53.87300 23.47200
N  17.52400 51.46300 23.64800
C  16.56800 51.46300 22.79600
C  16.97800 51.09600 21.36600
C  18.50700 50.88800 21.53200
C  18.64200 51.03900 23.05900
C  16.03400 50.05400 20.72900
C  19.56100 51.92800 20.89500
C  20.80500 51.15800 20.26000
N  18.90000 50.70800 26.00800
C  19.89100 50.40100 25.10200
C  20.98000 49.76700 25.80200
C  20.65300 49.84200 27.10900
C  19.42700 50.48800 27.24400
C  22.05900 48.97000 25.17100
C  20.94800 49.33800 28.39100
O  21.98000 48.75400 28.76700
C  19.79900 49.79400 29.42200
C  19.14100 48.62800 30.04400
O  18.18000 48.00600 29.55900
O  19.79600 48.24500 31.21700
C  19.15300 47.22100 32.11300
H  13.79400 53.04200 28.47600
H  14.70200 52.03900 22.12500
H  20.61500 50.19700 23.15600
H  17.13100 50.50700 30.71700
H  15.70900 53.13100 30.51600
H  13.95000 51.12800 29.91900
H  14.06800 52.08000 31.40000
H  15.03600 50.58600 31.33700
H  17.78500 53.33500 31.20700
H  19.14200 52.28300 30.77300
H  18.34800 52.60000 33.25700
H  19.15600 51.15900 32.70000
H  11.54300 54.61700 26.28900
H  12.08600 53.63700 27.59600
H  11.11600 52.82900 26.35100
H  10.59600 53.96900 22.48400
H  10.96700 54.74600 24.12000
H  10.53900 53.09000 24.03600
H  16.82900 52.02600 20.81700
H  18.70300 49.85900 21.23100
H  15.41600 49.62800 21.52000
H  16.59800 49.24000 20.27400
H  15.38800 50.44600 19.94300
H  19.93500 52.62300 21.64700
H  19.09400 52.57100 20.15000
H  21.69800 51.14400 20.88400
H  21.06900 51.58400 19.29200
H  20.61600 50.14400 19.90800
H  22.35000 49.47900 24.25200
H  21.79200 47.91600 25.10800
H  22.86900 49.03300 25.89700
H  20.12400 50.27800 30.34300
H  18.65600 47.75700 32.92100
H  19.93300 46.61600 32.57700
H  18.51600 46.48200 31.62800
Mg -12.07700 16.03700 42.31000
C  -8.71400 16.53700 42.50600
C  -12.60600 19.26000 41.79600
C  -15.29900 15.18700 41.16400
C  -11.43900 12.44800 42.33600
N  -10.70500 17.66800 41.71900
C  -9.41100 17.70700 42.15300
C  -8.89200 19.12500 42.21500
C  -10.23800 19.95100 42.38400
C  -11.23100 18.90400 41.88500
C  -10.56400 20.28400 43.84800
C  -8.12600 19.61100 40.93200
C  -6.66900 19.93700 41.16000
H  -5.68600 19.14400 40.20600
N  -13.70100 17.10900 41.54100
C  -13.71700 18.40400 41.52200
C  -15.03100 18.94400 41.19100
C  -15.83100 17.81000 40.87500
C  -14.96000 16.59000 41.21300
C  -15.43300 20.43600 41.10300
C  -17.26500 17.88200 40.44700
O  -17.83400 18.99900 40.29500
C  -18.02100 16.63300 40.25700
N  -13.20000 14.14100 41.66000
C  -14.47700 14.10200 41.25400
C  -15.00100 12.65300 41.08000
C  -13.73100 11.82400 41.31700
C  -12.73500 12.82100 41.91700
C  -16.27800 12.36500 41.89500
C  -13.24100 11.23000 39.93200
C  -13.38700 9.69300 39.80900
N  -10.42200 14.68400 42.34900
C  -10.33500 13.28600 42.50300
C  -8.96000 12.92900 42.65200
C  -8.29600 14.16500 42.76700
C  -9.22100 15.22400 42.49900
C  -8.31300 11.66400 42.99300
C  -6.98200 14.72300 43.04000
O  -5.98300 14.17200 43.37000
C  -7.20500 16.32000 42.88100
C  -6.89100 17.01400 44.22600
O  -7.39800 16.78300 45.31800
O  -5.89800 17.96200 44.02400
C  -5.20200 18.47500 45.21000
H  -12.69300 20.34300 41.91100
H  -16.29600 14.91800 40.80600
H  -11.35800 11.37800 42.53800
H  -8.35000 19.26200 43.15100
H  -10.15900 20.90100 41.85600
H  -9.61000 20.38400 44.36600
H  -11.21200 19.55000 44.32600
H  -10.95000 21.30200 43.79800
H  -8.65800 20.47000 40.52200
H  -8.35300 18.89900 40.13800
H  -6.43400 19.55400 42.15300
H  -6.53400 21.01800 41.12400
H  -16.35400 20.64300 41.64700
H  -15.60900 20.71200 40.06300
H  -14.62600 21.10700 41.39700
H  -19.01500 16.94500 39.93700
H  -18.00900 16.12300 41.22000
H  -17.50200 16.05900 39.48900
H  -15.45300 12.70800 40.09000
H  -13.91400 11.00300 42.01000
H  -17.07800 11.98800 41.25700
H  -16.60400 13.15000 42.57700
H  -16.06300 11.50300 42.52600
H  -12.18600 11.50200 39.90600
H  -13.84900 11.59600 39.10400
H  -12.41300 9.20600 39.84500
H  -13.82400 9.50300 38.82800
H  -14.03500 9.15800 40.50400
H  -8.38000 11.42900 44.05500
H  -7.23300 11.64900 42.85000
H  -8.86600 10.91600 42.42500
H  -6.55800 16.76500 42.12400
H  -5.51500 19.51000 45.34800
H  -4.14300 18.39200 44.96300
H  -5.34800 17.85300 46.09200

