158

Mg -11.06600 39.09400 41.23300
C  -9.45100 35.94300 40.86600
C  -8.32900 40.55000 39.67500
C  -12.95200 41.87100 40.75200
C  -13.95700 37.34700 42.05800
N  -9.07300 38.35400 40.39100
C  -8.67500 37.04200 40.40400
C  -7.36500 36.85100 39.60500
C  -6.96900 38.37000 39.43200
C  -8.19100 39.20800 39.86800
C  -5.55500 38.81700 40.02900
C  -7.64700 36.02800 38.23200
C  -6.96600 34.71200 37.95400
H  -5.87800 34.85100 36.84700
N  -10.61100 41.00900 40.52500
C  -9.45100 41.38000 39.96400
C  -9.53100 42.81000 39.73000
C  -10.88300 43.24300 39.85700
C  -11.55100 42.05200 40.38700
C  -8.35000 43.59400 39.20400
C  -11.38600 44.59900 39.62300
O  -10.66200 45.55000 39.16300
C  -12.80900 44.86500 39.69300
N  -13.10800 39.53800 41.54200
C  -13.66700 40.78600 41.34100
C  -15.20200 40.86100 41.61900
C  -15.50000 39.39200 42.05600
C  -14.09300 38.72700 41.89000
C  -15.56400 41.96500 42.66900
C  -16.78200 38.78600 41.27000
C  -18.09700 38.94000 41.99800
N  -11.54800 37.13900 41.55000
C  -12.78000 36.61400 41.91500
C  -12.67800 35.15500 42.13900
C  -11.36800 34.81800 41.80700
C  -10.78200 36.10200 41.34700
C  -13.71200 34.25800 42.84600
C  -10.28100 33.81900 41.70500
O  -10.34700 32.64100 42.10900
C  -9.08800 34.52300 40.98800
C  -7.95700 34.28000 41.94600
O  -7.25600 33.34300 41.82300
O  -7.84700 35.31800 42.80900
C  -6.56600 35.35600 43.50000
H  -7.44100 41.05200 39.28600
H  -13.67100 42.64100 40.46200
H  -14.75900 36.70200 42.42300
H  -6.65000 36.29300 40.21000
H  -6.84400 38.47000 38.35400
H  -4.94200 38.02300 40.45500
H  -5.72300 39.25400 41.01300
H  -5.06300 39.52600 39.36400
H  -7.36600 36.70100 37.42300
H  -8.72000 35.86800 38.12300
H  -7.63200 33.95000 37.55000
H  -6.46800 34.33100 38.84600
H  -8.37100 44.64600 39.48900
H  -8.22400 43.56500 38.12100
H  -7.49300 43.16100 39.72000
H  -13.15000 44.17000 38.92600
H  -13.16100 45.86100 39.42200
H  -13.23700 44.68800 40.68000
H  -15.74200 41.07900 40.69800
H  -15.75100 39.32900 43.11500
H  -16.03700 41.56000 43.56400
H  -16.27700 42.68100 42.25900
H  -14.68200 42.56900 42.88000
H  -16.63600 37.71400 41.13700
H  -16.64200 39.15000 40.25300
H  -18.74400 39.41700 41.26200
H  -18.09600 39.53400 42.91200
H  -18.48900 37.96800 42.29800
H  -13.50300 34.20100 43.91500
H  -13.52600 33.27600 42.41100
H  -14.76200 34.45900 42.63200
H  -8.90900 34.04400 40.02500
H  -6.27800 36.39300 43.32700
H  -5.71800 34.90300 42.98600
H  -6.62200 35.16400 44.57100
Mg -5.35400 24.61600 26.08000
C  -4.09100 26.05600 29.04900
C  -7.16600 22.45500 28.19000
C  -5.99800 22.76600 23.43500
C  -3.37200 26.77900 24.27100
N  -5.52600 24.33500 28.31700
C  -5.03300 25.10300 29.32900
C  -5.40100 24.66400 30.67100
C  -6.29900 23.35400 30.40300
C  -6.35100 23.38200 28.83700
C  -5.79500 21.96700 30.96500
C  -6.19300 25.81900 31.43300
C  -5.78200 25.99400 32.89200
H  -5.36200 24.76600 33.74400
N  -6.45200 22.86200 25.80400
C  -7.18700 22.19400 26.80000
C  -7.98100 21.15100 26.14400
C  -7.73000 21.27100 24.74500
C  -6.59700 22.28900 24.61600
C  -8.98500 20.29600 26.85700
C  -8.34200 20.49200 23.54700
O  -7.97900 20.67400 22.38300
C  -9.55400 19.53600 23.70700
N  -4.79600 24.88400 24.19200
C  -5.17700 23.88800 23.27600
C  -4.61800 24.25300 21.85700
C  -4.00200 25.62100 22.13800
C  -4.06700 25.79500 23.62200
C  -3.79400 23.12400 21.05000
C  -4.56600 26.79200 21.24600
C  -3.47200 27.35700 20.38500
N  -4.04300 26.26200 26.55400
C  -3.27000 26.96900 25.65700
C  -2.43200 27.94300 26.40900
C  -2.67500 27.59600 27.78400
C  -3.71600 26.56500 27.80900
C  -1.46400 28.98200 25.91700
C  -2.33600 27.84400 29.16400
O  -1.65700 28.71600 29.67600
C  -3.27400 26.81800 30.05700
C  -2.26000 26.00200 30.85500
O  -1.78900 24.97300 30.38000
O  -1.99500 26.56200 32.06400
C  -1.21000 25.83700 33.09800
H  -7.73200 21.82600 28.88000
H  -6.20800 22.18000 22.53800
H  -2.65600 27.31000 23.64000
H  -4.45500 24.46200 31.17300
H  -7.28900 23.47500 30.84300
H  -6.73700 21.53100 31.29900
H  -5.04300 21.90500 31.75200
H  -5.36200 21.24400 30.27400
H  -7.20600 25.41800 31.44100
H  -6.22900 26.79500 30.94900
H  -6.64500 26.44700 33.38000
H  -4.91700 26.65500 32.93900
H  -8.82900 19.26500 26.53700
H  -10.01500 20.65200 26.84700
H  -8.67700 20.22000 27.90000
H  -10.28800 20.12600 24.25500
H  -9.18700 18.70200 24.30500
H  -9.73700 19.11900 22.71700
H  -5.49800 24.56100 21.29300
H  -2.93300 25.43200 22.03100
H  -3.69000 22.30300 21.75900
H  -2.79000 23.38200 20.71400
H  -4.47500 22.91800 20.22400
H  -4.99000 27.57900 21.87000
H  -5.44300 26.58900 20.63000
H  -3.74700 27.34100 19.33000
H  -2.50600 26.88500 20.56000
H  -3.33400 28.39700 20.67800
H  -1.90300 29.97900 25.87800
H  -1.02400 28.62200 24.98700
H  -0.63700 29.07700 26.62100
H  -3.73100 27.51900 30.75400
H  -1.78600 25.86900 34.02300
H  -0.21000 26.23500 33.27100
H  -1.12500 24.75400 33.00400

