158

Mg 2.42000 -3.86600 44.16200
C  5.73000 -2.71800 43.93800
C  1.52500 -1.61000 41.77300
C  -0.65900 -5.35500 44.21400
C  3.69200 -6.38600 46.41300
N  3.47900 -2.33600 43.04400
C  4.83300 -2.06400 43.07200
C  5.18100 -0.93100 42.08700
C  3.79400 -0.41700 41.68000
C  2.88600 -1.56400 42.14600
C  3.30400 0.99100 42.15000
C  6.02000 -1.49700 40.90700
C  7.39600 -0.80700 40.46100
H  7.49000 -0.25700 39.00100
N  0.69800 -3.52900 43.07000
C  0.51100 -2.44600 42.28700
C  -0.83700 -2.45600 41.91900
C  -1.46800 -3.64600 42.40800
C  -0.52700 -4.18400 43.37500
C  -1.51100 -1.37100 41.10800
C  -2.86000 -4.16800 42.05900
O  -3.61800 -3.58000 41.33800
C  -3.43100 -5.49100 42.60900
N  1.60600 -5.70200 45.12300
C  0.33800 -6.03300 44.97900
C  0.07000 -7.36700 45.71300
C  1.41900 -7.68100 46.38700
C  2.37700 -6.56800 45.92100
C  -1.27800 -7.40800 46.59200
C  1.99700 -9.09100 46.10100
C  2.95100 -9.25300 44.85800
N  4.34300 -4.50200 45.06700
C  4.70100 -5.50200 45.98900
C  6.16500 -5.43200 46.42600
C  6.62000 -4.30000 45.55600
C  5.48000 -3.81500 44.83600
C  6.90100 -6.26600 47.34700
C  7.71700 -3.50300 45.12800
O  8.93200 -3.68300 45.38500
C  7.18200 -2.34400 44.09500
C  7.33600 -1.04600 44.62900
O  6.94700 -0.62400 45.69500
O  7.98600 -0.25700 43.72200
C  8.08600 1.13500 44.08200
H  1.09200 -0.92900 41.03800
H  -1.65000 -5.80300 44.30500
H  3.91200 -7.14200 47.16900
H  5.72900 -0.17600 42.65100
H  3.64300 -0.37600 40.60200
H  4.11400 1.48000 42.69000
H  2.44200 0.92200 42.81400
H  3.11100 1.73700 41.37900
H  5.44500 -1.41400 39.98500
H  6.25300 -2.54600 41.09200
H  8.30400 -1.36600 40.68800
H  7.59400 0.11100 41.01500
H  -1.56000 -1.38100 40.01900
H  -0.91100 -0.46800 41.21300
H  -2.49000 -1.08800 41.49300
H  -2.71800 -6.30900 42.71000
H  -4.27200 -5.73200 41.95900
H  -3.84900 -5.21500 43.57700
H  -0.08000 -7.94900 44.80300
H  1.33200 -7.43400 47.44500
H  -1.63500 -6.37900 46.55500
H  -1.00200 -7.82200 47.56200
H  -2.01100 -8.11500 46.20300
H  1.26600 -9.89800 46.05500
H  2.57500 -9.28200 47.00500
H  4.02600 -9.35200 45.01200
H  2.80600 -8.49500 44.08800
H  2.76100 -10.18500 44.32600
H  7.80500 -5.78300 47.71900
H  7.03700 -7.26700 46.93800
H  6.31200 -6.49400 48.23500
H  7.79100 -2.47900 43.20100
H  8.82200 1.37800 44.84900
H  7.08800 1.51800 44.29500
H  8.51900 1.65400 43.22700
Mg 40.34800 9.42200 30.78500
C  42.20200 10.68500 33.40500
C  38.02800 8.25800 32.89800
C  38.62400 8.11600 28.08300
C  42.99000 10.02600 28.60400
N  40.23500 9.37100 32.92000
C  40.97400 10.15400 33.83500
C  40.29700 10.27300 35.17500
C  39.10200 9.28500 35.06800
C  39.08700 8.89600 33.55900
C  39.28800 8.03500 35.99500
C  39.92200 11.73000 35.62500
C  39.37400 11.98800 36.99700
H  40.17500 12.92500 37.90200
N  38.55100 8.39500 30.48900
C  37.75200 7.91800 31.57600
C  36.71300 7.07600 31.03200
C  36.93000 6.94800 29.66000
C  38.10500 7.83500 29.34400
C  35.63600 6.48700 31.84300
C  36.12400 6.17500 28.65600
O  36.51500 6.05400 27.53400
C  34.94900 5.40500 29.02400
N  40.65600 9.27400 28.59600
C  39.73800 8.84300 27.66900
C  40.26300 8.86000 26.25400
C  41.64000 9.53700 26.40200
C  41.79400 9.56600 27.98900
C  40.19100 7.48900 25.50800
C  41.83400 10.97300 25.85400
C  40.61700 11.89000 26.00900
N  42.19200 10.16700 30.93900
C  43.25100 10.26800 30.00200
C  44.40500 10.72500 30.63300
C  44.03000 11.08900 31.94000
C  42.70800 10.63400 32.08100
C  45.73200 10.96100 29.94100
C  44.42100 11.76600 33.19100
O  45.46000 12.33100 33.55200
C  43.27400 11.51200 34.23500
C  43.77200 10.79100 35.45400
O  43.97200 9.60700 35.60400
O  43.68500 11.58100 36.56500
C  43.76900 10.83800 37.80200
H  37.36200 7.85700 33.66500
H  38.01300 7.73400 27.26300
H  43.88200 10.17200 27.99100
H  41.06300 9.92600 35.86800
H  38.17300 9.71100 35.44500
H  40.12500 7.43100 35.64500
H  38.31000 7.55600 36.01600
H  39.46400 8.52900 36.95000
H  39.25500 12.20800 34.90800
H  40.86100 12.27200 35.51700
H  39.23500 11.03600 37.51000
H  38.39800 12.46000 36.88100
H  34.65400 6.79200 31.48200
H  35.75100 6.58100 32.92300
H  35.59500 5.40900 31.68200
H  34.33100 6.13600 29.54400
H  35.34200 4.62700 29.67900
H  34.43400 4.91600 28.19700
H  39.48800 9.34900 25.66300
H  42.44500 8.96200 25.94400
H  39.54100 7.50700 24.63300
H  39.78800 6.64100 26.06100
H  41.18800 7.21900 25.15900
H  41.95600 10.78700 24.78700
H  42.79600 11.39200 26.15100
H  39.90300 11.59800 26.77900
H  40.08400 11.99500 25.06500
H  40.97100 12.87500 26.31100
H  46.13700 10.03800 29.52500
H  46.44600 11.57400 30.49100
H  45.41900 11.58900 29.10700
H  42.99100 12.53400 34.48800
H  43.82100 11.66100 38.51400
H  44.69800 10.27700 37.89900
H  42.84900 10.26300 37.91500

