158

Mg 49.39000 45.01700 43.50400
C  45.88300 45.33700 42.73000
C  49.28800 41.76800 42.74800
C  52.66200 45.27400 43.24800
C  49.24400 48.71300 43.84800
N  47.76600 43.77500 42.80900
C  46.44100 44.05400 42.61400
C  45.66100 42.73000 42.44600
C  46.73600 41.62100 42.85500
C  48.05900 42.38600 42.76400
C  46.65900 40.86100 44.15500
C  45.03300 42.47900 41.03900
C  45.69600 43.14700 39.83500
H  45.62700 42.55800 38.39900
N  50.83800 43.69600 43.00300
C  50.61300 42.35800 42.87200
C  51.90600 41.70400 42.79700
C  52.90400 42.69500 42.80300
C  52.12900 43.99700 43.04400
C  52.10000 40.23300 42.65000
C  54.36900 42.51400 42.67200
O  54.83000 41.39600 42.60700
C  55.40800 43.66900 42.62300
N  50.77200 46.76400 43.39200
C  52.07700 46.53300 43.35400
C  52.87600 47.84800 43.58700
C  51.80100 48.96300 43.68400
C  50.49500 48.12900 43.64900
C  53.92600 47.80700 44.73300
C  51.83100 50.03600 42.51700
C  52.02500 51.50500 42.86800
N  47.86400 46.67000 43.58100
C  48.01700 48.08000 43.75500
C  46.73500 48.65400 43.70500
C  45.85500 47.67000 43.30100
C  46.64400 46.48300 43.17000
C  46.43700 50.11400 43.92500
C  44.51000 47.38000 42.87000
O  43.58600 48.14100 42.86900
C  44.48800 45.88600 42.36600
C  43.46100 45.09800 43.04600
O  42.72800 44.28200 42.50600
O  43.43100 45.47300 44.37200
C  42.26900 45.02700 45.13200
H  49.29800 40.67800 42.80700
H  53.75100 45.32200 43.31800
H  49.29200 49.78700 44.04000
H  44.98400 42.69200 43.29900
H  46.77800 40.93900 42.00500
H  46.54800 39.81900 43.85700
H  45.76200 41.10600 44.72200
H  47.50900 41.02700 44.81700
H  44.00700 42.84700 41.01500
H  45.00600 41.41000 40.82500
H  46.74600 43.34500 40.04700
H  45.12800 44.07100 39.72600
H  52.69100 39.86900 43.49000
H  52.58400 40.16500 41.67500
H  51.12700 39.74500 42.69800
H  55.22100 44.27900 41.73900
H  56.36800 43.17000 42.49000
H  55.42300 44.18300 43.58400
H  53.37000 48.01200 42.62900
H  51.75000 49.50100 44.63000
H  54.95800 47.83600 44.38100
H  53.95300 46.85400 45.26200
H  53.73000 48.57100 45.48500
H  50.89100 49.98000 41.96600
H  52.70500 49.89400 41.88100
H  51.20900 52.01800 42.36000
H  52.98900 51.90300 42.55300
H  51.98500 51.59100 43.95400
H  45.37700 50.34000 44.04200
H  46.95200 50.80600 43.26000
H  46.92000 50.44100 44.84600
H  44.25800 45.93300 41.30200
H  42.59700 45.04100 46.17200
H  42.07300 43.99900 44.82700
H  41.43400 45.72800 45.16800
Mg 48.96700 35.21600 28.48400
C  46.68000 33.87800 30.95000
C  49.12700 38.01600 30.61800
C  50.15500 37.03700 25.96200
C  48.20800 32.58100 26.44300
N  48.01400 35.78800 30.63000
C  47.24300 35.04200 31.47000
C  47.27900 35.56900 32.89600
C  47.71100 37.08400 32.61200
C  48.37200 36.98700 31.18400
C  46.51100 37.98700 32.61600
C  48.11400 34.66800 33.84600
C  49.09500 35.44700 34.96400
H  48.55500 36.54500 35.85300
N  49.73000 37.13400 28.34800
C  49.70100 38.08700 29.30700
C  50.46500 39.18100 28.88200
C  50.75700 39.01100 27.50900
C  50.16700 37.70800 27.19100
C  50.87300 40.18100 29.86200
C  51.36400 39.80700 26.46400
O  51.45500 39.45800 25.29600
C  52.16400 41.03800 26.85900
N  49.12500 34.90000 26.47400
C  49.70500 35.77100 25.62700
C  49.67200 35.22400 24.14800
C  49.16500 33.72900 24.32900
C  48.80800 33.69000 25.83800
C  48.85700 36.03500 23.06400
C  50.27800 32.64300 24.15800
C  49.98000 31.44300 23.25500
N  47.81800 33.57000 28.62500
C  47.68000 32.54600 27.74700
C  46.90700 31.46000 28.24300
C  46.44900 32.03400 29.41100
C  47.05900 33.29100 29.66600
C  46.52700 30.23000 27.57500
C  45.52400 31.69300 30.53000
O  44.89400 30.71000 30.78200
C  45.53800 32.96600 31.46900
C  45.71700 32.61700 32.91300
O  46.63400 31.95800 33.33500
O  44.65100 33.03100 33.68500
C  44.48600 32.64000 35.07400
H  49.01400 38.93300 31.19900
H  50.58900 37.54500 25.09800
H  48.06400 31.66600 25.86500
H  46.23500 35.69700 33.18400
H  48.42200 37.51200 33.31900
H  45.92200 37.60300 31.78300
H  46.80800 39.03000 32.50300
H  46.09200 37.90800 33.62000
H  48.81500 34.08500 33.24800
H  47.49600 34.12400 34.56100
H  49.95300 35.91800 34.48400
H  49.46400 34.71600 35.68400
H  51.15600 39.64800 30.76900
H  50.08400 40.86900 30.16800
H  51.63200 40.89700 29.54800
H  52.43500 41.78600 26.11400
H  53.02300 40.79000 27.48300
H  51.43300 41.64400 27.39400
H  50.73700 35.26200 23.92000
H  48.21500 33.45200 23.87400
H  49.57200 36.22300 22.26300
H  48.32600 36.93600 23.36900
H  48.20400 35.23700 22.71100
H  50.48700 32.24300 25.15000
H  51.17500 33.05400 23.69500
H  49.08400 31.66400 22.67500
H  49.51300 30.57900 23.72700
H  50.76300 31.26200 22.51900
H  46.67600 29.41400 28.28300
H  47.13900 30.05400 26.69000
H  45.47300 30.42200 27.37200
H  44.60600 33.52900 31.43700
H  44.78100 33.49000 35.68800
H  45.17400 31.82500 35.29800
H  43.45500 32.40400 35.33800

