158

Mg -0.31900 6.82600 26.46200
C  0.58200 8.96700 29.16700
C  -0.13400 4.08000 28.41700
C  -0.29100 4.99800 23.55200
C  0.22600 9.78000 24.34700
N  0.16800 6.62100 28.52700
C  0.26400 7.63600 29.47200
C  0.18600 7.00800 30.87800
C  0.09300 5.52000 30.62000
C  -0.00800 5.38800 29.09000
C  1.25800 4.57600 31.06700
C  -1.00200 7.57500 31.74200
C  -0.90100 7.59300 33.30200
H  0.30900 7.06800 33.98100
N  -0.28100 4.83700 26.05500
C  -0.25200 3.83000 27.05200
C  -0.28000 2.55400 26.39700
C  -0.26400 2.78500 24.99600
C  -0.24500 4.26000 24.76700
C  -0.38100 1.27200 27.17100
C  -0.38500 1.75500 23.90000
O  -0.31000 2.10100 22.72100
C  -0.70300 0.34500 24.10200
N  -0.14000 7.32100 24.26600
C  -0.22700 6.37400 23.31200
C  -0.28000 6.97800 21.83600
C  -0.07300 8.47200 22.10000
C  0.05600 8.53600 23.68400
C  0.91700 6.48400 20.94500
C  -1.17700 9.47800 21.58400
C  -2.53800 9.50500 22.38900
N  0.23700 8.98000 26.66800
C  0.44000 10.00900 25.74900
C  0.81400 11.22100 26.44800
C  0.74900 10.83200 27.77400
C  0.42300 9.51400 27.87500
C  1.11200 12.49700 25.87700
C  1.09800 11.33900 29.11400
O  1.50400 12.42500 29.51100
C  0.84500 10.14400 30.07900
C  2.03000 9.90900 31.00100
O  3.05500 9.25500 30.73700
O  1.64600 10.62000 32.15600
C  2.62400 10.65700 33.20500
H  -0.28500 3.21800 29.07000
H  -0.24500 4.49700 22.58300
H  0.31700 10.63300 23.67100
H  1.14600 7.18900 31.36200
H  -0.79300 5.08500 31.08100
H  2.07300 5.09300 31.57200
H  1.69600 4.19100 30.14600
H  0.92200 3.72500 31.65900
H  -1.82200 6.97400 31.34800
H  -1.17300 8.57100 31.33400
H  -1.77900 7.14000 33.76200
H  -0.97100 8.66200 33.50700
H  -1.34000 0.83600 26.89200
H  -0.32500 1.32100 28.25800
H  0.33300 0.53900 26.79400
H  -1.65500 0.35600 24.63300
H  0.18300 -0.13900 24.51200
H  -0.91700 -0.23600 23.20600
H  -1.20600 6.54800 21.45500
H  0.86900 8.79400 21.65500
H  1.48100 7.29600 20.48600
H  0.50100 5.80500 20.20100
H  1.56200 5.98300 21.66700
H  -1.30900 9.21600 20.53400
H  -0.62200 10.41100 21.68700
H  -2.44300 10.20200 23.22100
H  -2.79800 8.53600 22.81500
H  -3.31200 9.87200 21.71500
H  0.26400 12.88300 25.31100
H  2.00200 12.32900 25.27100
H  1.53500 13.16400 26.62900
H  -0.04700 10.42300 30.64100
H  2.76600 11.67800 33.55700
H  3.59600 10.23900 32.94300
H  2.26900 10.04200 34.03200
Mg -5.55900 25.09100 25.84800
C  -3.95800 26.39700 28.78200
C  -7.58300 23.19800 28.01300
C  -6.90900 23.74300 23.16800
C  -3.25400 26.74100 23.93200
N  -5.57900 24.68100 28.06900
C  -4.90600 25.43500 29.03900
C  -5.55200 25.21900 30.39100
C  -6.43400 23.87500 30.18500
C  -6.62400 23.98500 28.67400
C  -5.67600 22.61100 30.66700
C  -6.42000 26.40800 30.94700
C  -6.46700 26.49300 32.50600
H  -6.02800 25.37700 33.48100
N  -7.01200 23.65300 25.65000
C  -7.75700 23.03300 26.67700
C  -8.71300 22.15800 25.98700
C  -8.50900 22.26500 24.56900
C  -7.46600 23.28900 24.38200
C  -9.64600 21.26500 26.76300
C  -9.12500 21.52800 23.42600
O  -8.79700 21.61400 22.23600
C  -10.10600 20.49800 23.76500
N  -5.14100 25.19100 23.81000
C  -5.86600 24.56000 22.91000
C  -5.30400 24.76300 21.55600
C  -4.17400 25.85700 21.76400
C  -4.13400 25.88700 23.21700
C  -4.92000 23.48600 20.84900
C  -4.42200 27.22200 21.07200
C  -4.72600 27.25700 19.56400
N  -4.06800 26.42900 26.24200
C  -3.22900 27.03800 25.32800
C  -2.22700 27.84300 25.95500
C  -2.46000 27.58200 27.36200
C  -3.61400 26.79200 27.46300
C  -0.96200 28.44800 25.29200
C  -1.98000 27.79600 28.72500
O  -0.96300 28.32200 29.13700
C  -3.07600 27.26900 29.68800
C  -2.40300 26.46100 30.72000
O  -1.91300 25.34300 30.48800
O  -2.33300 27.07800 31.91600
C  -1.78600 26.29900 33.02700
H  -8.18800 22.72000 28.78600
H  -7.37600 23.46700 22.22100
H  -2.40700 27.15100 23.37800
H  -4.72200 24.94400 31.04200
H  -7.35200 24.00100 30.75900
H  -4.68400 22.82800 31.06300
H  -5.64200 21.80100 29.93800
H  -6.19000 22.19300 31.53300
H  -7.46100 26.34000 30.62900
H  -5.86500 27.27500 30.59100
H  -7.40800 26.89500 32.88000
H  -5.72700 27.24800 32.77000
H  -9.48800 20.20000 26.59200
H  -10.71200 21.43900 26.61700
H  -9.51500 21.48800 27.82200
H  -10.61100 20.23600 22.83600
H  -10.90600 20.78400 24.44800
H  -9.57200 19.70200 24.28400
H  -6.07800 25.18300 20.91300
H  -3.25400 25.39700 21.40400
H  -5.01300 22.62900 21.51500
H  -3.89400 23.50800 20.48300
H  -5.59400 23.21700 20.03500
H  -3.58800 27.90600 21.23100
H  -5.23300 27.80500 21.50900
H  -4.78800 26.23200 19.19900
H  -3.91200 27.83300 19.12500
H  -5.66300 27.78800 19.39700
H  -1.21000 29.51000 25.27000
H  -0.74800 27.96800 24.33700
H  -0.03900 28.36400 25.86500
H  -3.64000 28.09800 30.11500
H  -0.71900 26.08500 32.96400
H  -2.27900 25.35300 33.25200
H  -1.94500 26.92400 33.90500

