158

Mg 47.25900 35.72200 27.84100
C  45.37900 33.86500 30.37100
C  47.30300 38.29500 29.96900
C  48.48600 37.46100 25.43700
C  46.73700 32.89600 25.70500
N  46.53500 35.91900 29.97700
C  45.88200 35.02800 30.86700
C  45.95600 35.57700 32.31100
C  46.22700 37.10300 31.98900
C  46.81100 37.08900 30.53700
C  44.85600 37.85400 32.23700
C  47.05000 34.84200 33.13300
C  46.97600 34.77300 34.67100
H  46.00600 35.67100 35.41400
N  47.84100 37.66400 27.66500
C  47.81000 38.53700 28.64700
C  48.38600 39.79700 28.27800
C  48.90200 39.52300 26.94700
C  48.39000 38.15600 26.62200
C  48.51500 40.98900 29.21500
C  49.60700 40.33500 25.96900
O  49.90800 39.95600 24.87400
C  49.86600 41.76200 26.22300
N  47.53500 35.15900 25.83000
C  48.03500 36.12800 25.06800
C  48.41200 35.50200 23.70600
C  48.26700 33.98500 23.92900
C  47.36600 34.00300 25.15600
C  47.48300 35.99900 22.53700
C  49.60400 33.22500 24.27400
C  49.90500 31.86800 23.50300
N  46.20200 33.77600 27.91800
C  46.07200 32.77300 26.93600
C  45.43200 31.70200 27.50000
C  45.08700 32.07600 28.81900
C  45.59400 33.37300 29.05900
C  45.09300 30.34900 26.89700
C  44.48300 31.61900 30.04900
O  43.99700 30.56900 30.37000
C  44.46200 32.87700 31.04400
C  44.82300 32.30200 32.41900
O  45.77700 31.52500 32.66900
O  43.83700 32.66500 33.31900
C  43.87000 32.05700 34.63600
H  47.29800 39.16100 30.63400
H  48.87900 37.93100 24.53300
H  47.06100 32.02100 25.13700
H  45.02700 35.38100 32.84500
H  46.98800 37.45500 32.68600
H  44.91000 38.47400 33.13200
H  44.04300 37.12900 32.26000
H  44.72400 38.51800 31.38300
H  48.02900 35.24100 32.86700
H  47.09200 33.82300 32.74800
H  47.97000 34.84700 35.11100
H  46.68700 33.74100 34.87000
H  49.11700 41.82000 28.84800
H  48.88100 40.72100 30.20600
H  47.55400 41.48000 29.37100
H  49.76100 42.41600 25.35700
H  50.85500 41.93600 26.64700
H  49.12600 42.24000 26.86500
H  49.44600 35.57500 23.37000
H  47.89700 33.45100 23.05400
H  46.97200 36.92000 22.81600
H  46.74600 35.23500 22.28700
H  48.11900 36.12700 21.66000
H  49.74400 33.07200 25.34400
H  50.50000 33.82800 24.12500
H  50.05200 31.10600 24.26900
H  50.72200 31.96100 22.78800
H  49.04100 31.57000 22.90900
H  44.66700 30.23500 25.90000
H  44.40200 29.81300 27.54800
H  46.04700 29.82400 26.93100
H  43.46400 33.31500 31.00700
H  44.54500 31.20700 34.73500
H  42.91200 31.60000 34.88200
H  44.17000 32.79800 35.37700
Mg 34.74000 49.17400 26.31100
C  35.36600 46.92800 28.96500
C  33.57000 51.50000 28.62100
C  33.88500 51.30900 23.75100
C  35.78500 46.77300 24.09200
N  34.49900 49.18300 28.49700
C  34.92500 48.20600 29.39800
C  34.89500 48.70700 30.82200
C  33.91500 49.89300 30.72500
C  34.04300 50.27000 29.16300
C  32.39900 49.52900 31.04800
C  36.35100 48.95600 31.38000
C  36.60800 48.47500 32.84100
H  36.50200 49.44300 33.97800
N  33.97000 51.19900 26.19700
C  33.59100 51.94300 27.29000
C  33.10200 53.26900 26.85900
C  33.31600 53.33900 25.44200
C  33.70000 51.94400 25.03600
C  32.60600 54.40600 27.84400
C  33.09800 54.47300 24.40700
O  33.24400 54.27600 23.19900
C  32.72000 55.85000 24.86000
N  34.81300 49.04100 24.36200
C  34.42400 50.05800 23.42800
C  34.63600 49.64300 21.94400
C  35.50200 48.32500 22.10800
C  35.32400 48.02300 23.63000
C  33.26100 49.36600 21.21800
C  36.99400 48.44500 21.74500
C  37.51100 47.43800 20.71800
N  35.20100 47.11800 26.42000
C  35.74500 46.30200 25.45400
C  36.24700 45.10300 26.03000
C  36.12900 45.35000 27.42800
C  35.40700 46.51600 27.59800
C  36.99500 44.04100 25.27400
C  36.53200 44.76000 28.72300
O  37.14100 43.73900 28.89300
C  35.99100 45.78200 29.81600
C  35.06300 45.08600 30.74700
O  34.05300 44.49600 30.47400
O  35.61200 45.29300 32.00400
C  34.83400 44.69400 33.12400
H  33.16500 52.16400 29.38600
H  33.52300 51.83300 22.86400
H  36.25800 46.11800 23.35800
H  34.42600 47.94600 31.44500
H  34.31000 50.75200 31.26800
H  32.23500 48.49000 31.33400
H  31.86400 49.72100 30.11700
H  31.90200 50.20500 31.74300
H  36.56600 50.02400 31.34100
H  37.07900 48.50000 30.70900
H  37.58300 47.98800 32.85800
H  35.90500 47.65900 33.00400
H  33.36700 55.16400 27.66300
H  32.62600 54.02700 28.86600
H  31.62200 54.78600 27.57000
H  32.39600 56.33800 23.94100
H  33.56500 56.35300 25.33000
H  31.86400 55.73700 25.52500
H  35.16100 50.50000 21.52200
H  34.91200 47.55700 21.60900
H  33.05600 49.93400 20.31100
H  32.51200 49.55800 21.98600
H  33.25800 48.32900 20.88200
H  37.61600 48.31700 22.63000
H  37.22400 49.44400 21.37600
H  37.06200 47.45800 19.72500
H  37.22700 46.49100 21.17600
H  38.59900 47.50800 20.71400
H  37.75300 44.43900 24.59900
H  36.28700 43.32900 24.85000
H  37.49700 43.45800 26.04600
H  36.89300 46.02800 30.37700
H  33.94200 44.21000 32.72600
H  34.60900 45.50700 33.81400
H  35.46100 43.97000 33.64500

