158

Mg 8.76300 3.40500 27.42700
C  10.49000 2.14000 30.32400
C  7.64300 5.99100 29.14000
C  7.34200 4.39700 24.58600
C  10.16800 0.58900 25.65200
N  8.92800 3.99700 29.47600
C  9.71900 3.33400 30.50400
C  9.55000 4.09500 31.83900
C  8.47100 5.16500 31.54300
C  8.24700 5.01600 29.96900
C  7.07500 5.11200 32.20000
C  10.82600 4.47700 32.58300
C  10.65700 5.47300 33.71900
H  11.13700 4.92700 35.07100
N  7.70400 5.03200 26.84400
C  7.31400 5.99400 27.74300
C  6.58700 7.03700 26.95700
C  6.42300 6.53400 25.62600
C  7.18400 5.23700 25.67600
C  5.92000 8.17000 27.59800
C  5.80300 7.27600 24.42500
O  5.83500 6.74700 23.29800
C  5.07600 8.59600 24.64600
N  8.82600 2.65000 25.39500
C  7.99900 3.22200 24.45400
C  8.19100 2.57100 23.09900
C  8.93900 1.29100 23.42800
C  9.35100 1.49000 24.90600
C  6.91100 2.35200 22.18600
C  10.16600 1.05600 22.51900
C  9.94600 -0.03000 21.46400
N  10.03200 1.65700 27.88400
C  10.52900 0.65800 27.06000
C  11.36600 -0.27600 27.82900
C  11.37600 0.30800 29.11800
C  10.57400 1.46300 29.08400
C  12.17500 -1.35500 27.20700
C  11.95100 0.20300 30.49700
O  12.78000 -0.58800 30.98600
C  11.34500 1.39600 31.31000
C  10.61600 0.80000 32.50500
O  9.56000 0.19300 32.49700
O  11.46800 0.98200 33.56800
C  10.97200 0.47200 34.83600
H  7.22600 6.76300 29.79100
H  6.95400 4.67900 23.60500
H  10.61000 -0.20800 25.05000
H  9.06000 3.36300 32.48100
H  8.84700 6.13600 31.86600
H  6.34600 5.66300 31.60600
H  7.25900 5.45000 33.22000
H  6.86000 4.04700 32.12600
H  11.58900 4.78900 31.87000
H  11.21500 3.53300 32.96300
H  9.64900 5.83600 33.92300
H  11.36900 6.27500 33.52500
H  5.96500 8.15600 28.68700
H  4.83700 8.22400 27.47900
H  6.32400 9.12400 27.25900
H  4.27700 8.56400 25.38600
H  4.70000 8.98100 23.69800
H  5.84900 9.33100 24.87000
H  8.78600 3.24400 22.48100
H  8.31500 0.39700 23.43600
H  6.05100 2.69900 22.76000
H  6.85700 1.27700 22.01400
H  6.94400 2.96400 21.28500
H  10.98600 0.67800 23.13000
H  10.53400 1.97700 22.06700
H  8.90500 -0.30400 21.29500
H  10.40800 -0.98400 21.71900
H  10.41300 0.19300 20.50400
H  12.42300 -1.15800 26.16400
H  11.78300 -2.36000 27.35900
H  13.09600 -1.30500 27.78700
H  12.20400 1.97900 31.64300
H  11.60500 0.85100 35.63800
H  10.92700 -0.61100 34.94800
H  10.01200 0.98000 34.92700
Mg 41.23700 40.30200 26.89300
C  40.62200 43.14600 29.02300
C  42.02700 38.44800 29.72300
C  42.17500 37.90700 24.83100
C  40.85300 42.52700 24.14600
N  41.40200 40.76100 29.11600
C  41.00400 41.98500 29.78000
C  41.05000 41.74900 31.22200
C  41.51500 40.31100 31.46500
C  41.64900 39.78000 30.01200
C  42.68200 40.02500 32.46300
C  39.84200 42.27500 31.97300
C  39.59400 41.61500 33.36400
H  38.83800 42.51100 34.33500
N  41.84800 38.42700 27.23500
C  42.09200 37.86000 28.46400
C  42.50500 36.50500 28.25400
C  42.49000 36.33500 26.82400
C  42.24800 37.59300 26.20900
C  42.88900 35.55400 29.35600
C  42.87000 34.99200 26.04600
O  42.98400 34.89200 24.81600
C  43.08000 33.73000 26.81700
N  41.27400 40.19700 24.81900
C  41.83000 39.15400 24.19600
C  41.82600 39.35500 22.67600
C  41.08600 40.71500 22.46700
C  41.03100 41.18600 23.92000
C  43.18600 39.24500 22.00000
C  39.59700 40.64400 22.03300
C  38.59800 39.90200 22.95000
N  40.82300 42.41300 26.60400
C  40.75800 43.17200 25.40400
C  40.37300 44.47200 25.76700
C  40.25100 44.51300 27.13800
C  40.60400 43.27600 27.59300
C  40.08300 45.52100 24.84400
C  39.93300 45.39000 28.31500
O  39.42300 46.51300 28.39800
C  40.31100 44.59300 29.53400
C  41.49600 45.14300 30.22100
O  42.69300 44.97700 29.91000
O  41.10100 45.80700 31.33100
C  42.21000 46.26800 32.20400
H  42.15200 37.78000 30.57800
H  42.36200 37.12500 24.09300
H  40.68100 43.14500 23.26300
H  41.81000 42.43500 31.59500
H  40.69100 39.75600 31.91500
H  43.48000 39.69300 31.79900
H  42.32100 39.33100 33.22200
H  42.92400 40.91600 33.04200
H  38.99500 42.04600 31.32600
H  39.87600 43.36100 32.06600
H  40.46300 41.11600 33.79100
H  39.02900 40.77100 32.96700
H  42.44200 34.56400 29.44400
H  42.57800 35.82700 30.36400
H  43.97200 35.55300 29.48000
H  43.91200 33.83100 27.51400
H  43.33800 32.98200 26.06700
H  42.17700 33.46200 27.36600
H  41.28000 38.55900 22.16900
H  41.63700 41.36700 21.78900
H  44.07500 39.23000 22.63100
H  43.38900 40.08100 21.33100
H  43.24300 38.27600 21.50400
H  39.60100 40.09100 21.09400
H  39.13600 41.63100 22.05500
H  39.10000 39.04700 23.40200
H  37.82900 39.45100 22.32300
H  38.06400 40.62800 23.56300
H  40.96500 45.98800 24.40600
H  39.65900 46.37800 25.36600
H  39.43300 45.17500 24.04100
H  39.49800 44.47400 30.25100
H  42.58200 45.45000 32.82000
H  41.87900 47.05400 32.88400
H  42.91700 46.88700 31.65200

