158

Mg 44.32900 3.78600 47.92000
C  41.73700 6.15100 47.23300
C  41.90800 1.36800 47.95800
C  46.74400 1.48500 47.96500
C  46.61000 6.25400 47.21400
N  42.02100 3.80600 47.64000
C  41.18800 4.88400 47.43200
C  39.73200 4.44500 47.29600
C  39.83000 2.92900 47.86300
C  41.36400 2.62400 47.83300
C  39.37100 2.85100 49.30100
C  39.22400 4.45000 45.84100
C  38.06500 5.37500 45.58000
H  38.01700 6.17100 44.21000
N  44.33900 1.63700 47.87800
C  43.23700 0.88400 47.97700
C  43.65700 -0.55200 47.97200
C  45.07900 -0.58700 47.95000
C  45.46000 0.84600 48.00500
C  42.71800 -1.67400 48.20700
C  45.95500 -1.87900 48.01500
O  45.50700 -3.01300 47.93200
C  47.47300 -1.74300 48.20700
N  46.33900 3.86400 47.56200
C  47.14900 2.83200 47.84100
C  48.60300 3.22800 48.02200
C  48.56500 4.67200 47.38800
C  47.07600 4.96800 47.45100
C  49.23900 2.94500 49.34200
C  49.15900 4.75900 45.92000
C  50.66700 5.02000 45.85600
N  44.26300 5.84800 47.46600
C  45.29400 6.66000 47.17000
C  44.75000 7.95300 46.91500
C  43.34700 7.86700 46.95800
C  43.11100 6.46000 47.25400
C  45.37400 9.22300 46.39600
C  42.12200 8.49700 46.75700
O  41.88600 9.63100 46.40300
C  41.01400 7.48100 47.20100
C  40.56200 7.80500 48.61000
O  41.29100 8.25200 49.49500
O  39.21400 7.41300 48.74500
C  38.66300 7.85300 50.05200
H  41.11200 0.63000 47.84400
H  47.49000 0.75200 48.28000
H  47.35300 7.04400 47.09000
H  39.05000 4.90900 48.00900
H  39.30600 2.12800 47.34000
H  40.19800 2.70600 49.99600
H  38.72700 1.97100 49.30000
H  38.82000 3.71300 49.67700
H  38.86900 3.49700 45.45100
H  40.04700 4.72900 45.18300
H  38.12000 6.00700 46.46600
H  37.16600 4.75900 45.54200
H  41.74300 -1.24300 48.43200
H  43.00600 -2.37500 48.99000
H  42.70500 -2.12800 47.21600
H  47.68600 -1.24100 49.15100
H  48.00900 -1.22100 47.41500
H  47.90100 -2.74400 48.24700
H  49.29900 2.76400 47.32300
H  49.09400 5.35800 48.04900
H  48.48200 2.69900 50.08600
H  49.63300 3.86800 49.76900
H  50.06300 2.24400 49.20700
H  48.68000 5.51100 45.29200
H  48.87500 3.84400 45.40000
H  50.84500 5.99800 46.30400
H  51.24700 4.97600 44.93400
H  51.19400 4.40500 46.58500
H  44.92000 9.46100 45.43400
H  46.45500 9.15000 46.28000
H  45.21400 10.01400 47.12900
H  40.13300 7.37900 46.56600
H  38.57100 8.93500 50.15200
H  39.32700 7.49900 50.84000
H  37.67400 7.40500 50.14300
Mg -0.08200 43.94800 24.84500
C  1.97800 43.24600 27.54400
C  -2.55400 42.78900 26.59900
C  -1.88800 43.78400 21.93900
C  2.72900 44.73500 22.90700
N  -0.23000 43.32400 26.87200
C  0.69600 43.18700 27.87300
C  0.10800 42.86000 29.19700
C  -1.39900 42.52600 28.79800
C  -1.40700 42.82500 27.31000
C  -1.78200 40.98900 29.12600
C  0.18700 44.02500 30.31900
C  0.94800 43.73300 31.58300
H  0.90300 42.25100 32.23300
N  -1.98100 43.47600 24.39300
C  -2.89400 42.99700 25.20900
C  -4.18600 42.74500 24.51200
C  -4.03500 43.19500 23.21700
C  -2.59800 43.54800 23.11900
C  -5.38400 42.28300 25.28300
C  -5.05400 43.30700 22.05000
O  -4.78500 43.74500 20.91200
C  -6.48300 42.81000 22.36200
N  0.33600 44.14000 22.67900
C  -0.54600 44.11300 21.69200
C  0.06200 44.63500 20.36100
C  1.44100 45.12200 20.78500
C  1.53500 44.71300 22.26300
C  0.07000 43.57900 19.19000
C  1.63000 46.67800 20.56900
C  0.62900 47.59800 21.44800
N  1.95800 43.99000 25.14000
C  2.99100 44.36500 24.26700
C  4.23200 44.33200 24.93700
C  3.91400 43.85900 26.18000
C  2.49300 43.69600 26.30400
C  5.58200 44.79700 24.42600
C  4.45000 43.49100 27.45500
O  5.57900 43.54000 27.91700
C  3.25900 43.03900 28.43500
C  3.51300 41.68500 28.88400
O  3.15300 40.67300 28.29800
O  4.01200 41.69600 30.13700
C  4.36000 40.45200 30.78900
H  -3.41800 42.39600 27.13900
H  -2.48900 43.81000 21.02800
H  3.54200 45.16100 22.31500
H  0.68400 41.97900 29.48000
H  -2.17000 43.17800 29.21000
H  -0.95000 40.49800 29.63100
H  -2.14000 40.34800 28.32100
H  -2.64400 40.98800 29.79300
H  -0.81200 44.29600 30.66000
H  0.64800 44.89500 29.85200
H  0.68900 44.50200 32.31000
H  2.00500 43.92900 31.39900
H  -5.88000 43.21100 25.56800
H  -5.17100 41.80300 26.23700
H  -6.00300 41.51800 24.81500
H  -6.80900 43.42000 23.20500
H  -6.45400 41.73500 22.53800
H  -7.24700 42.90500 21.59000
H  -0.52000 45.50700 20.06300
H  2.13500 44.61700 20.11300
H  0.57900 44.08500 18.36900
H  -0.91100 43.17300 18.94400
H  0.78500 42.87000 19.60800
H  1.48600 46.83600 19.50000
H  2.67200 46.85600 20.83500
H  0.11600 48.17900 20.68200
H  1.21700 48.31900 22.01600
H  -0.12700 47.00600 21.96500
H  6.22700 45.20400 25.20500
H  5.41800 45.51800 23.62600
H  6.03000 43.94900 23.90700
H  3.24000 43.73300 29.27600
H  3.67800 39.65500 30.49500
H  4.32500 40.56200 31.87300
H  5.30900 40.04300 30.44200

