158

Mg 46.66500 24.36900 28.33200
C  47.56300 26.75700 30.90300
C  46.08800 22.19100 30.87200
C  46.48900 22.10400 26.13800
C  47.82400 26.72700 26.02000
N  46.58900 24.57700 30.67600
C  46.99300 25.60300 31.47800
C  46.78100 25.23800 32.94500
C  46.38900 23.78400 32.94100
C  46.35000 23.48500 31.39800
C  47.32000 22.89200 33.70900
C  45.86700 26.17900 33.76600
C  46.52500 26.77900 35.09600
H  45.54300 27.19300 36.12800
N  46.17300 22.44100 28.40300
C  45.99300 21.73800 29.53900
C  45.48700 20.41100 29.17200
C  45.69300 20.30800 27.76600
C  46.09100 21.63100 27.35700
C  44.98600 19.34100 30.14000
C  45.37100 19.19600 26.81900
O  45.20400 19.32500 25.59900
C  45.03500 17.81500 27.47200
N  47.14300 24.38100 26.31500
C  46.75800 23.31200 25.58900
C  47.01200 23.54800 24.11300
C  47.14000 25.09700 24.07800
C  47.42400 25.48300 25.60600
C  48.30900 22.94000 23.50100
C  45.97000 25.92800 23.52600
C  44.76700 26.23100 24.40300
N  47.50000 26.35400 28.36500
C  47.91300 27.15400 27.37000
C  48.56300 28.32400 27.82700
C  48.39900 28.25500 29.21500
C  47.78600 26.99000 29.50400
C  49.17900 29.42500 26.97100
C  48.61300 28.91700 30.43900
O  49.06200 30.02700 30.62600
C  48.16300 27.97400 31.62100
C  49.29900 27.46400 32.46300
O  49.83700 26.37700 32.48000
O  49.72000 28.45000 33.33500
C  50.52600 28.08300 34.48200
H  45.87100 21.47700 31.66900
H  46.52100 21.31700 25.38100
H  48.01900 27.54000 25.31700
H  47.73600 25.26700 33.46900
H  45.34200 23.81300 33.24300
H  46.70600 22.06800 34.07200
H  47.75100 23.39800 34.57200
H  48.11900 22.48000 33.09200
H  45.00100 25.57500 34.03600
H  45.47700 27.01800 33.19000
H  47.14300 27.62600 34.79800
H  47.23400 26.03600 35.46100
H  44.00900 19.00300 29.79500
H  44.64900 19.81500 31.06200
H  45.72400 18.55300 30.28800
H  45.91000 17.31000 27.88100
H  44.82900 17.10500 26.67100
H  44.14300 17.69700 28.08800
H  46.11000 23.33700 23.53900
H  47.92200 25.40100 23.38200
H  49.10100 23.61900 23.18700
H  48.04400 22.28100 22.67400
H  48.72200 22.26400 24.25000
H  45.65600 25.36900 22.64400
H  46.43400 26.86500 23.21800
H  44.83900 25.72200 25.36500
H  43.82000 25.81700 24.05700
H  44.79000 27.31800 24.47600
H  49.59600 28.96800 26.07300
H  49.95700 29.96100 27.51300
H  48.45400 30.14500 26.59100
H  47.42200 28.44500 32.26600
H  50.47400 28.88900 35.21500
H  51.51500 27.76400 34.15500
H  50.16700 27.18600 34.98600
Mg -4.53400 25.82100 25.09800
C  -2.89500 27.10500 27.98200
C  -6.09900 23.60400 27.13500
C  -5.87500 24.58700 22.37900
C  -2.38800 27.86300 23.12100
N  -4.47900 25.41400 27.35300
C  -3.82300 26.14100 28.30200
C  -4.39700 25.80600 29.69400
C  -5.12300 24.40700 29.40400
C  -5.27000 24.46700 27.87500
C  -4.36700 23.10400 29.85500
C  -5.30600 26.95800 30.27900
C  -5.15900 27.33000 31.66700
H  -4.73900 26.15500 32.64500
N  -5.88400 24.42900 24.83500
C  -6.43500 23.51800 25.78300
C  -7.42000 22.68300 25.16400
C  -7.38300 22.96500 23.77700
C  -6.33400 24.00000 23.61500
C  -8.31900 21.68900 25.97600
C  -8.15800 22.39700 22.65900
O  -7.99600 22.68700 21.46500
C  -9.21900 21.40200 22.91800
N  -4.08800 26.12900 23.06300
C  -4.90400 25.54600 22.12000
C  -4.45000 25.97000 20.73700
C  -3.50100 27.12100 20.97300
C  -3.26700 27.03300 22.45000
C  -3.86900 24.80900 19.86700
C  -4.01000 28.57300 20.61300
C  -2.91600 29.48500 20.13200
N  -2.92500 27.09700 25.40500
C  -2.20700 27.96000 24.55000
C  -1.25400 28.78000 25.28600
C  -1.54000 28.43100 26.61800
C  -2.54600 27.45700 26.65500
C  -0.35700 29.81500 24.75000
C  -1.14800 28.75200 27.92100
O  -0.36300 29.52000 28.37100
C  -2.12200 27.95200 28.89100
C  -1.17700 27.34100 29.77200
O  -0.32700 26.53500 29.44100
O  -1.30900 27.69400 31.07500
C  -0.28400 27.23500 32.05100
H  -6.67800 22.96500 27.80400
H  -6.58600 24.42600 21.56600
H  -1.80400 28.46100 22.41800
H  -3.60900 25.60900 30.42100
H  -6.12400 24.46700 29.83100
H  -3.47100 23.25400 30.45600
H  -4.14400 22.43900 29.02000
H  -5.05900 22.63200 30.55300
H  -6.33900 26.62600 30.18300
H  -5.18500 27.87100 29.69600
H  -6.08500 27.72200 32.08800
H  -4.43700 28.14500 31.72400
H  -9.16800 22.28800 26.30500
H  -7.83900 21.45400 26.92600
H  -8.72900 20.83200 25.44000
H  -9.87100 21.34000 22.04600
H  -9.82500 21.80100 23.73200
H  -8.89000 20.37300 23.06200
H  -5.32900 26.40800 20.26500
H  -2.61900 26.85800 20.39000
H  -3.45000 23.96800 20.41800
H  -3.20600 25.06800 19.04200
H  -4.75100 24.42400 19.35500
H  -4.49900 29.05700 21.45800
H  -4.82600 28.57000 19.89000
H  -2.97400 30.39700 20.72600
H  -3.04700 29.65700 19.06300
H  -1.94500 28.99000 20.10600
H  0.61500 29.33900 24.61400
H  -0.24700 30.56600 25.53200
H  -0.82600 30.26500 23.87500
H  -2.72100 28.73800 29.35100
H  0.77300 27.27300 31.78600
H  -0.48700 26.28900 32.55500
H  -0.34200 27.98200 32.84300

