158

Mg 47.10800 34.15100 26.81800
C  45.65000 32.53000 29.59200
C  47.36000 37.01100 28.72300
C  48.28800 35.75600 24.17900
C  46.58200 31.33500 24.95400
N  46.43100 34.73500 28.85700
C  45.89100 33.90700 29.79100
C  45.56300 34.74000 31.03900
C  46.14400 36.09400 30.79900
C  46.70700 35.98300 29.38500
C  45.01700 37.19200 31.04400
C  45.97200 34.05400 32.34500
C  46.26500 35.00700 33.55300
H  47.68000 35.48300 33.93300
N  47.77700 36.12200 26.49200
C  47.78700 37.12800 27.41600
C  48.54900 38.27700 26.82500
C  48.76200 37.95800 25.48000
C  48.20800 36.58400 25.30700
C  48.75700 39.53500 27.64400
C  49.31000 38.85900 24.34200
O  49.62100 38.37700 23.22900
C  49.63700 40.21900 24.65700
N  47.37400 33.60200 24.92800
C  47.90500 34.42400 23.96200
C  48.04500 33.75500 22.55300
C  47.67500 32.32300 22.95300
C  47.17100 32.41000 24.32200
C  47.23500 34.47800 21.41700
C  48.79800 31.34000 22.72300
C  48.44100 29.88100 22.26100
N  46.19800 32.31400 27.10500
C  46.02800 31.24800 26.21600
C  45.38600 30.18400 26.88400
C  45.28700 30.61900 28.25000
C  45.73900 31.95900 28.33100
C  45.09500 28.81700 26.33900
C  44.84400 30.15800 29.50000
O  44.48800 29.07800 29.85600
C  45.11100 31.39800 30.48900
C  46.05500 30.92000 31.53000
O  47.28700 30.81900 31.46300
O  45.40000 30.60800 32.67300
C  46.25100 30.09700 33.75900
H  47.38600 37.94500 29.28800
H  48.61300 36.30400 23.29200
H  46.44400 30.45500 24.32300
H  44.47600 34.71800 31.11800
H  46.92800 36.23500 31.54300
H  45.41400 37.85100 31.81600
H  44.00300 36.85700 31.26300
H  44.94600 37.79200 30.13700
H  46.93100 33.56100 32.18800
H  45.28400 33.26500 32.64700
H  45.70200 34.60500 34.39500
H  45.69500 35.92800 33.43100
H  47.89300 39.64900 28.29900
H  48.59900 40.46100 27.09000
H  49.67300 39.63700 28.22700
H  48.76600 40.78500 24.98900
H  49.86200 40.74700 23.73100
H  50.54500 40.37000 25.24200
H  49.10800 33.85300 22.33300
H  46.74600 32.01400 22.47400
H  46.41400 35.03300 21.87200
H  46.90400 33.72100 20.70700
H  47.81700 35.23800 20.89600
H  49.29900 31.13100 23.66800
H  49.59800 31.70800 22.08000
H  49.01800 29.71800 21.35000
H  47.39700 29.79400 21.95900
H  48.72600 29.13600 23.00400
H  45.89300 28.09300 26.50900
H  44.82200 28.85200 25.28500
H  44.18000 28.49400 26.83600
H  44.16100 31.64300 30.96500
H  45.66900 29.89800 34.65900
H  47.12100 30.68200 34.05600
H  46.69100 29.13500 33.49400
Mg 30.39100 58.52100 39.09900
C  27.40700 56.66500 37.77000
C  32.22600 55.81100 37.93500
C  33.09900 60.33800 39.22000
C  28.35500 61.35400 39.23800
N  29.76500 56.36100 38.28300
C  28.59400 55.91000 37.82900
C  28.77300 54.52700 37.19000
C  30.26800 54.19900 37.50300
C  30.82000 55.49100 38.02000
C  30.48100 53.08600 38.52700
C  28.43300 54.50300 35.66800
C  27.62200 53.25000 35.21900
H  26.88300 53.39500 33.91800
N  32.38500 58.05300 38.75500
C  32.92600 56.90100 38.31600
C  34.41100 56.95800 38.25500
C  34.65100 58.37200 38.51800
C  33.35000 58.99700 38.85600
C  35.36600 55.87700 37.91900
C  36.01900 59.02500 38.57300
O  36.95500 58.35900 38.08100
C  36.35600 60.45700 39.02900
N  30.67500 60.50200 39.07100
C  31.87200 61.05000 39.26300
C  31.81000 62.51600 39.75700
C  30.32300 62.82900 39.65000
C  29.72500 61.47700 39.30500
C  32.35500 62.80200 41.16700
C  30.00100 63.98200 38.63700
C  28.89400 64.98100 39.00200
N  28.25500 58.91200 38.79200
C  27.69300 60.12700 38.83400
C  26.29900 59.99600 38.46000
C  26.11300 58.69000 37.93700
C  27.30100 58.00100 38.22100
C  25.37600 61.14800 38.39300
C  25.29300 57.73200 37.28000
O  24.16000 57.95600 36.79000
C  26.08600 56.37800 37.18600
C  25.45100 55.25500 37.99800
O  25.43900 55.07900 39.21200
O  25.03700 54.34100 37.04300
C  24.74600 53.03900 37.67600
H  32.71000 54.84400 37.78100
H  33.96100 60.97100 39.44200
H  27.71900 62.22800 39.39700
H  28.10500 53.82900 37.69500
H  30.83200 53.95200 36.60400
H  30.45300 52.10100 38.06200
H  29.73500 53.17200 39.31700
H  31.52000 53.18600 38.83900
H  29.39900 54.45300 35.16500
H  27.98600 55.45400 35.37900
H  26.78300 53.04100 35.88300
H  28.35800 52.45700 35.08200
H  35.37900 55.66000 36.85100
H  34.90900 54.96800 38.31100
H  36.39500 56.03300 38.24300
H  37.44000 60.56700 39.08100
H  35.90900 60.76100 39.97600
H  36.02800 61.18500 38.28800
H  32.34800 63.18300 39.08300
H  29.89700 63.07000 40.62400
H  32.52700 61.86000 41.68600
H  31.79100 63.57200 41.69300
H  33.32200 63.24800 40.93500
H  29.86800 63.54400 37.64800
H  30.87000 64.63600 38.55700
H  28.37700 64.45900 39.80700
H  28.38900 65.25700 38.07700
H  29.20300 65.96900 39.34300
H  25.28600 61.54000 37.38000
H  25.59200 62.00800 39.02700
H  24.35000 60.81600 38.55100
H  26.12100 56.13900 36.12300
H  24.30600 52.35300 36.95200
H  24.04700 53.10000 38.51000
H  25.61200 52.58100 38.15500

