158

Mg 47.43000 25.72700 28.79200
C  48.52300 27.97000 31.20800
C  46.96200 23.38100 31.30700
C  46.94700 23.38800 26.37800
C  48.75900 27.94500 26.34600
N  47.64800 25.71900 31.00700
C  47.92600 26.81500 31.80100
C  47.53000 26.53700 33.23000
C  47.10400 24.97700 33.23500
C  47.20500 24.67500 31.73900
C  47.96800 23.97000 34.13300
C  46.41100 27.59800 33.71400
C  45.64800 27.33700 35.01000
H  45.85400 28.08900 36.31700
N  46.85300 23.70900 28.86300
C  46.73800 22.89100 30.00800
C  46.44400 21.53300 29.59900
C  46.23900 21.54900 28.17300
C  46.73500 22.91800 27.73500
C  46.17500 20.46400 30.52700
C  45.85600 20.44100 27.25000
O  45.67600 20.61300 26.00800
C  45.44300 19.13800 27.73100
N  47.87400 25.67000 26.67700
C  47.41700 24.66300 25.90500
C  47.27700 25.08600 24.40700
C  47.71500 26.57700 24.44100
C  48.15800 26.75000 25.92800
C  48.23300 24.23400 23.51800
C  46.59900 27.58400 24.01000
C  47.02200 28.67500 23.05800
N  48.50100 27.55500 28.71100
C  48.90700 28.32200 27.63900
C  49.50700 29.55600 28.13900
C  49.35600 29.42800 29.55900
C  48.75900 28.20000 29.89500
C  50.20800 30.57500 27.37400
C  49.57300 30.14400 30.81200
O  50.06900 31.29400 30.98000
C  48.92500 29.30600 31.87800
C  49.69800 29.17600 33.19700
O  50.75100 28.51700 33.30800
O  49.20800 30.01200 34.22000
C  49.95200 29.90100 35.47400
H  46.56000 22.77300 32.12100
H  46.56200 22.74700 25.58300
H  49.02400 28.69100 25.59400
H  48.37400 26.66000 33.90800
H  46.05600 24.88300 33.52100
H  48.58300 23.34200 33.48800
H  47.36600 23.23100 34.66200
H  48.65300 24.55000 34.75100
H  45.70800 27.54800 32.88200
H  46.83000 28.60100 33.64500
H  46.12600 26.42900 35.37700
H  44.59700 27.11500 34.82400
H  46.23900 20.73200 31.58100
H  46.77200 19.59800 30.24100
H  45.14300 20.21800 30.27800
H  46.18700 18.74000 28.42200
H  45.48300 18.48300 26.86100
H  44.59700 19.19700 28.41500
H  46.31400 24.95700 23.91300
H  48.54300 26.69000 23.74100
H  48.44200 23.26800 23.97800
H  49.23600 24.59100 23.28500
H  47.64700 23.93000 22.65100
H  46.13900 28.01800 24.89800
H  45.76200 27.09700 23.51100
H  46.36600 29.45100 23.45400
H  46.78200 28.47100 22.01500
H  48.05800 28.98300 23.20400
H  50.48000 31.48500 27.90900
H  49.46900 30.94500 26.66400
H  51.11900 30.21800 26.89400
H  48.01000 29.77600 32.23900
H  49.98100 28.85600 35.78300
H  49.44800 30.36500 36.32300
H  50.97400 30.28000 35.47200
Mg -1.44000 34.46600 27.44100
C  -3.19400 32.56100 29.82200
C  -0.01600 36.21300 29.91200
C  -0.13900 36.40600 25.05000
C  -3.23200 32.70400 25.03100
N  -1.70600 34.41200 29.55100
C  -2.37500 33.57800 30.37500
C  -2.16900 33.89000 31.88700
C  -1.31000 35.18400 31.80100
C  -1.01900 35.31500 30.32300
C  -2.00900 36.38900 32.49900
C  -1.38700 32.70800 32.63800
C  -2.12900 32.03700 33.91400
H  -1.47600 32.08400 35.28200
N  -0.15300 36.07300 27.50000
C  0.36700 36.60100 28.63100
C  1.38000 37.52200 28.25600
C  1.41800 37.62200 26.79500
C  0.30800 36.69800 26.38600
C  2.28800 38.14500 29.21700
C  2.26200 38.46900 25.87100
O  2.29300 38.33200 24.63800
C  3.17900 39.44200 26.44400
N  -1.91300 34.76100 25.31800
C  -1.10800 35.57600 24.58600
C  -1.51500 35.41900 23.04400
C  -2.35000 34.06500 23.07800
C  -2.54200 33.86100 24.55300
C  -2.20900 36.60900 22.42300
C  -1.54300 32.91600 22.48400
C  -1.75700 32.58600 20.99000
N  -2.88600 32.88700 27.40800
C  -3.39000 32.25000 26.35300
C  -4.17600 31.12700 26.80800
C  -4.14600 31.25700 28.18100
C  -3.27700 32.28600 28.47800
C  -4.89800 30.16800 25.95000
C  -4.64900 30.63800 29.33500
O  -5.33500 29.58700 29.43200
C  -4.02400 31.49400 30.48300
C  -5.13600 32.12900 31.22800
O  -5.67500 33.20300 30.96800
O  -5.43400 31.43300 32.40500
C  -6.39500 32.03600 33.31700
H  0.52300 36.69000 30.73300
H  0.31400 36.94200 24.21300
H  -3.54300 32.00500 24.25100
H  -3.15300 34.07200 32.32000
H  -0.36100 35.11600 32.33300
H  -3.01500 36.10300 32.80400
H  -2.11200 37.35300 31.99900
H  -1.49300 36.63900 33.42600
H  -0.47800 33.15200 33.04200
H  -1.02200 32.02100 31.87400
H  -2.22700 30.96700 33.73200
H  -3.19100 32.27000 33.99200
H  1.83600 38.08200 30.20700
H  2.41400 39.21100 29.02700
H  3.23500 37.60600 29.20300
H  2.57300 40.09500 27.07200
H  3.57200 39.97700 25.57900
H  4.04700 38.97100 26.90500
H  -0.65200 35.20200 22.41400
H  -3.35900 34.17800 22.68100
H  -2.15200 37.50400 23.04300
H  -3.27700 36.39600 22.39900
H  -1.86300 36.90500 21.43300
H  -1.71200 31.96300 22.98500
H  -0.47900 33.14300 22.55100
H  -2.53300 33.24500 20.59900
H  -2.11900 31.57000 20.83200
H  -0.79500 32.81000 20.53000
H  -5.32200 29.40300 26.60100
H  -4.26400 29.61900 25.25300
H  -5.70700 30.56600 25.33800
H  -3.50000 30.83200 31.17300
H  -6.58800 33.10000 33.17900
H  -5.87700 32.00000 34.27500
H  -7.34000 31.50100 33.21900

