158

Mg 41.95300 41.28200 26.27200
C  41.25500 43.62100 28.73600
C  43.38000 39.27100 28.56700
C  42.80700 39.27300 23.64500
C  41.15900 43.85400 23.93500
N  42.30800 41.49200 28.38200
C  41.68200 42.43200 29.21600
C  41.81000 42.04200 30.69200
C  42.75400 40.79300 30.61400
C  42.88100 40.49100 29.09900
C  44.13600 41.06300 31.30400
C  40.43700 41.76400 31.40200
C  40.17900 42.59500 32.68300
H  39.85700 41.88200 33.96800
N  42.85700 39.46600 26.11500
C  43.39100 38.79300 27.20700
C  44.00800 37.54400 26.68700
C  43.82400 37.50400 25.28300
C  43.13700 38.80400 24.89500
C  44.84300 36.68100 27.60500
C  44.21200 36.47800 24.34200
O  44.08100 36.65900 23.12100
C  44.77800 35.14300 24.84500
N  41.84600 41.53400 24.15000
C  42.21800 40.50100 23.25100
C  42.01800 40.89600 21.74500
C  41.41600 42.39700 21.89300
C  41.42200 42.60500 23.41000
C  43.25800 40.76200 20.78600
C  40.03100 42.63400 21.28900
C  39.97700 43.45300 20.05700
N  41.33700 43.33200 26.29200
C  41.01000 44.22200 25.29500
C  40.54400 45.46100 25.81100
C  40.62600 45.31400 27.20600
C  41.13100 44.01700 27.45400
C  40.03300 46.64700 24.98800
C  40.32800 45.90300 28.41700
O  39.76200 47.00700 28.64700
C  40.69800 44.84000 29.50800
C  41.70800 45.47100 30.38400
O  42.91300 45.48600 30.18100
O  41.12400 46.10600 31.46400
C  42.06700 46.48700 32.45200
H  43.78200 38.66300 29.38100
H  42.98900 38.60300 22.80200
H  40.92300 44.56400 23.13900
H  42.30600 42.87800 31.18400
H  42.24900 39.98000 31.13500
H  44.84400 41.57300 30.65000
H  44.41800 40.04600 31.58000
H  44.07400 41.65100 32.21900
H  40.38100 40.69100 31.58500
H  39.58200 41.96700 30.75700
H  39.35500 43.29100 32.52700
H  41.01400 43.26900 32.87400
H  45.82200 36.52700 27.15000
H  44.44000 35.67900 27.75300
H  45.00400 37.10400 28.59700
H  44.73200 34.34100 24.10800
H  44.13500 34.90500 25.69200
H  45.81300 35.26300 25.16600
H  41.24300 40.26600 21.30900
H  42.08400 43.19800 21.57700
H  43.47800 41.73500 20.34700
H  43.26300 39.97200 20.03500
H  44.16700 40.69000 21.38200
H  39.33300 42.93600 22.07000
H  39.57400 41.68500 21.00800
H  39.40800 42.84300 19.35700
H  41.01800 43.60900 19.77400
H  39.50600 44.40700 20.29600
H  40.11100 46.53400 23.90700
H  40.59700 47.53100 25.28500
H  38.98500 46.81000 25.23700
H  39.83300 44.64300 30.14200
H  42.61800 47.37600 32.14600
H  42.79100 45.74800 32.79300
H  41.52900 46.94700 33.28100
Mg -5.85000 25.06800 26.68300
C  -4.50600 26.82000 29.38300
C  -7.45000 23.04000 28.89100
C  -6.82600 23.18500 24.06700
C  -3.49000 26.65500 24.61300
N  -5.91900 24.89600 28.90000
C  -5.30800 25.76100 29.78500
C  -5.93900 25.48300 31.16000
C  -6.59800 24.03100 31.03400
C  -6.61700 23.94200 29.48000
C  -5.81500 22.88900 31.60100
C  -6.95700 26.62900 31.47200
C  -7.31500 26.79600 32.94900
H  -6.67400 25.80000 33.88800
N  -7.15700 23.49300 26.50600
C  -7.78900 22.82800 27.51900
C  -8.76900 21.88700 26.96300
C  -8.55800 21.84800 25.59700
C  -7.51800 22.87900 25.31100
C  -9.76900 21.12300 27.75200
C  -9.33900 21.12400 24.44200
O  -8.90000 21.18000 23.27800
C  -10.51500 20.15400 24.75100
N  -5.20800 24.97900 24.68300
C  -5.84300 24.15500 23.78100
C  -5.21200 24.30000 22.36500
C  -4.12400 25.39600 22.53800
C  -4.28800 25.70400 24.02600
C  -4.65700 22.96600 21.74100
C  -4.34500 26.62100 21.48900
C  -5.53600 27.55100 21.70900
N  -4.28100 26.38300 26.93500
C  -3.47600 27.08600 25.97600
C  -2.68100 28.07800 26.56800
C  -3.16900 28.13000 27.92900
C  -4.06800 27.08900 28.08600
C  -1.68000 29.01500 25.87400
C  -2.98400 28.75400 29.19600
O  -2.21500 29.64900 29.50600
C  -3.97200 27.98000 30.17300
C  -3.18200 27.58000 31.37400
O  -2.05500 27.11000 31.39500
O  -3.85900 27.93400 32.53900
C  -3.15300 27.89800 33.78800
H  -7.88000 22.35900 29.62800
H  -7.07300 22.65200 23.14600
H  -2.75400 27.11200 23.94800
H  -5.21800 25.54600 31.97500
H  -7.53500 24.13600 31.58000
H  -6.32400 22.47900 32.47300
H  -4.84100 23.28300 31.89200
H  -5.55200 22.10100 30.89600
H  -7.79400 26.36600 30.82500
H  -6.57000 27.59600 31.15300
H  -8.38900 26.70000 33.10900
H  -7.02800 27.79300 33.28500
H  -9.73100 20.09300 27.39900
H  -10.78700 21.51200 27.74100
H  -9.53000 21.12800 28.81500
H  -9.91700 19.37800 25.22900
H  -11.05800 19.80800 23.87200
H  -11.18000 20.60900 25.48500
H  -6.04700 24.71300 21.79900
H  -3.12700 25.04600 22.27100
H  -4.36900 22.12000 22.36500
H  -3.75100 23.24000 21.19900
H  -5.29500 22.54700 20.96400
H  -4.35900 26.17900 20.49200
H  -3.53500 27.35000 21.52400
H  -6.40600 27.30900 21.10000
H  -5.19700 28.56300 21.48900
H  -5.87700 27.44600 22.73900
H  -1.83500 28.80500 24.81500
H  -0.69500 28.64900 26.16400
H  -1.71800 30.08400 26.08100
H  -4.76100 28.67000 30.47200
H  -3.78500 28.31500 34.57200
H  -2.26200 28.52400 33.75700
H  -2.92400 26.89500 34.14800

