158

Mg 2.79300 -1.31300 43.87800
C  6.08300 -0.40900 43.31600
C  1.83100 1.42100 42.13800
C  -0.22000 -2.72100 43.74800
C  3.92200 -4.37300 45.45800
N  3.86500 0.39200 42.98900
C  5.22400 0.59200 42.88600
C  5.60100 1.90100 42.19300
C  4.16400 2.50700 41.83100
C  3.15900 1.48400 42.50300
C  3.84100 3.99100 42.10900
C  6.41800 1.59000 40.85400
C  7.32900 2.68200 40.34900
H  7.27500 3.02700 38.86300
N  0.99700 -0.65400 43.03800
C  0.79600 0.48200 42.31800
C  -0.64000 0.53100 41.99100
C  -1.26300 -0.58800 42.60500
C  -0.16400 -1.41400 43.12000
C  -1.20800 1.72200 41.14600
C  -2.74100 -0.87400 42.46700
O  -3.46600 -0.02800 41.95600
C  -3.45200 -2.03900 42.94600
N  2.00900 -3.40000 44.44900
C  0.69500 -3.58800 44.37700
C  0.24300 -4.98400 45.03500
C  1.59900 -5.42800 45.60400
C  2.53900 -4.32400 45.26200
C  -0.92000 -4.83000 46.07000
C  2.23600 -6.88000 45.18100
C  2.83800 -7.71100 46.29100
N  4.63500 -2.32500 44.31600
C  4.97400 -3.53600 45.01100
C  6.42400 -3.65300 45.00800
C  6.89600 -2.45800 44.38400
C  5.76200 -1.68200 43.99600
C  7.22200 -4.72500 45.60700
C  8.15600 -1.72900 43.98200
O  9.34900 -1.93700 44.20500
C  7.64500 -0.38600 43.28500
C  8.28500 0.78500 43.97300
O  8.19300 0.96300 45.16600
O  8.99600 1.66600 43.11500
C  9.54300 2.77900 43.87700
H  1.48500 2.17400 41.42600
H  -1.19900 -3.20400 43.74200
H  4.25200 -5.18200 46.11300
H  6.16800 2.50100 42.90500
H  3.91500 2.34900 40.78200
H  3.07400 4.00100 42.88300
H  3.45900 4.36700 41.15900
H  4.72800 4.54800 42.41100
H  5.64400 1.62700 40.08700
H  6.83200 0.58700 40.95200
H  8.35700 2.59500 40.70000
H  6.80900 3.48400 40.87200
H  -1.20000 1.49100 40.08100
H  -0.54500 2.55300 41.38700
H  -2.23800 2.02200 41.33500
H  -4.52300 -1.84900 43.01700
H  -3.06600 -2.15200 43.95900
H  -3.12000 -2.83800 42.28300
H  -0.10600 -5.66900 44.26200
H  1.56700 -5.38700 46.69300
H  -1.78500 -5.34000 45.64500
H  -1.34600 -3.83100 46.16700
H  -0.71900 -5.19700 47.07600
H  2.98900 -6.70500 44.41300
H  1.49800 -7.43700 44.60300
H  2.32600 -8.66500 46.41700
H  2.75000 -7.20800 47.25400
H  3.90800 -7.90300 46.21400
H  7.42400 -5.56600 44.94300
H  6.69700 -5.07200 46.49700
H  8.21200 -4.43300 45.95900
H  7.98200 -0.27400 42.25400
H  10.35400 3.22500 43.30000
H  9.92400 2.47500 44.85300
H  8.74800 3.47100 44.15300
Mg -5.59100 24.80200 25.29100
C  -3.61900 26.12900 27.85800
C  -6.55400 22.22500 27.40900
C  -6.77200 23.18000 22.57700
C  -3.90000 27.01100 22.99900
N  -4.98000 24.22900 27.41000
C  -4.38500 25.01800 28.32300
C  -4.64300 24.60100 29.72300
C  -5.41000 23.23800 29.50100
C  -5.73700 23.24300 28.00000
C  -4.59900 22.03300 29.98600
C  -5.41700 25.70300 30.51700
C  -5.22100 25.82700 32.02100
H  -4.57400 24.73300 32.89600
N  -6.67800 23.07600 24.99500
C  -6.94200 22.10800 26.06500
C  -7.99700 21.25500 25.46600
C  -8.14800 21.56100 24.06500
C  -7.10500 22.57600 23.84700
C  -8.76900 20.27100 26.24900
C  -9.08700 20.85300 22.98200
O  -8.82500 20.98600 21.78200
C  -10.30100 19.97200 23.35800
N  -5.33800 25.04400 23.10400
C  -5.93900 24.23700 22.18800
C  -5.74600 24.63800 20.65800
C  -4.79300 25.87900 20.83100
C  -4.70200 25.99200 22.42400
C  -5.25600 23.47100 19.72300
C  -5.16100 27.08800 19.97600
C  -6.03500 28.17800 20.51000
N  -4.11300 26.31100 25.42000
C  -3.54000 27.09100 24.45400
C  -2.61700 28.00800 25.06000
C  -2.66700 27.67200 26.44600
C  -3.49100 26.61400 26.55100
C  -1.82300 29.02800 24.40500
C  -2.14400 28.03000 27.63900
O  -1.31400 28.89100 27.92700
C  -2.81600 27.05600 28.66700
C  -1.76700 26.24500 29.28800
O  -0.98000 25.55300 28.69100
O  -1.82100 26.19700 30.66800
C  -0.61100 25.63800 31.35800
H  -7.01900 21.55200 28.13100
H  -7.26300 22.63200 21.77000
H  -3.35000 27.68300 22.33600
H  -3.62100 24.54000 30.09700
H  -6.35100 23.32000 30.04400
H  -4.12600 21.70700 29.06000
H  -5.15600 21.22000 30.45100
H  -3.87800 22.36400 30.73400
H  -6.50100 25.66800 30.41500
H  -5.08800 26.63800 30.06400
H  -6.20100 26.03500 32.45000
H  -4.68000 26.77000 32.10400
H  -9.84700 20.40700 26.15500
H  -8.51400 20.15600 27.30200
H  -8.59400 19.25400 25.89800
H  -11.05300 20.69100 23.68000
H  -10.10500 19.08600 23.96200
H  -10.79000 19.58800 22.46300
H  -6.71800 24.99400 20.31700
H  -3.80400 25.56500 20.49800
H  -6.07100 22.95000 19.22000
H  -4.94300 22.63300 20.34700
H  -4.58200 23.73100 18.90800
H  -5.59500 26.59200 19.10800
H  -4.20000 27.57900 19.82100
H  -5.59300 29.14200 20.25800
H  -6.27200 28.18100 21.57400
H  -6.94300 28.25000 19.91200
H  -2.36700 29.85500 23.95000
H  -1.16100 28.51100 23.71000
H  -1.15200 29.38200 25.18800
H  -3.27500 27.52400 29.53800
H  -0.88500 24.66800 31.77400
H  -0.45100 26.44400 32.07400
H  0.32800 25.56200 30.80900

