158

Mg 16.08000 50.86000 25.98500
C  17.97900 49.71600 28.71800
C  13.76700 52.14300 28.17400
C  14.63600 52.24500 23.34300
C  18.82000 49.88100 23.81700
N  16.00700 51.02000 28.23300
C  16.88500 50.53600 29.13400
C  16.42900 50.76700 30.54700
C  15.01300 51.32700 30.37400
C  14.92800 51.58500 28.83800
C  13.79600 50.48400 30.97500
C  17.50000 51.72000 31.20300
C  17.98700 51.24500 32.62300
H  17.41900 52.11700 33.75100
N  14.33900 51.86500 25.79800
C  13.56600 52.35200 26.78700
C  12.46300 53.12700 26.24600
C  12.67800 53.20000 24.85300
C  13.92900 52.44000 24.56800
C  11.36000 53.63500 27.06500
C  11.79700 53.85000 23.81800
O  12.15500 53.89400 22.64700
C  10.45800 54.36700 24.19100
N  16.64800 50.88700 23.81400
C  15.80700 51.53800 22.97900
C  16.42300 51.50400 21.62300
C  17.80900 50.84200 21.68700
C  17.79400 50.54500 23.18200
C  15.52500 50.70100 20.59300
C  19.05300 51.77600 21.30300
C  20.05100 51.05800 20.23700
N  17.97300 49.88500 26.17600
C  18.95200 49.51700 25.18300
C  19.98000 48.76800 25.82600
C  19.57700 48.75100 27.27300
C  18.41300 49.53700 27.38200
C  21.22800 48.09400 25.31500
C  20.04700 48.37800 28.62000
O  21.03700 47.72200 28.89800
C  19.04400 49.12100 29.59900
C  18.52700 48.21700 30.62200
O  17.63900 47.36700 30.52300
O  19.25600 48.34500 31.77800
C  18.90400 47.48000 32.88900
H  13.08200 52.53300 28.92900
H  14.27000 52.73300 22.43800
H  19.66000 49.61400 23.17300
H  16.43400 49.76900 30.98500
H  14.93700 52.33100 30.79100
H  13.26400 51.15800 31.64600
H  14.04300 49.54700 31.47500
H  13.12700 50.09900 30.20500
H  17.05400 52.70300 31.35200
H  18.23100 51.96600 30.43200
H  19.07100 51.36000 32.60200
H  17.79200 50.18300 32.77100
H  10.44600 53.04200 27.08000
H  11.16600 54.70400 26.97200
H  11.64500 53.64100 28.11700
H  9.95600 54.55400 23.24200
H  10.64100 55.16300 24.91300
H  9.96800 53.54200 24.70900
H  16.49700 52.53100 21.26300
H  17.88300 49.96200 21.04700
H  16.14000 50.62900 19.69500
H  14.64400 51.26500 20.29000
H  15.17300 49.70000 20.84100
H  19.57500 52.08700 22.20800
H  18.64600 52.70100 20.89500
H  19.97300 49.97200 20.18900
H  21.00600 51.38100 20.65100
H  19.96100 51.43700 19.22000
H  22.00600 48.83300 25.51000
H  21.18400 47.83000 24.25800
H  21.58200 47.28400 25.95200
H  19.75200 49.81900 30.04600
H  19.17500 46.47600 32.56300
H  17.89400 47.40800 33.29300
H  19.45900 47.76900 33.78200
Mg -10.26800 17.12300 41.05300
C  -6.77500 17.14300 41.13900
C  -10.18400 20.60200 40.24100
C  -13.53800 16.90100 40.36300
C  -10.23700 13.70300 41.74300
N  -8.69800 18.63800 40.63200
C  -7.35200 18.35700 40.73300
C  -6.57800 19.68700 40.52500
C  -7.64100 20.81500 40.62600
C  -8.94700 20.01600 40.49700
C  -7.59800 21.80400 41.89100
C  -5.81700 19.66000 39.16200
C  -4.38400 19.42600 39.14300
H  -3.81000 18.45700 38.04900
N  -11.70000 18.52400 40.41900
C  -11.46500 19.92500 40.18500
C  -12.68200 20.48300 39.75800
C  -13.61100 19.45300 39.66400
C  -13.01800 18.22100 40.16700
C  -12.85200 21.99100 39.38900
C  -15.03700 19.59600 39.15100
O  -15.43800 20.69000 38.74500
C  -16.07000 18.60200 39.12800
N  -11.65800 15.47800 40.86700
C  -12.95700 15.77600 40.82000
C  -13.81000 14.47200 41.17300
C  -12.77200 13.45200 41.62600
C  -11.49600 14.23100 41.43900
C  -14.94000 14.78700 42.26000
C  -12.70500 12.07700 40.82800
C  -13.07300 10.89100 41.72900
N  -8.81300 15.62900 41.46400
C  -8.96100 14.30000 41.78400
C  -7.58000 13.76100 41.98600
C  -6.69800 14.85800 41.84100
C  -7.46600 15.95600 41.46700
C  -7.36400 12.33000 42.37700
C  -5.23900 15.27700 41.87900
O  -4.24200 14.68400 42.15100
C  -5.25300 16.83500 41.45200
C  -4.70000 17.53200 42.68500
O  -3.49600 17.65800 42.98200
O  -5.71000 18.21900 43.34900
C  -5.19000 18.96400 44.49400
H  -10.11700 21.69000 40.19300
H  -14.60200 16.67000 40.28400
H  -10.29900 12.74000 42.25400
H  -5.71500 19.76400 41.18600
H  -7.67300 21.53900 39.81200
H  -7.20300 22.71600 41.44300
H  -6.81800 21.51800 42.59600
H  -8.55900 22.05200 42.34000
H  -6.09900 20.55700 38.61000
H  -6.19200 18.79500 38.61600
H  -4.21600 18.89400 40.07900
H  -3.75200 20.30800 39.24700
H  -11.87200 22.44500 39.24400
H  -13.33200 22.40100 40.27800
H  -13.41400 22.16200 38.47100
H  -15.77300 17.79600 38.45800
H  -17.01300 19.06700 38.83900
H  -16.11400 18.20700 40.14300
H  -14.31300 14.16200 40.25700
H  -12.90000 13.17100 42.67100
H  -14.95700 15.81200 42.62900
H  -14.91000 14.06700 43.07800
H  -15.87100 14.59600 41.72500
H  -11.80300 11.85300 40.25800
H  -13.47700 12.09100 40.05800
H  -14.13300 10.64000 41.76600
H  -12.73000 11.19100 42.71900
H  -12.63700 9.98900 41.29900
H  -7.86100 12.17700 43.33500
H  -6.33400 11.97600 42.34800
H  -7.93400 11.69700 41.69600
H  -4.59600 16.93600 40.58800
H  -4.36300 19.61500 44.21200
H  -4.80800 18.29600 45.26700
H  -5.97700 19.56700 44.94800

