158

Mg 44.21900 2.93600 46.56700
C  43.36900 6.32300 45.74600
C  40.90300 2.13800 45.62900
C  45.00700 -0.25400 46.82700
C  47.45900 3.96900 46.96800
N  42.29100 4.09200 45.86700
C  42.23800 5.49600 45.58900
C  40.89900 5.87200 45.15400
C  40.01900 4.58400 45.37800
C  41.10700 3.51900 45.62100
C  38.90900 4.69900 46.40500
C  40.76500 6.49600 43.76200
C  40.10500 7.86600 43.55500
H  39.19500 7.84700 42.38800
N  43.13300 1.09100 46.16400
C  41.78800 0.99700 45.85000
C  41.42600 -0.41200 45.79500
C  42.63700 -1.12300 46.20800
C  43.67000 -0.10200 46.47000
C  40.05700 -0.90500 45.34500
C  42.76200 -2.62700 46.17600
O  41.85800 -3.30900 45.76100
C  44.05700 -3.36700 46.60000
N  45.97600 1.96300 46.72000
C  46.05600 0.65600 47.07100
C  47.42500 0.22700 47.55700
C  48.15500 1.61600 47.68300
C  47.15700 2.57900 47.04800
C  47.35500 -0.65800 48.82200
C  49.46000 1.68500 46.92700
C  50.56100 2.43600 47.58300
N  45.26500 4.80000 46.50300
C  46.64700 5.05600 46.60700
C  46.88400 6.46600 46.47500
C  45.62000 7.04400 46.14100
C  44.67600 5.97300 46.09000
C  48.23300 7.15500 46.83900
C  44.95900 8.24000 45.83700
O  45.34500 9.40100 45.83600
C  43.43100 7.87500 45.64000
C  42.67500 8.48900 46.70300
O  42.87800 8.36800 47.88100
O  41.64100 9.16800 46.19400
C  40.57700 9.51500 47.11700
H  39.89000 1.86000 45.33000
H  45.33100 -1.29200 46.93400
H  48.51000 4.24300 47.08100
H  40.51000 6.59300 45.87400
H  39.49300 4.32300 44.45900
H  38.94400 5.63300 46.96500
H  38.96000 3.90700 47.15100
H  37.94800 4.61800 45.89600
H  40.53200 5.68400 43.07500
H  41.81200 6.65400 43.50500
H  40.92200 8.55000 43.32700
H  39.49200 8.15400 44.40900
H  39.85900 -1.74400 46.01200
H  40.10300 -1.17700 44.29000
H  39.18300 -0.26100 45.44300
H  44.38400 -3.02100 47.58000
H  44.77100 -3.10700 45.81900
H  44.05700 -4.45100 46.48200
H  47.79200 -0.28900 46.67100
H  48.27800 1.83000 48.74500
H  47.33600 -1.65900 48.39000
H  46.39000 -0.53400 49.31200
H  48.19100 -0.35600 49.45400
H  49.22800 2.19200 45.99000
H  49.86500 0.69200 46.73200
H  51.44500 1.80200 47.64400
H  50.28800 2.84100 48.55700
H  50.90700 3.25100 46.94700
H  48.94500 6.51600 47.36000
H  48.04300 8.05500 47.42400
H  48.57000 7.54500 45.87800
H  43.01400 8.18000 44.68000
H  40.84900 10.39200 47.70600
H  40.24200 8.71600 47.77900
H  39.67100 9.72600 46.54900
Mg 41.91100 41.93900 27.40400
C  40.74700 44.34500 29.86100
C  42.58100 39.74800 29.95300
C  43.12200 39.78600 25.15500
C  41.46400 44.46100 25.05000
N  41.36000 41.90300 29.57700
C  41.01600 42.98200 30.41400
C  41.03000 42.66100 31.88700
C  41.55500 41.16800 31.85900
C  41.83100 40.91600 30.38100
C  42.83700 40.92100 32.76400
C  39.72200 42.99700 32.58200
C  39.37900 42.21900 33.83100
H  39.01600 43.15300 35.01000
N  42.66900 40.02100 27.52700
C  42.89200 39.29700 28.64300
C  43.54800 38.06700 28.27500
C  43.61700 38.07500 26.90800
C  43.10200 39.33100 26.48800
C  43.87100 37.00600 29.34100
C  44.13800 36.94000 26.02300
O  44.16700 36.98900 24.78200
C  44.59700 35.62500 26.59800
N  42.30300 42.13000 25.31800
C  42.59400 40.98800 24.58300
C  42.48000 41.29100 23.08800
C  42.00100 42.80900 23.06800
C  41.85900 43.17900 24.57300
C  43.69600 40.98300 22.17100
C  40.66400 43.05700 22.33800
C  39.51400 42.31600 22.84800
N  41.32900 43.99200 27.38100
C  41.23200 44.85700 26.33700
C  40.87400 46.18500 26.80500
C  40.62300 45.98200 28.17900
C  40.97600 44.64200 28.49800
C  40.70700 47.36600 26.01500
C  40.26200 46.58900 29.42100
O  39.96200 47.75600 29.67700
C  40.26500 45.58100 30.51500
C  41.32300 46.11200 31.52400
O  42.46800 46.31400 31.25900
O  40.78600 46.12400 32.82300
C  41.57900 46.48700 33.90500
H  42.57300 38.91700 30.66100
H  43.45900 39.03400 24.43900
H  41.27900 45.23400 24.30200
H  41.76900 43.37800 32.24500
H  40.65400 40.58300 32.04100
H  43.04200 41.77800 33.40500
H  43.65000 40.63700 32.09700
H  42.57600 40.09400 33.42500
H  39.01100 42.92100 31.75900
H  39.70100 44.04100 32.89500
H  40.22900 41.62000 34.15600
H  38.53500 41.55200 33.65300
H  44.86700 36.62000 29.12400
H  43.19900 36.16200 29.18900
H  43.75100 37.25900 30.39400
H  43.83400 35.03500 27.10500
H  45.48300 35.55500 27.23000
H  44.75000 34.91300 25.78800
H  41.66000 40.73200 22.63500
H  42.72700 43.47200 22.59500
H  43.42500 40.05300 21.67100
H  44.55900 40.80900 22.81300
H  43.95500 41.83800 21.54600
H  40.76200 42.77400 21.29000
H  40.39300 44.11000 22.26800
H  39.57500 42.11200 23.91700
H  39.33000 41.37700 22.32600
H  38.65200 42.96700 22.70100
H  39.71300 47.78500 26.17300
H  40.85000 47.17000 24.95200
H  41.47400 48.10800 26.23600
H  39.22800 45.59600 30.85000
H  40.97900 46.36500 34.80700
H  41.85100 47.53100 33.74800
H  42.42700 45.80100 33.90500

