158

Mg 41.44900 40.51400 26.13600
C  40.79700 43.15200 28.50000
C  42.59600 38.65400 28.73500
C  42.39200 38.24200 23.90200
C  41.05600 42.88400 23.59000
N  41.69000 41.00000 28.41900
C  41.12900 41.95600 29.09500
C  41.15500 41.65800 30.56600
C  42.01800 40.34600 30.67300
C  42.13300 39.93000 29.20500
C  43.39700 40.44800 31.39800
C  39.72400 41.81500 31.33400
C  39.55800 40.99900 32.66200
H  38.74600 41.68000 33.80200
N  42.25600 38.68900 26.35500
C  42.74600 38.09100 27.48300
C  43.20700 36.71600 27.17800
C  43.17200 36.56900 25.75000
C  42.52400 37.88500 25.28000
C  43.54800 35.75000 28.23800
C  43.75800 35.45100 24.96300
O  43.94400 35.59000 23.81700
C  44.26500 34.25400 25.60700
N  41.91400 40.66600 23.98600
C  42.16800 39.49200 23.34100
C  42.20800 39.75000 21.80000
C  41.56500 41.20500 21.68800
C  41.43300 41.58800 23.12900
C  43.63100 39.45200 21.15000
C  40.29800 41.36100 20.81300
C  38.96100 41.16600 21.53500
N  40.96100 42.56600 26.04600
C  40.91200 43.41200 24.90900
C  40.52900 44.71900 25.31100
C  40.51000 44.68700 26.73500
C  40.76600 43.34600 27.06600
C  40.13900 45.80800 24.34400
C  40.30600 45.47400 27.92900
O  39.95300 46.64700 28.00800
C  40.39800 44.53900 29.14000
C  41.25800 45.14500 30.17100
O  42.45200 45.26600 30.24000
O  40.45800 45.52600 31.22800
C  41.06700 46.33800 32.36100
H  42.89400 38.03000 29.58000
H  42.52600 37.38500 23.23900
H  41.05500 43.51500 22.69900
H  41.79700 42.36200 31.09600
H  41.38400 39.64300 31.21300
H  43.29500 40.27400 32.46900
H  43.69500 41.48300 31.23300
H  44.15800 39.90800 30.83400
H  39.01400 41.50600 30.56700
H  39.45900 42.85600 31.51500
H  40.50600 40.67600 33.09300
H  39.12100 40.04200 32.37600
H  43.14400 34.80300 27.88100
H  43.07400 35.98100 29.19200
H  44.63500 35.70400 28.29100
H  45.07800 34.60700 26.24100
H  44.49400 33.51500 24.84000
H  43.49300 33.73800 26.17800
H  41.41900 39.09500 21.43000
H  42.29500 41.93400 21.33700
H  44.13000 40.38200 20.87700
H  43.52300 38.79300 20.28900
H  44.21500 39.05400 21.98000
H  40.34600 40.66000 19.98000
H  40.44100 42.34700 20.37300
H  39.00300 40.79800 22.56000
H  38.36600 40.41500 21.01400
H  38.48300 42.14500 21.51500
H  40.85800 45.66500 23.53800
H  40.28800 46.87400 24.51800
H  39.15400 45.54400 23.95900
H  39.34100 44.52200 29.40600
H  41.34700 45.85000 33.29400
H  40.38100 47.11100 32.70800
H  41.92000 46.93400 32.03400
Mg 9.19900 48.75200 26.08700
C  7.64100 48.94200 29.10700
C  12.21600 49.51700 27.66800
C  10.85400 48.13800 23.15500
C  6.25800 48.09300 24.41400
N  9.83900 49.21500 28.11800
C  9.00600 49.25100 29.23200
C  9.66900 49.68400 30.46600
C  10.99500 50.34900 29.88900
C  11.07700 49.66000 28.48400
C  10.97800 51.89700 29.73500
C  9.93200 48.48700 31.44200
C  9.45400 48.60300 32.86500
H  9.43000 47.23600 33.68600
N  11.23800 48.74300 25.50800
C  12.31700 49.03500 26.31500
C  13.52600 48.86500 25.63900
C  13.19500 48.54300 24.29600
C  11.72300 48.45500 24.26900
C  14.86100 49.03100 26.35200
C  14.14100 48.40700 23.12600
O  13.64600 48.21100 22.05000
C  15.63900 48.44500 23.28200
N  8.62600 48.11400 24.03200
C  9.48200 48.08200 23.02100
C  8.78300 47.68500 21.63300
C  7.27600 47.40900 22.08900
C  7.36800 48.01500 23.56200
C  8.91300 48.75100 20.56100
C  6.72300 45.94800 22.07200
C  5.49400 45.62800 21.19400
N  7.25000 48.71600 26.57300
C  6.12700 48.36100 25.80300
C  4.98500 48.32400 26.72300
C  5.55800 48.45700 27.98200
C  6.92400 48.75000 27.84600
C  3.65200 47.93000 26.26700
C  5.24600 48.36000 29.43400
O  4.17900 48.11900 29.99400
C  6.56100 48.60900 30.20900
C  6.81700 47.36900 30.95400
O  7.34000 46.34200 30.45000
O  6.26200 47.41200 32.25400
C  6.23100 46.16300 33.01700
H  13.06800 49.95400 28.19300
H  11.24200 47.94500 22.15200
H  5.28400 47.81000 24.00900
H  8.97100 50.35400 30.96800
H  11.82000 50.14800 30.57200
H  11.95800 52.23900 30.06800
H  10.21900 52.23200 30.44200
H  10.90400 52.19700 28.69000
H  10.98400 48.37500 31.70600
H  9.72700 47.59700 30.84600
H  8.43200 48.97100 32.77500
H  9.99100 49.33200 33.47100
H  15.51700 49.80600 25.95500
H  15.40000 48.08400 26.36800
H  14.69300 49.32100 27.39000
H  16.14300 47.81400 22.55000
H  16.02500 47.89400 24.14000
H  16.02800 49.46200 23.31700
H  9.24200 46.77700 21.24100
H  6.65000 48.04100 21.45900
H  8.36300 48.47100 19.66300
H  9.95900 48.85600 20.27400
H  8.48300 49.68500 20.92300
H  6.54700 45.53800 23.06600
H  7.53300 45.32800 21.68700
H  4.94600 46.54300 20.96900
H  4.86300 44.92000 21.72900
H  5.89500 45.13300 20.30900
H  3.50800 46.85400 26.37200
H  3.57900 48.15300 25.20300
H  3.00400 48.58400 26.85100
H  6.45300 49.47700 30.86000
H  6.62600 46.42600 33.99900
H  7.01100 45.43400 32.79600
H  5.26100 45.66800 33.05100

