158

Mg 48.92800 34.93300 27.41400
C  46.93800 33.14700 29.92400
C  49.36300 37.35600 29.70300
C  50.25300 36.65900 24.96900
C  48.21200 32.25900 25.18200
N  48.18800 35.18900 29.54800
C  47.56700 34.32800 30.39800
C  47.67100 34.89500 31.80700
C  47.88900 36.41100 31.59700
C  48.50100 36.33400 30.22900
C  46.52000 37.28500 31.63200
C  48.68500 34.10600 32.60700
C  48.74500 33.90900 34.09300
H  47.73200 34.80300 34.83200
N  49.70500 36.68200 27.39200
C  49.96100 37.52800 28.51300
C  50.69700 38.67800 28.07500
C  50.79300 38.60500 26.67100
C  50.24600 37.26600 26.30900
C  51.26100 39.81900 29.01100
C  51.40900 39.49000 25.65500
O  51.29900 39.22400 24.48500
C  52.19700 40.61800 26.07000
N  49.14900 34.52300 25.34400
C  49.78100 35.41300 24.58500
C  50.26000 34.79900 23.27300
C  49.77600 33.30200 23.40900
C  48.97900 33.34000 24.65100
C  49.86700 35.46800 21.95300
C  50.86600 32.19200 23.47000
C  50.49200 30.81100 22.82000
N  47.84000 33.12200 27.48500
C  47.67500 32.19500 26.49400
C  46.84900 31.08700 27.03800
C  46.54100 31.41600 28.37800
C  47.12500 32.64500 28.59100
C  46.34800 29.89500 26.34400
C  45.90000 30.94900 29.50700
O  45.41900 29.83800 29.73700
C  46.05500 32.10500 30.56000
C  46.52900 31.53000 31.81800
O  47.55800 30.93100 31.96700
O  45.62400 31.76800 32.76100
C  45.81700 31.28300 34.10200
H  49.68400 38.06600 30.46800
H  50.83000 37.13100 24.17100
H  48.04000 31.44500 24.47400
H  46.73000 34.66500 32.30700
H  48.48600 36.75800 32.44000
H  46.25800 37.49900 30.59500
H  46.73100 38.18100 32.21500
H  45.68800 36.68100 31.99200
H  49.59200 34.68700 32.44400
H  48.85700 33.14900 32.11500
H  49.78600 34.09300 34.35800
H  48.55500 32.84000 34.19800
H  50.56400 40.05400 29.81500
H  51.23800 40.79900 28.53400
H  52.28700 39.65200 29.33900
H  52.77900 40.27700 26.92600
H  51.47600 41.42800 26.17800
H  52.88300 40.93100 25.28200
H  51.34800 34.75000 23.22200
H  49.14300 33.05100 22.55800
H  50.64300 35.34100 21.19900
H  49.81700 36.55000 22.08000
H  48.88100 35.23300 21.55300
H  50.92500 31.95700 24.53200
H  51.86900 32.51000 23.18500
H  49.84100 31.01900 21.97200
H  50.04000 30.18900 23.59300
H  51.37800 30.37800 22.35600
H  45.69300 30.46500 25.68600
H  45.81900 29.18300 26.97700
H  47.10300 29.39300 25.73800
H  45.09100 32.57900 30.74200
H  45.91500 30.19700 34.12000
H  45.00500 31.59200 34.76100
H  46.74400 31.67200 34.52300
Mg 1.04200 43.38500 26.20200
C  2.60700 43.59400 29.38200
C  -1.84400 42.32200 27.80300
C  -0.18300 42.78900 23.21200
C  4.15600 43.85700 24.73800
N  0.45200 43.12100 28.39600
C  1.23300 43.34600 29.48600
C  0.40900 43.20400 30.72400
C  -0.93200 42.54000 30.24600
C  -0.79800 42.60300 28.68400
C  -1.23900 41.08000 30.70500
C  0.23400 44.61400 31.46300
C  0.58800 44.67100 33.00400
H  -0.26200 43.94100 34.00900
N  -0.77700 42.71700 25.61000
C  -1.81700 42.39600 26.36200
C  -2.90200 42.05700 25.49600
C  -2.47800 42.06700 24.13200
C  -1.08100 42.55000 24.27000
C  -4.27100 41.73700 26.08500
C  -3.20200 41.75800 22.87800
O  -2.71400 41.84600 21.73700
C  -4.54200 41.21300 22.84100
N  1.92400 43.14400 24.23500
C  1.18800 42.96100 23.16500
C  1.89000 43.11500 21.81200
C  3.17500 43.88300 22.36200
C  3.16300 43.59100 23.84500
C  2.13400 41.89600 21.00200
C  3.23100 45.47900 22.02500
C  4.30400 46.00000 21.04800
N  2.93600 43.80200 26.87600
C  4.10900 43.99400 26.15000
C  5.25500 44.10800 27.02000
C  4.68500 43.99300 28.33900
C  3.28400 43.73000 28.19500
C  6.62100 44.54500 26.61900
C  4.96400 43.92500 29.78000
O  5.97500 44.07800 30.46700
C  3.58800 43.76800 30.51800
C  3.64700 42.63000 31.43400
O  3.36900 41.50000 31.11700
O  3.82600 43.13200 32.68800
C  3.68800 42.11600 33.68500
H  -2.78300 42.09300 28.31100
H  -0.60500 42.71700 22.20800
H  5.09100 44.17600 24.27400
H  0.91900 42.50700 31.38900
H  -1.70000 43.25300 30.54600
H  -0.53900 40.92000 31.52500
H  -1.10800 40.29900 29.95600
H  -2.29800 40.99000 30.94800
H  -0.81600 44.87600 31.59200
H  0.75900 45.47700 31.05400
H  0.64900 45.71700 33.30700
H  1.62200 44.33000 33.05800
H  -4.39400 42.35500 26.97400
H  -4.39100 40.71200 26.43400
H  -4.96900 42.01600 25.29600
H  -5.27300 42.01400 22.73500
H  -4.74700 40.57100 23.69800
H  -4.51400 40.57500 21.95800
H  1.33400 43.86100 21.24300
H  4.13300 43.50700 22.00300
H  3.06900 41.44300 21.33200
H  2.34300 42.24300 19.99100
H  1.32500 41.16800 21.05800
H  3.27500 45.98700 22.98900
H  2.27600 45.65400 21.53000
H  4.83200 46.84300 21.49400
H  3.74200 46.32000 20.17000
H  5.00100 45.19000 20.83700
H  7.39900 44.04100 27.19200
H  6.61800 45.49600 27.15000
H  6.73400 44.60300 25.53600
H  3.49200 44.70600 31.06600
H  4.22900 42.66800 34.45300
H  4.20600 41.18300 33.46100
H  2.69700 41.86800 34.06600

