158

Mg 43.67300 42.44800 26.68200
C  42.58900 44.70400 29.09700
C  45.08600 40.41200 29.06000
C  44.91000 40.41000 24.21400
C  42.74900 44.70200 24.20000
N  43.71300 42.51000 28.78600
C  43.19800 43.55100 29.61600
C  43.34000 43.17800 31.10700
C  44.48100 42.05700 31.00600
C  44.48300 41.63400 29.52300
C  45.94600 42.56900 31.39100
C  42.01100 42.87500 31.78800
C  41.70100 43.67300 33.06300
H  42.49400 43.40700 34.30200
N  44.75300 40.53800 26.64400
C  45.28300 39.94800 27.75200
C  45.83300 38.63400 27.36100
C  45.69400 38.52400 25.89700
C  45.12800 39.85300 25.51500
C  46.27100 37.58400 28.34100
C  45.96800 37.34900 24.94900
O  45.80600 37.44000 23.70500
C  46.49800 36.00600 25.51100
N  44.01600 42.66700 24.56800
C  44.50900 41.65100 23.76100
C  44.32800 42.02900 22.23300
C  43.72000 43.40800 22.31400
C  43.41300 43.60000 23.80000
C  45.63400 41.86300 21.42400
C  42.60900 43.78500 21.25600
C  41.23400 43.11700 21.40300
N  42.75200 44.30800 26.57400
C  42.50500 45.17200 25.52100
C  41.96700 46.38400 25.96100
C  41.96800 46.29400 27.42400
C  42.45500 44.98800 27.73500
C  41.75000 47.61400 25.19200
C  41.66700 46.91100 28.71400
O  41.19000 48.03500 28.96400
C  42.14000 45.95400 29.84200
C  43.13600 46.60900 30.67600
O  44.33700 46.63400 30.33500
O  42.60700 47.16900 31.84100
C  43.49200 47.94000 32.69700
H  45.49600 39.75300 29.82800
H  45.32800 39.71200 23.48500
H  42.44200 45.36500 23.38900
H  43.73400 44.01800 31.67900
H  44.30200 41.23800 31.70300
H  46.05000 43.63000 31.61700
H  46.57100 42.41800 30.51100
H  46.49200 41.98200 32.12900
H  42.02800 41.82700 32.08700
H  41.21200 43.02800 31.06300
H  40.64700 43.58700 33.32700
H  41.86900 44.69700 32.72800
H  45.50400 36.82300 28.48600
H  46.65500 38.09300 29.22500
H  47.12800 37.11100 27.86200
H  45.93300 35.56000 26.33000
H  47.49000 36.20300 25.91800
H  46.60600 35.30900 24.68000
H  43.52200 41.48100 21.74600
H  44.52600 44.11400 22.11400
H  45.33100 41.74500 20.38300
H  46.23300 41.11000 21.93400
H  46.15500 42.82100 21.41600
H  43.07900 43.50800 20.31200
H  42.46900 44.86500 21.22100
H  40.93300 42.71200 20.43700
H  40.48300 43.83900 21.72300
H  41.27400 42.35800 22.18500
H  42.66800 48.15500 24.96200
H  41.08800 48.33300 25.67500
H  41.28100 47.16600 24.31600
H  41.20000 45.90500 30.39100
H  44.49000 48.00200 32.26300
H  43.44900 47.51200 33.69900
H  43.07200 48.93100 32.87000
Mg -6.23800 24.64500 26.04700
C  -4.40900 25.92200 28.81000
C  -8.11900 22.63000 28.15800
C  -7.49400 22.92100 23.41300
C  -4.13000 26.48500 24.03800
N  -6.22600 24.30700 28.20300
C  -5.33300 24.91500 29.10100
C  -5.76600 24.39900 30.60700
C  -6.65600 23.19300 30.30800
C  -7.10800 23.39400 28.80500
C  -5.91700 21.86800 30.57400
C  -6.55600 25.54900 31.37300
C  -5.80400 26.01600 32.64700
H  -5.53100 25.00500 33.84600
N  -7.73000 23.11400 25.77900
C  -8.39100 22.51500 26.74700
C  -9.43400 21.64900 26.13300
C  -9.22200 21.67900 24.76900
C  -8.08600 22.58100 24.59100
C  -10.49000 20.83700 26.94200
C  -9.89600 20.99100 23.61600
O  -9.57700 21.16100 22.46300
C  -10.91400 20.01000 23.93400
N  -5.60900 24.45000 24.10000
C  -6.34500 23.71200 23.17000
C  -5.80000 23.94900 21.74400
C  -4.72600 25.14900 21.92800
C  -4.80800 25.39200 23.44900
C  -5.28300 22.64300 21.05100
C  -5.05700 26.36500 20.94100
C  -3.90800 26.89500 20.03100
N  -4.70200 26.13600 26.31600
C  -3.98900 26.76900 25.35900
C  -3.11100 27.72100 25.95800
C  -3.18400 27.44700 27.36500
C  -4.20100 26.47400 27.49700
C  -2.18600 28.65800 25.25900
C  -2.58900 27.72700 28.70200
O  -1.64700 28.41200 29.10600
C  -3.42700 26.72000 29.61200
C  -2.47100 25.81500 30.29300
O  -2.12900 24.74400 29.99400
O  -2.06900 26.37100 31.47500
C  -1.28700 25.45900 32.38000
H  -8.65200 22.00700 28.87900
H  -7.77300 22.45400 22.46600
H  -3.50600 26.95500 23.27500
H  -4.87000 24.15800 31.17900
H  -7.55300 23.16900 30.92700
H  -4.92700 21.95400 31.02100
H  -5.83000 21.31300 29.64000
H  -6.45200 21.20800 31.25800
H  -7.62900 25.38700 31.48000
H  -6.50500 26.40100 30.69500
H  -6.31600 26.86900 33.09100
H  -4.82600 26.31100 32.26700
H  -10.28600 20.70200 28.00500
H  -10.60700 19.79200 26.65400
H  -11.51100 21.11800 26.68500
H  -11.33600 19.49700 23.06900
H  -11.68400 20.55900 24.47700
H  -10.32300 19.27900 24.48400
H  -6.69200 24.23000 21.18500
H  -3.79100 24.62300 21.73700
H  -5.56700 21.76500 21.63200
H  -4.20100 22.74600 21.13700
H  -5.49200 22.66600 19.98200
H  -5.31700 27.21800 21.56700
H  -5.90400 26.15800 20.28700
H  -3.83800 27.96300 20.23600
H  -4.21800 26.72400 19.00000
H  -2.95500 26.37100 20.10000
H  -2.71000 29.59500 25.07500
H  -1.93400 28.24900 24.28000
H  -1.35900 28.79100 25.95700
H  -3.89900 27.37300 30.34600
H  -0.35900 25.19500 31.87300
H  -1.86000 24.57700 32.66600
H  -1.04800 26.06100 33.25700

