158

Mg 7.90700 2.27100 27.54400
C  9.31800 0.89300 30.75600
C  5.91000 4.14600 29.64900
C  6.31400 3.17500 24.81900
C  9.68000 -0.27300 25.98400
N  7.67200 2.33700 29.99200
C  8.38400 1.84800 31.04800
C  8.04100 2.55400 32.38100
C  6.79200 3.38000 31.96600
C  6.82100 3.34200 30.41100
C  5.40500 3.00400 32.75100
C  9.16100 3.38800 32.95200
C  8.84000 4.30900 34.09700
H  9.48000 3.98900 35.45000
N  6.37300 3.49800 27.27600
C  5.69800 4.23900 28.26900
C  4.79200 5.19700 27.62000
C  5.02900 4.94700 26.19900
C  5.92400 3.88000 26.07800
C  3.76100 6.00800 28.38100
C  4.30700 5.64000 25.04100
O  4.48900 5.28000 23.90300
C  3.26200 6.68100 25.32800
N  8.01400 1.54000 25.67300
C  7.23900 2.07300 24.74200
C  7.44800 1.44900 23.37300
C  8.71600 0.45400 23.64600
C  8.78300 0.53800 25.15600
C  6.21500 0.57200 22.97300
C  10.07200 0.83200 22.89200
C  10.43500 -0.03000 21.63900
N  9.31300 0.76600 28.12700
C  9.98800 -0.16700 27.37300
C  10.89800 -0.94300 28.13200
C  10.63400 -0.55100 29.49900
C  9.72100 0.52200 29.43400
C  11.83200 -2.09200 27.64500
C  11.11700 -0.78300 30.91600
O  12.00300 -1.53700 31.27500
C  10.19500 0.18600 31.82900
C  9.32000 -0.54300 32.76500
O  8.27700 -1.10100 32.54300
O  9.81600 -0.43400 34.07300
C  9.29100 -1.27400 35.17000
H  5.37200 4.76800 30.36800
H  5.87200 3.49700 23.87400
H  10.25900 -1.02400 25.44200
H  7.68600 1.84500 33.12800
H  6.97400 4.44500 32.11100
H  5.35700 3.68400 33.60200
H  5.42600 1.97000 33.09400
H  4.47900 3.05700 32.17800
H  9.56400 3.95100 32.11000
H  10.04600 2.86100 33.30900
H  7.75100 4.26300 34.07400
H  9.09800 5.33200 33.82500
H  2.75500 5.61900 28.22500
H  3.83300 7.07600 28.17800
H  4.00000 5.86100 29.43400
H  2.40500 6.25100 25.84600
H  2.99600 6.89600 24.29300
H  3.65500 7.51600 25.90900
H  7.77500 2.09000 22.55400
H  8.47800 -0.58800 23.43100
H  6.30400 -0.51400 23.02100
H  5.86200 0.74400 21.95700
H  5.42800 0.83800 23.67900
H  10.92200 0.93100 23.56800
H  9.91800 1.81600 22.44800
H  9.64800 -0.72900 21.35700
H  11.30700 -0.66300 21.80300
H  10.67600 0.63900 20.81300
H  12.03100 -1.84000 26.60400
H  11.37700 -3.08300 27.66600
H  12.76700 -2.02000 28.20000
H  10.91000 0.81400 32.35900
H  9.05100 -2.31000 34.93000
H  8.42700 -0.72100 35.53800
H  10.06900 -1.23700 35.93200
Mg 27.13200 51.46100 25.80500
C  25.10600 52.29100 28.49900
C  29.58500 50.56500 27.90100
C  28.91600 50.62700 23.02800
C  24.70800 52.99000 23.70000
N  27.36900 51.50800 27.95600
C  26.30700 51.69300 28.88900
C  26.80900 51.36100 30.34100
C  28.38800 51.21300 30.09400
C  28.47300 51.12300 28.59200
C  29.31100 52.19700 30.77900
C  26.03800 50.20300 30.97800
C  25.21600 50.38200 32.26600
H  25.99700 50.84700 33.48800
N  28.96600 50.64600 25.51300
C  29.84100 50.35600 26.54100
C  31.06600 49.79200 25.95200
C  30.89900 49.79700 24.50100
C  29.51100 50.34600 24.33700
C  32.28000 49.38900 26.72400
C  31.88700 49.38900 23.51500
O  31.66300 49.42600 22.30600
C  33.22100 48.99100 23.80600
N  26.86700 51.69000 23.73100
C  27.71400 51.36600 22.74500
C  27.21200 51.57300 21.32200
C  25.81900 52.19700 21.52200
C  25.76700 52.33000 23.06100
C  28.14400 52.42600 20.40400
C  24.56800 51.39900 21.00400
C  23.46500 52.35600 20.40200
N  25.33400 52.45500 26.03400
C  24.47200 52.97800 25.10400
C  23.34800 53.61000 25.76100
C  23.55200 53.36400 27.11100
C  24.76900 52.62600 27.19600
C  22.23900 54.40100 25.10100
C  23.13000 53.70200 28.45000
O  22.12500 54.34000 28.78800
C  23.99600 52.81900 29.41200
C  24.51000 53.84300 30.40000
O  25.49100 54.52900 30.27600
O  23.61900 53.83000 31.49000
C  24.02200 54.62000 32.60800
H  30.38300 50.32100 28.60600
H  29.49300 50.37400 22.13600
H  23.92400 53.31800 23.01400
H  26.57700 52.31200 30.82100
H  28.68900 50.22000 30.42700
H  29.83600 52.80500 30.04300
H  30.07400 51.64100 31.32400
H  28.81800 52.91300 31.43700
H  26.69000 49.36600 31.23200
H  25.34500 49.86500 30.20800
H  24.52200 49.58800 32.54200
H  24.57100 51.23500 32.05500
H  32.29500 48.30800 26.86100
H  32.23400 49.69000 27.77100
H  33.14000 49.86900 26.25700
H  33.41200 48.05500 24.33100
H  33.59400 49.88600 24.30200
H  33.76100 48.87100 22.86700
H  27.05900 50.58300 20.89100
H  25.76700 53.23700 21.20300
H  28.79700 52.97000 21.08600
H  27.55100 53.09700 19.78300
H  28.62300 51.58000 19.91100
H  23.99600 50.93000 21.80400
H  24.86800 50.66100 20.26000
H  22.52700 52.26400 20.94900
H  23.24500 51.92700 19.42500
H  23.79200 53.39500 20.34900
H  21.23400 54.13400 25.42800
H  22.34600 54.40700 24.01600
H  22.26700 55.42100 25.48500
H  23.55000 51.96100 29.91500
H  24.79400 54.13600 33.20700
H  23.13000 54.70500 33.22800
H  24.35900 55.62000 32.33400

