158

Mg 25.22100 50.40700 26.21400
C  23.40900 51.52400 29.02500
C  27.40900 48.87700 28.49500
C  27.38700 50.03000 23.69600
C  22.92800 51.90300 24.18200
N  25.36700 50.33700 28.48600
C  24.50500 50.80400 29.39200
C  24.93200 50.45700 30.80200
C  26.30700 49.73200 30.58000
C  26.32000 49.50900 29.10800
C  27.58500 50.58900 31.01000
C  23.89200 49.52800 31.54400
C  23.33000 50.06200 32.86300
H  24.23000 50.87000 33.79800
N  27.13900 49.63000 26.11400
C  27.83400 48.97900 27.11500
C  28.95300 48.34100 26.54800
C  29.04800 48.72100 25.18600
C  27.83800 49.54200 24.95000
C  29.94500 47.54300 27.41800
C  30.06500 48.26800 24.23100
O  30.00400 48.56000 23.02800
C  31.34400 47.60900 24.73300
N  25.20000 50.89200 24.30300
C  26.20300 50.65000 23.39900
C  25.83700 50.89800 21.85400
C  24.32400 51.29100 22.06800
C  24.04700 51.27200 23.55700
C  26.69500 52.06400 21.19200
C  23.24600 50.35600 21.44300
C  23.18100 50.47800 19.95100
N  23.46700 51.33900 26.48000
C  22.67500 51.98500 25.59500
C  21.47000 52.46500 26.19300
C  21.76500 52.32200 27.59300
C  23.02100 51.69600 27.67200
C  20.32300 53.10900 25.51500
C  21.33900 52.67100 28.93500
O  20.42000 53.36600 29.33400
C  22.36200 52.12200 29.83800
C  22.89500 53.30200 30.67800
O  23.70500 54.16600 30.36600
O  22.23500 53.27800 31.88500
C  22.32600 54.53600 32.71600
H  28.00300 48.31100 29.21600
H  28.02500 49.75300 22.85400
H  22.20000 52.40500 23.54100
H  24.98400 51.44400 31.26200
H  26.37100 48.83200 31.19100
H  27.93500 51.28200 30.24400
H  28.33700 49.95400 31.47900
H  27.23000 51.18400 31.85100
H  24.26500 48.53000 31.77200
H  23.08300 49.47700 30.81500
H  22.95300 49.23600 33.46600
H  22.38100 50.59800 32.88100
H  30.92700 48.01200 27.47000
H  29.98900 46.54200 26.98800
H  29.67500 47.43600 28.46900
H  31.89700 48.30300 25.36500
H  31.91600 47.31500 23.85300
H  31.21600 46.63400 25.20400
H  25.91000 50.08300 21.13300
H  24.05800 52.22900 21.58100
H  27.03400 52.79700 21.92500
H  26.04200 52.46500 20.41600
H  27.61400 51.69500 20.73800
H  22.30200 50.59900 21.93000
H  23.56700 49.36600 21.76500
H  23.37800 49.50600 19.49900
H  23.65600 51.30600 19.42500
H  22.10300 50.54900 19.80100
H  20.14300 52.48000 24.64300
H  20.49300 54.18000 25.41000
H  19.38600 53.05900 26.07000
H  21.81300 51.51000 30.55300
H  23.29500 54.54400 33.21500
H  21.43700 54.54000 33.34600
H  22.17700 55.36100 32.01900
Mg 15.46600 51.72500 25.08400
C  17.47200 50.79800 27.88500
C  12.85700 52.18700 27.27800
C  13.52500 52.42200 22.41000
C  17.85400 50.43000 23.00700
N  15.25400 51.61000 27.30300
C  16.24200 51.30400 28.27700
C  15.70200 51.68900 29.66300
C  14.14100 51.83200 29.40100
C  14.07100 51.87700 27.90400
C  13.26700 50.74100 29.96900
C  16.46000 52.89700 30.17100
C  16.47100 53.24900 31.69500
H  15.67600 52.34000 32.66100
N  13.49000 52.34500 24.86600
C  12.56100 52.35500 25.84600
C  11.26800 52.68100 25.38200
C  11.40700 52.64900 23.97200
C  12.85000 52.48600 23.69300
C  10.07600 52.87400 26.24700
C  10.36900 52.70200 22.85400
O  10.56400 52.78700 21.64900
C  8.88900 52.66500 23.28200
N  15.68900 51.56600 23.00100
C  14.79500 52.05100 22.11600
C  15.44300 52.19400 20.72100
C  16.80100 51.36500 20.89400
C  16.77200 51.02400 22.35700
C  14.70600 51.66400 19.45700
C  18.13000 51.96800 20.37100
C  18.77000 51.37000 19.18000
N  17.33300 50.86600 25.38200
C  18.16700 50.36500 24.43600
C  19.33500 49.78300 25.08200
C  19.11200 49.89700 26.44800
C  17.87900 50.56500 26.58000
C  20.46200 49.07000 24.34200
C  19.58400 49.56500 27.72000
O  20.61000 49.01800 28.06600
C  18.57100 50.19600 28.73400
C  18.10500 49.09900 29.48900
O  17.27700 48.28400 29.19600
O  18.74900 49.16800 30.71700
C  18.46800 48.23500 31.79900
H  12.06000 52.26600 28.02000
H  13.01700 52.72500 21.49200
H  18.63000 50.07000 22.32900
H  15.90100 50.92500 30.41500
H  13.83100 52.81300 29.76000
H  12.72900 51.21100 30.79200
H  13.93300 49.91800 30.22900
H  12.62900 50.42800 29.14300
H  16.07700 53.77800 29.65600
H  17.48300 52.68900 29.85600
H  16.20300 54.30300 31.77400
H  17.51800 53.06700 31.93700
H  10.43700 53.28100 27.19200
H  9.50000 51.95800 26.38200
H  9.41700 53.66900 25.89900
H  8.91900 51.75200 23.87600
H  8.35900 52.31700 22.39500
H  8.67000 53.56000 23.86300
H  15.66100 53.24300 20.52200
H  16.69900 50.36100 20.48100
H  15.31600 50.97900 18.86900
H  14.48000 52.50500 18.80100
H  13.82000 51.11100 19.76800
H  18.83100 52.20700 21.17100
H  17.89800 52.95900 19.98100
H  18.83200 52.06200 18.34100
H  18.19000 50.54100 18.77600
H  19.76700 50.96000 19.34700
H  20.97500 49.79800 23.71400
H  20.03200 48.29200 23.71200
H  21.08100 48.62000 25.11900
H  19.16300 50.89700 29.32300
H  19.04900 48.39900 32.70700
H  18.64800 47.22200 31.44000
H  17.43800 48.26200 32.15500

