158

Mg 16.40400 -1.16900 26.92100
C  15.26600 0.89900 29.56400
C  18.48300 -2.74400 29.18300
C  17.79600 -2.60900 24.27300
C  14.72300 1.09000 24.68100
N  16.96100 -0.85400 29.10800
C  16.31200 0.03100 29.96900
C  16.83600 -0.24900 31.43900
C  18.09900 -1.16400 31.18900
C  17.85000 -1.64100 29.72500
C  19.47000 -0.54400 31.43700
C  15.73300 -0.92100 32.35900
C  15.88100 -0.86300 33.92700
H  17.01000 -0.03700 34.55800
N  17.67400 -2.65500 26.77800
C  18.46200 -3.15400 27.77700
C  19.33000 -4.26200 27.28300
C  19.16200 -4.26100 25.87900
C  18.17600 -3.12800 25.57300
C  20.07000 -5.26000 28.06300
C  19.86200 -5.15600 24.91500
O  19.64400 -4.96100 23.75200
C  20.79300 -6.34200 25.25400
N  16.39200 -0.69600 24.74800
C  16.89500 -1.61500 23.93100
C  16.58100 -1.26400 22.41400
C  15.33200 -0.30800 22.60800
C  15.55100 0.14900 24.07700
C  17.90300 -0.60200 21.75000
C  13.97400 -0.99300 22.28700
C  12.89500 -0.03100 21.82700
N  15.19800 0.51600 27.03700
C  14.48100 1.26100 26.07600
C  13.49600 2.07600 26.70200
C  13.85200 2.07700 28.06100
C  14.88800 1.13900 28.22900
C  12.41500 2.77800 25.92900
C  13.43300 2.48200 29.43600
O  12.47300 3.14400 29.65500
C  14.32100 1.78900 30.46200
C  14.99300 2.90800 31.22500
O  15.50200 3.89600 30.73600
O  14.95900 2.64400 32.55700
C  15.69800 3.68000 33.30200
H  19.18200 -3.27000 29.83600
H  18.10400 -3.20300 23.41000
H  14.08000 1.61900 23.97500
H  17.17400 0.69300 31.87200
H  17.88400 -2.05700 31.77600
H  20.23500 -1.23700 31.78700
H  19.39300 0.15500 32.26900
H  19.80300 -0.03000 30.53500
H  15.69600 -1.98900 32.14100
H  14.76900 -0.52800 32.03800
H  15.98300 -1.87100 34.32700
H  14.87100 -0.57700 34.22100
H  19.86900 -5.01100 29.10500
H  21.13700 -5.20800 27.84900
H  19.58400 -6.22600 27.92200
H  21.74100 -5.94400 25.61500
H  20.97600 -7.03300 24.43100
H  20.24300 -6.84800 26.04800
H  16.25000 -2.22900 22.02900
H  15.45700 0.59800 22.01500
H  18.18900 0.25800 22.35500
H  17.45400 -0.15700 20.86200
H  18.73600 -1.28100 21.57000
H  13.58500 -1.41100 23.21600
H  14.09500 -1.80700 21.57200
H  12.42200 -0.35000 20.89900
H  13.27600 0.96000 21.58000
H  12.16300 0.04400 22.63200
H  11.79200 3.23300 26.69900
H  11.92300 1.98200 25.37100
H  12.77300 3.46800 25.16600
H  13.64400 1.26100 31.13300
H  14.94600 4.34500 33.72700
H  16.58700 4.08400 32.81800
H  16.06200 3.15200 34.18300
Mg 40.68300 10.07500 29.73300
C  42.49600 10.69700 32.81400
C  38.21000 8.70600 31.79700
C  38.92200 9.28300 27.07100
C  43.44500 11.02100 27.99100
N  40.48000 9.60000 32.04300
C  41.23200 10.22300 33.01800
C  40.57800 10.07600 34.41300
C  39.30400 9.17400 34.02900
C  39.31600 9.18300 32.52100
C  39.43800 7.74500 34.59700
C  40.32700 11.36300 35.22900
C  39.72600 11.26800 36.63900
H  40.46300 11.87900 37.82600
N  38.73200 9.25600 29.49600
C  37.91100 8.72300 30.46800
C  36.71000 8.15000 29.81700
C  36.80700 8.58600 28.43400
C  38.20800 9.02900 28.26600
C  35.78100 7.33100 30.64600
C  35.71700 8.40400 27.34100
O  35.91800 8.66600 26.15900
C  34.35700 7.96700 27.67700
N  41.25300 10.02500 27.71400
C  40.23800 9.69800 26.79400
C  40.86300 9.88400 25.39000
C  42.28800 10.40200 25.67500
C  42.37200 10.52800 27.22700
C  40.86900 8.61800 24.37400
C  42.81900 11.60800 24.77900
C  42.10700 12.93800 25.09900
N  42.56000 10.72500 30.25400
C  43.63400 11.12400 29.42300
C  44.75500 11.49300 30.12500
C  44.37000 11.31700 31.50700
C  43.03900 10.83400 31.54400
C  46.01300 11.94400 29.45500
C  44.84000 11.47900 32.86100
O  45.93300 11.78800 33.29000
C  43.59000 11.20000 33.76900
C  44.00200 10.26800 34.83000
O  44.19700 9.06400 34.64900
O  43.85000 10.87100 36.05700
C  44.09800 10.02700 37.23300
H  37.50000 8.29800 32.52000
H  38.25000 9.15200 26.22000
H  44.28100 11.24500 27.32600
H  41.39000 9.52000 34.88200
H  38.39100 9.68000 34.34100
H  40.37400 7.54800 35.11900
H  39.40700 7.07000 33.74100
H  38.57100 7.60100 35.24200
H  39.62500 11.95300 34.64000
H  41.21900 11.98900 35.20700
H  39.26500 10.32300 36.92600
H  38.83300 11.88300 36.52800
H  36.40100 6.60500 31.17300
H  35.13200 6.73800 30.00200
H  35.27700 7.98500 31.35800
H  33.77100 7.98900 26.75800
H  33.89900 8.58100 28.45300
H  34.47500 6.95300 28.05800
H  40.30600 10.62400 24.81600
H  42.91700 9.52700 25.51000
H  40.33900 7.77100 24.81000
H  41.82800 8.37700 23.91700
H  40.30300 8.91600 23.49100
H  42.71100 11.43400 23.70900
H  43.86400 11.78000 25.03600
H  41.46500 13.25900 24.27800
H  42.78000 13.75400 25.36400
H  41.42300 12.79700 25.93600
H  46.74500 12.04800 30.25600
H  45.81100 12.84900 28.88200
H  46.28500 11.19000 28.71700
H  43.20700 12.10600 34.23800
H  43.50000 9.12000 37.13800
H  43.93800 10.45300 38.22300
H  45.12000 9.65200 37.18200

