158

Mg 46.86400 16.46200 28.73900
C  44.81500 16.04900 31.54900
C  49.32600 17.72500 30.69900
C  48.51800 17.34300 25.90600
C  44.24600 15.17500 26.79300
N  47.01000 16.97600 30.92300
C  46.07800 16.69000 31.92300
C  46.55900 17.09600 33.29000
C  47.90700 17.86000 32.96700
C  48.07600 17.55400 31.44700
C  47.87600 19.36600 33.40200
C  46.66800 15.85300 34.20900
C  46.15700 15.95700 35.66500
H  45.90600 17.34000 36.27100
N  48.63800 17.46900 28.34500
C  49.56000 17.77100 29.29500
C  50.78000 18.11000 28.64600
C  50.47700 18.12800 27.22300
C  49.18400 17.59200 27.08200
C  52.07600 18.40800 29.45600
C  51.34600 18.60400 26.05200
O  50.96100 18.82300 24.86300
C  52.79200 18.97600 26.31100
N  46.48100 16.18700 26.74400
C  47.33300 16.56900 25.74300
C  46.85100 16.21100 24.33900
C  45.65800 15.29000 24.68100
C  45.43300 15.55600 26.16000
C  46.40600 17.52300 23.68600
C  45.93200 13.78800 24.26600
C  45.61400 13.33600 22.84600
N  44.98500 15.57200 29.08400
C  43.98600 15.20600 28.20100
C  42.81500 14.75200 28.90600
C  43.08000 15.11200 30.23200
C  44.39900 15.62900 30.31200
C  41.57600 14.04000 28.35100
C  42.57200 15.14200 31.54700
O  41.45900 14.79500 31.97300
C  43.69000 15.71600 32.52500
C  43.01000 16.80500 33.36300
O  42.82900 18.00400 32.99900
O  42.53200 16.38300 34.48600
C  41.85700 17.29600 35.48000
H  50.20200 17.79700 31.34700
H  48.93800 17.77200 24.99400
H  43.39400 14.61100 26.40800
H  45.72000 17.72400 33.59200
H  48.68700 17.47500 33.62300
H  48.89500 19.60200 33.70600
H  47.14200 19.57800 34.18000
H  47.66300 19.92500 32.49100
H  47.72300 15.63000 34.37200
H  46.18400 14.94300 33.85500
H  46.83400 15.46300 36.36100
H  45.23400 15.38100 35.73800
H  52.91900 17.97200 28.92000
H  52.04800 18.02000 30.47400
H  52.28900 19.46900 29.32500
H  53.33200 18.21100 26.86900
H  52.67300 19.92600 26.83300
H  53.37600 19.13800 25.40500
H  47.61400 15.68500 23.76500
H  44.76900 15.57200 24.11700
H  45.38400 17.64600 23.32800
H  47.05300 17.59200 22.81200
H  46.62500 18.41600 24.27200
H  45.21700 13.28700 24.92000
H  46.92000 13.65800 24.70600
H  45.42500 14.20900 22.22100
H  44.75100 12.67500 22.77200
H  46.41000 12.76300 22.37100
H  41.77600 13.52000 27.41400
H  40.65700 14.62400 28.33700
H  41.39700 13.22700 29.05600
H  43.89000 15.07900 33.38600
H  40.78100 17.20100 35.62700
H  42.05300 18.36200 35.36400
H  42.35400 17.08200 36.42600
Mg 42.66600 41.76500 25.89000
C  41.72400 44.09400 28.15300
C  43.45800 39.52100 28.41100
C  43.43900 39.34600 23.57000
C  42.17700 44.02400 23.15100
N  42.52100 41.81100 28.01600
C  42.03000 42.84200 28.77400
C  42.19500 42.53200 30.31800
C  43.11800 41.19300 30.22700
C  43.00300 40.83500 28.75700
C  44.57400 41.47400 30.72700
C  40.82800 42.34700 30.93600
C  40.81900 41.82600 32.41700
H  40.18000 42.75600 33.44900
N  43.52800 39.69300 25.93100
C  43.58500 38.94400 27.07800
C  44.01200 37.61000 26.73800
C  43.94900 37.53200 25.29700
C  43.65900 38.89800 24.86600
C  44.54100 36.58100 27.80600
C  44.05100 36.35600 24.34000
O  43.98400 36.32500 23.10600
C  44.21300 35.01600 25.01300
N  42.87500 41.69900 23.70600
C  43.13800 40.58900 22.95700
C  43.16200 40.93300 21.44100
C  42.43000 42.26200 21.34200
C  42.51200 42.70200 22.83600
C  44.46300 40.66200 20.65300
C  41.00600 42.08300 20.88100
C  39.83100 41.77200 21.81300
N  42.02500 43.70200 25.61900
C  41.89300 44.53700 24.49100
C  41.39000 45.75500 24.98700
C  41.32500 45.70600 26.38100
C  41.68300 44.41100 26.73800
C  40.98400 46.90300 24.16500
C  41.04000 46.37500 27.65000
O  40.73800 47.49600 27.90400
C  41.31000 45.35900 28.77500
C  42.17200 45.88300 29.81300
O  43.16000 46.59200 29.65000
O  41.59700 45.78800 31.05800
C  42.59300 46.01000 32.16700
H  43.65000 38.84000 29.24300
H  43.57100 38.58800 22.79500
H  42.04900 44.86400 22.46500
H  42.77100 43.39100 30.65900
H  42.68200 40.40100 30.83600
H  44.78200 40.61400 31.36400
H  44.66300 42.39900 31.29600
H  45.28700 41.41400 29.90500
H  40.32200 41.49200 30.48900
H  40.16800 43.16100 30.63500
H  41.84500 41.61300 32.72100
H  40.28000 40.87900 32.44500
H  44.99300 37.18800 28.59100
H  45.22900 35.82100 27.43900
H  43.63000 36.09500 28.15600
H  45.21600 34.69700 25.29600
H  43.83400 34.17200 24.43800
H  43.66800 35.05100 25.95600
H  42.44800 40.17800 21.11100
H  42.95100 42.95100 20.67600
H  45.16600 40.22200 21.36000
H  44.94400 41.58100 20.31800
H  44.27500 39.94500 19.85400
H  40.94500 41.40500 20.03000
H  40.68900 42.98200 20.35400
H  39.49900 40.73600 21.75100
H  38.95900 42.39800 21.62500
H  40.08600 41.87400 22.86800
H  41.88600 47.49500 24.01500
H  40.27600 47.46100 24.77900
H  40.45200 46.60200 23.26200
H  40.33400 45.07700 29.17100
H  42.23000 45.81300 33.17600
H  42.95200 47.03600 32.09300
H  43.50200 45.41100 32.11400

