158

Mg 42.17600 40.83900 27.10900
C  41.59700 43.09000 29.63200
C  42.77500 38.48600 29.48500
C  42.72000 38.60900 24.57500
C  41.98200 43.31900 24.71100
N  42.31800 40.87400 29.32700
C  41.92100 41.83700 30.16400
C  41.98100 41.41400 31.62200
C  42.76000 40.08500 31.52300
C  42.56000 39.73200 30.01200
C  44.23100 39.95100 32.12600
C  40.58200 41.34500 32.24700
C  40.27200 42.36000 33.40700
H  39.81000 41.85900 34.79100
N  42.56900 38.80700 27.05500
C  42.78100 38.00600 28.15700
C  43.10700 36.65000 27.67300
C  42.97700 36.61200 26.27200
C  42.68200 38.04900 25.91300
C  43.34000 35.42200 28.67300
C  43.11700 35.47800 25.30500
O  43.00800 35.70500 24.09900
C  43.40300 34.05700 25.81900
N  42.24500 40.93000 24.85400
C  42.56700 39.84500 24.10100
C  42.66900 40.28000 22.64100
C  42.55100 41.82000 22.67900
C  42.17400 42.05300 24.16800
C  43.86400 39.67700 21.85200
C  41.52000 42.43300 21.66400
C  40.09000 42.65000 22.18100
N  41.95700 42.84300 27.10000
C  41.81000 43.72200 26.06800
C  41.45900 45.02200 26.61200
C  41.24100 44.74600 27.97300
C  41.63800 43.47100 28.19800
C  41.22800 46.24900 25.85000
C  40.92700 45.46400 29.23700
O  40.59300 46.64600 29.51800
C  40.94000 44.32200 30.34700
C  41.97500 44.76800 31.30000
O  43.18400 44.67200 31.18100
O  41.41300 45.38700 32.35500
C  42.22500 46.00300 33.38800
H  43.02900 37.77500 30.27400
H  43.02400 37.95500 23.75500
H  42.01500 44.10500 23.95300
H  42.60000 42.01600 32.28700
H  42.16500 39.38000 32.10400
H  44.85600 39.60200 31.30400
H  44.11100 39.27400 32.97200
H  44.71000 40.86100 32.48900
H  40.42000 40.34500 32.65000
H  39.86300 41.46200 31.43700
H  39.40600 42.94400 33.09500
H  41.10300 43.05900 33.49000
H  43.42100 35.77800 29.70000
H  44.29500 34.91100 28.55800
H  42.52400 34.71600 28.51500
H  42.49000 33.71800 26.30800
H  44.25700 34.01200 26.49400
H  43.55300 33.40100 24.96100
H  41.77700 40.01700 22.07300
H  43.49700 42.34400 22.54700
H  44.42900 40.48200 21.38300
H  43.65700 38.99400 21.02800
H  44.60000 39.20600 22.50400
H  41.55300 41.69100 20.86600
H  42.03000 43.32500 21.30000
H  39.49900 42.24200 21.36100
H  39.94800 43.71400 22.37100
H  39.76000 42.10700 23.06700
H  41.97400 46.99300 26.12900
H  40.29400 46.70600 26.17600
H  41.22700 46.05800 24.77700
H  39.93600 44.10600 30.71300
H  42.30800 45.19400 34.11400
H  41.71600 46.84900 33.84900
H  43.19800 46.25300 32.96400
Mg -0.27600 44.42200 26.91600
C  2.03300 44.23200 29.42200
C  -2.81300 44.22000 29.22700
C  -2.59600 44.15300 24.38600
C  2.11400 44.66600 24.41900
N  -0.36200 44.28700 29.02600
C  0.70500 44.15300 29.87500
C  0.28600 44.02500 31.34000
C  -1.22100 43.71300 31.21700
C  -1.49500 44.20800 29.76800
C  -1.66100 42.32100 31.60700
C  0.51800 45.36200 32.06500
C  0.98300 45.23900 33.56200
H  0.61500 43.96800 34.42900
N  -2.41600 44.31500 26.80400
C  -3.23500 44.31400 27.89100
C  -4.61300 44.15200 27.46800
C  -4.56300 44.05300 26.01800
C  -3.15400 44.19800 25.68300
C  -5.65800 43.91400 28.46300
C  -5.72600 43.72800 25.11700
O  -5.59600 43.78200 23.89100
C  -7.12500 43.30900 25.70600
N  -0.19600 44.42700 24.64300
C  -1.31100 44.23400 23.87300
C  -0.95200 44.16700 22.40500
C  0.51800 44.55700 22.38400
C  0.87300 44.51300 23.86000
C  -1.26300 42.82800 21.71000
C  0.78100 45.86100 21.66400
C  2.06300 45.85800 20.70800
N  1.72300 44.45700 26.93100
C  2.60200 44.58900 25.82500
C  3.94800 44.57900 26.31700
C  3.79200 44.46200 27.71000
C  2.38400 44.39100 27.99300
C  5.11500 44.80300 25.45200
C  4.44000 44.34300 29.01700
O  5.60700 44.33500 29.26400
C  3.27300 44.23100 30.14100
C  3.52700 43.01700 30.99200
O  3.24500 41.87200 30.65600
O  3.97700 43.42600 32.22800
C  4.46700 42.37900 33.11200
H  -3.53700 44.06600 30.03000
H  -3.28200 44.01800 23.54700
H  2.97100 44.77300 23.75000
H  0.84100 43.22100 31.82300
H  -1.75800 44.26000 31.99100
H  -0.93600 41.75000 32.18700
H  -1.95500 41.77400 30.71100
H  -2.55000 42.37300 32.23600
H  -0.37400 45.98300 32.14700
H  1.27900 45.99100 31.60300
H  0.71900 46.11500 34.15600
H  2.07300 45.25300 33.54700
H  -6.60100 44.38900 28.19500
H  -5.53300 44.46100 29.39700
H  -5.80400 42.86000 28.70100
H  -7.91800 43.20800 24.96500
H  -7.43100 44.11000 26.37800
H  -6.97100 42.39500 26.27900
H  -1.55100 44.94800 21.93700
H  1.15900 43.74300 22.04800
H  -1.53900 42.07800 22.45200
H  -0.39600 42.43700 21.17600
H  -2.04100 43.09400 20.99400
H  0.95900 46.63400 22.41100
H  -0.07100 46.17700 21.06200
H  2.80600 46.47200 21.21700
H  1.86400 46.31400 19.73900
H  2.34500 44.81600 20.55800
H  4.86200 45.52300 24.67400
H  5.44500 43.83300 25.08200
H  5.76800 45.39000 26.09700
H  3.36800 45.14300 30.73000
H  4.55900 41.44000 32.56600
H  3.77400 42.32100 33.95100
H  5.43000 42.69200 33.51500

