158

Mg 47.60800 15.97700 28.61800
C  45.34800 15.61300 31.30700
C  49.33400 18.16300 30.52000
C  49.50500 16.70800 25.87900
C  45.50000 13.99900 26.59400
N  47.36000 16.67000 30.65500
C  46.40600 16.43400 31.68400
C  46.80200 17.06800 32.97000
C  47.88900 18.07500 32.55300
C  48.19800 17.62800 31.13100
C  47.49500 19.61300 32.69000
C  47.26400 16.16800 34.17100
C  47.57300 16.98300 35.48500
H  48.60600 16.37000 36.47800
N  49.20000 17.24300 28.28300
C  49.81200 18.01500 29.22200
C  50.97000 18.79700 28.63800
C  51.04400 18.35700 27.24800
C  49.88900 17.36900 27.06100
C  51.78000 19.80300 29.42500
C  51.94700 18.81800 26.09900
O  51.96400 18.24000 25.00500
C  52.67000 20.06000 26.22800
N  47.50800 15.38100 26.57800
C  48.43600 15.78700 25.63600
C  48.30700 14.99200 24.29900
C  47.22000 13.91800 24.67800
C  46.74100 14.43600 26.06100
C  47.92000 15.96900 23.10600
C  47.74000 12.47000 24.64000
C  48.88900 12.04300 23.71700
N  45.82600 15.07400 28.85200
C  45.00600 14.38300 27.92700
C  43.77400 13.96800 28.56100
C  43.91900 14.36800 29.87500
C  45.11600 15.03600 30.02600
C  42.62600 13.24300 28.02600
C  43.24800 14.41100 31.15900
O  42.12700 14.00700 31.49500
C  44.19700 15.13700 32.21400
C  43.47000 16.19300 32.86800
O  42.73300 16.99700 32.30300
O  43.86000 16.28800 34.19400
C  43.12200 17.36000 34.92000
H  49.92100 18.89200 31.08300
H  50.13400 16.72100 24.98600
H  44.95100 13.31000 25.94900
H  46.00300 17.67900 33.38900
H  48.81100 17.98200 33.12700
H  46.44800 19.81400 32.91900
H  47.77600 20.24800 31.85100
H  48.05900 19.95400 33.55800
H  48.24600 15.80900 33.86500
H  46.63200 15.32500 34.45200
H  46.61300 17.02700 36.00000
H  47.95400 17.99100 35.32100
H  51.48300 19.97700 30.45900
H  51.82900 20.85300 29.13700
H  52.82400 19.49200 29.46400
H  52.00700 20.90500 26.41300
H  53.09200 20.28100 25.24700
H  53.56100 19.94300 26.84500
H  49.31200 14.62600 24.09000
H  46.36400 14.00000 24.00800
H  46.95900 15.68000 22.67900
H  48.69300 15.93700 22.33900
H  47.87200 17.04200 23.29200
H  46.90400 11.79600 24.45800
H  48.15300 12.25100 25.62400
H  48.58800 11.17200 23.13400
H  49.76000 11.72500 24.28800
H  49.33200 12.78300 23.05000
H  42.96600 12.82000 27.08100
H  41.81500 13.96000 27.89200
H  42.19200 12.52000 28.71700
H  44.58000 14.44500 32.96400
H  43.55600 17.29400 35.91800
H  42.03700 17.32000 35.01600
H  43.36400 18.33900 34.50500
Mg 8.63500 48.04600 26.05800
C  6.57600 48.04000 28.83500
C  11.35000 48.44500 28.32700
C  10.78100 48.75200 23.44100
C  5.93700 48.33500 24.01000
N  8.88200 48.19400 28.37100
C  7.91800 48.18700 29.28400
C  8.42900 48.38200 30.72400
C  9.96500 48.75300 30.45700
C  10.08600 48.39600 28.95700
C  10.16000 50.18500 30.78500
C  8.19900 47.11900 31.60900
C  9.23300 46.84300 32.71000
H  8.91400 45.82400 33.74000
N  10.79100 48.54300 25.85800
C  11.72800 48.47700 26.90000
C  13.04600 48.40300 26.36500
C  12.86100 48.55800 24.93500
C  11.41500 48.71300 24.70900
C  14.40400 48.33100 27.16300
C  13.90400 48.49800 23.74300
O  13.55000 48.72400 22.58600
C  15.34600 48.11300 23.99300
N  8.44700 48.39200 23.99500
C  9.41000 48.68400 23.14500
C  8.87700 48.74600 21.72300
C  7.31900 48.60300 21.88000
C  7.18600 48.37900 23.38000
C  9.29900 50.00700 20.89000
C  6.70800 47.38300 21.15900
C  5.25900 47.67100 20.74400
N  6.73300 48.03200 26.28900
C  5.71000 48.20200 25.39200
C  4.47700 48.03300 25.99500
C  4.75900 47.92400 27.39700
C  6.12800 47.98500 27.52300
C  3.19500 48.17800 25.28700
C  4.11600 47.92700 28.66800
O  2.90400 48.01300 28.90000
C  5.21700 47.98000 29.64200
C  5.06200 46.99100 30.71500
O  5.34300 45.80100 30.71500
O  4.61700 47.61300 31.79500
C  4.57600 46.74800 33.02200
H  12.20000 48.64500 28.98200
H  11.33500 48.79200 22.50000
H  5.06200 48.57800 23.40300
H  7.91400 49.25300 31.13000
H  10.76400 48.20800 30.96000
H  9.36100 50.80900 31.18800
H  10.39400 50.71900 29.86400
H  10.99700 50.30700 31.47200
H  8.02500 46.24000 30.98800
H  7.22900 47.16200 32.10600
H  9.61500 47.72900 33.21700
H  10.05200 46.38200 32.15800
H  14.86000 49.30100 26.96700
H  15.01200 47.45200 26.94600
H  14.18900 48.40600 28.22900
H  15.72700 48.83600 24.71400
H  15.92500 48.10500 23.07000
H  15.33400 47.16300 24.52800
H  9.29300 47.88000 21.20800
H  6.94200 49.57800 21.57000
H  9.99600 50.55500 21.52400
H  8.46500 50.60000 20.51600
H  9.83200 49.60700 20.02800
H  6.75900 46.50100 21.79700
H  7.22400 47.11100 20.23900
H  5.17500 47.63400 19.65800
H  4.97400 48.68700 21.01800
H  4.56400 47.00600 21.25600
H  2.86300 47.38300 24.61900
H  3.15800 49.10100 24.70800
H  2.42800 48.17800 26.06200
H  5.01000 48.97300 30.04200
H  3.53600 46.42600 33.07700
H  4.82500 47.42800 33.83600
H  5.30000 45.93600 33.08800

