158

Mg 25.79600 -8.03000 47.56100
C  27.66600 -5.51600 46.41200
C  23.36100 -7.19700 45.18100
C  24.02300 -10.84100 48.40000
C  28.27500 -8.92400 49.94800
N  25.65000 -6.57100 45.86600
C  26.53000 -5.59800 45.67800
C  26.11800 -4.65500 44.50500
C  24.62600 -5.16800 44.11900
C  24.46100 -6.33700 45.17300
C  23.53300 -4.08100 44.19700
C  27.14000 -4.73500 43.37800
C  27.62000 -3.35100 42.81100
H  27.21600 -3.02200 41.38400
N  23.86400 -8.86900 46.93700
C  23.03100 -8.29300 46.01300
C  21.75500 -9.04100 46.05100
C  21.98800 -10.13700 46.96100
C  23.31600 -10.02000 47.50700
C  20.58500 -8.62900 45.11300
C  20.89100 -11.16400 47.18300
O  19.76900 -10.94300 46.80000
C  21.10400 -12.40200 48.03700
N  26.16900 -9.63500 48.87300
C  25.24000 -10.62700 49.09700
C  25.53900 -11.45900 50.29700
C  27.00500 -11.08000 50.63000
C  27.18200 -9.83600 49.74500
C  24.49400 -11.14900 51.47500
C  28.03400 -12.13400 50.15200
C  28.28900 -13.23500 51.17500
N  27.72600 -7.48900 48.05800
C  28.50900 -7.77600 49.13400
C  29.65200 -6.78800 49.11900
C  29.29500 -5.85800 48.08500
C  28.18300 -6.35900 47.47400
C  30.75000 -6.72100 50.11100
C  29.81300 -4.70700 47.42300
O  30.80700 -4.05500 47.57400
C  28.74100 -4.34700 46.35600
C  28.12300 -3.03000 46.64500
O  27.35300 -2.81800 47.59900
O  28.34100 -2.22000 45.58000
C  27.68000 -0.93800 45.72400
H  22.58800 -6.87000 44.48200
H  23.51900 -11.71500 48.81700
H  28.91100 -9.15000 50.80600
H  26.17500 -3.59300 44.74700
H  24.52300 -5.72000 43.18500
H  22.95300 -4.16700 43.27900
H  24.05900 -3.12800 44.13500
H  22.87200 -4.20600 45.05500
H  26.60700 -5.33100 42.63700
H  28.02000 -5.26200 43.74700
H  28.68300 -3.24500 43.03000
H  27.12900 -2.52700 43.32800
H  20.05800 -9.53000 44.80000
H  20.89800 -8.03000 44.25800
H  19.85400 -8.02500 45.65100
H  21.89800 -13.10900 47.79800
H  20.15200 -12.88600 47.81900
H  21.06100 -12.23100 49.11300
H  25.50900 -12.46200 49.87100
H  27.07300 -10.81900 51.68600
H  23.96600 -12.08600 51.65300
H  23.74600 -10.43400 51.13200
H  25.00800 -10.86700 52.39400
H  28.97300 -11.60800 49.98400
H  27.77000 -12.59500 49.19900
H  29.28700 -13.12200 51.59700
H  28.32500 -14.24100 50.75700
H  27.64200 -13.14200 52.04700
H  30.39000 -7.06500 51.08100
H  31.12400 -5.69900 50.04500
H  31.56800 -7.37100 49.80200
H  29.32100 -4.30700 45.43400
H  26.61400 -1.16100 45.67800
H  28.04900 -0.20200 45.01000
H  28.01300 -0.51800 46.67300
Mg 26.32900 50.00600 25.35600
C  24.34500 51.33600 28.03100
C  28.83000 49.44500 27.61800
C  28.39800 48.98200 22.82900
C  24.20000 51.53300 23.09000
N  26.52000 50.25200 27.65000
C  25.59700 50.81300 28.48500
C  26.19900 50.89300 29.88500
C  27.55700 50.12800 29.76200
C  27.68400 49.96000 28.27000
C  28.63100 51.03000 30.43600
C  25.28200 50.34900 31.09500
C  25.87600 49.56000 32.21400
H  25.14700 49.26600 33.52500
N  28.31800 49.23000 25.25600
C  29.16900 49.07700 26.31500
C  30.46600 48.54500 25.82300
C  30.37600 48.50500 24.36600
C  29.00500 48.96400 24.09800
C  31.63200 48.27700 26.80500
C  31.47900 48.20800 23.41100
O  31.31500 48.25900 22.21500
C  32.78500 47.73100 23.98100
N  26.23700 50.15000 23.26100
C  27.23200 49.62000 22.43400
C  26.84300 49.72100 20.91700
C  25.47700 50.55800 20.95600
C  25.28400 50.74800 22.51000
C  27.92700 50.40300 20.06500
C  24.35100 49.83800 20.14700
C  23.79500 50.64800 18.99800
N  24.50500 51.08000 25.47600
C  23.79300 51.71300 24.47100
C  22.66600 52.45900 25.00700
C  22.84400 52.35100 26.38700
C  23.96000 51.51500 26.62800
C  21.75700 53.25300 24.17800
C  22.31600 52.73500 27.70400
O  21.44400 53.54800 28.06000
C  23.26100 52.11700 28.82300
C  23.80600 53.23600 29.62000
O  24.45200 54.17800 29.18400
O  23.41800 53.09800 30.89400
C  23.94500 54.11900 31.80000
H  29.59500 49.30300 28.38400
H  28.82700 48.59300 21.90300
H  23.64200 52.03000 22.29300
H  26.41400 51.95200 30.02300
H  27.65600 49.15600 30.24600
H  28.33100 51.87000 31.06200
H  29.35600 51.22600 29.64600
H  29.09900 50.45800 31.23800
H  24.62700 49.66400 30.55600
H  24.65700 51.13200 31.52400
H  26.90000 49.91900 32.31600
H  26.01100 48.60100 31.71500
H  31.87200 47.21400 26.84200
H  31.44500 48.44100 27.86600
H  32.54800 48.83100 26.59700
H  32.75200 46.84800 24.62000
H  33.15400 48.64000 24.45600
H  33.48900 47.39800 23.21800
H  26.64700 48.73900 20.48600
H  25.72900 51.58800 20.70400
H  28.29600 49.77300 19.25500
H  28.71100 50.66000 20.77600
H  27.51100 51.31200 19.63100
H  23.58100 49.64600 20.89500
H  24.68900 48.88000 19.75200
H  22.74900 50.43900 18.77200
H  24.41300 50.34200 18.15300
H  23.77200 51.72900 19.13200
H  21.03800 52.60800 23.67200
H  22.33900 53.83600 23.46400
H  21.07200 53.82800 24.80100
H  22.70600 51.47400 29.50700
H  23.95300 55.06300 31.25600
H  24.94800 53.95300 32.19400
H  23.36700 54.28400 32.71000

