158

Mg 35.09800 2.85500 29.51100
C  33.00100 3.92600 32.12900
C  37.74300 3.04400 31.69500
C  37.32000 2.59400 26.92600
C  32.48600 3.39700 27.23000
N  35.23900 3.42700 31.70100
C  34.26400 3.72300 32.58800
C  34.81300 3.78500 34.02500
C  36.41700 3.71300 33.80300
C  36.47900 3.31300 32.34900
C  37.15300 5.06400 34.10400
C  34.32000 2.52000 34.86900
C  34.39400 2.54600 36.45000
H  35.15900 3.64400 37.04900
N  37.21400 2.58500 29.39400
C  38.04400 2.61700 30.39500
C  39.34200 2.18200 29.95600
C  39.34900 2.11600 28.54400
C  37.93900 2.39600 28.19200
C  40.52400 2.19100 30.93400
C  40.45500 1.86300 27.54700
O  40.15000 1.71900 26.39500
C  41.98700 1.63100 27.97800
N  34.91500 3.09500 27.37800
C  35.98900 2.93800 26.46400
C  35.46000 2.74200 25.04700
C  33.95700 3.00900 25.17900
C  33.73500 3.15300 26.67000
C  36.12000 3.45500 23.79100
C  32.94900 1.98300 24.51500
C  33.05100 0.53900 25.24600
N  33.18400 3.42400 29.60400
C  32.24300 3.62300 28.56500
C  31.00600 4.05400 29.16600
C  31.26100 4.06600 30.57600
C  32.61200 3.80000 30.79000
C  29.74200 4.37500 28.45700
C  30.59100 4.26800 31.86500
O  29.46600 4.44400 32.17300
C  31.73500 4.19200 32.88900
C  31.76000 5.45800 33.70000
O  32.27100 6.47500 33.32000
O  31.17000 5.26500 34.92700
C  31.20500 6.38400 35.93200
H  38.59100 2.97900 32.38000
H  37.96400 2.35100 26.07800
H  31.62500 3.36400 26.55900
H  34.48900 4.68200 34.55200
H  36.86700 2.88500 34.35000
H  37.76300 5.38000 33.25800
H  37.87900 4.93600 34.90600
H  36.50700 5.89600 34.38300
H  34.88200 1.65800 34.50700
H  33.28000 2.33400 34.60100
H  34.71200 1.57000 36.81700
H  33.39100 2.70800 36.84400
H  40.89700 3.16900 31.23700
H  41.33200 1.59000 30.51700
H  40.32600 1.54200 31.78700
H  42.58300 1.29000 27.13200
H  42.09200 0.88100 28.76200
H  42.40200 2.57700 28.32800
H  35.47500 1.65800 24.93400
H  33.71300 3.99000 24.76900
H  36.19700 2.73300 22.97800
H  37.15400 3.72900 24.00100
H  35.46400 4.31100 23.63300
H  33.19600 1.76400 23.47600
H  31.92000 2.32400 24.62400
H  33.38600 -0.15100 24.47200
H  32.11900 0.23800 25.72400
H  33.89300 0.49200 25.93600
H  29.33500 3.50300 27.94500
H  29.97100 5.12800 27.70300
H  28.96800 4.78500 29.10500
H  31.44900 3.44200 33.62600
H  31.22700 6.04400 36.96800
H  30.35800 7.04900 35.76500
H  32.07200 7.03700 35.84300
Mg 10.36200 46.41000 25.40800
C  8.23300 46.80800 28.11800
C  12.69400 48.37300 27.09700
C  12.24700 46.18000 22.71000
C  7.37900 45.67000 23.48100
N  10.39400 47.57100 27.27500
C  9.50800 47.37800 28.33200
C  10.01100 48.03900 29.64400
C  11.19200 48.93700 29.06200
C  11.46100 48.23200 27.75000
C  10.85700 50.38200 28.74200
C  10.48300 46.99700 30.62900
C  9.93900 47.14800 32.12500
H  9.93000 45.90000 33.10400
N  12.31300 47.05000 25.07000
C  13.10400 47.84400 25.84800
C  14.43700 48.01900 25.07100
C  14.27600 47.36900 23.81300
C  12.89900 46.86900 23.80100
C  15.58700 48.79500 25.67500
C  15.25700 47.21200 22.70500
O  15.06700 46.53100 21.66800
C  16.60800 47.86500 22.81900
N  9.92000 45.97400 23.41700
C  10.88800 45.81600 22.49200
C  10.24300 45.34300 21.06300
C  8.71200 45.21700 21.34600
C  8.64100 45.67300 22.86100
C  10.72600 46.22600 19.94800
C  8.17800 43.79200 21.02900
C  6.79300 43.60800 20.30300
N  8.23900 46.16300 25.67500
C  7.18400 45.84200 24.87800
C  5.96400 45.70500 25.60900
C  6.35500 46.05900 26.86400
C  7.73200 46.30500 26.89900
C  4.57700 45.43200 25.07100
C  5.85200 46.27500 28.23500
O  4.72400 46.20800 28.66800
C  7.03400 46.76300 29.08000
C  7.22600 45.93300 30.16700
O  7.88600 44.88800 30.14800
O  6.43500 46.19900 31.29800
C  6.41600 45.09600 32.30600
H  13.26400 49.14100 27.62500
H  12.90100 45.89200 21.88400
H  6.59200 45.23100 22.86500
H  9.20200 48.61800 30.08900
H  12.00000 48.93200 29.79400
H  9.76800 50.36000 28.69700
H  11.25100 50.49400 27.73200
H  11.32100 51.14100 29.37300
H  11.57000 47.05100 30.57900
H  10.17200 46.00800 30.29000
H  8.98200 47.66800 32.14000
H  10.67400 47.89100 32.43600
H  15.29200 49.33300 26.57500
H  15.90800 49.47600 24.88700
H  16.46200 48.20000 25.94000
H  17.09700 47.48800 23.71700
H  16.34900 48.91700 22.93800
H  17.19000 47.73700 21.90700
H  10.78100 44.42000 20.84800
H  8.20700 45.96300 20.73200
H  11.00300 47.23800 20.24300
H  10.06900 46.27000 19.07900
H  11.63200 45.82700 19.49300
H  8.07700 43.28300 21.98800
H  8.90400 43.40400 20.31400
H  6.88600 43.72700 19.22400
H  6.16800 44.43700 20.63400
H  6.35000 42.65400 20.58800
H  3.95300 46.31700 24.95000
H  4.09400 44.72500 25.74600
H  4.71300 44.86600 24.15000
H  6.76100 47.71100 29.54400
H  5.42000 44.65400 32.31300
H  6.44400 45.57100 33.28700
H  7.07200 44.23000 32.21900

