158

Mg 41.51300 8.15800 29.43700
C  43.16200 9.78500 31.95900
C  39.15700 6.91800 31.75000
C  40.21100 6.17900 27.10500
C  44.25000 8.89800 27.35900
N  41.17100 8.36200 31.50400
C  42.03100 9.05500 32.39100
C  41.58300 8.89000 33.92000
C  40.37200 8.00700 33.82500
C  40.21100 7.69700 32.27100
C  40.10400 6.74600 34.68900
C  41.15800 10.31500 34.54000
C  40.25600 10.36800 35.77500
H  40.79500 11.02000 37.04800
N  39.75700 6.99900 29.37300
C  38.86200 6.69800 30.38200
C  37.70400 6.00500 29.77800
C  38.03200 5.83500 28.44100
C  39.39800 6.30500 28.26500
C  36.55700 5.54100 30.65900
C  37.16700 5.32600 27.28500
O  37.55000 5.15500 26.11800
C  35.68800 5.23800 27.59700
N  42.23800 7.45300 27.55700
C  41.48900 6.75000 26.74800
C  42.06600 6.64400 25.29200
C  43.24800 7.59100 25.36500
C  43.27900 8.01900 26.84700
C  42.30300 5.13500 24.91500
C  43.02000 8.89900 24.46700
C  41.97900 9.96600 24.96600
N  43.32600 9.17500 29.55400
C  44.30700 9.41600 28.65800
C  45.33200 10.28100 29.25100
C  44.90900 10.54200 30.55600
C  43.69100 9.82800 30.70700
C  46.54300 10.77400 28.49200
C  45.24800 11.18100 31.77400
O  46.17200 11.93000 32.14200
C  44.03900 10.68300 32.72400
C  44.65100 10.04600 33.89300
O  45.37800 9.07100 33.73200
O  44.32900 10.52900 35.11600
C  44.54100 9.70400 36.35200
H  38.46300 6.59300 32.52800
H  39.85500 5.39400 26.43500
H  45.06700 9.25300 26.72800
H  42.33900 8.36800 34.50700
H  39.46400 8.60900 33.86400
H  39.78300 5.88200 34.10700
H  39.30600 6.92100 35.41000
H  40.98900 6.53800 35.29000
H  40.52500 10.80100 33.79800
H  42.06300 10.90200 34.69500
H  40.13500 9.30100 35.95900
H  39.26100 10.74900 35.54600
H  35.67900 6.18200 30.73700
H  36.80200 5.39100 31.71100
H  36.21500 4.62300 30.18100
H  35.12100 5.01200 26.69400
H  35.40600 6.22300 27.96900
H  35.56900 4.35500 28.22500
H  41.30900 7.09900 24.65300
H  44.21600 7.10600 25.24000
H  43.04200 5.12200 24.11500
H  41.35200 4.67100 24.65300
H  42.69900 4.60700 25.78300
H  42.71700 8.57000 23.47200
H  43.98200 9.36300 24.25100
H  41.65600 10.58700 24.13100
H  42.53900 10.52300 25.71700
H  41.10200 9.54200 25.45500
H  47.30900 10.77400 29.26700
H  46.31800 11.79100 28.17100
H  46.78800 10.17200 27.61700
H  43.57600 11.56500 33.16600
H  44.84300 8.70300 36.04100
H  43.59100 9.66700 36.88500
H  45.27100 10.14600 37.03000
Mg 9.13100 47.65400 25.10200
C  6.82300 47.86100 27.73600
C  11.59100 47.74900 27.59100
C  11.22700 47.58500 22.68000
C  6.44400 47.88900 22.87100
N  9.12600 47.82800 27.41200
C  8.12300 47.72600 28.27100
C  8.58700 47.64800 29.74700
C  10.03900 48.10900 29.54900
C  10.28800 47.76900 28.07900
C  10.20500 49.60100 30.02600
C  8.36300 46.25200 30.42700
C  8.92900 46.08800 31.85500
H  7.95800 46.14100 33.02200
N  11.13200 47.64000 25.14900
C  11.99200 47.59600 26.23000
C  13.39000 47.50500 25.71000
C  13.29800 47.44800 24.25900
C  11.83500 47.50900 23.96100
C  14.62900 47.55500 26.65700
C  14.35200 47.18400 23.29400
O  14.15900 47.10800 22.11300
C  15.76300 47.24200 23.77400
N  8.89500 47.61600 23.07700
C  9.93500 47.68500 22.28100
C  9.54500 48.07400 20.84300
C  8.05200 47.81100 20.89400
C  7.74700 47.71000 22.39300
C  9.87000 49.56500 20.50600
C  7.66700 46.43800 20.31600
C  6.19400 46.41900 19.83900
N  7.10400 48.05900 25.25200
C  6.09200 48.04800 24.25500
C  4.80800 48.13800 24.81000
C  5.02500 48.15600 26.19400
C  6.38400 47.98000 26.41900
C  3.51300 48.18600 24.10000
C  4.35400 48.17900 27.49800
O  3.15100 48.37000 27.82900
C  5.52000 47.94400 28.56400
C  5.29500 46.71000 29.29200
O  5.58100 45.65700 28.83500
O  4.62100 46.95000 30.50200
C  4.22300 45.75900 31.32600
H  12.40100 47.73400 28.32400
H  11.98200 47.56900 21.89100
H  5.64300 48.06600 22.15100
H  8.06100 48.37900 30.36100
H  10.65400 47.54500 30.25100
H  10.11100 49.58500 31.11200
H  9.54300 50.36400 29.61700
H  11.19900 49.90000 29.69400
H  8.93200 45.57200 29.79300
H  7.37900 45.79400 30.51700
H  9.74400 46.78100 32.06200
H  9.45900 45.13600 31.88500
H  14.34200 47.68400 27.70100
H  15.21700 48.46800 26.56000
H  15.37200 46.76800 26.52900
H  16.40900 47.21800 22.89600
H  15.90300 46.39500 24.44500
H  15.84700 48.17000 24.33900
H  10.04300 47.34400 20.20500
H  7.53700 48.68400 20.49300
H  9.54200 49.90600 19.52400
H  10.93000 49.78100 20.63500
H  9.45300 50.19300 21.29300
H  7.66300 45.60600 21.02000
H  8.29800 46.17900 19.46500
H  6.31200 46.17600 18.78300
H  5.66100 47.36900 19.87400
H  5.70700 45.64200 20.42800
H  3.26600 47.41400 23.37100
H  3.28100 49.16900 23.69000
H  2.73100 48.08000 24.85100
H  5.58300 48.79600 29.24000
H  3.14300 45.80100 31.46000
H  4.67100 45.81500 32.31800
H  4.35700 44.79200 30.84000

