158

Mg 42.22500 7.88000 29.51600
C  43.81700 9.58800 32.15000
C  40.20500 6.37000 31.77300
C  40.81400 6.37900 26.80900
C  44.69500 9.13900 27.32500
N  42.07500 7.98300 31.70500
C  42.76800 8.80900 32.63700
C  42.05100 8.92500 33.96300
C  41.13500 7.54500 33.86000
C  41.04700 7.36400 32.30600
C  41.81000 6.23700 34.54700
C  41.38500 10.32000 34.33300
C  40.69400 10.31300 35.69100
H  41.25600 11.21300 36.78400
N  40.69400 6.58100 29.26000
C  39.97900 6.02800 30.38600
C  39.01100 5.03800 29.84400
C  39.05100 5.26400 28.43200
C  40.18900 6.15500 28.06000
C  38.18800 4.25200 30.75000
C  38.15800 4.62600 27.31200
O  38.35200 4.91900 26.09500
C  36.93400 3.76000 27.58300
N  42.67300 7.75000 27.38100
C  41.98100 7.01800 26.49200
C  42.58800 7.20000 25.07600
C  43.52700 8.33300 25.25900
C  43.68700 8.41900 26.78000
C  43.34600 5.87400 24.73900
C  42.96300 9.75700 24.75200
C  41.68400 10.41100 25.36300
N  43.92500 9.08700 29.62100
C  44.84800 9.49800 28.67400
C  45.80200 10.42100 29.24100
C  45.43100 10.47900 30.59600
C  44.27700 9.73300 30.79900
C  46.96500 11.17500 28.61600
C  45.71200 11.07200 31.90800
O  46.48800 11.97600 32.16600
C  44.68300 10.53000 32.95900
C  45.30200 9.98200 34.19500
O  46.08900 9.03200 34.26200
O  44.57000 10.42100 35.26100
C  44.61300 9.72500 36.56700
H  39.66400 5.76300 32.50300
H  40.39500 5.73800 26.03100
H  45.40100 9.60400 26.63400
H  42.81500 8.61500 34.67600
H  40.15500 7.76400 34.28300
H  41.96600 5.30800 33.99700
H  41.03500 5.99400 35.27500
H  42.72300 6.42400 35.11200
H  40.58900 10.53800 33.62200
H  42.21000 11.02600 34.23800
H  40.65400 9.28600 36.05300
H  39.66700 10.66100 35.57100
H  37.16600 4.50900 30.47300
H  38.44800 4.30700 31.80800
H  38.38700 3.19200 30.59000
H  36.41800 3.45900 26.67100
H  36.35000 4.47500 28.16300
H  37.32600 2.91300 28.14500
H  41.79900 7.58400 24.43000
H  44.52300 8.27700 24.81900
H  43.11800 5.01700 25.37300
H  44.41500 6.07200 24.65900
H  43.09700 5.64500 23.70300
H  42.75700 9.81700 23.68300
H  43.76700 10.49100 24.80000
H  41.37800 9.82900 26.23300
H  40.86500 10.27300 24.65800
H  41.78700 11.45800 25.64700
H  46.91700 12.22100 28.92100
H  47.06000 10.92700 27.55900
H  47.80400 10.68800 29.11200
H  44.22600 11.47300 33.25800
H  45.01500 8.72400 36.41200
H  43.63500 9.65700 37.04400
H  45.35000 10.26000 37.16500
Mg 41.25700 41.38400 27.00000
C  40.18900 43.66700 29.56900
C  42.18800 39.24800 29.52000
C  42.61500 39.61600 24.65300
C  40.70100 43.99800 24.70200
N  41.42500 41.58400 29.29800
C  40.74200 42.51800 30.11300
C  40.84300 42.08200 31.64300
C  41.60300 40.65500 31.56600
C  41.77900 40.49000 30.03700
C  42.94000 40.33800 32.26200
C  39.45700 41.99800 32.41900
C  39.43800 41.68300 33.87300
H  38.84900 42.75700 34.83000
N  42.17000 39.70200 27.06200
C  42.37500 38.85600 28.10200
C  42.98300 37.64300 27.61800
C  43.02100 37.69700 26.26700
C  42.65300 39.06500 25.92700
C  43.30900 36.46700 28.59900
C  43.32100 36.59500 25.25600
O  43.40900 36.78300 24.04900
C  43.62700 35.21200 25.70700
N  41.55500 41.69300 24.90200
C  42.22700 40.83200 24.10800
C  42.27900 41.27500 22.62000
C  41.55400 42.67300 22.76800
C  41.22900 42.78100 24.18000
C  43.71900 41.28500 22.11000
C  40.45100 43.00100 21.73000
C  38.91300 42.66300 22.02100
N  40.42200 43.34400 27.02300
C  40.32500 44.31000 26.03100
C  39.75900 45.55500 26.56100
C  39.74500 45.32200 27.94300
C  40.23600 43.99000 28.16900
C  39.37500 46.76600 25.88000
C  39.39200 45.97400 29.15800
O  38.97000 47.10700 29.37900
C  39.67300 44.96100 30.21200
C  40.50400 45.50200 31.32500
O  41.68700 45.84600 31.28200
O  39.63200 45.65600 32.46200
C  40.13400 46.44900 33.59200
H  42.53200 38.57100 30.30400
H  43.07500 39.00000 23.87800
H  40.55700 44.69200 23.87100
H  41.38200 42.71900 32.34400
H  40.84100 39.92900 31.85000
H  42.62400 39.49000 32.87000
H  43.16100 41.17700 32.92200
H  43.72100 39.98600 31.58800
H  38.92100 41.13300 32.02700
H  39.08200 42.99700 32.19900
H  40.47000 41.43400 34.12100
H  38.75500 40.84700 34.02000
H  42.98900 36.59500 29.63400
H  44.39100 36.33600 28.60600
H  42.84900 35.52600 28.29900
H  43.75900 34.55400 24.84800
H  42.82900 34.84500 26.35300
H  44.52100 35.25200 26.32900
H  41.62600 40.65100 22.00900
H  42.28600 43.47600 22.68500
H  43.81500 40.57600 21.28700
H  44.48500 41.01800 22.83700
H  44.12100 42.27500 21.89700
H  40.65400 42.41500 20.83300
H  40.63500 44.04700 21.48300
H  38.58500 42.05900 21.17500
H  38.29200 43.54900 21.88600
H  38.88400 42.15200 22.98300
H  38.46000 47.05400 26.39700
H  38.96000 46.47500 24.91500
H  40.08900 47.58300 25.77500
H  38.70700 44.77700 30.68200
H  40.57400 45.80900 34.35700
H  39.32300 47.09700 33.92200
H  40.96600 47.11700 33.36900

