158

Mg 17.07500 -1.26500 27.92100
C  16.12800 0.57400 30.61100
C  19.18000 -3.24600 29.87600
C  18.65500 -2.56900 25.06100
C  15.47000 1.08500 25.82000
N  17.64900 -1.23900 30.01900
C  16.95700 -0.53600 30.95600
C  17.46500 -0.95000 32.40300
C  18.64800 -1.79700 32.05600
C  18.45600 -2.19700 30.58900
C  20.07900 -1.23500 32.31800
C  16.31500 -1.64800 33.11400
C  16.05200 -1.44000 34.65800
H  17.04800 -0.57400 35.42500
N  18.58600 -2.74200 27.58400
C  19.22600 -3.56100 28.48000
C  20.00800 -4.57100 27.78700
C  19.93000 -4.30000 26.40800
C  18.99800 -3.13900 26.28500
C  20.82800 -5.60600 28.64400
C  20.71900 -4.90800 25.18200
O  20.46300 -4.61000 24.05400
C  21.69200 -5.97300 25.34600
N  16.94500 -0.94700 25.78000
C  17.75500 -1.52900 24.81300
C  17.61600 -0.88500 23.38000
C  16.39700 0.13300 23.64500
C  16.23500 0.07000 25.20100
C  18.91300 -0.33800 22.73800
C  15.06600 -0.22900 22.89100
C  13.91500 -0.97600 23.58200
N  15.79900 0.38300 28.10800
C  15.30900 1.25600 27.21000
C  14.66800 2.42000 27.90900
C  14.93600 2.14400 29.25700
C  15.72200 0.94100 29.33000
C  13.89900 3.51100 27.28400
C  14.73800 2.52400 30.63000
O  14.08100 3.50000 31.02500
C  15.42300 1.53600 31.61400
C  16.28100 2.34100 32.49100
O  17.46600 2.59600 32.29300
O  15.54300 2.68800 33.52000
C  16.00000 3.72100 34.43000
H  19.91400 -3.84400 30.42000
H  19.09400 -2.81200 24.09100
H  15.16800 1.85800 25.11100
H  17.63200 0.05500 32.79100
H  18.69000 -2.72500 32.62700
H  20.78000 -1.28100 31.48400
H  20.49500 -1.82500 33.13400
H  20.04700 -0.17500 32.56900
H  16.36000 -2.70300 32.84300
H  15.39200 -1.25000 32.69200
H  15.99000 -2.46100 35.03400
H  15.10100 -0.91900 34.76800
H  20.43200 -5.71900 29.65300
H  21.84900 -5.24400 28.77000
H  20.85000 -6.62800 28.26300
H  21.44300 -6.66300 26.15200
H  22.70400 -5.56700 25.34100
H  21.58000 -6.67500 24.52000
H  17.29300 -1.72700 22.76800
H  16.77000 1.11800 23.36300
H  18.81600 0.69800 22.41500
H  19.23300 -0.86700 21.84000
H  19.70300 -0.48100 23.47700
H  15.25200 -0.44700 21.83900
H  14.62700 0.76900 22.88600
H  13.23900 -0.34000 24.15400
H  14.32000 -1.69000 24.29900
H  13.40200 -1.67500 22.92200
H  14.27800 3.84700 26.31900
H  13.95800 4.42300 27.87800
H  12.84000 3.25400 27.26400
H  14.67900 1.07700 32.26500
H  16.64800 4.42500 33.90900
H  16.43200 3.15600 35.25600
H  15.11800 4.25300 34.78700
Mg 55.16400 23.56400 44.51900
C  52.48900 25.59100 43.41300
C  53.37000 20.81900 43.37100
C  57.95700 21.77300 44.75800
C  56.82300 26.40400 45.71600
N  53.25100 23.28700 43.36200
C  52.26400 24.26100 43.11200
C  50.98700 23.59400 42.71600
C  51.16100 22.03200 42.89500
C  52.64000 21.99300 43.27400
C  50.18100 21.34900 43.95800
C  50.58400 23.90900 41.24200
C  49.06500 23.90200 41.09500
H  48.41000 23.63400 39.72700
N  55.62300 21.57900 44.07100
C  54.76300 20.58200 43.64200
C  55.49500 19.37000 43.50400
C  56.89000 19.62700 43.70600
C  56.90200 21.00300 44.25600
C  54.90500 18.05000 43.00600
C  57.98900 18.68800 43.47700
O  57.70100 17.53300 43.23000
C  59.38200 19.01100 43.62600
N  57.14600 24.09200 45.25100
C  58.11200 23.12400 45.19300
C  59.45300 23.73800 45.63700
C  59.16200 25.22800 46.03600
C  57.65200 25.26000 45.70900
C  60.30000 22.97900 46.65100
C  60.02200 26.25600 45.25400
C  60.72000 27.36300 45.86800
N  54.78400 25.55700 44.53700
C  55.53400 26.59100 45.12700
C  54.80500 27.79100 44.95600
C  53.61700 27.39300 44.35400
C  53.66200 26.05700 44.05800
C  55.21500 29.13600 45.36500
C  52.40400 27.98400 43.89900
O  52.06600 29.16700 43.99200
C  51.61400 26.84500 43.19500
C  51.44900 27.26200 41.76000
O  52.38300 27.45600 41.00600
O  50.05300 27.20300 41.39400
C  49.77700 27.30300 39.96700
H  52.73800 19.93100 43.30400
H  58.88300 21.19500 44.76200
H  57.25900 27.37200 45.96800
H  50.10300 23.87800 43.28600
H  50.98400 21.44900 41.99100
H  50.67200 21.00500 44.86900
H  49.77700 20.44400 43.50600
H  49.51900 22.13800 44.31700
H  51.04700 23.18400 40.57300
H  50.90900 24.89500 40.90900
H  48.80900 24.92300 41.37900
H  48.58800 23.29000 41.86000
H  55.34200 17.86400 42.02500
H  53.87100 18.08300 42.66300
H  55.07100 17.21700 43.69000
H  59.75100 19.80600 42.97800
H  60.04300 18.16000 43.46200
H  59.50300 19.26400 44.67900
H  60.16100 23.60500 44.81900
H  59.28200 25.45800 47.09400
H  60.66600 23.51700 47.52500
H  61.22500 22.62500 46.19700
H  59.64900 22.21000 47.06900
H  59.34200 26.59300 44.47100
H  60.77700 25.77700 44.63200
H  61.78400 27.15700 45.75300
H  60.50400 27.40500 46.93500
H  60.48200 28.31600 45.39600
H  56.12500 29.37600 44.81600
H  55.31700 29.20800 46.44800
H  54.49700 29.93600 45.18400
H  50.61700 26.68200 43.60500
H  48.75200 26.97100 39.79800
H  50.57000 26.77900 39.43400
H  49.74300 28.36000 39.70300

