158

Mg 24.55600 -5.48700 45.71300
C  26.64700 -3.11200 44.22300
C  21.99000 -4.41100 43.52900
C  22.69900 -8.10400 46.68800
C  27.34500 -6.88800 47.29900
N  24.36800 -3.99400 44.14200
C  25.37600 -3.10100 43.68000
C  24.94400 -2.37200 42.44200
C  23.39000 -2.48900 42.50200
C  23.20500 -3.73500 43.43300
C  22.63900 -1.23000 42.92400
C  25.79300 -2.98700 41.19400
C  26.67300 -2.11600 40.38200
H  26.26500 -1.98300 38.89700
N  22.57300 -6.10400 45.26100
C  21.70100 -5.50300 44.37200
C  20.43300 -6.19000 44.46300
C  20.61200 -7.36500 45.30000
C  22.01600 -7.19600 45.83800
C  19.24000 -5.74400 43.64000
C  19.52300 -8.48800 45.52800
O  18.41600 -8.33300 45.23600
C  19.90000 -9.84000 46.20400
N  25.02500 -7.15200 46.91600
C  24.06200 -8.06100 47.19400
C  24.68600 -9.27600 47.88900
C  26.13900 -8.86100 48.28800
C  26.18500 -7.58000 47.41200
C  23.87300 -9.87800 48.99500
C  27.20800 -9.95300 47.83500
C  28.33100 -10.14300 48.92000
N  26.57500 -4.98800 45.96100
C  27.57800 -5.66100 46.62700
C  28.81300 -4.84800 46.44100
C  28.45000 -3.87600 45.49500
C  27.11000 -3.95700 45.32400
C  30.10200 -5.20700 47.05100
C  29.00800 -2.77000 44.73400
O  30.16100 -2.33900 44.59700
C  27.80100 -2.27200 43.81100
C  27.62900 -0.84800 44.08000
O  26.80100 -0.27300 44.78100
O  28.53600 -0.18600 43.27500
C  28.43200 1.24700 43.34800
H  21.22100 -4.12000 42.81000
H  22.18900 -9.03400 46.95000
H  28.24500 -7.33500 47.72800
H  25.17700 -1.31500 42.57600
H  23.06000 -2.85000 41.52800
H  23.07700 -0.31900 42.51500
H  22.76200 -1.23400 44.00700
H  21.55600 -1.26300 42.81100
H  25.05100 -3.32300 40.47000
H  26.35500 -3.86800 41.50500
H  27.68300 -2.49900 40.23900
H  26.72500 -1.08800 40.74100
H  19.18900 -6.17000 42.63800
H  19.22000 -4.68300 43.39100
H  18.34300 -6.04900 44.18000
H  19.05100 -10.52100 46.15500
H  20.19500 -9.60800 47.22700
H  20.69200 -10.29100 45.60600
H  24.59600 -9.98500 47.06600
H  26.28100 -8.49200 49.30400
H  22.92400 -9.36800 49.16100
H  24.43000 -9.88000 49.93100
H  23.65500 -10.88100 48.62700
H  27.65400 -9.71200 46.87000
H  26.74200 -10.93300 47.73000
H  29.31400 -9.78200 48.61700
H  28.36100 -11.18500 49.23800
H  28.10100 -9.56400 49.81400
H  30.43300 -6.16100 46.64100
H  29.98200 -5.34200 48.12500
H  30.87300 -4.45400 46.88600
H  28.05600 -2.36000 42.75500
H  29.32000 1.69700 42.90400
H  28.38700 1.63500 44.36600
H  27.55500 1.47100 42.74100
Mg 41.04100 41.77700 26.46900
C  40.36400 43.87500 29.26000
C  42.50500 39.65500 28.54100
C  42.06600 40.05500 23.71200
C  39.83300 44.34100 24.42400
N  41.39200 41.76700 28.68000
C  40.84800 42.63600 29.60700
C  40.97600 42.09900 31.01300
C  41.91600 40.84000 30.75700
C  41.93100 40.68400 29.23700
C  43.38600 40.92000 31.22700
C  39.65500 41.92100 31.82700
C  39.80900 41.26800 33.25000
H  39.00000 41.87800 34.34400
N  42.06700 40.08800 26.21500
C  42.58000 39.32000 27.16100
C  43.08000 38.09000 26.58800
C  42.87000 38.19800 25.20500
C  42.35800 39.50600 24.97800
C  43.68100 36.96900 27.38700
C  43.09300 37.14500 24.19300
O  42.84800 37.25200 23.00600
C  43.67200 35.82400 24.62400
N  40.90700 42.12700 24.40100
C  41.44000 41.29000 23.44700
C  41.25400 41.87100 22.01400
C  40.18700 43.02600 22.30000
C  40.27600 43.21600 23.78000
C  42.65200 42.38400 21.41100
C  38.70400 42.77300 21.84200
C  38.13900 41.46700 22.25400
N  40.26400 43.71300 26.68800
C  39.87800 44.65500 25.78900
C  39.62700 45.88700 26.43400
C  39.74200 45.62600 27.78700
C  40.15800 44.27700 27.92200
C  39.21400 47.14200 25.79100
C  39.63400 46.23100 29.09200
O  39.35600 47.31500 29.44200
C  40.02000 45.13300 30.13600
C  41.16600 45.57600 31.02000
O  42.31800 45.66000 30.64800
O  40.81200 45.87400 32.26000
C  41.92800 46.19800 33.20100
H  42.67500 38.81000 29.21100
H  42.29000 39.47800 22.81300
H  39.44000 45.17600 23.84000
H  41.62800 42.84800 31.46300
H  41.41700 39.96800 31.17700
H  44.16700 40.86900 30.46800
H  43.46700 40.10800 31.94900
H  43.47100 41.81600 31.84300
H  39.02500 41.34800 31.14700
H  39.18200 42.88000 32.04200
H  40.87900 41.27800 33.46000
H  39.48400 40.23000 33.17700
H  44.48000 36.59900 26.74400
H  42.88700 36.28700 27.69100
H  44.21200 37.42600 28.22200
H  43.21300 35.34000 25.48600
H  44.75700 35.91900 24.68100
H  43.56000 35.19300 23.74200
H  40.78400 41.11400 21.38600
H  40.57900 43.93500 21.84300
H  42.65900 43.47300 21.36300
H  42.82100 41.99200 20.40800
H  43.49600 42.13800 22.05600
H  38.60300 42.89700 20.76400
H  38.01100 43.53900 22.19100
H  37.12500 41.52800 22.64800
H  38.65700 40.97600 23.07800
H  38.18300 40.87200 21.34200
H  39.74200 47.22500 24.84100
H  39.44400 48.00800 26.41100
H  38.13900 47.28600 25.68800
H  39.17500 44.93900 30.79700
H  42.54600 46.96000 32.72700
H  42.40700 45.22700 33.32600
H  41.48000 46.63300 34.09400

