158

Mg 47.38700 16.57900 28.35600
C  45.48500 16.58900 31.35400
C  49.70000 18.57700 29.89000
C  48.92600 17.12900 25.42500
C  44.53600 15.31100 26.73500
N  47.50100 17.54500 30.34900
C  46.72300 17.23000 31.42800
C  47.32000 17.73800 32.80600
C  48.52800 18.59200 32.25200
C  48.60500 18.23600 30.74200
C  48.50300 20.13500 32.48200
C  47.84100 16.58500 33.81600
C  47.86100 16.94700 35.27600
H  47.40300 18.35300 35.62300
N  49.16100 17.56400 27.76400
C  50.00500 18.26600 28.57400
C  51.10100 18.78200 27.78200
C  50.99100 18.31100 26.50200
C  49.68500 17.59700 26.49100
C  52.24300 19.53400 28.52600
C  51.83100 18.50000 25.23000
O  51.49600 18.02500 24.14700
C  53.06800 19.24500 25.27000
N  46.87600 16.08100 26.35600
C  47.65600 16.45400 25.32100
C  46.99200 16.18400 23.95700
C  45.67400 15.37400 24.42700
C  45.67600 15.50500 25.91000
C  46.66100 17.50600 23.14300
C  45.52400 13.94600 23.77400
C  44.63200 13.87100 22.45800
N  45.42400 16.00900 28.90100
C  44.38600 15.51200 28.12700
C  43.25600 15.18000 29.02200
C  43.67100 15.56900 30.26700
C  44.98000 16.03400 30.14900
C  42.00500 14.67300 28.67800
C  43.22100 15.80000 31.62800
O  42.07700 15.65600 32.08900
C  44.37200 16.40200 32.43800
C  43.85300 17.69000 33.01500
O  44.12700 18.89400 32.66400
O  43.05200 17.33300 34.10300
C  42.53400 18.48000 34.92200
H  50.46400 19.18900 30.37400
H  49.36600 17.20200 24.42800
H  43.68500 14.88500 26.19900
H  46.62200 18.47500 33.20300
H  49.44000 18.27000 32.75400
H  47.52700 20.47800 32.82800
H  48.77600 20.62300 31.54700
H  49.35900 20.36700 33.11600
H  48.84100 16.31700 33.47700
H  47.10300 15.78300 33.78200
H  48.80500 16.69000 35.75500
H  47.17000 16.21800 35.70000
H  52.75400 18.72500 29.04600
H  51.83700 20.23500 29.25600
H  52.92300 20.08400 27.87500
H  53.40700 19.37900 24.24300
H  53.79700 18.67000 25.84200
H  52.87600 20.18200 25.79300
H  47.57300 15.50000 23.33800
H  44.78200 15.88100 24.06000
H  45.60900 17.78200 23.08100
H  46.98300 17.27500 22.12700
H  47.22100 18.40200 23.41000
H  45.04900 13.18500 24.39300
H  46.56200 13.63200 23.66700
H  44.82000 12.91200 21.97500
H  45.01700 14.53500 21.68400
H  43.55300 13.91500 22.61000
H  41.97700 14.68300 27.58800
H  41.12400 15.05300 29.19400
H  42.17400 13.62300 28.91700
H  44.63400 15.70500 33.23400
H  43.07500 18.56500 35.86500
H  41.48100 18.33600 35.16500
H  42.52600 19.42100 34.37200
Mg 47.78700 25.80100 29.18200
C  48.67000 28.06300 31.77400
C  46.53000 23.69700 31.37200
C  47.37100 23.50400 26.63000
C  49.24300 27.89700 26.89500
N  47.70700 25.81800 31.35500
C  47.95500 26.94900 32.24900
C  47.35300 26.69500 33.65000
C  46.85600 25.20300 33.51300
C  46.95900 24.88900 31.96000
C  47.84400 24.23000 34.24600
C  46.13800 27.70300 33.85500
C  46.41300 28.71300 34.93500
H  45.51400 28.82100 36.20400
N  46.94300 23.87700 29.02500
C  46.49500 23.21700 30.05400
C  45.88100 21.99600 29.61200
C  46.31000 21.81000 28.28000
C  46.84500 23.10200 27.86900
C  45.19400 20.98700 30.50600
C  46.23000 20.62100 27.29300
O  46.70000 20.68800 26.14800
C  45.62000 19.27600 27.65600
N  48.30400 25.65800 27.03700
C  48.01300 24.67500 26.23400
C  48.39600 25.02400 24.75100
C  48.95300 26.41100 24.92900
C  48.85600 26.67000 26.38300
C  49.33100 24.06500 23.98600
C  48.19200 27.61200 24.25000
C  48.95600 28.79800 23.62200
N  48.73300 27.61300 29.26000
C  49.35700 28.33300 28.20600
C  49.99600 29.53000 28.70100
C  49.67900 29.48200 30.08400
C  49.01000 28.26700 30.36800
C  50.69600 30.69300 27.96700
C  49.70500 30.20800 31.31700
O  50.15800 31.32500 31.53400
C  49.01300 29.36500 32.42100
C  50.02800 29.17800 33.54000
O  51.00600 28.47900 33.54500
O  49.69400 30.00600 34.59700
C  50.31600 29.75600 35.89700
H  46.14500 23.02700 32.14300
H  47.19200 22.89900 25.73800
H  49.71500 28.62800 26.23600
H  48.13900 26.76400 34.40100
H  45.83400 25.14200 33.88700
H  47.41100 23.88500 35.18500
H  48.80000 24.70800 34.46000
H  48.14100 23.33500 33.69900
H  45.18700 27.25700 34.14700
H  45.91400 28.24100 32.93400
H  46.42800 29.71700 34.51000
H  47.43000 28.57600 35.30300
H  45.95800 20.22400 30.65200
H  44.38400 20.52100 29.94400
H  44.89000 21.33400 31.49300
H  45.65900 19.07200 28.72600
H  46.19200 18.50200 27.14500
H  44.55200 19.32300 27.44100
H  47.44600 25.22700 24.25800
H  50.01000 26.55900 24.70900
H  49.76600 23.43100 24.75800
H  50.09300 24.55400 23.37900
H  48.81100 23.52200 23.19700
H  47.52000 28.07000 24.97500
H  47.55100 27.23000 23.45600
H  48.50000 29.74700 23.90400
H  48.90300 28.82800 22.53400
H  50.00100 28.80300 23.93300
H  51.14300 31.33700 28.72500
H  49.94700 31.25000 27.40400
H  51.44200 30.37000 27.24100
H  48.20400 29.92000 32.89600
H  49.50600 29.47100 36.56900
H  50.77600 30.62600 36.36300
H  50.97200 28.88700 35.94100

