158

Mg 8.77000 3.33800 27.83000
C  10.11500 2.01300 30.66500
C  7.22100 5.75300 29.70200
C  7.04500 4.34100 25.05400
C  10.06300 0.65500 26.01800
N  8.79100 3.88100 29.93900
C  9.47100 3.25700 30.92400
C  9.26900 3.83400 32.35800
C  8.31900 5.01300 32.05900
C  8.10500 4.93800 30.49100
C  7.03200 5.13700 32.88700
C  10.63600 4.22400 33.07300
C  10.51100 5.26600 34.19400
H  11.22800 4.87700 35.50400
N  7.40800 4.92900 27.40200
C  6.88400 5.76200 28.34600
C  6.05400 6.74900 27.69600
C  5.98600 6.41900 26.32500
C  6.78400 5.16100 26.16000
C  5.43800 7.99800 28.28900
C  5.16700 7.03500 25.24500
O  5.34400 6.77200 24.06100
C  4.08500 8.15600 25.58000
N  8.53200 2.61300 25.84400
C  7.79900 3.21900 24.89500
C  7.89400 2.42300 23.59400
C  9.05300 1.50700 23.81700
C  9.24900 1.55700 25.34900
C  6.58300 1.62600 23.15800
C  10.36200 1.88700 23.02000
C  11.32600 0.72400 22.82500
N  10.04000 1.73800 28.17100
C  10.38300 0.71200 27.39300
C  11.16400 -0.24400 28.18400
C  11.07700 0.25900 29.43900
C  10.31200 1.41400 29.38000
C  11.75900 -1.56300 27.78100
C  11.57200 -0.02200 30.78700
O  12.40100 -0.81200 31.17400
C  10.94100 1.11600 31.60200
C  10.25900 0.51800 32.80300
O  9.21300 -0.12200 32.73200
O  11.09800 0.84200 33.89400
C  10.50000 0.23700 35.10100
H  6.80100 6.62800 30.20300
H  6.45200 4.65500 24.19200
H  10.44800 -0.24100 25.52700
H  8.74600 3.07300 32.93800
H  8.77800 5.99000 32.20900
H  6.14700 5.01200 32.26400
H  7.00600 6.13200 33.33100
H  6.87300 4.43300 33.70400
H  11.27400 4.59800 32.27100
H  11.08000 3.36300 33.57100
H  9.45500 5.33300 34.45700
H  10.78300 6.20800 33.71800
H  6.04400 8.34900 29.12400
H  4.41800 7.74900 28.58000
H  5.41900 8.90700 27.68900
H  3.62900 7.89400 26.53500
H  3.55700 8.31900 24.64000
H  4.70900 9.04300 25.68200
H  8.11200 3.19200 22.85200
H  8.88000 0.47400 23.51400
H  5.74700 2.25200 22.84500
H  6.26600 0.92900 23.93300
H  6.78100 0.96700 22.31200
H  10.92400 2.62400 23.59500
H  10.18200 2.38300 22.06600
H  12.00300 0.70800 23.67900
H  11.87700 0.95900 21.91400
H  10.73400 -0.19000 22.78600
H  11.43100 -1.97000 26.82500
H  11.58900 -2.37500 28.48900
H  12.83900 -1.42500 27.73500
H  11.73000 1.77100 31.97100
H  9.88800 -0.63300 34.86600
H  9.98300 0.98000 35.70800
H  11.26500 -0.20000 35.74400
Mg 34.90900 49.67200 25.78900
C  35.03500 47.86700 28.87900
C  33.94300 52.31900 27.38700
C  34.59100 50.95000 22.75200
C  35.39400 46.47700 24.22000
N  34.51000 50.01400 27.92800
C  34.69000 49.22700 28.98700
C  34.18000 49.92600 30.28400
C  33.77000 51.26600 29.72000
C  34.08600 51.26700 28.26200
C  32.28100 51.60800 29.88900
C  35.31200 50.05500 31.34200
C  35.04300 49.71200 32.86300
H  33.53000 49.69900 33.19900
N  34.49100 51.44900 25.13700
C  34.08900 52.41500 25.94000
C  33.86400 53.56300 25.13300
C  34.05500 53.14100 23.77100
C  34.42300 51.77900 23.83000
C  33.45000 54.83700 25.75700
C  33.83800 53.98100 22.48600
O  33.99300 53.59000 21.34700
C  33.39700 55.43900 22.55200
N  35.05600 48.81500 23.67900
C  34.88700 49.58900 22.64000
C  35.03200 48.81400 21.28300
C  35.26400 47.34200 21.75700
C  35.27300 47.52300 23.31800
C  33.69500 48.91200 20.46600
C  36.57700 46.75900 21.17300
C  37.88500 46.95200 21.88300
N  35.26900 47.65300 26.33900
C  35.43700 46.53600 25.60500
C  35.71300 45.38400 26.40700
C  35.52700 45.86700 27.69500
C  35.21200 47.22900 27.63600
C  36.01200 43.96000 26.01000
C  35.44300 45.47900 29.06000
O  35.64500 44.39700 29.56300
C  35.13700 46.73700 29.94200
C  33.90600 46.42200 30.74800
O  32.77000 46.55400 30.44800
O  34.27500 45.72100 31.90700
C  33.14200 45.14100 32.66700
H  33.55000 53.21600 27.87100
H  34.41800 51.33600 21.74500
H  35.65000 45.57600 23.65900
H  33.31800 49.30100 30.51500
H  34.35300 52.03500 30.22700
H  31.76100 51.41000 28.95200
H  32.19100 52.65700 30.17100
H  31.84800 51.08400 30.74100
H  35.79400 51.02500 31.22600
H  36.13700 49.37200 31.13900
H  35.59200 50.41600 33.48800
H  35.42600 48.70400 33.02500
H  33.60200 54.95500 26.83000
H  32.41600 54.93700 25.42900
H  34.02700 55.64200 25.30200
H  34.26600 56.04700 22.80600
H  32.68500 55.57500 23.36500
H  32.84000 55.81700 21.69500
H  35.91800 49.25100 20.82400
H  34.43900 46.65200 21.57600
H  32.96400 49.57000 20.93600
H  33.20400 47.97200 20.21100
H  33.93700 49.51900 19.59400
H  36.58200 47.30200 20.22800
H  36.37700 45.72600 20.89100
H  38.02200 45.96300 22.32100
H  37.88000 47.57300 22.77900
H  38.60500 47.36000 21.17400
H  35.13500 43.41300 25.66400
H  36.37800 43.35300 26.83800
H  36.76300 43.94800 25.22000
H  36.01600 46.95600 30.54900
H  32.66800 44.35500 32.07800
H  32.38600 45.87400 32.94800
H  33.63600 44.71100 33.53900

