158

Mg 47.20200 16.20800 28.54700
C  44.88700 16.13800 31.23500
C  49.16400 18.37200 30.53300
C  48.92200 17.02300 25.84400
C  44.61600 15.14800 26.56800
N  47.04300 17.06300 30.71100
C  46.07100 16.79800 31.60100
C  46.37100 17.41100 32.97000
C  47.67900 18.21400 32.67700
C  48.05600 17.87300 31.21900
C  47.53000 19.82300 32.85000
C  46.52600 16.22600 34.03900
C  46.03900 16.49800 35.46900
H  45.80500 18.01400 35.90700
N  48.97900 17.30300 28.28600
C  49.58800 18.13700 29.23400
C  50.73200 18.72000 28.53300
C  50.74400 18.32600 27.21000
C  49.48800 17.49300 27.03200
C  51.98100 19.47900 29.29400
C  51.70300 18.69000 26.03300
O  51.54400 18.19600 24.85300
C  52.65600 19.71900 26.28200
N  46.76700 16.23600 26.52400
C  47.70400 16.39500 25.59200
C  47.22500 16.14900 24.16100
C  45.97000 15.34200 24.47000
C  45.74200 15.61600 25.89100
C  46.99600 17.46300 23.33400
C  45.97800 13.92100 23.91800
C  46.77500 12.86000 24.72700
N  45.25800 15.37800 28.80200
C  44.27300 15.09900 27.89300
C  43.13200 14.49600 28.60100
C  43.30600 14.98200 29.87600
C  44.61400 15.57600 29.96900
C  41.81000 13.95300 28.16000
C  42.66600 15.04800 31.18700
O  41.53800 14.68200 31.56600
C  43.64800 15.74400 32.12200
C  42.92200 17.00300 32.74600
O  42.86400 18.03800 32.12400
O  42.50800 16.82000 34.05000
C  41.76700 17.95900 34.61200
H  49.84800 19.05400 31.04300
H  49.49200 17.18100 24.92600
H  43.79300 14.67000 26.03200
H  45.54400 18.06200 33.25300
H  48.57000 17.94500 33.24400
H  46.59400 20.01800 33.37400
H  47.33100 20.24100 31.86300
H  48.47900 20.08800 33.31500
H  47.57500 15.93100 34.06100
H  46.00400 15.36400 33.62300
H  46.79800 16.06800 36.12200
H  45.09200 15.97100 35.59300
H  51.82800 19.21300 30.34000
H  52.09900 20.54300 29.08900
H  52.87800 18.97800 28.92900
H  52.02600 20.54000 26.62300
H  53.02400 19.95600 25.28300
H  53.48200 19.37100 26.90100
H  47.99600 15.54400 23.68400
H  45.16300 15.81400 23.90900
H  47.84800 17.65200 22.68100
H  46.94300 18.32300 24.00100
H  46.06300 17.47400 22.77100
H  46.31100 14.00800 22.88400
H  44.95300 13.55100 23.88900
H  47.15200 13.33700 25.63100
H  47.55100 12.42800 24.09500
H  46.09700 12.05200 25.00200
H  41.84100 12.89800 28.43100
H  41.55600 14.19200 27.12700
H  41.03100 14.46000 28.72900
H  43.96200 15.06400 32.91400
H  40.86700 18.02300 34.00000
H  42.30300 18.90800 34.63800
H  41.33900 17.63400 35.56000
Mg 48.21100 45.53700 43.17100
C  44.78200 45.35800 41.94900
C  48.23900 42.11500 42.67900
C  51.44000 45.80800 43.52600
C  47.85100 49.02500 42.96000
N  46.67600 43.88800 42.22700
C  45.31700 44.07300 42.04500
C  44.53500 42.70800 41.79500
C  45.66000 41.74100 42.28400
C  46.92100 42.62200 42.44200
C  45.19000 41.07400 43.58700
C  44.11900 42.58400 40.29600
C  45.21200 42.64400 39.15900
H  45.01100 43.64900 38.03200
N  49.68900 44.13000 43.04600
C  49.48300 42.80400 42.93200
C  50.78900 42.19400 43.12600
C  51.73300 43.16800 43.41400
C  51.01000 44.43400 43.41700
C  51.04100 40.65200 43.01200
C  53.19900 42.94100 43.52800
O  53.65000 41.84400 43.32900
C  54.08500 44.03400 43.91800
N  49.46100 47.14900 43.23700
C  50.79900 47.01800 43.48600
C  51.48200 48.35700 43.27500
C  50.32200 49.38300 43.24200
C  49.12600 48.45400 43.11400
C  52.69500 48.73000 44.18200
C  50.41700 50.48400 42.11000
C  50.25200 51.92900 42.52400
N  46.60700 46.95800 42.78800
C  46.60400 48.36000 42.81700
C  45.25400 48.87800 42.47100
C  44.54600 47.69300 42.09500
C  45.44600 46.56000 42.24000
C  44.81300 50.28700 42.26600
C  43.27800 47.29900 41.54700
O  42.25700 47.86800 41.18400
C  43.36900 45.74600 41.39900
C  42.22700 45.11500 42.16600
O  41.35000 44.43300 41.66900
O  42.55200 45.15600 43.52500
C  41.56700 44.36200 44.35000
H  48.30900 41.03200 42.80200
H  52.51700 45.94900 43.41600
H  47.67000 50.09400 43.09600
H  43.63200 42.74200 42.40500
H  45.83900 40.89400 41.62100
H  44.17400 41.37900 43.83800
H  45.86000 41.24100 44.43000
H  45.11000 39.98900 43.51600
H  43.31300 43.28100 40.06700
H  43.67000 41.59500 40.20300
H  45.27600 41.62400 38.78100
H  46.20300 42.69700 39.61000
H  51.41900 40.20600 43.93200
H  51.76600 40.45800 42.22200
H  50.09900 40.15900 42.77200
H  55.08000 43.82600 44.31100
H  53.47300 44.52500 44.67500
H  54.19200 44.60700 42.99700
H  51.82200 48.28100 42.24200
H  50.30900 49.96400 44.16400
H  52.57900 49.68400 44.69800
H  53.57100 48.87000 43.54800
H  52.92100 48.01700 44.97500
H  49.62700 50.34200 41.37200
H  51.40600 50.43300 41.65400
H  49.77100 51.91600 43.50300
H  49.59600 52.36800 41.77200
H  51.19000 52.48300 42.55200
H  43.74800 50.32300 42.04000
H  45.51100 50.64900 41.51000
H  44.90700 50.81800 43.21300
H  43.14300 45.60400 40.34200
H  40.51100 44.42500 44.08600
H  41.71500 44.45400 45.42600
H  41.95700 43.35800 44.18800

