158

Mg 41.97600 40.60800 27.00400
C  41.28000 42.93400 29.32300
C  43.17300 38.40700 29.38900
C  42.17000 38.32300 24.57000
C  41.46200 43.03400 24.51300
N  42.13000 40.61000 29.10400
C  41.71600 41.68900 29.85900
C  41.85800 41.30800 31.35200
C  42.66500 39.93900 31.38300
C  42.73500 39.64000 29.87600
C  44.03100 39.92200 32.21800
C  40.50800 41.22200 32.10900
C  40.18000 42.15300 33.22800
H  39.74000 41.71500 34.61900
N  42.53900 38.62000 26.94700
C  42.98800 37.86600 28.05500
C  43.18600 36.51700 27.62100
C  42.92900 36.44500 26.26500
C  42.52100 37.82500 25.85800
C  43.62800 35.46100 28.52500
C  43.10500 35.26300 25.18300
O  42.81500 35.36700 23.95300
C  43.49500 33.90500 25.61600
N  41.98600 40.73000 24.79300
C  41.90200 39.62600 24.05200
C  41.55100 39.92500 22.60000
C  41.34700 41.39100 22.58400
C  41.63800 41.77200 24.01400
C  42.57500 39.38600 21.60400
C  40.02800 41.99500 21.96000
C  40.27600 43.11600 20.89800
N  41.52700 42.56700 26.87900
C  41.30300 43.41400 25.80900
C  40.96400 44.72800 26.30500
C  40.87200 44.58300 27.71700
C  41.27700 43.32600 27.99700
C  40.72500 45.95900 25.54500
C  40.49500 45.27600 28.95400
O  40.09200 46.42200 29.18000
C  40.83800 44.24300 30.04300
C  41.81400 44.71200 31.05700
O  42.99300 44.76800 30.89700
O  41.12600 45.24400 32.09400
C  41.80600 45.55500 33.35100
H  43.39600 37.76200 30.24200
H  42.12000 37.65500 23.70800
H  41.17300 43.68800 23.68700
H  42.40200 42.16000 31.75900
H  42.01000 39.15700 31.76700
H  43.74400 39.20400 32.98700
H  44.30400 40.86900 32.68500
H  44.86300 39.62400 31.57900
H  40.29000 40.19200 32.38800
H  39.83100 41.42800 31.28000
H  39.22000 42.54800 32.89400
H  40.82800 43.02800 33.27100
H  42.96000 34.61700 28.35300
H  43.65800 35.65900 29.59600
H  44.63500 35.17200 28.22500
H  42.70200 33.60300 26.30000
H  44.51100 33.87900 26.00800
H  43.43600 33.25900 24.74000
H  40.57500 39.49300 22.37900
H  42.12700 41.82800 21.96000
H  43.27600 38.71300 22.09900
H  43.08500 40.21900 21.11900
H  41.97000 38.89200 20.84400
H  39.42800 42.32900 22.80700
H  39.46100 41.22200 21.44300
H  39.94100 42.81800 19.90400
H  41.34100 43.32300 20.78800
H  39.53400 43.85700 21.19300
H  39.70000 45.92200 25.17600
H  41.47900 45.96800 24.75900
H  40.80500 46.87200 26.13600
H  39.92500 44.08000 30.61700
H  42.32900 46.51100 33.36800
H  42.45000 44.71800 33.62300
H  40.94000 45.53900 34.01200
Mg 16.96100 51.78300 26.32300
C  18.73200 50.49000 29.03300
C  14.49700 52.77500 28.53000
C  14.91100 52.48700 23.69400
C  19.16700 50.18900 24.17900
N  16.73200 51.54000 28.53400
C  17.60100 51.10400 29.51400
C  17.11200 51.56200 30.95700
C  15.62500 51.87300 30.64900
C  15.65300 52.19000 29.13600
C  14.64100 50.69700 31.02700
C  17.87400 52.78000 31.50000
C  18.21800 52.61400 33.00900
H  17.19500 51.80900 33.86200
N  15.08100 52.62300 26.16700
C  14.24200 52.99100 27.17600
C  12.97600 53.63400 26.62700
C  13.14900 53.58100 25.21500
C  14.35300 52.82500 24.95100
C  11.93400 54.28900 27.44300
C  12.24500 54.16200 24.06700
O  12.47500 54.12400 22.91900
C  10.88900 54.80400 24.47800
N  17.03200 51.52700 24.24400
C  16.14500 51.94800 23.33200
C  16.59100 51.78400 21.94300
C  17.96400 51.05500 22.07700
C  18.06300 50.83800 23.59400
C  15.62800 50.88700 21.12800
C  19.16800 51.81300 21.43400
C  20.37500 50.85100 20.91900
N  18.72200 50.71300 26.48300
C  19.55300 50.06700 25.56300
C  20.66300 49.41200 26.21800
C  20.41800 49.62600 27.55000
C  19.15900 50.31800 27.69600
C  21.79400 48.59300 25.69000
C  20.88200 49.29200 28.85000
O  21.87400 48.64500 29.16500
C  19.88300 49.86900 29.82900
C  19.47100 48.80000 30.85600
O  18.96600 47.69400 30.60900
O  19.82400 49.26600 32.13500
C  19.57400 48.48100 33.40500
H  13.76600 53.10600 29.27100
H  14.17300 52.47600 22.88900
H  19.86800 49.58800 23.59600
H  17.28500 50.67000 31.55900
H  15.26200 52.72400 31.22500
H  15.06100 50.11900 31.84900
H  14.55100 50.13300 30.09800
H  13.67600 51.03900 31.40200
H  17.37500 53.72700 31.29500
H  18.86700 52.77500 31.05100
H  18.25900 53.61200 33.44700
H  19.22700 52.22300 33.14100
H  12.14600 54.31900 28.51200
H  11.10900 53.57700 27.46400
H  11.69600 55.27200 27.03500
H  10.95500 55.78600 24.94800
H  10.39000 54.02200 25.05000
H  10.42200 54.80100 23.49300
H  16.72400 52.72900 21.41700
H  17.97800 50.07100 21.61000
H  14.86300 50.40300 21.73500
H  16.20300 50.24900 20.45700
H  15.08700 51.47600 20.38700
H  19.68900 52.44400 22.15400
H  18.91100 52.31300 20.50000
H  20.28900 49.86900 21.38400
H  21.32400 51.33200 21.15700
H  20.30900 50.80300 19.83200
H  22.43500 49.39200 25.31600
H  21.47600 47.95000 24.86900
H  22.14400 47.95300 26.49900
H  20.42200 50.62800 30.39700
H  18.55100 48.14500 33.23400
H  19.57000 49.12800 34.28200
H  20.31400 47.68100 33.43300

