158

Mg 40.41000 41.62400 27.57900
C  39.95400 44.06100 30.02000
C  41.10800 39.35000 29.97900
C  41.47500 39.37300 25.16500
C  40.43100 44.08700 25.19100
N  40.65200 41.80400 29.77100
C  40.27300 42.84100 30.58800
C  40.05400 42.42100 32.07800
C  40.67000 40.98300 32.07100
C  40.83000 40.66600 30.50300
C  41.92100 40.81500 33.01400
C  38.60600 42.52600 32.61200
C  38.44300 41.70700 33.85800
H  37.84800 42.36800 35.09900
N  41.16000 39.64500 27.54500
C  41.27800 38.83800 28.63300
C  41.60700 37.51000 28.33600
C  41.80000 37.43900 26.88200
C  41.44100 38.88600 26.45400
C  41.79600 36.44200 29.37800
C  42.14000 36.34700 25.95500
O  42.20300 36.50000 24.74100
C  42.35800 34.98200 26.39000
N  41.15900 41.78300 25.43900
C  41.33700 40.72700 24.64700
C  41.37500 41.08100 23.21400
C  40.80300 42.56700 23.22200
C  40.79700 42.82600 24.74400
C  42.66600 40.80300 22.43400
C  39.48100 42.59600 22.34200
C  38.09500 42.11900 22.97900
N  40.21400 43.67300 27.52600
C  40.19600 44.59100 26.47400
C  39.84600 45.90700 26.96100
C  39.77400 45.78000 28.36900
C  40.02700 44.40000 28.63000
C  39.87100 47.13400 26.09600
C  39.47400 46.46200 29.54100
O  39.24100 47.67400 29.76800
C  39.49400 45.42500 30.72400
C  40.48200 46.05600 31.70100
O  41.63500 46.37100 31.54900
O  39.90700 46.26400 32.89700
C  40.70500 46.61800 34.02900
H  41.23900 38.62900 30.78900
H  41.73800 38.67000 24.37200
H  40.20700 44.92500 24.52700
H  40.64500 43.13400 32.65400
H  39.99100 40.17500 32.34300
H  41.90500 39.94500 33.67100
H  42.06500 41.71800 33.60700
H  42.80300 40.77600 32.37400
H  37.90700 42.32900 31.79900
H  38.43500 43.57300 32.86200
H  39.34900 41.21000 34.20600
H  37.67600 40.97600 33.59900
H  42.84600 36.20600 29.54800
H  41.24800 35.55700 29.05400
H  41.40400 36.74200 30.35000
H  43.08100 34.91900 27.20300
H  42.76700 34.41600 25.55400
H  41.44000 34.44300 26.62400
H  40.60500 40.43800 22.78800
H  41.61600 43.21600 22.89500
H  43.37100 40.24800 23.05200
H  43.11900 41.77100 22.22000
H  42.42800 40.24600 21.52800
H  39.51400 42.02200 21.41600
H  39.32300 43.60700 21.96600
H  38.33400 42.10800 24.04300
H  37.88600 41.06100 22.81800
H  37.31000 42.83500 22.73600
H  38.85700 47.40200 25.79800
H  40.47200 47.04200 25.19100
H  40.30200 48.05800 26.48200
H  38.54000 45.36700 31.24800
H  41.51300 45.90000 34.16400
H  40.19500 46.65500 34.99200
H  41.19200 47.58300 33.88700
Mg 8.93400 47.30400 25.86900
C  6.95000 47.66800 28.62400
C  11.44300 49.07000 27.38200
C  10.84400 47.51900 22.91600
C  6.08300 46.80400 23.81200
N  9.12200 48.31100 27.69900
C  8.26300 48.12000 28.82700
C  8.93500 48.67900 30.00400
C  10.00400 49.61200 29.40500
C  10.32000 48.89600 28.08100
C  9.53100 51.04700 29.09300
C  9.39800 47.63600 30.99500
C  8.80500 47.84300 32.43200
H  8.86600 46.51800 33.30900
N  11.05800 47.84900 25.29200
C  11.88100 48.53900 26.13400
C  13.22400 48.67500 25.53900
C  13.08600 48.21200 24.22700
C  11.58400 47.83500 24.05400
C  14.35000 49.23900 26.34400
C  14.11400 48.30000 23.01900
O  13.80400 47.98200 21.85400
C  15.50300 48.77700 23.28100
N  8.48000 47.26900 23.67500
C  9.41600 47.37200 22.67800
C  8.71000 47.32700 21.27900
C  7.20100 46.99100 21.63400
C  7.26100 47.01200 23.16300
C  8.85300 48.60100 20.51400
C  6.63300 45.53500 21.11100
C  5.37400 45.61700 20.35600
N  6.94200 47.24400 26.09500
C  5.87100 46.87700 25.24700
C  4.67300 46.73300 26.05900
C  5.01700 47.01500 27.37500
C  6.39400 47.32200 27.35200
C  3.26900 46.39200 25.67100
C  4.50900 47.09200 28.73200
O  3.35300 47.04700 29.10700
C  5.87000 47.30000 29.61500
C  6.20700 46.07800 30.34400
O  7.06000 45.24800 30.06300
O  5.40100 46.03000 31.44800
C  5.78500 45.00900 32.46100
H  12.23200 49.68300 27.82300
H  11.34200 47.49200 21.94400
H  5.21500 46.70400 23.15600
H  8.22000 49.34400 30.48900
H  10.93800 49.68900 29.96100
H  10.18600 51.76100 29.59300
H  8.53900 51.18200 29.52300
H  9.52700 51.33800 28.04300
H  10.47400 47.58500 31.15800
H  9.08100 46.66900 30.60600
H  7.75700 48.14300 32.42400
H  9.41700 48.58900 32.93800
H  14.23400 49.08000 27.41600
H  14.41200 50.27000 25.99600
H  15.19200 48.63800 26.00000
H  15.38500 49.47900 24.10700
H  15.89900 49.13300 22.33000
H  16.22100 47.97000 23.43200
H  9.08900 46.48800 20.69400
H  6.54300 47.83600 21.42600
H  7.90800 49.11400 20.33500
H  9.23500 48.31800 19.53300
H  9.61800 49.31300 20.82400
H  6.57100 44.80400 21.91700
H  7.38700 45.18600 20.40500
H  5.54800 45.55600 19.28200
H  4.90500 46.58600 20.52300
H  4.75100 44.77800 20.66400
H  2.61700 47.25000 25.84100
H  2.93300 45.54800 26.27300
H  3.26800 46.08500 24.62600
H  5.67800 48.15400 30.26500
H  5.27600 44.05400 32.33200
H  5.39400 45.42600 33.38900
H  6.85100 44.81800 32.58300

