158

Mg 29.34900 58.90200 41.05200
C  26.32700 57.49100 40.29700
C  30.88700 56.17600 39.45500
C  32.27800 60.61500 41.15800
C  27.69400 61.82100 41.88700
N  28.62800 57.11300 40.04500
C  27.35000 56.70000 39.83000
C  27.22200 55.31100 39.07300
C  28.69100 54.84300 39.13000
C  29.46000 56.13500 39.48400
C  28.86200 53.65200 40.19300
C  26.79000 55.69300 37.60100
C  25.82300 54.77800 36.84400
H  25.93200 54.65500 35.35300
N  31.33800 58.36100 40.57000
C  31.75600 57.24600 39.95000
C  33.21200 57.33500 39.81400
C  33.56700 58.57400 40.26900
C  32.37700 59.27500 40.70300
C  33.97400 56.11500 39.36700
C  35.09100 59.00300 40.29600
O  36.00900 58.27600 39.78600
C  35.54300 60.31500 40.98200
N  29.84000 61.01900 41.27800
C  31.16600 61.36600 41.44900
C  31.22200 62.92900 41.66800
C  29.70700 63.34100 41.79600
C  29.07600 61.99200 41.64600
C  32.09400 63.35600 42.92300
C  28.96600 64.42700 40.84500
C  28.68400 65.83500 41.43100
N  27.45700 59.62100 41.12400
C  26.90900 60.77500 41.60100
C  25.46700 60.74200 41.53500
C  25.19300 59.42800 41.13100
C  26.43300 58.79600 40.83400
C  24.40100 61.76900 41.97100
C  24.17100 58.37700 41.00500
O  23.00100 58.37300 41.40000
C  24.91500 57.21100 40.37700
C  24.53400 56.03400 41.13600
O  24.85600 55.85000 42.27600
O  23.90000 55.03200 40.31700
C  23.66800 53.70800 40.91400
H  31.45200 55.30900 39.10600
H  33.22900 61.11100 41.36800
H  27.11600 62.71800 42.12100
H  26.59200 54.61400 39.62500
H  28.94600 54.40200 38.16700
H  29.52200 53.89100 41.02700
H  29.18900 52.71800 39.73700
H  27.98100 53.28100 40.71800
H  27.65400 55.84800 36.95500
H  26.17200 56.59000 37.61800
H  24.80300 55.13600 36.98500
H  25.78700 53.76200 37.23900
H  34.13700 56.24200 38.29600
H  33.41700 55.21600 39.63200
H  34.86000 56.21000 39.99500
H  35.43400 61.19600 40.34900
H  36.60000 60.17400 41.20900
H  35.05900 60.44500 41.94900
H  31.80300 63.34000 40.84200
H  29.47800 63.81900 42.74800
H  31.49700 63.33100 43.83400
H  32.32500 64.42100 42.94100
H  32.95600 62.71400 43.10300
H  27.99600 64.02100 40.56000
H  29.69200 64.43300 40.03200
H  27.60100 65.85200 41.54600
H  28.90200 66.70000 40.80400
H  29.19800 65.94700 42.38600
H  24.77700 61.90900 42.98400
H  23.41100 61.32200 41.87200
H  24.45700 62.77700 41.55900
H  24.43300 57.05500 39.41200
H  23.03600 53.79900 41.79800
H  24.55500 53.14500 41.20400
H  23.17600 53.02400 40.22400
Mg 33.67100 48.62700 25.03700
C  34.09800 47.19900 28.23700
C  31.97300 51.24800 26.62300
C  33.16400 49.80300 22.09200
C  35.18100 45.69100 23.68200
N  33.31000 49.22200 27.25300
C  33.56700 48.52100 28.33400
C  33.28400 49.36600 29.61100
C  32.46800 50.55700 29.05100
C  32.64900 50.38600 27.54800
C  31.05600 50.63900 29.50700
C  34.50100 49.72000 30.35200
C  34.41400 49.69600 31.85600
H  33.01500 49.56000 32.54200
N  32.70100 50.31500 24.43300
C  32.07000 51.26100 25.17500
C  31.64400 52.35900 24.28200
C  31.90900 51.93800 22.96200
C  32.61600 50.59800 23.16000
C  30.99300 53.59500 24.71700
C  31.56500 52.71300 21.72600
O  31.91700 52.23600 20.65400
C  30.73700 54.00500 21.69000
N  34.12900 47.85500 23.14900
C  33.89100 48.58400 21.99000
C  34.47900 47.97400 20.73800
C  35.06300 46.65400 21.28500
C  34.85900 46.77800 22.78400
C  33.38800 47.84700 19.60300
C  36.56500 46.30100 20.78700
C  37.75900 46.75500 21.70500
N  34.31300 46.69600 25.66800
C  34.96200 45.69300 25.09700
C  35.31600 44.63600 26.02800
C  34.92800 45.22300 27.31100
C  34.42300 46.43800 27.05800
C  35.87300 43.30100 25.66800
C  34.97300 45.01300 28.77200
O  35.35200 44.04100 29.34500
C  34.40400 46.30100 29.38800
C  33.17000 45.79500 30.00400
O  32.08600 45.65900 29.45700
O  33.50800 45.46800 31.32500
C  32.44800 44.77100 32.12000
H  31.50600 52.10300 27.11600
H  32.99800 50.20700 21.09100
H  35.68500 44.81400 23.26900
H  32.63500 48.75700 30.24100
H  32.98000 51.49100 29.28300
H  30.70600 49.72800 29.99200
H  30.45800 50.70200 28.59700
H  30.85600 51.42200 30.23800
H  34.72200 50.75200 30.08200
H  35.35700 49.16200 29.97000
H  34.98500 50.52900 32.26500
H  34.93400 48.77300 32.11600
H  31.54000 54.44200 24.30500
H  31.12500 53.69600 25.79400
H  29.92300 53.68300 24.52500
H  29.80600 54.00500 22.25700
H  30.51000 54.28600 20.66100
H  31.35900 54.80000 22.10000
H  35.27600 48.68000 20.50500
H  34.40600 45.83400 20.99500
H  32.62900 48.62000 19.47900
H  32.82200 46.95400 19.87000
H  33.76700 47.68200 18.59400
H  36.79900 46.77600 19.83400
H  36.62200 45.21500 20.71200
H  37.52900 47.43500 22.52600
H  38.34400 47.38400 21.03500
H  38.34600 45.93500 22.11900
H  36.95600 43.35100 25.55600
H  35.37700 42.86900 24.79900
H  35.75500 42.62400 26.51400
H  35.16900 46.67400 30.07000
H  32.82700 43.75200 32.19800
H  31.47300 44.89500 31.64900
H  32.35600 45.26400 33.08800

