158

Mg 42.83900 42.04300 25.82100
C  41.87100 44.15600 28.60800
C  44.75800 40.22700 28.17100
C  44.05800 40.35800 23.32800
C  41.50000 44.39100 23.65300
N  43.17900 42.19500 28.05700
C  42.60300 42.98200 29.00400
C  42.69400 42.39700 30.39900
C  43.60200 41.19500 30.17200
C  43.88200 41.19300 28.71300
C  44.89700 41.20000 31.09200
C  41.36500 42.16100 31.16500
C  41.30700 41.10700 32.31500
H  40.61700 41.54000 33.66200
N  44.06700 40.40500 25.79200
C  44.84300 39.84400 26.82300
C  45.58800 38.71800 26.28800
C  45.30500 38.69800 24.89300
C  44.38800 39.83600 24.59400
C  46.58400 37.90500 27.15400
C  45.79400 37.77300 23.85600
O  45.35400 37.80900 22.72300
C  46.73700 36.70900 24.19800
N  42.63000 42.19700 23.80700
C  43.36700 41.47700 22.97400
C  43.24400 41.98500 21.53800
C  42.12600 43.05500 21.64100
C  42.12500 43.25600 23.13000
C  44.58700 42.55400 20.98400
C  40.75500 42.67700 20.99900
C  39.78800 41.80400 21.90600
N  41.92700 43.91200 25.99600
C  41.37000 44.74400 24.98000
C  40.67100 45.88300 25.54700
C  40.85300 45.67200 26.95200
C  41.57700 44.44400 27.13800
C  40.09300 47.03200 24.80100
C  40.51400 46.24300 28.25800
O  39.88400 47.26600 28.49200
C  41.04200 45.23300 29.38500
C  41.76500 45.90500 30.42500
O  42.87700 46.40000 30.31300
O  41.13500 45.79300 31.59200
C  41.76900 46.27800 32.87200
H  45.31400 39.64400 28.90800
H  44.51200 39.89700 22.44800
H  40.91500 45.12900 23.09900
H  43.27100 43.17600 30.89800
H  43.19600 40.22500 30.45700
H  45.04400 42.19300 31.51700
H  45.83300 41.08800 30.54500
H  45.02300 40.51400 31.93000
H  40.63200 41.90200 30.40000
H  41.18600 43.13500 31.62000
H  42.32000 40.71600 32.40500
H  40.78800 40.20900 31.98000
H  46.40200 36.83100 27.13200
H  46.71900 38.35600 28.13700
H  47.59200 37.92600 26.74100
H  47.51900 37.10700 24.84400
H  47.14200 36.43300 23.22500
H  46.32300 35.85300 24.73000
H  42.96700 41.09600 20.97100
H  42.48900 44.03100 21.31700
H  45.42900 42.19300 21.57500
H  44.54400 43.63900 20.88100
H  44.86200 42.18600 19.99600
H  40.91900 42.16100 20.05300
H  40.32100 43.67600 20.96000
H  40.06100 41.65500 22.95000
H  39.71400 40.79700 21.49600
H  38.79900 42.25100 21.79900
H  40.89000 47.62300 24.35000
H  39.54700 47.60300 25.55200
H  39.44500 46.78600 23.95900
H  40.14900 44.86400 29.88800
H  42.82900 46.53200 32.84600
H  41.67400 45.40800 33.52300
H  41.22500 47.13000 33.27900
Mg 16.80800 51.46800 26.99900
C  18.88100 49.85800 29.26900
C  14.76000 52.31300 29.54200
C  14.80500 52.92700 24.64800
C  18.93000 50.37300 24.25800
N  16.83600 51.12800 29.22100
C  17.91300 50.58900 29.96000
C  17.66800 50.76100 31.48800
C  16.15600 51.13300 31.48900
C  15.83600 51.55600 30.01500
C  15.17800 50.04300 32.01600
C  18.52800 51.95100 31.95500
C  18.44500 52.18000 33.40500
H  17.74700 51.20400 34.33800
N  15.00800 52.43700 27.08200
C  14.30700 52.68100 28.29100
C  13.21800 53.56900 27.96300
C  13.11200 53.78600 26.51500
C  14.33200 53.01000 26.01300
C  12.33900 54.14200 29.12200
C  12.14300 54.56600 25.63700
O  12.14900 54.52800 24.42100
C  11.05100 55.23600 26.40800
N  16.96600 51.80200 24.82200
C  16.00900 52.40300 24.15400
C  16.29000 52.42600 22.61100
C  17.69200 51.72700 22.54600
C  17.88900 51.24200 23.99600
C  15.28000 51.78300 21.65100
C  18.81400 52.61700 21.96600
C  19.74500 51.97500 20.96800
N  18.42000 50.26400 26.78100
C  19.19600 49.96600 25.60900
C  20.34500 49.24200 26.08700
C  20.27600 49.09900 27.51000
C  19.13200 49.79100 27.83400
C  21.33800 48.59500 25.19700
C  20.84400 48.39400 28.65800
O  21.81800 47.60900 28.70600
C  20.03500 49.09900 29.91400
C  19.68900 48.08700 30.85200
O  19.07300 47.05900 30.64900
O  20.28400 48.39000 32.06200
C  20.06100 47.51700 33.21600
H  14.08900 52.47100 30.38900
H  14.18800 53.37800 23.86800
H  19.55100 49.97900 23.45000
H  17.88900 49.82000 31.99300
H  16.00600 52.03500 32.08200
H  15.69100 49.11800 32.27800
H  14.48300 49.70900 31.24600
H  14.56200 50.33300 32.86700
H  18.25900 52.91300 31.51800
H  19.57800 51.75300 31.73700
H  17.99800 53.17400 33.39200
H  19.45000 52.15500 33.82800
H  11.31900 53.86000 28.86200
H  12.38500 55.22100 28.97500
H  12.53000 53.90900 30.16900
H  10.24200 55.53800 25.74200
H  11.45900 56.15400 26.83200
H  10.58700 54.68600 27.22700
H  16.34800 53.46100 22.27400
H  17.73700 50.81100 21.95800
H  15.36400 50.69600 21.64300
H  15.40800 52.22200 20.66100
H  14.28900 52.12900 21.94400
H  19.38700 52.89000 22.85300
H  18.41100 53.54900 21.57100
H  20.77100 51.87500 21.32200
H  19.72400 52.57100 20.05500
H  19.40900 50.98000 20.67700
H  20.68500 48.18700 24.42500
H  21.91000 47.85600 25.75800
H  22.04500 49.35700 24.87100
H  20.74000 49.83300 30.30200
H  19.62500 48.17700 33.96600
H  21.00000 47.08400 33.56200
H  19.33900 46.72900 33.00000

