158

Mg 47.07100 44.47500 43.52000
C  43.52000 44.13800 43.14400
C  47.19500 41.06900 42.58900
C  50.41400 44.76700 43.25200
C  46.70100 47.92100 43.58600
N  45.53200 42.84600 42.92000
C  44.22000 42.95200 42.88200
C  43.60800 41.60300 42.68200
C  44.72600 40.54000 42.77800
C  45.92500 41.54900 42.75700
C  44.68200 39.44400 43.88400
C  42.61400 41.34500 41.45500
C  42.86600 42.14800 40.15700
H  42.89700 41.44700 38.85100
N  48.66400 43.14400 43.00200
C  48.43300 41.84700 42.54900
C  49.73700 41.25500 42.27600
C  50.71000 42.25200 42.52600
C  49.97000 43.45000 42.96400
C  49.89600 39.75800 42.01300
C  52.16500 42.04000 42.49700
O  52.62200 41.04900 41.92500
C  53.15600 43.05300 43.05500
N  48.44900 46.12800 43.58800
C  49.76000 46.02200 43.51000
C  50.46300 47.34600 43.45600
C  49.26700 48.30200 43.15400
C  48.06200 47.41900 43.44800
C  51.18000 47.62900 44.74000
C  49.26600 48.97600 41.78600
C  49.66700 50.45000 41.77600
N  45.49300 45.83200 43.47900
C  45.44300 47.19100 43.61800
C  44.07300 47.59900 43.94600
C  43.31700 46.43800 43.70100
C  44.16600 45.36000 43.44800
C  43.64300 49.09600 44.25300
C  41.98600 45.93100 43.65100
O  40.94100 46.52000 43.78500
C  42.01300 44.43300 43.26700
C  41.35300 43.58900 44.22600
O  40.71300 42.63200 43.95600
O  41.43100 44.00900 45.49500
C  41.16000 42.99600 46.47100
H  47.12500 40.01400 42.31500
H  51.49800 44.89300 43.21600
H  46.77600 49.00900 43.64300
H  43.06400 41.56400 43.62600
H  44.76500 40.04200 41.80800
H  43.66400 39.40700 44.27300
H  45.33400 39.60100 44.74300
H  44.91000 38.60500 43.22600
H  41.59100 41.47900 41.80700
H  42.74200 40.26700 41.36000
H  43.76800 42.75900 40.16400
H  42.09700 42.91900 40.10900
H  50.00600 39.52800 40.95300
H  49.11400 39.17300 42.49800
H  50.81700 39.48900 42.53000
H  53.33000 43.87000 42.35400
H  54.09000 42.52400 43.24200
H  52.78200 43.38700 44.02300
H  51.16800 47.31600 42.62600
H  49.33500 49.15000 43.83500
H  51.44200 46.73500 45.30500
H  50.72100 48.37100 45.39400
H  52.17500 48.02900 44.55000
H  48.28900 48.88700 41.31000
H  49.91000 48.42400 41.10100
H  50.11400 50.75800 42.72200
H  48.75900 51.04500 41.67000
H  50.35900 50.70200 40.97300
H  43.29100 49.59300 43.34900
H  44.42400 49.73300 44.66800
H  42.78100 49.01900 44.91500
H  41.56300 44.36600 42.27600
H  41.41300 41.97700 46.17900
H  40.08300 42.98800 46.63400
H  41.66700 43.24900 47.40200
Mg 6.54600 54.89000 41.29000
C  5.87900 51.40900 41.31600
C  9.52300 54.29800 39.95900
C  6.72000 58.23800 40.39100
C  2.98900 55.30900 41.66800
N  7.50900 53.05900 40.70600
C  7.19800 51.71400 40.90500
C  8.37700 50.76100 40.48900
C  9.57100 51.75600 40.36400
C  8.84000 53.13500 40.33100
C  10.57100 51.76100 41.53800
C  8.11100 50.00300 39.15100
C  7.68100 50.85200 37.91600
H  6.44700 50.57700 37.01900
N  8.01600 56.06400 40.35700
C  9.26000 55.60700 39.95300
C  10.04900 56.75100 39.57700
C  9.18300 57.88600 39.64100
C  7.93300 57.46500 40.15700
C  11.50800 56.60400 39.09900
C  9.63400 59.32300 39.35100
O  10.78400 59.47500 38.93500
C  8.73600 60.50300 39.44600
N  5.08100 56.54300 40.98600
C  5.47200 57.81300 40.86200
C  4.28900 58.79900 40.90200
C  3.09000 57.78000 40.78400
C  3.74100 56.43600 41.21000
C  4.28300 59.81200 42.13900
C  2.46800 57.82000 39.34200
C  1.20400 58.71700 39.31700
N  4.84500 53.73900 41.73600
C  3.52800 54.01500 42.00800
C  2.90700 52.82600 42.54600
C  3.76500 51.72500 42.23600
C  4.87900 52.37900 41.67900
C  1.54300 52.76200 43.19700
C  3.96800 50.27200 42.34900
O  3.19000 49.35900 42.72400
C  5.33400 50.02700 41.54800
C  4.91000 49.41700 40.28600
O  4.32600 50.00300 39.37600
O  5.28900 48.09400 40.23800
C  5.02300 47.37500 38.97300
H  10.50400 54.12900 39.50900
H  6.72800 59.29200 40.10500
H  1.93300 55.51400 41.85500
H  8.46000 50.04200 41.30400
H  10.14700 51.52800 39.46700
H  10.72400 50.73800 41.88300
H  10.29200 52.43600 42.34700
H  11.55100 51.99000 41.12100
H  7.32100 49.25600 39.21800
H  9.00100 49.42200 38.91100
H  8.59800 50.76000 37.33500
H  7.69700 51.88300 38.27100
H  11.62000 56.57300 38.01500
H  11.89500 55.67000 39.50700
H  12.20100 57.33700 39.51200
H  9.35100 61.36600 39.19300
H  8.26600 60.67400 40.41400
H  7.97400 60.34400 38.68300
H  4.42200 59.45100 40.03900
H  2.24900 58.07000 41.41400
H  3.44600 59.53000 42.77800
H  4.11700 60.85000 41.84900
H  5.16700 59.77100 42.77500
H  2.23500 56.81300 38.99700
H  3.13700 58.14000 38.54200
H  0.31300 58.11100 39.15500
H  1.28000 59.43500 38.50200
H  1.18000 59.41500 40.15400
H  1.83000 52.56300 44.22900
H  0.96200 51.94700 42.76400
H  1.13200 53.77100 43.15800
H  6.05500 49.43300 42.11100
H  4.47100 47.86900 38.17300
H  4.38700 46.53900 39.26200
H  5.97100 46.96200 38.62800

