158

Mg -0.75900 17.34800 26.58000
C  -1.23200 14.96100 29.28700
C  -1.31500 19.87900 28.94000
C  -0.71200 19.55300 24.14400
C  -0.47600 14.73800 24.52500
N  -1.37900 17.36200 28.93600
C  -1.47200 16.29300 29.80400
C  -1.67100 16.85400 31.22700
C  -1.64400 18.37400 31.02200
C  -1.38900 18.56900 29.54200
C  -2.93800 19.19600 31.44400
C  -0.78400 16.20200 32.41800
C  -0.45100 17.17200 33.58200
H  -0.48400 16.62900 34.97600
N  -0.98200 19.43500 26.53100
C  -1.04600 20.32600 27.63100
C  -1.04100 21.65600 27.07000
C  -0.80000 21.60300 25.67400
C  -0.75300 20.18400 25.40100
C  -1.32800 22.90500 27.90900
C  -0.62500 22.62000 24.67800
O  -0.54700 22.46300 23.46200
C  -0.50100 24.12800 25.10600
N  -0.67200 17.16900 24.60200
C  -0.62800 18.19900 23.74100
C  -0.76400 17.73500 22.35000
C  -0.20900 16.28600 22.50800
C  -0.43000 16.04500 23.98800
C  -2.24700 17.76800 21.80100
C  1.35100 16.07200 22.13100
C  2.51000 16.49600 23.10000
N  -0.91800 15.26200 26.76600
C  -0.78400 14.31000 25.87600
C  -0.95500 13.03500 26.42900
C  -1.04600 13.26100 27.73700
C  -1.05200 14.59200 27.96800
C  -1.06800 11.82200 25.58000
C  -1.18100 12.50000 29.01000
O  -1.32600 11.29100 29.17500
C  -1.28400 13.62800 30.09600
C  -0.14700 13.32000 30.97800
O  0.97100 13.76000 30.89600
O  -0.57300 12.36100 31.84200
C  0.29400 12.07200 32.97900
H  -1.27400 20.64000 29.72300
H  -0.62500 20.19400 23.26400
H  -0.43200 13.97600 23.74400
H  -2.66100 16.49100 31.50600
H  -0.82400 18.81800 31.58700
H  -3.45200 19.63900 30.59100
H  -2.68900 19.78600 32.32600
H  -3.70500 18.46100 31.68800
H  0.17000 16.02600 31.92000
H  -1.14200 15.25300 32.81700
H  -1.17400 17.98700 33.56300
H  0.55100 17.56700 33.41500
H  -1.86800 23.63500 27.30600
H  -0.49600 23.44000 28.36600
H  -1.94500 22.59900 28.75400
H  0.42200 24.15800 25.68500
H  -1.39300 24.53700 25.58100
H  -0.29300 24.84700 24.31400
H  -0.18300 18.39800 21.70900
H  -0.84300 15.53900 22.03100
H  -2.61900 18.68900 22.25200
H  -2.80200 16.93800 22.23900
H  -2.12400 17.74700 20.71800
H  1.48400 16.62400 21.20100
H  1.34500 15.07000 21.70300
H  2.09700 16.59500 24.10300
H  3.05700 17.41900 22.90500
H  3.21600 15.66500 23.09100
H  -1.57400 12.18600 24.68500
H  -1.68000 11.08000 26.09300
H  -0.08700 11.45500 25.28000
H  -2.21600 13.54900 30.65700
H  0.90500 11.17400 32.89300
H  -0.32700 11.89400 33.85700
H  0.89300 12.97200 33.11900
Mg 9.30000 2.63600 28.45700
C  10.43000 1.24500 31.28400
C  7.66700 5.15700 30.39000
C  8.15300 4.19600 25.68400
C  10.74200 0.18400 26.48000
N  8.99400 3.08200 30.58800
C  9.59500 2.33300 31.57700
C  9.40700 2.98400 32.94100
C  8.36400 4.16300 32.71100
C  8.28600 4.14100 31.15500
C  6.97800 3.94600 33.52200
C  10.84700 3.54300 33.48700
C  11.28900 3.11700 34.92900
H  10.19400 3.02600 36.09100
N  8.00900 4.30100 28.10900
C  7.48700 5.25300 29.00800
C  6.71400 6.27700 28.30800
C  6.88200 6.02100 26.89800
C  7.71700 4.74700 26.85900
C  5.91100 7.35000 29.10800
C  6.30800 6.91700 25.75500
O  6.45300 6.65300 24.52900
C  5.68500 8.21000 26.08900
N  9.16900 2.02800 26.37000
C  8.77000 2.95300 25.43400
C  8.94000 2.47300 24.00300
C  9.96000 1.32500 24.21700
C  9.94100 1.13400 25.76800
C  7.46600 2.10900 23.58200
C  11.38900 1.56600 23.81000
C  12.13800 0.57800 22.91000
N  10.29100 1.05800 28.80000
C  10.90000 0.14900 27.87000
C  11.60500 -0.85000 28.67700
C  11.48300 -0.46300 30.05800
C  10.68800 0.68700 29.95600
C  12.27800 -2.01200 28.07500
C  11.80200 -0.74200 31.45300
O  12.45700 -1.63900 31.99100
C  11.06000 0.31700 32.29800
C  10.09100 -0.34500 33.16500
O  9.07300 -0.92700 32.84800
O  10.61300 -0.36400 34.51700
C  9.68400 -0.96800 35.50500
H  7.05300 5.88400 30.92500
H  7.99000 4.73400 24.74700
H  11.29600 -0.55900 25.90100
H  9.04100 2.23300 33.64100
H  8.77100 5.13900 32.97500
H  6.89800 4.65300 34.34800
H  6.95900 2.94100 33.94300
H  6.15400 4.19300 32.85400
H  10.96200 4.62000 33.36100
H  11.61200 3.17700 32.80200
H  11.94100 3.89500 35.32500
H  11.92300 2.23100 34.95600
H  6.39300 8.31400 29.27500
H  5.64700 6.96700 30.09400
H  4.94700 7.48600 28.61800
H  6.34400 8.90800 26.60500
H  4.81600 8.04500 26.72500
H  5.42600 8.78700 25.20100
H  9.31100 3.21200 23.29400
H  9.53600 0.43500 23.75300
H  7.49300 1.06000 23.28700
H  7.21900 2.65400 22.67100
H  6.71900 2.26100 24.36200
H  12.14600 1.61900 24.59200
H  11.31800 2.46100 23.19200
H  13.06300 0.23800 23.37500
H  12.42200 1.09200 21.99200
H  11.55700 -0.33400 22.77300
H  13.24700 -1.71400 27.67500
H  11.65800 -2.59500 27.39400
H  12.44000 -2.68800 28.91400
H  11.88300 0.77500 32.84700
H  9.38500 -1.96800 35.18900
H  8.88000 -0.25400 35.68100
H  10.21900 -1.11100 36.44400

