158

Mg 41.92500 41.81600 26.98100
C  41.02800 44.22600 29.43200
C  42.96500 39.76000 29.44400
C  42.72500 39.58300 24.51700
C  41.41800 44.32600 24.50400
N  41.79500 42.00500 29.10100
C  41.32600 42.99000 29.86900
C  41.37600 42.56600 31.32400
C  42.27600 41.32700 31.43200
C  42.42300 41.00900 29.89500
C  43.58800 41.45500 32.18500
C  39.94500 42.40600 31.93900
C  39.80100 42.85800 33.48700
H  39.26100 41.87000 34.43800
N  42.70500 39.91400 27.02500
C  43.05200 39.25000 28.13000
C  43.63600 38.02200 27.73000
C  43.50700 37.92100 26.27600
C  42.88200 39.14900 25.89600
C  44.07900 36.94000 28.70700
C  43.92000 36.79500 25.32100
O  43.83100 36.83600 24.08200
C  44.56200 35.62700 25.80100
N  42.13500 41.96300 24.79700
C  42.51900 40.89200 24.08800
C  42.36400 41.21200 22.64000
C  42.03000 42.76700 22.59100
C  41.80200 43.08500 24.04700
C  43.58300 40.87100 21.80100
C  40.77900 42.93700 21.69400
C  41.03200 43.20700 20.19500
N  41.40800 43.82900 26.92200
C  41.17800 44.65800 25.86700
C  40.67400 45.92200 26.31800
C  40.61300 45.84900 27.73300
C  41.14800 44.54900 28.02400
C  40.42300 47.18400 25.37400
C  40.37800 46.58900 28.95300
O  40.12200 47.75500 29.14200
C  40.51600 45.49000 30.15800
C  41.48600 46.06400 31.15400
O  42.57900 46.65200 30.85000
O  40.92600 46.04300 32.45400
C  41.86100 46.60200 33.46400
H  43.24200 39.15800 30.31100
H  42.77700 38.78500 23.77300
H  41.20500 45.06900 23.73200
H  41.84400 43.37100 31.89000
H  41.77500 40.46500 31.87200
H  43.52500 40.88600 33.11200
H  43.75800 42.52300 32.31800
H  44.52400 41.18900 31.69300
H  39.72700 41.34000 32.00400
H  39.25300 43.04900 31.39500
H  39.24300 43.79400 33.52100
H  40.78100 43.15400 33.86200
H  43.32800 36.16500 28.85900
H  44.40900 37.41100 29.63300
H  45.03900 36.64200 28.28700
H  45.47400 35.83900 26.36000
H  44.82200 34.98900 24.95600
H  43.69100 35.34300 26.39100
H  41.52400 40.58600 22.33900
H  42.91000 43.34600 22.31100
H  44.16600 41.78300 21.67800
H  43.26500 40.67500 20.77600
H  44.25500 40.11700 22.21100
H  40.11800 43.66800 22.16100
H  40.08900 42.10500 21.83800
H  40.48900 44.09500 19.87100
H  40.60500 42.36800 19.64500
H  42.06900 43.31200 19.87500
H  39.63000 47.78600 25.81800
H  40.07700 47.03400 24.35100
H  41.27100 47.86400 25.29700
H  39.57700 45.35300 30.69500
H  42.87700 46.38700 33.13300
H  41.82200 46.09300 34.42700
H  41.77200 47.66900 33.67300
Mg 1.44700 42.71600 24.70400
C  2.40600 42.87600 27.98300
C  -1.69200 41.56400 25.73400
C  0.63100 41.78500 21.44900
C  4.60300 43.50400 23.59400
N  0.53600 42.15700 26.68700
C  1.03900 42.50300 27.87100
C  -0.04800 42.30400 28.93000
C  -1.28700 41.80000 28.16500
C  -0.80300 41.76300 26.81000
C  -1.79600 40.37900 28.64300
C  -0.20200 43.59900 29.73800
C  -0.49300 43.38600 31.24300
H  -1.08600 42.05100 31.76600
N  -0.30200 41.93200 23.70900
C  -1.45200 41.56400 24.33900
C  -2.46000 41.25100 23.36600
C  -1.82300 41.35800 22.06800
C  -0.44700 41.72700 22.34500
C  -3.93300 40.92300 23.74700
C  -2.37100 41.18200 20.68400
O  -1.71700 41.24600 19.66500
C  -3.83000 40.67800 20.59500
N  2.43900 42.64500 22.76800
C  1.94600 42.17900 21.65600
C  3.05800 42.03100 20.55400
C  4.16400 43.04200 21.11400
C  3.70400 43.16500 22.55000
C  3.50400 40.56700 20.47700
C  4.13700 44.46100 20.54900
C  4.92300 44.59700 19.23000
N  3.21600 43.06100 25.59700
C  4.42500 43.39700 25.08200
C  5.29200 43.68600 26.17200
C  4.57800 43.50200 27.35000
C  3.32600 43.09800 26.92300
C  6.68600 44.15600 26.13500
C  4.68200 43.50100 28.85100
O  5.56500 43.73900 29.66700
C  3.23000 43.00400 29.28000
C  3.42000 41.70200 30.01100
O  4.51600 41.03600 30.01800
O  2.36000 41.27300 30.78600
C  2.42000 40.17500 31.71500
H  -2.68400 41.33900 26.13100
H  0.47800 41.35600 20.45700
H  5.51700 43.85000 23.10700
H  0.30000 41.50900 29.58900
H  -2.06400 42.54100 28.35300
H  -1.48200 39.65700 27.89000
H  -2.87900 40.46200 28.73200
H  -1.34100 40.05800 29.58000
H  -1.00600 44.21900 29.34000
H  0.64500 44.28000 29.64900
H  -1.05000 44.28300 31.51500
H  0.45200 43.47100 31.77900
H  -4.59600 41.72300 23.41600
H  -4.09300 40.74400 24.81000
H  -4.20700 39.98500 23.26300
H  -4.19200 40.82200 19.57700
H  -4.58500 41.13300 21.23700
H  -3.80900 39.59800 20.74100
H  2.64400 42.26000 19.57200
H  5.18000 42.64900 21.15000
H  4.47900 40.49800 20.95900
H  3.55100 40.30700 19.41900
H  2.85500 39.83900 20.96400
H  4.66400 44.99300 21.34200
H  3.12500 44.86000 20.48800
H  4.97700 45.63600 18.90500
H  4.65000 43.96000 18.38900
H  5.94300 44.30900 19.48300
H  7.36400 43.35000 25.85500
H  6.91100 44.72800 27.03400
H  6.76400 44.72100 25.20600
H  2.65500 43.68400 29.90800
H  2.46500 39.24400 31.15100
H  1.39500 40.08800 32.07400
H  3.19600 40.35900 32.45800

