158

Mg 41.42000 40.80700 27.04700
C  40.60400 43.09700 29.52300
C  42.21100 38.56300 29.50300
C  42.16600 38.62200 24.65000
C  40.70600 43.23500 24.59500
N  41.37200 40.81000 29.26000
C  40.97800 41.86600 30.02200
C  41.06400 41.45700 31.48800
C  41.51900 39.95700 31.47500
C  41.68200 39.70900 29.99100
C  42.78600 39.58100 32.24600
C  39.72700 41.83700 32.33000
C  39.96000 42.46800 33.73700
H  39.23600 41.79100 34.92400
N  42.22200 38.86900 27.06900
C  42.37800 38.05100 28.20400
C  42.98200 36.89400 27.80600
C  43.00900 36.83300 26.37200
C  42.37700 38.08600 25.94100
C  43.54400 35.81200 28.77100
C  43.37800 35.78800 25.41900
O  43.36300 35.99900 24.20300
C  43.76500 34.32800 25.86800
N  41.52400 40.91100 24.90200
C  41.78000 39.90600 24.15000
C  41.56300 40.22000 22.61700
C  41.28200 41.80100 22.64400
C  41.06800 41.99600 24.16500
C  42.66400 39.89100 21.55900
C  40.24300 42.28700 21.66100
C  38.80200 42.60300 22.10400
N  40.82400 42.79700 27.01800
C  40.66300 43.66700 25.96300
C  40.52800 45.03800 26.46100
C  40.38700 44.91000 27.81900
C  40.59200 43.48300 28.13300
C  40.45600 46.23100 25.64700
C  40.08600 45.57500 29.06700
O  39.76700 46.75000 29.32600
C  40.11200 44.39700 30.20600
C  40.99600 44.91400 31.24300
O  42.19300 44.63100 31.36300
O  40.36400 45.76300 32.09900
C  41.02300 46.08700 33.30900
H  42.54900 37.87000 30.27700
H  42.36200 38.09000 23.71700
H  40.69000 44.09800 23.92700
H  41.83000 42.02800 32.01100
H  40.68400 39.31100 31.74500
H  43.61300 39.08900 31.73500
H  42.50900 39.02600 33.14300
H  43.20800 40.52300 32.59700
H  39.19400 40.88800 32.36900
H  38.95600 42.35800 31.76300
H  39.64600 43.51000 33.68400
H  41.01200 42.30600 33.97400
H  43.59900 36.22200 29.78000
H  44.46500 35.34400 28.42400
H  42.77800 35.03600 28.80300
H  43.00700 34.09900 26.61700
H  44.77400 34.45500 26.26100
H  43.85700 33.76600 24.93900
H  40.71700 39.62300 22.27300
H  42.16600 42.40000 22.42600
H  43.26500 39.05000 21.90500
H  43.22400 40.82600 21.56300
H  42.39700 39.78800 20.50700
H  40.07200 41.44700 20.98800
H  40.59500 43.10100 21.02800
H  38.48500 41.79700 22.76600
H  38.01600 42.67900 21.35400
H  38.80800 43.55000 22.64400
H  39.46700 46.23600 25.18900
H  41.21800 46.04300 24.89100
H  40.69600 47.14100 26.19800
H  39.11800 44.27100 30.63500
H  41.23300 45.19300 33.89600
H  40.25400 46.56100 33.91900
H  41.79800 46.82000 33.08400
Mg 36.31900 48.71300 26.44400
C  36.09400 46.85700 29.30100
C  35.63700 51.57600 28.21400
C  36.16500 50.43700 23.51500
C  36.69600 45.67600 24.53600
N  35.89000 49.12300 28.48800
C  35.92300 48.22300 29.53600
C  35.94700 48.90400 30.87800
C  35.35700 50.38800 30.48300
C  35.59700 50.40500 28.94900
C  33.81600 50.62400 30.82700
C  37.36400 48.83800 31.59900
C  37.47200 48.88900 33.18900
H  36.13400 48.92000 33.96700
N  35.80400 50.76900 25.93900
C  35.73700 51.79000 26.81500
C  35.76900 53.02900 26.09200
C  35.92800 52.68700 24.73200
C  35.95600 51.28400 24.63800
C  35.60500 54.40600 26.76100
C  36.00100 53.58300 23.51600
O  36.06000 53.14200 22.34400
C  36.05300 55.13000 23.79900
N  36.23500 48.07200 24.33400
C  36.27100 49.06600 23.37900
C  36.58300 48.41100 21.92900
C  36.99900 46.98400 22.26500
C  36.63400 46.90900 23.80500
C  35.40000 48.60400 20.93300
C  38.51700 46.66400 21.97900
C  38.87800 46.10200 20.60700
N  36.56600 46.72200 26.79600
C  36.63300 45.56000 25.96200
C  36.68700 44.35400 26.80600
C  36.54500 44.83200 28.10900
C  36.39600 46.25400 28.04800
C  36.82300 42.95200 26.32400
C  36.39900 44.42500 29.51400
O  36.48000 43.32400 30.06900
C  36.09000 45.66800 30.37900
C  34.82000 45.42600 31.05800
O  33.74100 45.55000 30.45400
O  34.94800 45.06100 32.38700
C  33.68700 44.70600 33.10500
H  35.39200 52.44500 28.82800
H  36.39900 50.91400 22.56100
H  36.77900 44.74100 23.97800
H  35.22000 48.31500 31.43800
H  36.00000 51.07800 31.02900
H  33.26800 50.93200 29.93600
H  33.57800 51.47000 31.47200
H  33.38800 49.74100 31.30100
H  37.97300 49.68500 31.28200
H  37.86600 47.96900 31.17300
H  38.07500 49.72900 33.53700
H  37.98900 47.96700 33.45600
H  36.60800 54.83100 26.73600
H  35.29900 54.47100 27.80600
H  34.92300 54.89400 26.06400
H  35.08000 55.57300 24.01200
H  36.38100 55.57300 22.85800
H  36.84800 55.39900 24.49500
H  37.44400 48.95400 21.54000
H  36.33900 46.23400 21.83000
H  35.81200 48.82300 19.94800
H  34.79300 49.48400 21.14500
H  34.79500 47.69800 20.89600
H  38.79600 45.95100 22.75500
H  39.09500 47.58100 22.09100
H  39.51400 46.79500 20.05600
H  38.01700 45.66900 20.09700
H  39.59000 45.29400 20.77200
H  36.44200 42.80100 25.31300
H  36.34800 42.39100 27.12900
H  37.88800 42.73400 26.39400
H  36.84500 45.89700 31.13000
H  33.56700 43.64000 33.29500
H  32.85900 45.05600 32.49000
H  33.74100 45.27000 34.03600

