158

Mg 35.59600 1.43400 29.62100
C  33.11600 2.04100 32.06500
C  37.81900 1.00100 32.06800
C  37.90400 1.00600 27.21500
C  33.13500 2.03200 27.18900
N  35.42300 1.43000 31.85400
C  34.36800 1.73000 32.63900
C  34.75100 1.76300 34.15200
C  36.33300 1.49700 34.08300
C  36.55200 1.20100 32.62300
C  37.25600 2.68600 34.61000
C  34.00700 0.83000 35.12300
C  33.35900 1.37700 36.35800
H  34.24400 2.41900 37.15200
N  37.56800 1.02700 29.59700
C  38.31500 0.92400 30.70600
C  39.65600 0.52700 30.31500
C  39.66900 0.40200 28.93700
C  38.35400 0.88100 28.50000
C  40.66300 0.21800 31.31600
C  40.79300 -0.11900 28.01300
O  40.57000 -0.33300 26.80200
C  42.11600 -0.46400 28.52800
N  35.50800 1.32900 27.56000
C  36.61200 1.26500 26.75200
C  36.25000 1.19200 25.27400
C  34.68600 1.37600 25.27800
C  34.36300 1.51600 26.73500
C  37.06100 2.26700 24.44200
C  33.93800 0.18200 24.62300
C  33.99400 -1.12100 25.35700
N  33.54600 1.98300 29.52300
C  32.72000 2.25600 28.44500
C  31.35200 2.60500 28.94200
C  31.48600 2.53800 30.32800
C  32.83700 2.10300 30.67500
C  30.31000 2.91100 27.97500
C  30.77300 2.72000 31.59800
O  29.60200 3.12400 31.78700
C  31.73100 2.38200 32.70300
C  31.76600 3.71000 33.52100
O  32.23500 4.72000 33.10200
O  31.02700 3.61500 34.67000
C  30.80700 4.72000 35.52800
H  38.53500 0.83800 32.87600
H  38.62700 1.12300 26.40600
H  32.50200 2.30700 26.34200
H  34.58200 2.79800 34.45000
H  36.66800 0.64600 34.67700
H  36.65200 3.53900 34.91800
H  37.90000 3.17500 33.87900
H  37.89400 2.30300 35.40600
H  34.66200 0.03500 35.48100
H  33.19200 0.43700 34.51500
H  33.11000 0.62400 37.10500
H  32.46200 1.82900 35.93400
H  41.62700 -0.16900 30.98500
H  40.28800 -0.51300 32.03200
H  40.80700 1.12300 31.90700
H  42.55200 0.37300 29.07400
H  42.84500 -0.70700 27.75400
H  42.06600 -1.32500 29.19500
H  36.45400 0.16800 24.96300
H  34.37900 2.28600 24.76400
H  36.39200 2.78500 23.75500
H  37.81900 1.76300 23.84200
H  37.48500 3.03400 25.09000
H  34.44300 0.03500 23.66900
H  32.87900 0.37900 24.45600
H  34.33000 -1.82200 24.59200
H  32.97800 -1.30100 25.70700
H  34.74000 -1.16200 26.15100
H  29.48500 3.37500 28.51500
H  30.15200 1.95800 27.47000
H  30.71400 3.67800 27.31400
H  31.44100 1.52600 33.31200
H  31.42400 4.39200 36.36400
H  29.78700 4.66600 35.91000
H  31.11300 5.73100 35.26000
Mg -8.55900 40.46600 42.79400
C  -7.35200 37.35000 41.72300
C  -6.06100 41.92500 40.75000
C  -10.08800 43.55200 43.14300
C  -11.53600 38.91200 43.76000
N  -6.89500 39.71700 41.33500
C  -6.55200 38.44800 41.21100
C  -5.18900 38.25700 40.41800
C  -4.70900 39.75100 40.17000
C  -5.90200 40.50900 40.90400
C  -3.29800 40.22300 40.84200
C  -5.54200 37.34700 39.13800
C  -4.54600 36.11400 39.02200
H  -4.89300 34.97300 38.04800
N  -8.07600 42.46600 42.22600
C  -6.99600 42.79100 41.38300
C  -6.90700 44.14700 41.30000
C  -8.04200 44.77700 41.85800
C  -8.84000 43.61100 42.41100
C  -5.70400 44.82900 40.51700
C  -8.42900 46.24100 41.71500
O  -7.75100 47.01300 41.04700
C  -9.81300 46.75400 42.19100
N  -10.52200 41.11000 43.42000
C  -10.85700 42.37800 43.56700
C  -12.36500 42.53900 43.94500
C  -12.82800 41.03100 44.10300
C  -11.60700 40.29000 43.78000
C  -12.55000 43.46400 45.20000
C  -14.05500 40.65300 43.32900
C  -15.05600 39.80100 44.11400
N  -9.25700 38.52900 42.87400
C  -10.44500 38.04300 43.32800
C  -10.45100 36.61500 43.24400
C  -9.21500 36.21600 42.74700
C  -8.59300 37.46100 42.43400
C  -11.53900 35.74100 43.78600
C  -8.35500 35.11300 42.41200
O  -8.49200 33.93500 42.66400
C  -7.08400 35.76700 41.76700
C  -5.87400 35.36100 42.54400
O  -5.47200 36.11700 43.45100
O  -5.39900 34.13500 42.21200
C  -4.30500 33.57000 43.01200
H  -5.19700 42.32300 40.21400
H  -10.60500 44.49700 43.32300
H  -12.47700 38.48000 44.10800
H  -4.47000 37.70100 41.02000
H  -4.77400 39.89700 39.09100
H  -3.34800 41.28400 41.08800
H  -2.54300 40.17100 40.05800
H  -3.08000 39.58500 41.69900
H  -5.47200 38.00100 38.26900
H  -6.54000 36.91100 39.15600
H  -4.58800 35.64700 40.00600
H  -3.53000 36.48300 38.87700
H  -5.99400 45.01500 39.48300
H  -4.78400 44.24500 40.51500
H  -5.38100 45.73700 41.02600
H  -9.99000 47.79800 41.93300
H  -9.82200 46.66000 43.27700
H  -10.56500 46.08200 41.77800
H  -12.80000 42.95500 43.03600
H  -12.91000 40.79700 45.16500
H  -12.88700 42.95000 46.10100
H  -13.26800 44.27200 45.06400
H  -11.59600 43.92500 45.45500
H  -13.69000 40.21500 42.40000
H  -14.63700 41.50300 42.97300
H  -14.88100 39.89200 45.18600
H  -15.03900 38.81000 43.66100
H  -16.02800 40.24200 43.89600
H  -11.28600 34.69300 43.62500
H  -12.44700 35.98200 43.23200
H  -11.70600 35.94500 44.84300
H  -6.91000 35.24200 40.82700
H  -4.47400 33.89400 44.03900
H  -3.28300 33.85100 42.75700
H  -4.42500 32.49200 43.11300

