158

Mg 29.45400 58.00500 39.41400
C  26.93600 55.77200 38.23500
C  31.72500 55.43500 38.34500
C  31.87400 60.15000 40.01900
C  27.10800 60.42800 39.67600
N  29.29300 55.88000 38.34200
C  28.17500 55.20300 38.05500
C  28.44900 53.69600 37.65200
C  29.96900 53.62600 37.82200
C  30.37100 55.13500 38.13100
C  30.65400 52.65800 38.90000
C  28.04900 53.31500 36.22600
C  28.42800 54.36000 35.02200
H  27.32100 54.80800 34.02800
N  31.49500 57.89500 39.24300
C  32.25300 56.66800 38.86200
C  33.67200 57.02600 38.97400
C  33.75200 58.33800 39.56200
C  32.33700 58.87000 39.60800
C  34.70100 56.12200 38.45100
C  35.07200 59.01100 39.91600
O  36.12500 58.50900 39.77700
C  35.06800 60.34300 40.42900
N  29.54700 60.19800 39.41900
C  30.59500 60.80700 40.01100
C  30.24400 62.25000 40.42900
C  28.73900 62.06600 40.61600
C  28.39200 60.82900 39.83500
C  31.01300 62.91400 41.63900
C  28.01800 63.28500 40.01900
C  27.00700 64.02100 40.99800
N  27.35400 58.08400 39.11600
C  26.58500 59.14800 39.29200
C  25.20400 58.83000 39.07900
C  25.29600 57.46700 38.65900
C  26.63600 57.05500 38.66800
C  24.00400 59.78700 39.15000
C  24.44800 56.36200 38.28900
O  23.21400 56.27400 38.19100
C  25.50000 55.16100 38.09500
C  25.17000 54.06300 39.10000
O  25.73700 53.82600 40.13000
O  23.95900 53.42100 38.75300
C  23.44500 52.34100 39.57800
H  32.45900 54.62800 38.39300
H  32.66600 60.84000 40.31600
H  26.33800 61.16300 39.92000
H  27.96300 53.03300 38.36700
H  30.49000 53.45700 36.88000
H  29.98300 51.80200 38.97500
H  30.81700 53.11400 39.87600
H  31.61400 52.25600 38.57700
H  27.00500 53.01000 36.30500
H  28.71000 52.49100 35.95800
H  29.26600 53.89400 34.50300
H  28.81500 55.30500 35.40400
H  35.42700 55.93800 39.24200
H  35.14800 56.57300 37.56500
H  34.33700 55.11400 38.25300
H  36.05700 60.77100 40.59100
H  34.68300 60.19500 41.43800
H  34.62600 61.08700 39.76600
H  30.63700 62.87100 39.62400
H  28.55800 61.86100 41.67200
H  30.29200 63.32100 42.34800
H  31.79800 63.57300 41.26900
H  31.54400 62.15400 42.21100
H  27.42100 63.03800 39.14100
H  28.71200 64.08400 39.75600
H  26.98300 65.05200 40.64700
H  27.21800 64.02200 42.06700
H  26.01300 63.64900 40.74800
H  24.30200 60.80100 38.88400
H  23.56200 59.67000 40.14000
H  23.31300 59.44500 38.37900
H  25.41100 54.95500 37.02800
H  24.08600 51.46000 39.61100
H  22.46500 51.99400 39.24900
H  23.25600 52.50600 40.63800
Mg 26.30600 50.54900 25.88100
C  24.26700 51.67300 28.46200
C  28.65100 49.72600 28.16600
C  28.04200 49.16500 23.43300
C  23.75200 51.60900 23.62100
N  26.43000 50.62700 28.03200
C  25.49300 51.08900 28.92500
C  25.94000 50.97300 30.45600
C  27.48100 50.56200 30.27600
C  27.57500 50.29400 28.74900
C  28.43900 51.67100 30.71800
C  25.12500 49.90800 31.15900
C  24.37800 50.32400 32.47600
H  25.09800 50.77500 33.73600
N  28.13100 49.59800 25.81500
C  28.91600 49.33600 26.83000
C  30.15100 48.68400 26.38600
C  29.89700 48.27300 25.00300
C  28.59300 48.94400 24.67800
C  31.29300 48.44100 27.29400
C  30.73500 47.45000 24.12600
O  30.42900 47.28900 22.92300
C  31.84500 46.68900 24.59700
N  26.03500 50.60400 23.82300
C  26.88600 49.84200 23.04100
C  26.46200 49.85800 21.60000
C  24.95100 50.34600 21.75800
C  24.90900 50.89700 23.14400
C  27.34100 50.75100 20.64900
C  23.80800 49.32800 21.45800
C  24.15800 47.85900 21.66300
N  24.51700 51.62600 25.95500
C  23.62600 52.00400 24.95400
C  22.58300 52.78100 25.53200
C  22.70400 52.66200 26.91200
C  23.92900 51.91600 27.12100
C  21.58700 53.51800 24.74100
C  22.12700 53.00100 28.18300
O  21.07500 53.51000 28.54100
C  23.12000 52.32500 29.26600
C  23.52800 53.51700 30.04600
O  24.43900 54.32000 29.83500
O  22.73500 53.48300 31.16700
C  23.27900 54.31400 32.22000
H  29.32300 49.44900 28.98100
H  28.51500 48.74100 22.54500
H  22.91500 51.86100 22.96700
H  25.79500 52.00700 30.76600
H  27.84100 49.69200 30.82700
H  28.02400 52.64800 30.96400
H  29.09900 51.79500 29.85900
H  29.07200 51.25400 31.50200
H  25.74700 49.09800 31.54000
H  24.43600 49.51300 30.41300
H  23.79600 49.42800 32.69100
H  23.54700 50.99600 32.26000
H  31.17000 47.57500 27.94400
H  31.42900 49.37000 27.84800
H  32.22000 48.20900 26.76900
H  32.67400 47.38400 24.73100
H  31.99700 45.95500 23.80600
H  31.48800 46.22800 25.51800
H  26.38100 48.86800 21.15100
H  24.78200 51.12800 21.01800
H  27.55300 50.26500 19.69700
H  28.25600 51.03700 21.16700
H  26.83700 51.68700 20.40800
H  23.48100 49.61200 20.45800
H  23.02700 49.56200 22.18200
H  24.85700 47.78100 22.49600
H  24.55700 47.27800 20.83200
H  23.18200 47.44200 21.91100
H  20.80400 53.90900 25.39000
H  21.07900 52.84700 24.04800
H  22.02400 54.32800 24.15800
H  22.71200 51.60300 29.97400
H  23.69300 55.22600 31.79000
H  24.07300 53.86700 32.81700
H  22.44600 54.60900 32.85900

