158

Mg 34.83600 2.52100 29.29300
C  32.89300 3.59400 31.92200
C  37.61300 2.41000 31.56600
C  36.98400 1.98900 26.76400
C  32.33400 3.39900 27.09800
N  35.20200 3.03300 31.49300
C  34.16000 3.34400 32.33600
C  34.67700 3.28600 33.76300
C  36.22700 3.15400 33.57400
C  36.40700 2.86200 32.09900
C  37.00500 4.43000 34.00400
C  33.98100 2.10800 34.52900
C  33.83200 2.36900 36.06400
H  34.86700 3.22100 36.91600
N  37.02300 2.08600 29.22800
C  37.92800 2.01100 30.21100
C  39.19300 1.50400 29.73400
C  39.00700 1.26100 28.37300
C  37.64400 1.75100 28.07700
C  40.44400 1.49800 30.56800
C  39.96500 0.69400 27.31800
O  39.61100 0.57000 26.14500
C  41.33500 0.27600 27.71900
N  34.61000 2.50200 27.20400
C  35.69200 2.28500 26.32200
C  35.17300 2.29100 24.89200
C  33.68400 2.69500 25.00900
C  33.49800 2.88500 26.52400
C  36.02100 3.09000 23.84400
C  32.65100 1.76200 24.39800
C  32.22400 0.53200 25.21500
N  32.92000 3.15600 29.45900
C  32.04700 3.48400 28.48800
C  30.78800 3.85200 29.06400
C  31.03000 3.88100 30.47200
C  32.38800 3.56900 30.61200
C  29.63700 4.25200 28.28800
C  30.50000 4.12600 31.76300
O  29.39600 4.41400 32.14600
C  31.66200 3.91000 32.82100
C  31.77800 5.19800 33.53900
O  32.19300 6.26600 33.06800
O  31.15500 5.14100 34.73200
C  31.45800 6.21000 35.66800
H  38.44700 2.22100 32.24500
H  37.44300 1.90500 25.77700
H  31.64000 3.64400 26.29200
H  34.49300 4.22400 34.28700
H  36.56700 2.22400 34.03000
H  36.39400 5.14400 34.55500
H  37.32500 4.92500 33.08700
H  37.85000 4.23300 34.66400
H  34.55600 1.19900 34.35100
H  33.00800 1.90300 34.08200
H  33.61700 1.47900 36.65400
H  32.92100 2.96700 36.03100
H  41.04500 2.30100 30.14000
H  41.09900 0.62900 30.50800
H  40.25500 1.77900 31.60400
H  41.62300 0.94500 28.53000
H  41.85400 0.34500 26.76200
H  41.29000 -0.78800 27.95300
H  35.23100 1.24200 24.60200
H  33.56000 3.68600 24.57300
H  36.31300 2.37700 23.07200
H  36.86400 3.66900 24.21900
H  35.29100 3.81500 23.48500
H  33.16700 1.31500 23.54800
H  31.74300 2.29700 24.11800
H  32.36900 0.66900 26.28600
H  32.90500 -0.27200 24.93500
H  31.20900 0.22700 24.96000
H  29.43100 5.23300 28.71800
H  28.74400 3.63200 28.35600
H  29.77400 4.43200 27.22200
H  31.25000 3.17200 33.50900
H  32.47000 6.61500 35.70600
H  31.19100 5.92600 36.68600
H  30.88000 7.11400 35.47500
Mg 54.08600 24.39200 44.89700
C  51.44600 26.68300 44.16900
C  51.85100 21.86000 44.03100
C  56.75300 22.46400 44.84700
C  56.12400 27.18600 45.47400
N  51.89200 24.24600 44.27100
C  51.09300 25.33700 43.92700
C  49.73200 24.78300 43.29700
C  49.72500 23.32500 43.97300
C  51.20800 23.09100 44.21000
C  48.86500 23.27400 45.26400
C  49.66400 24.80500 41.71000
C  48.23700 25.10900 41.21500
H  48.13700 25.28300 39.77100
N  54.34300 22.45700 44.38000
C  53.28500 21.58800 44.03700
C  53.89000 20.33600 43.83200
C  55.29400 20.39000 44.12400
C  55.56800 21.79400 44.41800
C  53.00100 19.13200 43.48000
C  56.31900 19.25000 43.92700
O  55.87800 18.15700 43.62200
C  57.76200 19.40600 44.13900
N  56.21000 24.86000 44.89600
C  56.99200 23.85000 45.09300
C  58.40900 24.36700 45.35400
C  58.23400 25.92100 45.54900
C  56.76200 26.03700 45.28300
C  59.21100 23.57500 46.41900
C  58.96100 26.75000 44.50700
C  59.26200 28.27800 44.98500
N  53.81600 26.48400 44.96100
C  54.76000 27.43300 45.34600
C  54.03900 28.68400 45.52500
C  52.74100 28.42200 44.97400
C  52.69600 27.10600 44.63000
C  54.50500 29.96200 46.06200
C  51.48300 28.94200 44.75700
O  51.19000 30.06700 44.98200
C  50.52600 27.88900 44.22200
C  50.14200 28.30800 42.88300
O  50.96000 28.55200 41.98100
O  48.76000 28.53200 42.83300
C  48.42400 29.22600 41.57200
H  51.12700 21.04800 43.93400
H  57.63200 21.81700 44.88200
H  56.69500 28.08200 45.72700
H  48.93700 25.43400 43.66200
H  49.39600 22.64900 43.18300
H  48.29800 22.37200 45.03400
H  48.27100 24.18400 45.34800
H  49.56900 23.00600 46.05200
H  49.98600 23.82300 41.36200
H  50.40300 25.46000 41.24900
H  47.80600 25.95800 41.74500
H  47.60400 24.24400 41.41400
H  53.52800 18.19000 43.32600
H  52.41900 19.45400 42.61700
H  52.33400 18.91900 44.31600
H  58.00700 20.22600 43.46400
H  58.15800 18.49900 43.68100
H  58.01400 19.43100 45.19900
H  58.79200 24.12900 44.36200
H  58.44800 26.15000 46.59200
H  59.41500 24.16300 47.31300
H  60.09500 23.12300 45.97000
H  58.52200 22.78900 46.72900
H  58.26900 26.72600 43.66500
H  59.93000 26.38700 44.16300
H  60.33000 28.26000 45.20400
H  58.76100 28.48400 45.93100
H  58.94700 28.94600 44.18400
H  55.47500 30.18600 45.61700
H  54.57300 29.79800 47.13700
H  53.73500 30.72200 45.93200
H  49.68500 27.75800 44.90300
H  49.07700 30.08500 41.41700
H  47.44000 29.69100 41.62200
H  48.48500 28.44300 40.81500

