158

Mg 47.85300 24.47900 27.90000
C  48.62600 26.80300 30.40100
C  47.30700 22.22200 30.45500
C  47.27000 22.27200 25.57600
C  48.81400 26.83400 25.54700
N  48.12200 24.50900 30.19200
C  48.26600 25.61900 30.96500
C  48.05000 25.29600 32.46900
C  47.57500 23.77200 32.44400
C  47.77600 23.41400 30.99500
C  48.33700 22.87300 33.47100
C  47.01100 26.29200 33.12300
C  46.41700 25.91400 34.45600
H  46.53100 27.09300 35.41900
N  47.25400 22.59000 28.04400
C  47.09900 21.78600 29.14000
C  46.80900 20.40000 28.68300
C  46.61700 20.42500 27.27000
C  47.05900 21.82500 26.90200
C  46.59500 19.27200 29.66000
C  46.06600 19.30400 26.27000
O  45.91800 19.53400 25.12400
C  45.79900 17.98700 26.81400
N  48.04500 24.60400 25.76800
C  47.63300 23.49400 25.04100
C  47.82400 23.81300 23.46200
C  48.04300 25.34000 23.55000
C  48.31800 25.65800 25.00800
C  48.84000 22.88000 22.80300
C  47.01100 26.27200 22.81300
C  45.61000 26.47900 23.35300
N  48.68100 26.46500 27.92300
C  48.93700 27.29300 26.85900
C  49.46100 28.55300 27.43900
C  49.39400 28.39900 28.84100
C  48.82700 27.10600 29.09800
C  49.87100 29.82400 26.73100
C  49.69900 29.00100 30.08200
O  50.28200 29.98200 30.33100
C  49.11000 28.06100 31.18600
C  50.15400 27.73800 32.19700
O  51.04400 26.89100 32.04400
O  49.99800 28.53300 33.34900
C  50.66000 28.08200 34.59300
H  47.11300 21.61900 31.34400
H  47.17700 21.51200 24.79700
H  49.22800 27.51700 24.80300
H  48.99300 25.42900 32.99900
H  46.52400 23.67900 32.71400
H  49.30500 22.52100 33.11400
H  47.65600 22.06500 33.73800
H  48.50100 23.47300 34.36600
H  46.20800 26.43400 32.40000
H  47.54300 27.23100 33.27600
H  46.75300 24.94300 34.81900
H  45.35200 25.90500 34.22100
H  47.00900 19.61300 30.60900
H  46.95500 18.35900 29.18600
H  45.54600 19.18000 29.94200
H  46.55400 17.61300 27.50400
H  45.70900 17.42100 25.88700
H  44.77200 17.95800 27.18000
H  46.94600 23.80800 22.81600
H  48.92400 25.58000 22.95500
H  48.90700 21.95000 23.36800
H  49.70600 23.54200 22.77900
H  48.59600 22.57800 21.78500
H  46.81800 25.89200 21.81000
H  47.53800 27.22600 22.79500
H  45.71100 26.57800 24.43400
H  44.89300 25.71300 23.05800
H  45.34400 27.48200 23.01900
H  48.93200 30.37400 26.67600
H  50.16700 29.64100 25.69800
H  50.64000 30.41500 27.22900
H  48.33900 28.65400 31.67900
H  50.31700 27.06500 34.78500
H  50.37200 28.71200 35.43500
H  51.74600 28.11900 34.51500
Mg 41.97600 40.60800 27.00400
C  41.28000 42.93400 29.32300
C  43.17300 38.40700 29.38900
C  42.17000 38.32300 24.57000
C  41.46200 43.03400 24.51300
N  42.13000 40.61000 29.10400
C  41.71600 41.68900 29.85900
C  41.85800 41.30800 31.35200
C  42.66500 39.93900 31.38300
C  42.73500 39.64000 29.87600
C  44.03100 39.92200 32.21800
C  40.50800 41.22200 32.10900
C  40.18000 42.15300 33.22800
H  39.74000 41.71500 34.61900
N  42.53900 38.62000 26.94700
C  42.98800 37.86600 28.05500
C  43.18600 36.51700 27.62100
C  42.92900 36.44500 26.26500
C  42.52100 37.82500 25.85800
C  43.62800 35.46100 28.52500
C  43.10500 35.26300 25.18300
O  42.81500 35.36700 23.95300
C  43.49500 33.90500 25.61600
N  41.98600 40.73000 24.79300
C  41.90200 39.62600 24.05200
C  41.55100 39.92500 22.60000
C  41.34700 41.39100 22.58400
C  41.63800 41.77200 24.01400
C  42.57500 39.38600 21.60400
C  40.02800 41.99500 21.96000
C  40.27600 43.11600 20.89800
N  41.52700 42.56700 26.87900
C  41.30300 43.41400 25.80900
C  40.96400 44.72800 26.30500
C  40.87200 44.58300 27.71700
C  41.27700 43.32600 27.99700
C  40.72500 45.95900 25.54500
C  40.49500 45.27600 28.95400
O  40.09200 46.42200 29.18000
C  40.83800 44.24300 30.04300
C  41.81400 44.71200 31.05700
O  42.99300 44.76800 30.89700
O  41.12600 45.24400 32.09400
C  41.80600 45.55500 33.35100
H  43.39600 37.76200 30.24200
H  42.12000 37.65500 23.70800
H  41.17300 43.68800 23.68700
H  42.40200 42.16000 31.75900
H  42.01000 39.15700 31.76700
H  43.74400 39.20400 32.98700
H  44.30400 40.86900 32.68500
H  44.86300 39.62400 31.57900
H  40.29000 40.19200 32.38800
H  39.83100 41.42800 31.28000
H  39.22000 42.54800 32.89400
H  40.82800 43.02800 33.27100
H  42.96000 34.61700 28.35300
H  43.65800 35.65900 29.59600
H  44.63500 35.17200 28.22500
H  42.70200 33.60300 26.30000
H  44.51100 33.87900 26.00800
H  43.43600 33.25900 24.74000
H  40.57500 39.49300 22.37900
H  42.12700 41.82800 21.96000
H  43.27600 38.71300 22.09900
H  43.08500 40.21900 21.11900
H  41.97000 38.89200 20.84400
H  39.42800 42.32900 22.80700
H  39.46100 41.22200 21.44300
H  39.94100 42.81800 19.90400
H  41.34100 43.32300 20.78800
H  39.53400 43.85700 21.19300
H  39.70000 45.92200 25.17600
H  41.47900 45.96800 24.75900
H  40.80500 46.87200 26.13600
H  39.92500 44.08000 30.61700
H  42.32900 46.51100 33.36800
H  42.45000 44.71800 33.62300
H  40.94000 45.53900 34.01200

