158

Mg 7.66100 3.28300 27.02300
C  8.59800 1.50600 29.95900
C  5.80800 5.46600 29.03200
C  6.53400 4.82200 24.28400
C  9.23300 0.93200 25.16500
N  7.31300 3.50000 29.13300
C  7.87400 2.69000 30.15400
C  7.64900 3.30200 31.57200
C  6.57600 4.40800 31.25100
C  6.52300 4.43800 29.70700
C  5.20300 4.12200 31.88400
C  8.92000 3.84800 32.22400
C  8.71500 4.63500 33.58200
H  9.47000 4.06400 34.77600
N  6.30300 4.81100 26.71100
C  5.70900 5.61100 27.66300
C  4.95000 6.65800 26.99700
C  5.12900 6.50800 25.63500
C  6.00200 5.34100 25.46700
C  3.95700 7.53200 27.83200
C  4.59400 7.44700 24.56800
O  4.74700 7.15600 23.36700
C  3.80200 8.65900 24.89300
N  7.88900 2.89000 25.00000
C  7.31400 3.70100 24.06000
C  7.69800 3.29500 22.63700
C  8.62800 2.03800 22.84600
C  8.59900 1.91000 24.41600
C  6.50600 3.10600 21.66600
C  9.99300 2.12400 22.24300
C  10.39800 0.87800 21.50100
N  8.69500 1.54300 27.42900
C  9.34700 0.71600 26.56800
C  9.98200 -0.38100 27.26900
C  9.70600 -0.11800 28.62800
C  8.96800 1.09000 28.67100
C  10.83200 -1.45600 26.58400
C  9.90900 -0.55400 29.96700
O  10.53300 -1.53100 30.40500
C  9.21600 0.46300 30.91200
C  8.25300 -0.26400 31.71600
O  7.31300 -0.89300 31.34600
O  8.38900 0.03700 33.14000
C  7.19400 -0.32100 34.00000
H  5.45900 6.23300 29.72600
H  6.16700 5.35900 23.40700
H  9.85100 0.25500 24.57100
H  7.21700 2.44700 32.09100
H  6.83000 5.41400 31.58400
H  5.24000 3.14100 32.35700
H  4.44200 4.09000 31.10500
H  5.05200 4.89400 32.63900
H  9.34100 4.50900 31.46600
H  9.57700 3.00900 32.45400
H  7.65700 4.65200 33.84600
H  8.94200 5.69600 33.48500
H  2.99700 7.33600 27.35500
H  4.16400 8.59500 27.71200
H  3.86200 7.29100 28.89100
H  2.83400 8.47800 25.36000
H  3.63400 9.10100 23.91100
H  4.35300 9.33700 25.54400
H  8.31200 4.10500 22.24500
H  8.10400 1.14900 22.49500
H  5.52100 3.43000 22.00300
H  6.34300 2.04500 21.47400
H  6.66100 3.73300 20.78800
H  10.79000 2.31300 22.96200
H  9.95500 2.98700 21.57800
H  10.48600 1.16500 20.45300
H  9.74300 0.00700 21.48000
H  11.35700 0.58200 21.92600
H  10.53400 -1.47400 25.53600
H  10.55100 -2.45900 26.90700
H  11.90600 -1.27700 26.62100
H  9.95500 0.89300 31.58800
H  6.87000 0.60800 34.46900
H  7.42000 -1.02500 34.80100
H  6.33600 -0.67000 33.42700
Mg 47.34100 17.03400 27.84000
C  45.66800 16.87900 30.92400
C  49.66700 19.15700 29.41400
C  48.54800 17.94900 24.82600
C  44.66000 15.39500 26.30000
N  47.57700 17.92400 29.99800
C  46.84000 17.63400 31.06700
C  47.43700 18.20800 32.32000
C  48.55500 19.12300 31.75700
C  48.63900 18.75400 30.27700
C  48.30200 20.67400 31.95900
C  48.09000 17.11500 33.24400
C  47.83400 17.29700 34.74400
H  47.58800 18.72100 35.27000
N  49.02600 18.18200 27.24300
C  49.90200 18.86600 28.01300
C  50.93600 19.52300 27.13000
C  50.63200 19.13000 25.78300
C  49.37200 18.37500 25.91400
C  51.97700 20.42000 27.71100
C  51.37400 19.56100 24.48000
O  50.81100 19.31900 23.45600
C  52.69900 20.26300 24.61600
N  46.72400 16.67300 25.87000
C  47.38800 17.10000 24.82500
C  46.94700 16.48800 23.49500
C  45.70500 15.56600 24.00200
C  45.63600 15.89100 25.45400
C  46.59800 17.54500 22.39500
C  45.91400 14.03100 23.74000
C  46.65700 13.18900 24.72200
N  45.61200 16.13600 28.47300
C  44.61200 15.55400 27.71000
C  43.60700 15.07000 28.62700
C  43.94900 15.59300 29.88200
C  45.15500 16.28400 29.71600
C  42.44200 14.25100 28.33500
C  43.57400 15.56700 31.24100
O  42.63900 15.04500 31.79100
C  44.62100 16.52500 31.93000
C  43.83400 17.70900 32.42300
O  43.44800 18.61300 31.81000
O  43.72800 17.58700 33.76500
C  43.25200 18.85000 34.42400
H  50.21400 19.91500 29.97800
H  48.84400 18.23100 23.81300
H  43.80300 14.88800 25.85200
H  46.66600 18.74700 32.87100
H  49.46200 18.82600 32.28300
H  48.24000 21.16900 30.99000
H  49.10800 21.08200 32.56900
H  47.36500 20.91900 32.45900
H  49.17600 17.06600 33.17200
H  47.71200 16.15200 32.90100
H  48.73400 16.93200 35.23800
H  47.12800 16.55400 35.11400
H  52.10600 20.47800 28.79200
H  51.78700 21.40600 27.28600
H  52.91200 19.98100 27.36500
H  52.72600 21.27900 25.01200
H  53.17600 20.29100 23.63600
H  53.37400 19.64700 25.20900
H  47.73400 15.84500 23.10200
H  44.78500 15.91800 23.53400
H  45.61600 17.40600 21.94100
H  47.25300 17.47800 21.52600
H  46.57700 18.57300 22.75800
H  46.57700 14.00200 22.87500
H  45.01600 13.46100 23.50200
H  47.55000 12.93900 24.14800
H  45.99000 12.35800 24.95200
H  47.00000 13.74600 25.59300
H  41.96300 13.89000 29.24500
H  42.87000 13.42100 27.77300
H  41.83700 14.87700 27.67900
H  45.05700 16.02600 32.79600
H  42.22400 19.07200 34.13800
H  43.84800 19.73500 34.19900
H  43.27300 18.86500 35.51400

