158

Mg 27.47000 51.23200 25.95900
C  25.31700 52.37200 28.66700
C  29.54600 50.11700 28.31500
C  29.44700 50.52400 23.46500
C  25.24800 52.86100 23.83100
N  27.42500 51.33500 28.23700
C  26.40400 51.62200 29.08600
C  26.83600 51.42600 30.53400
C  28.33500 51.05600 30.42600
C  28.49800 50.84100 28.89400
C  29.29600 52.08900 31.06800
C  25.92300 50.39200 31.19000
C  25.00300 50.90800 32.36000
H  25.22000 50.16800 33.60800
N  29.30500 50.52300 25.96400
C  29.97300 49.95900 26.98900
C  31.23100 49.33500 26.51400
C  31.12600 49.39900 25.09500
C  29.89900 50.21200 24.75900
C  32.25000 48.67600 27.33000
C  32.14100 48.79700 24.12900
O  32.06200 49.08500 22.92500
C  33.22000 47.86900 24.51100
N  27.20100 51.50300 23.96700
C  28.19000 51.14400 23.11800
C  27.93800 51.49400 21.66700
C  26.49300 52.07400 21.73600
C  26.27800 52.18500 23.25800
C  28.92300 52.53000 20.91700
C  25.38100 51.14200 21.19300
C  24.32600 51.87900 20.47600
N  25.66900 52.35100 26.14300
C  24.98900 53.01400 25.15900
C  23.71500 53.63500 25.65900
C  23.88600 53.52000 27.12000
C  25.03100 52.64900 27.28900
C  22.65000 54.37300 24.83300
C  23.29800 53.83000 28.44900
O  22.35000 54.49700 28.80400
C  24.17600 53.06800 29.52300
C  24.70100 54.04300 30.52500
O  25.68900 54.79500 30.36400
O  24.03900 53.95800 31.68100
C  24.59700 54.84000 32.78700
H  30.16500 49.66900 29.09500
H  30.10700 50.22200 22.64800
H  24.52200 53.21000 23.09400
H  26.75400 52.38800 31.04100
H  28.41300 50.08800 30.92200
H  28.83100 52.78300 31.76800
H  29.59300 52.83600 30.33200
H  30.17700 51.60600 31.49000
H  26.53700 49.54900 31.50800
H  25.27700 49.87900 30.47700
H  23.97500 50.85000 32.00400
H  25.30300 51.94200 32.53200
H  32.29700 47.58900 27.27800
H  32.10400 48.95400 28.37400
H  33.24400 49.10800 27.21500
H  34.04100 48.40600 24.98700
H  33.58600 47.54600 23.53600
H  32.88600 46.96500 25.02100
H  27.91300 50.56300 21.10100
H  26.46200 53.09000 21.34100
H  28.42700 53.41400 20.51600
H  29.43800 51.89000 20.20200
H  29.66000 53.00500 21.56500
H  24.81700 50.74600 22.03800
H  25.79700 50.33700 20.58700
H  24.57100 51.82100 19.41500
H  24.25700 52.90300 20.84300
H  23.40700 51.30100 20.58000
H  22.98800 55.23600 24.25900
H  21.79500 54.63900 25.45500
H  22.21000 53.59900 24.20500
H  23.60900 52.28200 30.02100
H  24.18700 54.34400 33.66600
H  24.24800 55.87100 32.73200
H  25.66700 55.04800 32.80400
Mg 1.30800 42.89900 25.95400
C  2.67600 42.89400 29.14900
C  -1.40000 41.37700 26.98700
C  0.62000 42.03300 22.75400
C  4.41400 44.01600 24.80800
N  0.71200 42.32800 27.83500
C  1.32200 42.39800 29.06000
C  0.40300 42.21900 30.31000
C  -0.78500 41.60400 29.50200
C  -0.48300 41.77400 28.01600
C  -1.17900 40.18200 29.98100
C  0.15600 43.62100 31.01200
C  0.30000 43.65100 32.53300
H  0.40300 42.26400 33.29100
N  -0.24800 41.88100 24.94900
C  -1.29400 41.30900 25.55700
C  -2.14400 40.66300 24.57100
C  -1.48400 40.74600 23.33800
C  -0.29300 41.62600 23.64800
C  -3.30900 39.88800 25.01400
C  -1.73600 40.05200 22.03500
O  -0.96200 40.03300 21.06300
C  -2.98200 39.28500 21.80600
N  2.30000 43.07000 24.03700
C  1.77500 42.86200 22.87900
C  2.67300 43.21700 21.65900
C  3.72200 44.16300 22.43500
C  3.43600 43.77000 23.84200
C  3.26900 42.03300 20.87400
C  3.58300 45.76200 22.14400
C  2.95900 46.73200 23.20800
N  3.16900 43.49600 26.74400
C  4.31600 43.90600 26.14600
C  5.39400 43.99400 27.13900
C  4.76000 43.62000 28.33600
C  3.44900 43.22800 28.00400
C  6.78500 44.51900 26.90400
C  4.92300 43.57800 29.73000
O  5.85400 43.87000 30.48100
C  3.58900 42.97300 30.32800
C  3.99100 41.74500 30.99700
O  3.94500 40.58600 30.66900
O  4.56900 42.13100 32.20100
C  5.06100 40.99500 32.95700
H  -2.23700 40.87100 27.47300
H  0.43300 41.73800 21.71900
H  5.35100 44.47500 24.48500
H  0.92300 41.41400 30.83000
H  -1.65100 42.22000 29.74200
H  -1.22900 39.44200 29.18200
H  -2.21300 40.33700 30.29100
H  -0.51200 39.83000 30.76800
H  -0.86400 43.96000 30.83200
H  0.83600 44.33500 30.54700
H  -0.60200 44.08100 32.96800
H  1.11800 44.31500 32.81300
H  -3.04000 38.83600 25.11000
H  -4.17300 39.99000 24.35600
H  -3.62900 40.25800 25.98800
H  -3.00800 38.41300 22.46000
H  -3.06500 39.03000 20.74900
H  -3.82400 39.92400 22.07000
H  1.98000 43.72800 20.99100
H  4.73300 43.75600 22.40400
H  2.93500 41.10000 21.32700
H  4.34900 41.95600 20.99900
H  2.90100 42.05300 19.84800
H  3.04400 45.77300 21.19700
H  4.64600 45.98100 22.04500
H  2.99100 46.28700 24.20200
H  1.91100 46.91000 22.96500
H  3.50000 47.67800 23.20900
H  6.78900 45.60100 27.03400
H  7.18000 44.08900 25.98300
H  7.45600 44.19900 27.70100
H  3.22300 43.72800 31.02300
H  4.25100 40.28600 33.12700
H  5.27000 41.44800 33.92600
H  5.98800 40.64200 32.50500

