158

Mg 44.22500 3.19500 47.75500
C  42.54600 6.34400 47.55900
C  41.16400 1.66400 47.54900
C  45.85500 0.39600 47.23000
C  47.22500 4.95500 47.76100
N  42.06300 4.01900 47.39200
C  41.66900 5.29300 47.50000
C  40.16800 5.35800 47.57900
C  39.72100 3.82600 47.63400
C  41.03500 3.08000 47.53100
C  38.89800 3.39900 48.93000
C  39.48300 6.08500 46.36600
C  39.82600 5.60000 44.94800
H  40.60200 6.59200 44.08600
N  43.59400 1.27100 47.59700
C  42.32200 0.79800 47.49500
C  42.37600 -0.55200 47.28000
C  43.77000 -0.97800 47.29900
C  44.46200 0.21600 47.45800
C  41.09200 -1.52800 47.16900
C  44.20700 -2.45900 47.25500
O  43.40700 -3.39200 47.16200
C  45.68700 -2.90200 47.22800
N  46.30900 2.70100 47.46100
C  46.70900 1.46900 47.35200
C  48.15500 1.33200 47.05300
C  48.71100 2.75800 47.34100
C  47.38600 3.55000 47.57400
C  48.81800 0.26300 47.85700
C  49.69300 3.32600 46.38200
C  49.06500 4.04800 45.20400
N  44.83000 5.20400 47.52400
C  46.09700 5.74400 47.72200
C  46.00600 7.24000 47.71800
C  44.61800 7.51400 47.69600
C  43.96200 6.24900 47.55500
C  47.09700 8.26100 48.09400
C  43.61900 8.51900 47.63700
O  43.79000 9.73100 47.66000
C  42.19600 7.78100 47.56900
C  41.34000 8.25500 48.74300
O  41.40900 7.71400 49.84100
O  40.47300 9.24200 48.37100
C  39.29500 9.36900 49.30400
H  40.20600 1.14100 47.50600
H  46.33100 -0.51400 46.85900
H  48.11000 5.57600 47.91100
H  39.96000 5.82400 48.54200
H  39.07800 3.60400 46.78200
H  39.63200 2.75600 49.41500
H  38.09100 2.74400 48.60000
H  38.63900 4.20000 49.62200
H  39.76100 7.13900 46.39500
H  38.42200 5.88300 46.50900
H  38.83900 5.34900 44.55800
H  40.41000 4.68000 44.98700
H  40.23100 -0.91900 46.89300
H  40.97900 -2.14000 48.06400
H  41.21700 -2.27300 46.38300
H  46.33400 -2.37100 47.92700
H  46.18400 -2.77500 46.26700
H  45.67900 -3.95800 47.50100
H  48.33500 1.23800 45.98200
H  49.24600 2.76800 48.29000
H  49.69200 0.60400 48.41100
H  49.02300 -0.56300 47.17700
H  48.14000 -0.14200 48.60900
H  50.24500 2.52100 45.89600
H  50.43800 3.94500 46.88200
H  49.07800 5.13400 45.29400
H  48.04200 3.69200 45.07600
H  49.70000 3.86800 44.33600
H  46.90000 9.16800 47.52300
H  48.06800 7.78000 47.97200
H  47.03900 8.43100 49.16900
H  41.63200 8.16200 46.71800
H  38.96400 8.38500 49.63700
H  38.44500 9.84700 48.81900
H  39.56900 9.90700 50.21200
Mg 0.66100 43.08700 25.80800
C  2.61700 43.22400 28.64100
C  -1.99600 42.00700 27.88700
C  -1.29600 42.45800 23.19700
C  3.47300 43.34600 23.79400
N  0.31300 42.73900 28.05500
C  1.26600 42.89900 28.99500
C  0.69300 42.86000 30.42700
C  -0.80700 42.35600 30.14800
C  -0.90400 42.43500 28.59100
C  -1.08500 40.90200 30.70300
C  0.79300 44.29200 31.05300
C  0.92700 44.42600 32.62200
H  0.45700 43.22300 33.38500
N  -1.43300 42.47700 25.64800
C  -2.30800 42.11900 26.57000
C  -3.62600 41.64000 25.95700
C  -3.41600 41.83900 24.59200
C  -2.01000 42.31500 24.41300
C  -4.89000 41.28100 26.79000
C  -4.30400 41.66600 23.39200
O  -4.04700 41.93000 22.24600
C  -5.67600 41.19400 23.69000
N  1.11000 42.72000 23.77900
C  0.03300 42.77200 22.86200
C  0.60300 42.63900 21.45800
C  2.06600 43.04500 21.64000
C  2.24100 43.17300 23.13000
C  0.36400 41.25400 20.77500
C  2.40200 44.41500 20.97300
C  1.95500 45.70000 21.71000
N  2.62800 43.33300 26.10600
C  3.68100 43.35700 25.19800
C  4.90600 43.54900 25.96200
C  4.54000 43.51100 27.31300
C  3.16300 43.34200 27.35000
C  6.34500 43.61300 25.39800
C  5.07900 43.48100 28.63000
O  6.25000 43.47400 29.02600
C  3.80300 43.49800 29.58300
C  3.98200 42.50000 30.64800
O  3.87800 41.31500 30.53600
O  4.13800 43.06700 31.83600
C  4.30400 42.19400 32.99600
H  -2.76400 41.64500 28.57300
H  -1.85800 42.34500 22.26700
H  4.33000 43.47200 23.12900
H  1.29600 42.22500 31.07600
H  -1.56500 43.02800 30.54900
H  -0.52200 40.63200 31.59600
H  -0.82600 40.21400 29.89900
H  -2.13100 40.87900 31.00700
H  -0.09200 44.88400 30.81900
H  1.67000 44.82400 30.68400
H  0.43500 45.34200 32.95000
H  1.98200 44.61400 32.82300
H  -5.37200 40.47200 26.24100
H  -5.54700 42.12200 27.00900
H  -4.68600 40.95400 27.81000
H  -5.95100 41.70200 24.61400
H  -5.65500 40.11700 23.85800
H  -6.30600 41.54400 22.87200
H  0.10700 43.43200 20.89900
H  2.74100 42.31100 21.20000
H  -0.19900 40.54500 21.38200
H  1.36900 40.84400 20.67000
H  -0.04000 41.35500 19.76700
H  2.13300 44.40700 19.91700
H  3.48500 44.43500 20.84700
H  0.98700 45.59800 22.20000
H  1.97600 46.55000 21.02800
H  2.79000 46.08500 22.29500
H  6.32200 43.57900 24.30800
H  7.04300 42.84300 25.72500
H  6.74700 44.58800 25.67500
H  3.73700 44.43300 30.13900
H  3.77700 42.71800 33.79400
H  5.35600 42.15300 33.27500
H  3.81900 41.21800 32.99200

