158

Mg 48.90300 46.46200 44.11800
C  45.66400 46.63000 42.84500
C  49.36100 43.54100 42.58500
C  52.11500 46.56100 45.09700
C  48.73900 49.99400 44.69400
N  47.60400 45.30500 42.82100
C  46.34800 45.46900 42.40900
C  45.86600 44.24800 41.64900
C  47.02600 43.29500 41.62700
C  48.07600 44.10300 42.31400
C  46.66800 41.92100 42.32300
C  45.27700 44.57500 40.25300
C  43.72400 44.54200 40.02800
H  43.17000 43.80400 38.80300
N  50.45200 45.21800 43.91600
C  50.44700 44.02200 43.27000
C  51.76900 43.37500 43.34500
C  52.48100 44.09800 44.31000
C  51.72000 45.39200 44.49500
C  52.13400 42.14400 42.65300
C  53.90000 43.85900 44.74600
O  54.56800 42.90800 44.35400
C  54.59200 44.64900 45.81200
N  50.29400 48.12900 44.61800
C  51.52200 47.85500 45.10000
C  52.26700 49.12700 45.66300
C  51.19400 50.25400 45.30600
C  50.01900 49.40600 44.88400
C  52.45500 49.00800 47.22700
C  51.57000 51.19200 44.10400
C  50.78100 52.47000 43.72000
N  47.52300 47.92900 43.81000
C  47.57300 49.32500 44.09000
C  46.26400 49.88700 43.89500
C  45.45800 48.81300 43.45600
C  46.30800 47.71600 43.31900
C  45.80700 51.28400 44.18400
C  44.14200 48.40700 43.04200
O  43.05300 48.99800 42.94800
C  44.14000 46.92100 42.63500
C  43.16800 46.17200 43.47800
O  43.43700 45.63400 44.52900
O  41.90800 46.23600 42.88300
C  40.72900 45.63300 43.55300
H  49.35100 42.51600 42.20800
H  53.05100 46.61300 45.65600
H  48.59600 51.03800 44.98000
H  45.05800 43.78700 42.21700
H  47.38200 42.99200 40.64200
H  45.60700 41.81200 42.54500
H  47.21500 41.81600 43.26100
H  47.00100 41.24100 41.54000
H  45.83300 44.01700 39.49900
H  45.54300 45.60700 40.02500
H  43.47700 45.58900 39.85200
H  43.16200 44.32100 40.93400
H  52.87100 42.47400 41.92200
H  51.33100 41.54000 42.23000
H  52.61900 41.47500 43.36400
H  54.01900 44.87900 46.71000
H  54.90800 45.60200 45.38700
H  55.34900 43.95000 46.16700
H  53.22100 49.11800 45.13600
H  50.91900 50.93600 46.11200
H  52.97600 48.08300 47.47200
H  51.46400 49.08700 47.67300
H  52.98800 49.88000 47.60500
H  51.61500 50.49500 43.26700
H  52.61300 51.47000 44.25500
H  49.95200 52.67900 44.39600
H  50.21500 52.31600 42.80100
H  51.46300 53.30500 43.56000
H  46.06000 51.52200 45.21700
H  44.77000 51.56800 44.00300
H  46.33300 51.95200 43.50100
H  43.96600 46.84700 41.56200
H  40.02500 45.42600 42.74800
H  40.24700 46.25800 44.30500
H  41.12900 44.69100 43.92900
Mg 0.79100 43.96700 25.47500
C  2.58300 43.93800 28.50000
C  -2.10600 43.46700 27.31600
C  -0.87300 43.70600 22.53400
C  3.75400 44.61100 23.75300
N  0.29700 43.56400 27.63000
C  1.21700 43.72700 28.70700
C  0.57400 43.40300 30.03300
C  -0.91200 43.12500 29.57000
C  -0.95700 43.42900 28.09100
C  -1.43300 41.61700 29.77500
C  0.64300 44.65500 31.03500
C  1.33900 44.48900 32.40500
H  1.00000 43.25900 33.19000
N  -1.16400 43.62000 24.99300
C  -2.23200 43.61100 25.87900
C  -3.47900 43.37400 25.12900
C  -3.14400 43.31600 23.75100
C  -1.70000 43.57800 23.71400
C  -4.87600 43.38300 25.67900
C  -4.04300 43.21800 22.54900
O  -3.58400 43.07200 21.42800
C  -5.56900 43.25800 22.64400
N  1.34400 44.15200 23.45300
C  0.50000 43.90600 22.38200
C  1.29300 43.93700 21.04000
C  2.58500 44.72800 21.51500
C  2.60700 44.50200 23.01400
C  1.53200 42.56400 20.61800
C  2.61300 46.18900 21.03900
C  2.85400 46.29300 19.52300
N  2.72000 44.19000 25.96700
C  3.84000 44.42500 25.19800
C  5.09300 44.51800 25.93400
C  4.65200 44.33400 27.28500
C  3.21700 44.14000 27.21700
C  6.44900 44.76700 25.50700
C  5.06400 44.21800 28.71500
O  6.20400 44.16100 29.22400
C  3.72600 44.10200 29.51700
C  3.94800 42.88100 30.34700
O  3.60400 41.71900 30.09800
O  4.57500 43.29600 31.52200
C  4.97200 42.25500 32.55200
H  -3.00500 43.25500 27.89900
H  -1.33500 43.71900 21.54500
H  4.66100 44.79800 23.17400
H  1.05300 42.51800 30.45400
H  -1.67700 43.67500 30.11800
H  -0.64900 41.08900 30.31800
H  -1.72000 41.08500 28.86800
H  -2.32700 41.82600 30.36200
H  -0.35900 44.98700 31.30500
H  1.20300 45.39000 30.45600
H  1.01900 45.35900 32.97900
H  2.42400 44.57200 32.34100
H  -5.52500 44.17900 25.31600
H  -4.97100 43.22400 26.75300
H  -5.35500 42.46200 25.34400
H  -6.03400 42.34900 23.02600
H  -6.01900 43.32600 21.65400
H  -5.78900 44.09100 23.31200
H  0.78400 44.48300 20.24600
H  3.54300 44.25600 21.29600
H  2.26100 42.53100 19.80900
H  0.61200 42.11500 20.24100
H  1.88700 41.87800 21.38600
H  3.51900 46.53000 21.54000
H  1.72000 46.75400 21.30300
H  3.83900 46.70500 19.30300
H  2.23100 47.03700 19.02800
H  2.78700 45.28000 19.12800
H  7.12800 43.99600 25.87100
H  6.71600 45.76300 25.85900
H  6.48700 44.91800 24.42800
H  3.58700 45.03200 30.06900
H  4.55700 42.58200 33.50500
H  6.06100 42.27500 32.51800
H  4.58100 41.26500 32.31900

