158

Mg 8.60200 2.98800 27.35400
C  9.66200 1.12200 30.18500
C  6.60400 4.92700 29.40200
C  7.43900 4.37600 24.55000
C  10.29300 0.47900 25.31500
N  8.17100 2.85900 29.49400
C  8.80800 2.16600 30.53100
C  8.45700 2.71500 31.92300
C  7.45400 3.92200 31.52700
C  7.36900 3.89100 30.03100
C  5.98300 3.66800 32.02900
C  9.82300 3.11000 32.70200
C  9.63400 4.04100 33.87600
H  10.45200 3.72700 35.21100
N  7.16900 4.40100 27.06700
C  6.50500 5.13800 28.01400
C  5.69200 6.12900 27.31000
C  5.93900 5.94700 25.86000
C  6.90800 4.85700 25.79300
C  4.76000 7.08500 28.05900
C  5.34800 6.67000 24.72000
O  5.50500 6.44000 23.51300
C  4.38100 7.85900 25.07200
N  8.84900 2.53000 25.23800
C  8.27600 3.29400 24.26700
C  8.64500 2.78000 22.79300
C  9.41200 1.44800 23.09300
C  9.50500 1.43000 24.64400
C  7.41800 2.63300 21.85200
C  10.81900 1.26500 22.32300
C  10.96600 -0.01000 21.46600
N  9.87200 1.22400 27.61000
C  10.46700 0.31000 26.73600
C  11.18600 -0.74300 27.47500
C  10.92900 -0.40900 28.83400
C  10.13200 0.76700 28.88300
C  11.97400 -1.90000 26.84200
C  11.18200 -0.88900 30.20500
O  11.77300 -1.82700 30.71600
C  10.41000 0.17100 31.09900
C  9.44600 -0.56000 31.99600
O  8.59500 -1.33200 31.60800
O  9.67700 -0.24500 33.35000
C  8.67400 -0.69300 34.31200
H  6.04900 5.57200 30.08600
H  7.32400 4.98100 23.64800
H  10.81900 -0.31100 24.77600
H  8.00700 1.95400 32.56000
H  7.85000 4.90100 31.80000
H  6.01100 2.95700 32.85500
H  5.34800 3.46600 31.16700
H  5.91500 4.68600 32.41400
H  10.38800 3.59300 31.90500
H  10.34600 2.29300 33.20000
H  8.56200 4.19100 34.00600
H  9.98400 5.03500 33.59700
H  4.83500 6.92900 29.13500
H  3.85500 6.70500 27.58400
H  4.91600 8.11200 27.72800
H  3.41700 7.58100 25.49800
H  4.19000 8.30900 24.09800
H  4.89500 8.56400 25.72500
H  9.31500 3.46600 22.27400
H  8.71400 0.63200 22.90700
H  6.48500 2.79200 22.39200
H  7.45400 1.61800 21.45800
H  7.41600 3.32700 21.01100
H  11.70600 1.13300 22.94400
H  11.05800 2.13600 21.71300
H  10.74500 0.35700 20.46400
H  10.19500 -0.74700 21.69100
H  11.98000 -0.39600 21.35700
H  12.53600 -1.59200 25.96000
H  11.39900 -2.77500 26.54000
H  12.76200 -2.14400 27.55500
H  11.16300 0.71100 31.67200
H  8.18700 -1.66700 34.25300
H  7.96500 0.09300 34.57300
H  9.24500 -0.89500 35.21800
Mg 16.88700 -2.29500 28.78600
C  15.68000 -0.13700 31.15800
C  18.45500 -4.01600 31.36700
C  18.56100 -3.98300 26.45700
C  15.43300 -0.24400 26.24600
N  17.07100 -2.03000 31.10400
C  16.44000 -1.08800 31.82500
C  16.55100 -1.40100 33.33400
C  17.64700 -2.54200 33.37700
C  17.72700 -2.93700 31.87400
C  18.94700 -2.10400 34.17400
C  15.15400 -1.63300 33.98600
C  15.10000 -2.43400 35.33400
H  16.14200 -2.00900 36.41200
N  18.35100 -3.72200 28.86200
C  18.70100 -4.38000 30.04100
C  19.47200 -5.55300 29.58600
C  19.55100 -5.54300 28.15600
C  18.85100 -4.38900 27.77500
C  19.92700 -6.53500 30.57700
C  20.30100 -6.50200 27.22800
O  20.29500 -6.38000 26.02900
C  21.16500 -7.59100 27.70800
N  17.16300 -2.00800 26.60000
C  17.82400 -2.95500 25.91700
C  17.60400 -2.71900 24.31300
C  16.62100 -1.56800 24.30400
C  16.37100 -1.29200 25.73700
C  18.89100 -2.44500 23.62800
C  15.31900 -1.81500 23.49800
C  15.03700 -0.76700 22.38000
N  15.65500 -0.63300 28.66800
C  15.14700 0.08700 27.56900
C  14.30800 1.13600 28.12400
C  14.49200 1.06400 29.51600
C  15.35500 0.00300 29.80600
C  13.45800 2.14300 27.47600
C  14.07500 1.69000 30.75400
O  13.26200 2.58300 31.02400
C  14.86800 0.93300 31.85400
C  15.53500 1.93200 32.82500
O  16.58200 2.51800 32.62500
O  14.67000 2.16800 33.86800
C  15.35300 2.85500 34.99500
H  19.09300 -4.43800 32.14700
H  18.99800 -4.55700 25.63700
H  14.84300 0.33100 25.53000
H  16.92400 -0.54600 33.89800
H  17.37200 -3.40500 33.98300
H  18.72500 -2.08000 35.24100
H  19.28100 -1.11500 33.86000
H  19.77400 -2.78300 33.96700
H  14.44600 -1.93300 33.21400
H  14.86300 -0.64800 34.35100
H  15.00500 -3.49600 35.10600
H  14.17400 -2.11800 35.81300
H  19.12900 -6.78100 31.27800
H  20.72500 -6.17000 31.22400
H  20.21400 -7.51100 30.18500
H  21.53100 -8.21800 26.89500
H  20.57700 -8.26000 28.33500
H  22.01000 -7.12900 28.21900
H  17.25500 -3.60600 23.78500
H  17.16100 -0.75700 23.81600
H  18.81700 -1.86800 22.70600
H  19.40400 -3.38900 23.44400
H  19.48100 -1.83700 24.31300
H  14.48600 -1.92300 24.19200
H  15.42200 -2.73900 22.92900
H  14.04600 -0.32000 22.46000
H  15.01300 -1.31000 21.43500
H  15.79300 0.00900 22.25200
H  13.49900 2.01800 26.39400
H  13.76200 3.15500 27.74300
H  12.44300 1.95100 27.82200
H  14.16200 0.38700 32.48100
H  15.40600 2.12100 35.79900
H  14.81400 3.74100 35.33100
H  16.37700 3.16900 34.79200

