158

Mg 42.86400 42.61400 26.39800
C  41.96700 44.91800 28.80600
C  44.10300 40.53800 28.91400
C  44.42900 40.63300 24.00100
C  42.21300 45.02800 23.97800
N  43.12400 42.73000 28.64200
C  42.47200 43.71900 29.36100
C  42.57100 43.39800 30.89800
C  43.39000 42.03300 30.88500
C  43.48700 41.63700 29.39300
C  44.75100 42.03400 31.58200
C  41.12400 43.29200 31.46000
C  40.78400 44.22400 32.58200
H  40.13600 43.78200 33.90700
N  44.02800 40.85100 26.44000
C  44.33600 40.08300 27.57300
C  44.80700 38.77300 27.11100
C  44.93900 38.86700 25.69600
C  44.51300 40.20600 25.31200
C  45.14700 37.73900 28.22100
C  45.41700 37.78900 24.72100
O  45.59600 37.92700 23.51200
C  45.56000 36.31700 25.27600
N  43.41200 42.80800 24.35000
C  43.79500 41.79700 23.53700
C  43.61400 42.09400 22.09700
C  42.80300 43.40500 22.17200
C  42.78000 43.75300 23.61900
C  44.84900 42.18900 21.17400
C  41.38400 43.30000 21.50800
C  40.32900 42.55900 22.34100
N  42.13200 44.56100 26.30900
C  42.00900 45.40100 25.31400
C  41.54500 46.65400 25.79800
C  41.48300 46.50700 27.20300
C  41.86700 45.20000 27.46400
C  41.36200 47.96700 24.97300
C  41.23500 47.24500 28.38000
O  40.79900 48.37100 28.56500
C  41.50900 46.21200 29.54100
C  42.51100 46.83300 30.46200
O  43.73300 46.81600 30.33300
O  41.92300 47.33200 31.56700
C  42.81600 47.63400 32.68100
H  44.23600 39.81000 29.71700
H  44.61500 39.88500 23.22700
H  41.96600 45.61600 23.09100
H  43.18300 44.17800 31.35000
H  42.84500 41.18100 31.29100
H  45.55000 41.73400 30.90400
H  44.78700 41.43200 32.48900
H  44.99300 43.04800 31.89900
H  40.87000 42.25300 31.66700
H  40.41800 43.58600 30.68400
H  40.07500 44.93300 32.15500
H  41.63300 44.86000 32.83200
H  45.01100 36.68900 27.96100
H  44.67800 37.84800 29.19900
H  46.21100 37.79500 28.44900
H  46.27700 36.39100 26.09300
H  46.01700 35.65200 24.54200
H  44.53400 36.03400 25.51400
H  42.99400 41.33200 21.62500
H  43.32600 44.16000 21.58600
H  45.45400 41.32400 21.44800
H  45.39500 43.13200 21.18000
H  44.54000 42.13700 20.13000
H  41.53600 42.83500 20.53400
H  40.97900 44.29100 21.30300
H  40.78500 42.12800 23.23200
H  39.75200 41.87000 21.72500
H  39.57800 43.31800 22.56100
H  41.46300 48.94800 25.43700
H  40.35900 47.89300 24.55300
H  42.05000 48.07300 24.13500
H  40.56500 46.19600 30.08700
H  42.13300 47.67200 33.52900
H  43.32900 48.58400 32.52900
H  43.49100 46.79100 32.83100
Mg 1.62600 42.04200 26.01900
C  3.19000 42.26300 29.14500
C  -0.99300 40.73700 27.48500
C  0.68700 41.27400 22.96900
C  4.80400 43.11300 24.66300
N  1.17100 41.74200 28.13900
C  1.89500 41.94000 29.26900
C  1.05300 41.64300 30.56400
C  -0.36600 41.37000 29.87100
C  -0.05400 41.23800 28.42900
C  -1.18100 40.25600 30.52900
C  1.13000 42.83100 31.48100
C  -0.07600 43.28100 32.41600
H  -0.38900 42.55300 33.71400
N  0.03700 41.11200 25.35600
C  -0.95200 40.67800 26.12400
C  -1.88700 39.97900 25.34600
C  -1.39600 40.16600 23.94500
C  -0.17500 40.90900 24.04700
C  -3.09800 39.28000 25.82300
C  -2.00000 39.61200 22.69200
O  -1.50500 39.85600 21.57900
C  -3.28400 38.76800 22.70200
N  2.59700 42.22800 24.14200
C  1.93100 41.89100 22.99700
C  2.73900 42.26800 21.71400
C  3.83600 43.17500 22.34200
C  3.80600 42.72100 23.77500
C  3.29300 41.05300 20.98300
C  3.69200 44.73300 22.26300
C  4.25600 45.29300 20.97900
N  3.54500 42.57700 26.66500
C  4.75900 42.98000 26.04000
C  5.83500 43.14600 26.97600
C  5.25100 42.84500 28.21200
C  3.89800 42.48500 27.97800
C  7.26500 43.52500 26.68300
C  5.54300 42.70000 29.58100
O  6.62900 42.88400 30.20400
C  4.22500 42.40600 30.25800
C  4.37600 41.11900 31.00100
O  4.32400 40.02100 30.48800
O  4.24500 41.23100 32.32900
C  4.29800 39.99800 33.21500
H  -1.86400 40.24600 27.92400
H  0.44100 41.22300 21.90600
H  5.75200 43.40900 24.20900
H  1.39500 40.77900 31.13400
H  -0.96400 42.26400 30.05100
H  -0.70200 40.00400 31.47500
H  -1.32300 39.39400 29.87700
H  -2.19300 40.62500 30.69800
H  1.50800 43.75400 31.04200
H  1.84200 42.57900 32.26700
H  -1.00600 43.40900 31.86100
H  0.09000 44.28100 32.81700
H  -3.94500 39.76000 25.33100
H  -3.35100 39.45000 26.86900
H  -3.04900 38.20500 25.65300
H  -3.22700 37.84300 23.27500
H  -3.45600 38.34200 21.71400
H  -4.15700 39.28200 23.10500
H  2.09500 42.79100 21.00600
H  4.85000 42.92700 22.02900
H  2.71000 40.22900 21.39500
H  4.35800 40.85600 21.10300
H  2.98700 41.19600 19.94700
H  4.34200 45.01000 23.09300
H  2.66900 45.08300 22.40000
H  5.09300 45.95200 21.21000
H  3.45900 45.89900 20.55000
H  4.63100 44.47200 20.36700
H  7.28100 44.03500 25.72000
H  7.77400 42.56100 26.67500
H  7.53900 44.13300 27.54500
H  4.02400 43.23400 30.93800
H  3.58500 39.28100 32.80900
H  4.19100 40.19300 34.28200
H  5.25100 39.48500 33.08200

