158

Mg 53.25200 23.89200 44.68200
C  50.81600 26.09600 43.51300
C  51.44600 21.27800 43.29000
C  55.87700 21.76400 45.20300
C  55.18600 26.54400 45.45900
N  51.43400 23.73100 43.44700
C  50.60200 24.78700 43.06000
C  49.67500 24.25700 42.03600
C  49.42400 22.80500 42.48300
C  50.88200 22.55700 43.19100
C  48.16200 22.46700 43.39200
C  50.26500 24.34800 40.51700
C  49.43400 24.98000 39.44000
H  50.17000 25.72900 38.30300
N  53.58400 21.79800 44.38800
C  52.69400 20.89800 43.88000
C  53.36000 19.56200 43.79800
C  54.62600 19.67100 44.33700
C  54.78100 21.10900 44.66000
C  52.68600 18.30800 43.31000
C  55.65700 18.46200 44.40800
O  55.37900 17.39600 43.89100
C  57.05600 18.62100 44.93900
N  55.28600 24.13000 45.14000
C  56.13000 23.13200 45.41900
C  57.42200 23.66800 46.01700
C  57.29700 25.14000 45.77300
C  55.77100 25.28900 45.58000
C  57.97200 23.11200 47.32500
C  57.98500 25.70100 44.48400
C  58.33500 27.22600 44.65900
N  53.06000 25.97400 44.63300
C  53.89600 26.95400 45.13300
C  53.15600 28.19400 45.16400
C  51.95000 27.90000 44.54800
C  51.93400 26.53200 44.24100
C  53.61400 29.53300 45.71700
C  50.75800 28.56700 44.07900
O  50.54500 29.74300 44.01200
C  49.98900 27.43400 43.40100
C  49.64200 27.88400 42.03600
O  50.50100 28.16800 41.17000
O  48.32000 28.13300 41.90300
C  47.92500 28.92800 40.77200
H  50.80900 20.47500 42.91300
H  56.72200 21.12800 45.47300
H  55.84800 27.33500 45.81700
H  48.72700 24.78400 42.14600
H  49.45500 22.05500 41.69300
H  47.55000 21.71200 42.89900
H  47.55100 23.34000 43.61800
H  48.45400 22.19700 44.40700
H  50.33500 23.32100 40.15900
H  51.22800 24.86100 40.51700
H  48.79200 25.73500 39.89400
H  48.64100 24.34100 39.05200
H  53.18100 17.78800 42.49000
H  51.73700 18.51400 42.81500
H  52.44500 17.65500 44.14900
H  57.59500 17.70300 44.70100
H  56.96700 18.72600 46.02100
H  57.46500 19.44400 44.35400
H  58.19000 23.35500 45.31000
H  57.55700 25.73600 46.64800
H  58.85400 22.49000 47.17300
H  57.16900 22.52300 47.76800
H  58.19700 24.01500 47.89300
H  57.31100 25.58100 43.63600
H  58.88600 25.13400 44.25100
H  57.53200 27.91100 44.38400
H  59.29100 27.48000 44.20300
H  58.40400 27.45700 45.72200
H  53.73700 30.17100 44.84200
H  54.61500 29.42600 46.13500
H  53.03100 29.98100 46.52200
H  49.07600 27.31500 43.98400
H  48.09700 28.27400 39.91700
H  48.49000 29.83700 40.56800
H  46.85200 29.11700 40.81200
Mg 1.27800 41.16200 26.74400
C  3.28000 41.99300 29.41300
C  -1.09700 40.06000 29.02200
C  -0.66000 40.26900 24.06900
C  3.82800 42.10200 24.54900
N  1.05700 41.13300 28.97200
C  2.00900 41.52800 29.84300
C  1.52300 41.62200 31.21300
C  0.21000 40.77600 31.16600
C  -0.02000 40.70300 29.64600
C  0.41000 39.38600 31.74600
C  1.27500 43.14000 31.66500
C  1.82600 43.46000 33.03200
H  1.58900 42.39800 34.12800
N  -0.60000 40.27600 26.55700
C  -1.41100 39.80600 27.60500
C  -2.45100 38.90600 27.02200
C  -2.27600 38.97700 25.58200
C  -1.11100 39.90300 25.36700
C  -3.37900 38.16500 27.91300
C  -3.03600 38.14300 24.49800
O  -2.79600 38.19400 23.28100
C  -4.19000 37.22700 24.99800
N  1.41600 41.41300 24.65200
C  0.49500 41.01000 23.78700
C  0.99800 41.30700 22.35600
C  2.43400 41.91500 22.52100
C  2.56300 41.80100 24.00300
C  0.96700 40.06900 21.34900
C  2.67200 43.35800 22.01400
C  2.18900 44.54600 22.86700
N  3.18400 41.91800 26.87700
C  4.17000 42.18400 25.94000
C  5.29300 42.79600 26.56600
C  5.02100 42.67100 27.95000
C  3.71000 42.17100 28.11100
C  6.51100 43.40600 25.95200
C  5.64600 42.78100 29.24100
O  6.79000 43.06100 29.56400
C  4.48600 42.38300 30.24700
C  4.91700 41.15000 30.99300
O  5.04100 39.94700 30.63100
O  5.24100 41.47600 32.26800
C  5.35900 40.40500 33.17600
H  -1.81600 39.53200 29.65300
H  -1.36400 40.01400 23.27400
H  4.61600 42.37700 23.84500
H  2.33800 41.12100 31.73500
H  -0.57800 41.23800 31.76000
H  -0.38100 38.95300 32.35900
H  1.32800 39.33000 32.33100
H  0.55600 38.66000 30.94600
H  0.18700 43.19000 31.70300
H  1.73800 43.82800 30.95700
H  1.47700 44.44400 33.34700
H  2.89500 43.65200 32.94100
H  -3.45100 37.07900 27.84400
H  -4.36500 38.51800 27.61200
H  -3.35200 38.60600 28.90900
H  -3.87100 36.30500 25.48300
H  -4.77100 36.97700 24.11000
H  -4.76000 37.95900 25.57000
H  0.32100 42.06100 21.95500
H  3.14300 41.20900 22.08900
H  0.43400 39.16700 21.64900
H  1.98300 39.70700 21.19400
H  0.46900 40.42300 20.44600
H  2.22500 43.45700 21.02500
H  3.75900 43.44200 22.02800
H  3.03400 45.09200 23.28800
H  1.65400 44.21600 23.75800
H  1.56200 45.23400 22.30100
H  6.35200 43.75700 24.93200
H  7.36300 42.73700 26.07700
H  6.87300 44.22700 26.57000
H  4.38700 43.25700 30.89100
H  6.32600 39.90700 33.11500
H  4.56700 39.65600 33.14200
H  5.29400 40.85500 34.16700

