158

Mg 0.78300 8.75700 25.52400
C  1.69300 10.55500 28.34800
C  0.80100 5.90300 27.39800
C  0.25600 7.07400 22.66000
C  0.83400 11.62900 23.67700
N  1.17300 8.30100 27.72200
C  1.47500 9.19600 28.63900
C  1.40500 8.51000 30.03400
C  1.34100 6.93200 29.68800
C  1.03800 7.03800 28.20600
C  2.63700 6.10500 30.18600
C  0.21600 9.01600 30.94500
C  0.43700 9.03800 32.45700
H  1.48400 8.17400 33.13200
N  0.47700 6.75200 25.04500
C  0.67900 5.72300 25.95300
C  0.52100 4.48600 25.27300
C  0.27400 4.82000 23.88900
C  0.37700 6.26100 23.81400
C  0.76100 3.12600 26.00300
C  0.10800 3.81900 22.71400
O  0.40700 4.24600 21.58700
C  -0.38400 2.36900 22.91400
N  0.64900 9.21400 23.36700
C  0.35000 8.37400 22.40000
C  0.31600 8.97900 21.00900
C  0.24200 10.47700 21.41600
C  0.57800 10.45000 22.95800
C  1.54500 8.54500 20.15000
C  -1.08900 11.21400 21.15700
C  -0.94600 12.58600 20.42300
N  1.43200 10.68400 25.80900
C  1.41900 11.77500 25.01200
C  1.82200 12.98200 25.75100
C  1.97100 12.58600 27.03200
C  1.63900 11.17300 27.02400
C  1.88100 14.33400 25.14600
C  2.25300 13.01800 28.36200
O  2.51300 14.19600 28.75000
C  1.91600 11.76800 29.20900
C  3.01200 11.64200 30.18900
O  4.03500 11.09400 29.88200
O  2.61700 12.07900 31.45200
C  3.58000 11.82000 32.52300
H  0.92000 4.98000 27.96800
H  -0.03800 6.54000 21.75400
H  0.81200 12.54200 23.07800
H  2.43000 8.71600 30.34500
H  0.47600 6.60200 30.26400
H  3.25100 6.84400 30.70100
H  3.14200 5.69700 29.31100
H  2.37200 5.26400 30.82600
H  -0.57600 8.26900 30.89100
H  -0.31900 9.85300 30.49600
H  -0.47400 8.99300 33.05400
H  0.91900 9.99100 32.67600
H  1.81900 3.11100 26.26600
H  0.60300 2.24300 25.38400
H  0.16600 2.98100 26.90500
H  -1.13100 2.16900 23.68300
H  0.58800 1.93100 23.13900
H  -0.69800 1.87500 21.99500
H  -0.65500 8.72200 20.58600
H  1.08500 10.93600 20.89900
H  1.39800 8.51900 19.07100
H  1.94500 7.55300 20.36000
H  2.39500 9.21600 20.27500
H  -1.60300 11.19000 22.11800
H  -1.59300 10.65100 20.37100
H  -0.02200 13.15900 20.50500
H  -1.73100 13.21200 20.84700
H  -1.21600 12.39300 19.38400
H  1.89200 14.19300 24.06500
H  2.85300 14.77900 25.36000
H  1.09600 15.02900 25.44200
H  1.06100 12.04700 29.82400
H  4.47700 11.26800 32.24300
H  3.22100 11.38900 33.45800
H  3.88700 12.77400 32.95100
Mg 46.57800 24.59000 28.50500
C  47.49000 27.04300 30.89400
C  45.68800 22.45800 31.34700
C  45.92700 22.05400 26.41700
C  48.22000 26.36300 26.11200
N  46.59900 24.72000 30.85400
C  46.86300 25.88200 31.50000
C  46.53500 25.83400 32.99800
C  46.36300 24.26200 33.21600
C  46.19100 23.71700 31.70600
C  47.45000 23.57000 33.97100
C  45.33700 26.68500 33.37800
C  45.42200 27.42100 34.80000
H  46.46800 27.11100 35.84400
N  45.71600 22.69500 28.76000
C  45.53600 21.96000 29.96900
C  45.05800 20.63500 29.70200
C  44.91300 20.48400 28.23400
C  45.54700 21.75000 27.76100
C  44.77000 19.64800 30.76200
C  44.35800 19.37100 27.39600
O  44.37600 19.41500 26.16600
C  43.77700 18.12600 28.11400
N  46.89300 24.26500 26.48000
C  46.67200 23.15000 25.88500
C  47.19100 23.18000 24.47000
C  47.79100 24.63800 24.31300
C  47.63100 25.14300 25.75100
C  48.40400 22.21600 24.12200
C  47.27400 25.49200 23.08500
C  46.23500 26.57700 23.44200
N  47.50300 26.39800 28.44100
C  48.18000 27.00800 27.37800
C  48.64900 28.27900 27.85600
C  48.40500 28.29400 29.22200
C  47.74100 27.12200 29.51900
C  49.22700 29.33800 27.03300
C  48.46600 29.14800 30.41800
O  48.79300 30.33600 30.54200
C  47.89500 28.35500 31.59700
C  48.94200 28.13700 32.64500
O  49.78200 27.26800 32.65700
O  48.91700 29.20500 33.56500
C  49.98200 29.24200 34.55600
H  45.29400 21.96700 32.23900
H  45.75000 21.28000 25.66700
H  48.77100 26.89600 25.33400
H  47.41200 26.24700 33.49600
H  45.51700 24.02200 33.86000
H  48.09500 24.33600 34.40000
H  48.07900 22.91600 33.36800
H  47.11900 22.93100 34.79000
H  44.32600 26.32000 33.19600
H  45.44900 27.48100 32.64100
H  44.47400 27.32100 35.32800
H  45.75600 28.40800 34.47900
H  43.90800 19.05800 30.45300
H  44.71000 20.11300 31.74600
H  45.71100 19.10800 30.66100
H  44.60200 17.62000 28.61600
H  43.38300 17.46200 27.34500
H  42.99100 18.51700 28.76000
H  46.26900 23.01400 23.91200
H  48.86400 24.62300 24.12300
H  49.24700 22.45700 24.77000
H  48.79100 22.47400 23.13600
H  48.11400 21.16500 24.12500
H  46.83600 24.68400 22.49900
H  48.15500 25.72200 22.48600
H  45.76000 26.35400 24.39700
H  45.47900 26.49100 22.66100
H  46.81000 27.50100 23.37500
H  48.52200 29.76900 26.32200
H  49.90000 28.86800 26.31500
H  49.63300 30.13500 27.65600
H  47.05500 28.94200 31.96900
H  49.87800 30.20800 35.05100
H  50.98000 29.16300 34.12400
H  49.86500 28.47700 35.32300

