158

Mg -2.35000 17.38700 27.70200
C  -2.56800 15.08700 30.27900
C  -2.93300 19.94100 29.72100
C  -2.39700 19.45400 24.85500
C  -2.10700 14.68200 25.34600
N  -2.90800 17.42900 29.73100
C  -2.78700 16.44700 30.68300
C  -2.92400 16.98700 32.18300
C  -3.05800 18.52400 31.94300
C  -2.96000 18.65000 30.36900
C  -4.22300 19.19100 32.65800
C  -1.78200 16.63800 33.24000
C  -1.39200 17.64600 34.40700
H  -1.08100 16.96200 35.67800
N  -2.54400 19.37400 27.36400
C  -2.74200 20.26000 28.37800
C  -2.75600 21.63700 27.86500
C  -2.38600 21.49500 26.46700
C  -2.42200 20.05300 26.14300
C  -3.01100 22.86000 28.64700
C  -1.98300 22.56800 25.45100
O  -1.63800 22.31500 24.27800
C  -1.87900 23.96200 25.88200
N  -2.44600 17.13000 25.40400
C  -2.40900 18.18500 24.54700
C  -2.19300 17.66200 23.05800
C  -1.81300 16.19300 23.29400
C  -2.17300 15.93400 24.75400
C  -3.43100 17.79000 22.22600
C  -0.32100 15.93300 23.03200
C  0.71600 16.46000 24.05100
N  -2.50100 15.32300 27.61700
C  -2.33200 14.36100 26.68700
C  -2.27900 13.09700 27.37000
C  -2.47600 13.28000 28.73300
C  -2.59600 14.66100 28.87400
C  -1.92400 11.79900 26.70600
C  -2.40600 12.60900 29.96300
O  -1.97700 11.52900 30.25900
C  -2.56900 13.73100 31.07200
C  -1.53500 13.63400 32.12200
O  -0.36200 13.98000 32.00100
O  -2.13000 13.16100 33.27600
C  -1.30000 13.17600 34.49200
H  -2.94400 20.74500 30.46000
H  -2.42700 20.07900 23.95900
H  -1.76200 13.89000 24.67800
H  -3.82100 16.54500 32.61800
H  -2.16700 19.12200 32.13300
H  -4.76500 18.52700 33.33100
H  -4.93500 19.42000 31.86500
H  -3.85600 20.11600 33.10200
H  -0.83600 16.49800 32.71700
H  -2.16800 15.74100 33.72500
H  -2.14900 18.41100 34.57800
H  -0.43400 18.08600 34.12700
H  -2.26100 23.65000 28.68800
H  -3.29600 22.50800 29.63800
H  -3.89600 23.30400 28.19200
H  -2.79400 24.27600 26.38400
H  -1.53000 24.58500 25.05800
H  -1.06600 23.97300 26.60700
H  -1.39600 18.28300 22.64800
H  -2.36200 15.45800 22.70500
H  -4.17300 18.42200 22.71400
H  -3.89500 16.84600 21.94100
H  -3.13400 18.29500 21.30600
H  -0.08700 16.38500 22.06800
H  -0.03500 14.93100 22.71200
H  1.59500 16.92300 23.60100
H  1.04500 15.85200 24.89400
H  0.29400 17.33400 24.54800
H  -1.13500 11.82100 25.95300
H  -2.79500 11.35600 26.22400
H  -1.68400 10.99700 27.40400
H  -3.55100 13.66200 31.53800
H  -1.17300 12.15700 34.85700
H  -1.73700 13.81200 35.26200
H  -0.26600 13.50700 34.39700
Mg 6.00900 54.03200 40.49700
C  5.35700 50.48200 39.80100
C  9.23400 53.40500 39.51000
C  6.46100 57.30500 40.55100
C  2.52900 54.42600 40.82300
N  7.12000 52.12700 39.66200
C  6.66300 50.86700 39.50800
C  7.87300 49.87300 39.27000
C  9.08300 50.83000 39.61600
C  8.43900 52.20900 39.62700
C  9.79000 50.54900 40.92400
C  8.04800 49.13200 37.88600
C  8.01200 50.00400 36.54200
H  6.87600 49.77000 35.57900
N  7.74000 55.21800 40.10300
C  8.91100 54.80500 39.66200
C  9.72900 55.95700 39.49500
C  8.99200 57.08400 40.01600
C  7.67200 56.61500 40.26000
C  11.18600 55.78100 39.07900
C  9.53200 58.47200 40.21100
O  10.71800 58.74100 39.94600
C  8.72300 59.63700 40.67800
N  4.65400 55.61800 40.48100
C  5.12800 56.89100 40.66500
C  3.90800 57.84300 40.86500
C  2.68400 56.90800 40.94600
C  3.30500 55.55800 40.74300
C  4.03200 58.79700 42.13800
C  1.48200 57.22300 40.00900
C  0.28700 57.93000 40.59800
N  4.36100 52.77000 40.50000
C  3.01100 53.07200 40.76100
C  2.18300 51.89100 40.72400
C  3.12400 50.85700 40.45300
C  4.39100 51.39700 40.29800
C  0.70100 51.72400 40.88100
C  3.26600 49.49000 40.29800
O  2.45700 48.62000 40.45300
C  4.71700 49.14200 39.80600
C  4.50300 48.56500 38.42100
O  3.87500 49.09000 37.51300
O  4.87700 47.25100 38.49100
C  4.49900 46.45300 37.29600
H  10.20100 53.05800 39.14100
H  6.59000 58.38300 40.67200
H  1.48900 54.63300 41.08600
H  7.68400 49.17000 40.08100
H  9.73400 50.79300 38.74200
H  9.56100 51.30300 41.67700
H  10.87100 50.54100 40.78200
H  9.60000 49.53500 41.27500
H  7.33200 48.31200 37.93800
H  9.06100 48.73400 37.81300
H  8.95800 49.90700 36.00800
H  7.84600 51.01400 36.91800
H  11.49100 54.79500 39.43100
H  11.82100 56.34400 39.76300
H  11.40600 56.06900 38.05100
H  9.44000 60.45800 40.65800
H  8.40000 59.32700 41.67200
H  8.01000 59.69000 39.85500
H  3.70000 58.41400 39.96000
H  2.31000 56.88000 41.96900
H  3.04900 58.92800 42.59000
H  4.56700 59.65100 41.72100
H  4.65200 58.31600 42.89400
H  1.13600 56.28600 39.57400
H  1.74200 57.78700 39.11400
H  0.28600 58.88700 40.07600
H  0.48100 58.13100 41.65200
H  -0.70400 57.49300 40.48000
H  0.52800 50.94200 41.62000
H  0.24300 51.36600 39.95900
H  0.24600 52.65300 41.22500
H  5.15400 48.37500 40.44600
H  5.14400 45.57400 37.26500
H  4.56500 47.05500 36.38900
H  3.47800 46.09200 37.42200

