158

Mg 41.64700 40.95700 26.96500
C  40.55300 43.27100 29.27900
C  42.69900 38.92500 29.61900
C  42.87500 38.64100 24.71900
C  41.14800 43.27200 24.41100
N  41.70700 41.10700 29.13400
C  41.06200 42.08500 29.83700
C  40.99900 41.70800 31.39700
C  42.02100 40.53500 31.46700
C  42.18800 40.17600 30.02400
C  43.33400 40.86100 32.15300
C  39.49700 41.36100 31.77100
C  38.92600 42.12600 32.90300
H  38.39100 41.27200 34.14100
N  42.70900 39.04800 27.14900
C  42.86300 38.33600 28.30000
C  43.29900 36.93700 27.98300
C  43.47200 36.89200 26.62500
C  42.99800 38.26600 26.13900
C  43.60100 35.89900 29.04800
C  43.86400 35.81200 25.70300
O  44.16000 35.98200 24.48600
C  44.12700 34.49500 26.27000
N  42.09800 40.98800 24.85300
C  42.44200 39.86600 24.15300
C  42.52800 40.19400 22.63900
C  42.13900 41.69200 22.56000
C  41.74300 42.01900 24.02500
C  43.95000 39.95100 22.05100
C  41.08000 42.04000 21.57600
C  39.66600 41.53000 21.81700
N  41.00500 42.92600 26.82500
C  40.79600 43.67200 25.70800
C  40.21900 44.89300 26.12500
C  40.07500 44.83000 27.54700
C  40.53600 43.58100 27.90800
C  39.88600 45.93500 25.13500
C  39.63500 45.39400 28.73100
O  39.03300 46.39500 28.93300
C  39.96900 44.45800 29.89400
C  40.89800 45.21600 30.78500
O  41.95000 45.72400 30.46000
O  40.39700 45.20500 32.10200
C  41.12500 45.93400 33.13100
H  42.88600 38.19600 30.41000
H  43.27700 37.97400 23.95300
H  40.96800 43.99900 23.61600
H  41.48200 42.51500 31.94800
H  41.62900 39.70900 32.06200
H  43.21700 41.64400 32.90300
H  44.11200 41.16300 31.45300
H  43.68300 39.96700 32.66900
H  39.38800 40.29800 31.98600
H  38.91500 41.61200 30.88400
H  38.19400 42.88000 32.61600
H  39.72400 42.76500 33.28200
H  42.90100 35.06300 29.04600
H  43.51100 36.26900 30.06900
H  44.61300 35.51100 28.93500
H  43.32400 34.24800 26.96400
H  45.06400 34.66800 26.79800
H  44.20800 33.73700 25.49100
H  41.81500 39.62700 22.04000
H  43.06700 42.25400 22.44700
H  43.92500 38.89100 21.79800
H  44.73200 40.05700 22.80300
H  44.15400 40.65600 21.24500
H  41.42000 41.58000 20.64800
H  41.05200 43.11500 21.39600
H  39.70200 40.76100 22.58900
H  39.34800 41.02000 20.90700
H  39.00800 42.32500 22.16800
H  39.19400 45.48600 24.42200
H  40.83600 46.19000 24.66500
H  39.40800 46.77400 25.64000
H  39.11900 44.25100 30.54400
H  40.89000 45.62700 34.15000
H  40.86700 46.98700 33.01900
H  42.19200 45.92700 32.90600
Mg 26.29300 49.78300 26.16400
C  24.19300 51.00500 28.78400
C  28.33900 48.65300 28.58800
C  28.62600 49.35500 23.80300
C  24.28600 51.30800 23.91800
N  26.40300 50.08400 28.47400
C  25.35000 50.39300 29.30100
C  25.65500 49.97400 30.79600
C  27.02000 49.33600 30.66200
C  27.27600 49.30700 29.12700
C  28.13300 50.12300 31.41800
C  24.52300 49.12400 31.42600
C  23.64600 49.79800 32.49800
H  23.66100 49.05300 33.84600
N  28.22900 49.10400 26.22900
C  28.88100 48.60700 27.29800
C  30.14900 48.07900 26.91900
C  30.30900 48.33400 25.53900
C  29.04200 48.97000 25.15500
C  31.22400 47.47300 27.88300
C  31.39500 47.95000 24.58500
O  31.38800 48.07600 23.35600
C  32.61500 47.22400 25.11900
N  26.40000 50.33600 24.13500
C  27.40000 49.88400 23.40200
C  27.07300 50.13800 21.87400
C  25.58400 50.66100 21.94100
C  25.40900 50.84300 23.37300
C  28.12600 51.12300 21.21600
C  24.56000 49.71200 21.38200
C  24.01400 49.94300 19.97600
N  24.56000 50.80000 26.25800
C  23.91000 51.41000 25.28200
C  22.65800 51.93300 25.79200
C  22.73700 51.66800 27.18200
C  23.91000 51.10300 27.44500
C  21.49900 52.66100 25.08600
C  21.96300 51.92500 28.37000
O  20.80900 52.35300 28.52800
C  22.86200 51.45000 29.46800
C  23.08300 52.55100 30.45000
O  24.02100 53.34400 30.48700
O  22.18400 52.56800 31.43200
C  22.27500 53.67000 32.41800
H  28.92600 48.13500 29.34900
H  29.22500 49.03300 22.94800
H  23.55100 51.57100 23.15400
H  25.80300 50.84200 31.43900
H  26.94800 48.29100 30.96200
H  28.90800 50.58000 30.80200
H  28.56500 49.56400 32.24800
H  27.63400 50.96800 31.89300
H  24.96400 48.22000 31.84600
H  23.84900 48.69300 30.68600
H  22.59800 49.98700 32.26700
H  23.98100 50.82500 32.64700
H  30.97100 47.54800 28.94100
H  32.16800 48.01600 27.85300
H  31.43200 46.44000 27.60300
H  33.20400 47.72800 25.88600
H  33.10300 46.97600 24.17700
H  32.13400 46.30500 25.45600
H  27.13400 49.25700 21.23500
H  25.51800 51.64500 21.47700
H  27.60900 51.86300 20.60400
H  28.71500 50.63600 20.43800
H  28.80900 51.74100 21.80000
H  23.65800 49.61700 21.98600
H  25.10400 48.78000 21.22500
H  24.72200 50.32800 19.24200
H  23.11100 50.53800 20.11300
H  23.73300 48.93400 19.67400
H  21.85400 52.93000 24.09100
H  21.24000 53.61500 25.54600
H  20.69300 51.92900 25.04200
H  22.40600 50.63000 30.02400
H  22.52200 54.65000 32.01000
H  23.18200 53.48300 32.99400
H  21.46200 53.78600 33.13500

