158

Mg -1.47700 16.95300 26.29200
C  -2.03700 14.62900 28.88400
C  -1.81600 19.48600 28.52200
C  -1.07400 19.12100 23.69900
C  -1.72100 14.33000 23.96900
N  -1.79300 16.99900 28.46100
C  -1.99600 15.95400 29.30900
C  -2.25300 16.45500 30.71800
C  -2.13400 18.01200 30.58100
C  -2.02600 18.18900 29.07800
C  -3.32300 18.86500 31.25100
C  -1.21200 15.67000 31.69400
C  -0.57000 16.57400 32.79000
H  -0.59500 15.83600 34.13700
N  -1.41200 19.07000 26.17000
C  -1.57700 19.87200 27.16000
C  -1.46300 21.24500 26.67800
C  -1.31300 21.15200 25.28400
C  -1.18300 19.74500 24.96400
C  -1.66800 22.39200 27.60400
C  -1.24900 22.29500 24.20300
O  -1.10400 22.06000 23.03500
C  -1.29300 23.82000 24.62800
N  -1.35400 16.72700 24.09500
C  -1.15200 17.78900 23.29500
C  -1.04500 17.34000 21.82700
C  -1.06100 15.74200 21.94200
C  -1.43600 15.59300 23.39900
C  -2.21800 17.85700 20.87400
C  0.21200 14.93300 21.47400
C  0.25400 14.85200 19.91000
N  -1.75600 14.86400 26.36600
C  -1.83900 13.93500 25.34200
C  -2.03900 12.58800 25.88900
C  -2.19800 12.84100 27.27400
C  -1.94800 14.19000 27.51200
C  -2.03100 11.23700 25.06800
C  -2.43900 12.22100 28.55600
O  -2.60400 11.04900 28.77400
C  -2.48700 13.32700 29.64200
C  -1.77800 12.74300 30.80700
O  -0.54100 12.64500 30.79500
O  -2.56400 12.30700 31.87900
C  -1.81400 11.71700 32.97500
H  -1.82700 20.25100 29.30100
H  -0.81900 19.73200 22.83100
H  -1.76600 13.59000 23.16700
H  -3.27400 16.20200 31.00200
H  -1.18700 18.36200 30.99200
H  -2.99000 19.42400 32.12600
H  -4.10100 18.17100 31.57000
H  -3.84400 19.46800 30.50700
H  -0.36000 15.33300 31.10400
H  -1.67200 14.83600 32.22400
H  -0.99600 17.56900 32.92000
H  0.44500 16.78100 32.45100
H  -1.40800 22.24900 28.65300
H  -2.59800 22.94900 27.48900
H  -0.91500 23.09700 27.25100
H  -1.50200 24.50200 23.80400
H  -0.34900 23.98500 25.14800
H  -2.00200 23.79100 25.45500
H  -0.08800 17.64800 21.40700
H  -1.87600 15.37000 21.32100
H  -2.87000 18.61400 21.31000
H  -2.87700 17.06200 20.52300
H  -1.73600 18.22800 19.97000
H  0.12700 13.96200 21.96300
H  1.11700 15.37600 21.88900
H  1.11900 15.30400 19.42400
H  -0.59200 15.18100 19.30700
H  0.32100 13.81200 19.59200
H  -1.14000 11.11800 24.45000
H  -2.96500 10.98400 24.56600
H  -2.07100 10.51800 25.88600
H  -3.49100 13.69200 29.85700
H  -1.14300 12.49200 33.34400
H  -1.13900 10.93400 32.62800
H  -2.41400 11.30800 33.78800
Mg 30.74300 58.44000 40.65100
C  27.97300 56.49500 39.81800
C  32.80900 55.97400 39.48000
C  33.25700 60.69500 40.65700
C  28.43100 61.24100 41.26800
N  30.39200 56.53100 39.62000
C  29.19800 55.87400 39.44100
C  29.40900 54.56800 38.69500
C  30.80400 54.21800 39.16200
C  31.40000 55.62100 39.38100
C  31.04400 53.28600 40.45100
C  29.24700 54.67100 37.16400
C  28.08600 53.81300 36.64400
H  27.24600 54.50500 35.58200
N  32.80000 58.28300 40.28400
C  33.43100 57.20300 39.82900
C  34.84900 57.38500 39.91100
C  35.03300 58.84900 40.14600
C  33.65400 59.34500 40.30500
C  35.97700 56.28400 39.58900
C  36.28600 59.60000 39.99000
O  37.36200 58.97600 39.86700
C  36.39300 61.06600 39.94600
N  30.72500 60.69700 40.82800
C  31.96800 61.35100 40.90000
C  31.76300 62.77600 41.05500
C  30.23000 62.93500 41.27500
C  29.77700 61.59800 41.10700
C  32.53500 63.35500 42.29000
C  29.48300 63.97900 40.32300
C  28.76900 65.11300 41.06000
N  28.63000 58.77500 40.68800
C  27.82100 59.92500 41.00200
C  26.48000 59.47700 40.98000
C  26.48300 58.20400 40.47000
C  27.80300 57.77500 40.33700
C  25.36100 60.37900 41.34800
C  25.67400 57.11600 40.11400
O  24.44500 57.03900 40.07700
C  26.57400 55.95400 39.66500
C  26.31200 54.77200 40.49500
O  26.89800 54.61900 41.53200
O  25.26400 54.04900 40.01400
C  24.79400 52.95100 40.90400
H  33.47400 55.11800 39.34900
H  34.09100 61.40000 40.65100
H  27.69800 61.99700 41.55900
H  28.82200 53.79800 39.19600
H  31.35300 53.73900 38.35000
H  30.17900 52.62300 40.49000
H  31.31300 53.94100 41.27900
H  31.82100 52.56400 40.19700
H  30.11600 54.32700 36.60200
H  29.04800 55.71000 36.90300
H  27.53400 53.54500 37.54400
H  28.46300 52.85400 36.28900
H  35.51100 55.34500 39.88600
H  36.84000 56.32800 40.25400
H  36.18700 56.29200 38.52000
H  36.27900 61.46800 40.95300
H  35.61900 61.53400 39.33900
H  37.41400 61.27100 39.62400
H  32.11600 63.14600 40.09300
H  29.99100 63.21200 42.30100
H  33.52900 62.91700 42.37400
H  31.86300 63.26300 43.14400
H  32.67100 64.43500 42.22700
H  28.86800 63.37400 39.65800
H  30.24700 64.52200 39.76600
H  29.07900 65.13500 42.10500
H  27.68500 65.03900 40.97600
H  29.15700 66.09000 40.77000
H  25.72700 60.93300 42.21200
H  24.47400 59.77100 41.53300
H  25.23700 61.01700 40.47400
H  26.30800 55.67800 38.64500
H  23.94200 53.29400 41.49100
H  25.57400 52.56800 41.56200
H  24.48300 52.23900 40.13800

