158

Mg 46.92700 46.65800 43.78600
C  43.61300 46.76900 42.75300
C  47.41400 43.67700 42.01600
C  50.13500 46.88800 44.19200
C  46.42300 49.83300 45.14800
N  45.65100 45.60000 42.32200
C  44.33600 45.74500 42.16500
C  43.83600 44.57600 41.22000
C  44.93500 43.50600 41.28400
C  46.09000 44.30100 41.96900
C  44.73800 42.16200 42.13600
C  43.53600 45.11100 39.80000
C  42.26200 44.59500 39.14100
H  42.51600 43.25800 38.32300
N  48.55700 45.32100 43.28600
C  48.61300 44.21900 42.52800
C  49.93200 43.60200 42.60000
C  50.77000 44.57000 43.24200
C  49.84400 45.66600 43.55200
C  50.24600 42.22100 41.92700
C  52.23300 44.33100 43.48000
O  52.79600 43.24700 43.30700
C  53.15400 45.42900 44.11900
N  48.04500 48.12800 44.67600
C  49.42900 48.01600 44.63800
C  50.07400 49.29100 45.16500
C  48.86700 50.24900 45.48200
C  47.68600 49.37100 45.08500
C  51.22800 49.16100 46.18600
C  48.97000 51.58700 44.74800
C  49.36000 52.81700 45.55700
N  45.35000 48.11200 43.92200
C  45.24500 49.25100 44.60100
C  43.89700 49.76700 44.68100
C  43.24000 48.78100 44.02000
C  44.14100 47.83300 43.53600
C  43.41700 50.96700 45.35800
C  41.91700 48.35500 43.61200
O  40.82000 48.86600 43.77000
C  42.16900 47.00200 42.78900
C  41.48000 45.92600 43.55200
O  40.69200 45.06400 43.13000
O  41.89300 45.99100 44.82300
C  41.73300 44.78600 45.71500
H  47.45000 42.64900 41.65000
H  51.21200 47.06300 44.23700
H  46.32600 50.81300 45.62100
H  42.90200 44.13700 41.57100
H  45.37600 43.30000 40.30800
H  43.71000 41.80900 42.05600
H  44.90500 42.48200 43.16500
H  45.41600 41.38600 41.78100
H  44.37800 44.76100 39.20400
H  43.49200 46.19400 39.91700
H  41.96500 45.34500 38.40700
H  41.46900 44.34500 39.84500
H  51.23800 42.20100 41.47600
H  49.52500 42.05000 41.12800
H  50.17700 41.38400 42.62300
H  53.40300 46.16400 43.35300
H  54.10600 44.96700 44.38300
H  52.65500 45.83900 44.99600
H  50.59900 49.68400 44.29400
H  48.87300 50.40400 46.56100
H  51.09100 49.89900 46.97600
H  52.14400 49.49000 45.69400
H  51.13800 48.17100 46.63200
H  48.02400 51.75900 44.23500
H  49.72700 51.43100 43.97800
H  50.39200 53.10600 45.35800
H  49.04400 52.84300 46.59900
H  48.83000 53.67900 45.15100
H  44.15700 51.53700 45.92000
H  42.77800 50.57200 46.14800
H  42.80500 51.49500 44.62700
H  41.69700 47.07200 41.80900
H  42.04400 45.00200 46.73800
H  42.31600 43.91300 45.41900
H  40.65700 44.66200 45.83300
Mg -1.78700 34.09900 26.57800
C  -2.87500 32.23700 29.32700
C  -0.99200 36.63000 28.57900
C  -1.42700 36.07000 23.79000
C  -3.78600 32.01100 24.57300
N  -1.89200 34.27700 28.64200
C  -2.10400 33.33700 29.63300
C  -1.63500 33.83300 31.08700
C  -1.09500 35.19600 30.74800
C  -1.38900 35.42700 29.22900
C  -1.43900 36.43300 31.61100
C  -0.77600 32.94000 31.97800
C  -1.04900 33.02000 33.53000
H  -0.01400 32.38000 34.54000
N  -1.13800 36.02600 26.20000
C  -0.84600 36.87300 27.16900
C  -0.09300 37.95500 26.64200
C  -0.33700 37.90700 25.22200
C  -1.03200 36.65900 25.03700
C  0.78800 38.88200 27.49300
C  0.18700 38.77300 24.06600
O  0.06100 38.56600 22.85800
C  0.88200 40.04500 24.54600
N  -2.34700 34.05200 24.50000
C  -2.01000 34.89100 23.51300
C  -2.60300 34.53800 22.16700
C  -3.27600 33.18400 22.45000
C  -3.14000 33.06700 24.00800
C  -3.56900 35.58200 21.58600
C  -2.77400 32.02700 21.55000
C  -1.62800 31.21900 22.09800
N  -2.91100 32.23800 26.82600
C  -3.74100 31.61600 25.89200
C  -4.43000 30.53400 26.56400
C  -4.08800 30.74700 27.98400
C  -3.20900 31.77500 28.02400
C  -5.20800 29.37600 25.98300
C  -4.24500 30.25500 29.32600
O  -4.95900 29.36500 29.77900
C  -3.49900 31.19300 30.22600
C  -4.39500 31.86100 31.22500
O  -5.14700 32.80700 31.02200
O  -4.19100 31.23500 32.43000
C  -4.76700 31.83700 33.70200
H  -0.50900 37.33200 29.26200
H  -1.30500 36.74200 22.93800
H  -4.47700 31.46700 23.92600
H  -2.54700 33.94200 31.67400
H  -0.01100 35.08300 30.75700
H  -2.00700 36.23300 32.52000
H  -2.03000 37.13000 31.01700
H  -0.53300 37.01000 31.79700
H  0.25400 33.28700 31.89800
H  -0.82300 31.90800 31.63000
H  -1.99500 32.49300 33.65500
H  -1.24400 34.04700 33.83900
H  1.84900 38.87400 27.24000
H  0.58400 38.60600 28.52700
H  0.32900 39.86300 27.37500
H  0.88900 40.84600 23.80600
H  1.89100 39.89100 24.92900
H  0.24500 40.35500 25.37500
H  -1.74300 34.34400 21.52600
H  -4.30700 33.40800 22.17400
H  -3.00200 36.49800 21.42000
H  -4.21600 35.87600 22.41300
H  -4.01900 35.22300 20.66100
H  -2.50700 32.29500 20.52700
H  -3.61400 31.38000 21.29700
H  -0.91200 31.16600 21.27800
H  -2.01300 30.20800 22.22800
H  -1.10100 31.69500 22.92500
H  -4.85700 28.43000 26.39400
H  -5.20600 29.38900 24.89300
H  -6.22400 29.41100 26.37600
H  -2.63100 30.64800 30.59600
H  -4.16500 32.71600 33.93200
H  -4.72300 31.11200 34.51400
H  -5.77800 32.16500 33.45900

