158

Mg 1.78600 42.17500 25.70500
C  2.97500 42.27900 29.06100
C  -1.17400 41.10300 26.83800
C  0.93500 41.74000 22.46700
C  4.92500 43.31900 24.66100
N  1.03000 41.91300 27.75200
C  1.63200 41.95000 28.95800
C  0.63400 41.78000 30.08400
C  -0.63600 41.25600 29.34700
C  -0.27400 41.49200 27.84200
C  -0.91500 39.76300 29.65400
C  0.51100 43.05000 30.96300
C  -0.38500 43.03900 32.21100
H  -0.82100 41.70700 32.81300
N  0.12000 41.52800 24.76700
C  -1.09700 41.17400 25.42600
C  -2.07900 40.75400 24.39400
C  -1.46000 40.85200 23.11500
C  -0.08800 41.44600 23.44500
C  -3.52500 40.31800 24.77300
C  -1.98000 40.49600 21.80400
O  -1.25500 40.44400 20.82500
C  -3.38300 39.81200 21.72100
N  2.77900 42.43400 23.83300
C  2.17900 42.26700 22.60900
C  3.11000 42.56700 21.44700
C  4.25700 43.30500 22.14300
C  4.02800 43.02900 23.62200
C  3.50900 41.30800 20.62900
C  4.45300 44.80900 21.66100
C  5.55200 45.12400 20.71100
N  3.54800 42.78900 26.60400
C  4.73700 43.20000 26.07700
C  5.71800 43.46600 27.15000
C  5.10800 43.05000 28.33800
C  3.79000 42.71400 27.98200
C  7.15300 43.86000 26.94200
C  5.24100 42.82400 29.73300
O  6.21500 42.97000 30.50700
C  3.86800 42.37200 30.24400
C  4.05000 41.01400 30.86900
O  4.31100 39.92000 30.29600
O  3.98000 41.12000 32.19900
C  4.15200 39.89900 32.96100
H  -2.14800 40.70500 27.13200
H  0.64500 41.68600 21.41600
H  5.77800 43.82700 24.20600
H  1.09900 41.04800 30.74400
H  -1.46900 41.85000 29.72100
H  -1.93500 39.57800 29.99100
H  -0.24400 39.30400 30.38100
H  -0.60300 39.27600 28.73000
H  0.08000 43.82000 30.32300
H  1.54200 43.38300 31.08100
H  -1.19800 43.74900 32.05800
H  0.23200 43.51700 32.97200
H  -4.22100 40.93500 24.20500
H  -3.82400 40.63400 25.77200
H  -3.72900 39.24800 24.72900
H  -4.08200 40.64200 21.61600
H  -3.49400 39.04300 22.48500
H  -3.50200 39.26700 20.78500
H  2.54300 43.30000 20.87300
H  5.17100 42.86100 21.74800
H  3.44000 40.39800 21.22500
H  4.52500 41.34300 20.23800
H  2.75300 41.05900 19.88400
H  4.52300 45.36000 22.59800
H  3.47500 45.18500 21.35800
H  6.12800 44.23100 20.46900
H  6.12500 45.93000 21.17100
H  5.13400 45.40300 19.74300
H  7.78200 42.97000 26.94900
H  7.48100 44.61700 27.65500
H  7.24500 44.29800 25.94800
H  3.48700 43.03300 31.02200
H  5.20200 39.62300 33.05800
H  3.67600 39.05000 32.47000
H  3.73300 39.82500 33.96500
Mg -4.89100 24.97700 25.51900
C  -3.30100 26.00900 28.41500
C  -7.11000 23.16100 27.37800
C  -5.95700 23.56100 22.66100
C  -2.24200 26.48600 23.59600
N  -5.06600 24.57200 27.71000
C  -4.44500 25.26400 28.72700
C  -5.07900 24.96100 30.10600
C  -6.23700 23.92200 29.73700
C  -6.19100 23.89400 28.17300
C  -5.98400 22.48400 30.40100
C  -5.68600 26.27500 30.72600
C  -5.32200 26.66400 32.10300
H  -4.89600 25.51300 33.09300
N  -6.32200 23.53500 25.07600
C  -7.16800 22.92400 25.99900
C  -8.14300 22.12200 25.31800
C  -7.82800 22.17700 23.95500
C  -6.66700 23.16400 23.82000
C  -9.22300 21.34200 26.02600
C  -8.50500 21.45000 22.81600
O  -8.05100 21.57200 21.66300
C  -9.70800 20.65400 23.03700
N  -4.25100 25.10400 23.44900
C  -4.84200 24.40700 22.46100
C  -4.36700 24.77000 21.03700
C  -3.21700 25.80100 21.35000
C  -3.25500 25.83900 22.87300
C  -3.90500 23.51500 20.18400
C  -3.37000 27.22300 20.74800
C  -2.34800 27.66800 19.74200
N  -3.15700 26.05800 25.87600
C  -2.24400 26.67100 25.00300
C  -1.31100 27.43500 25.76600
C  -1.68500 27.20200 27.09500
C  -2.74600 26.28600 27.11300
C  -0.36100 28.50500 25.16000
C  -1.38300 27.55500 28.45500
O  -0.59900 28.37000 28.84400
C  -2.37300 26.74000 29.36700
C  -1.58200 25.92400 30.29000
O  -1.08400 24.84400 29.95400
O  -1.29100 26.61500 31.39100
C  -0.46600 25.99400 32.37800
H  -7.91900 22.66700 27.91900
H  -6.20700 23.17700 21.67000
H  -1.31800 26.89800 23.18500
H  -4.38200 24.54000 30.83100
H  -7.13400 24.39500 30.13600
H  -6.06000 21.65500 29.69700
H  -6.66000 22.39800 31.25200
H  -4.96800 22.35900 30.77500
H  -6.77000 26.15900 30.70800
H  -5.50800 27.10400 30.04100
H  -6.27000 26.97600 32.53900
H  -4.66100 27.52900 32.16500
H  -10.22600 21.61800 25.70100
H  -9.39600 21.54900 27.08200
H  -9.02400 20.28800 25.83300
H  -9.34400 19.85100 23.67800
H  -10.12900 20.32600 22.08700
H  -10.57300 21.17300 23.45200
H  -5.27400 25.24300 20.66000
H  -2.24900 25.37500 21.08500
H  -4.37600 23.64900 19.21000
H  -4.19400 22.59800 20.69700
H  -2.81700 23.52200 20.11700
H  -3.36700 27.96600 21.54500
H  -4.28000 27.19800 20.14900
H  -2.80200 27.84600 18.76700
H  -1.58100 26.91200 19.57700
H  -1.88900 28.58100 20.12200
H  -0.14300 29.20500 25.96700
H  -0.78500 28.93300 24.25200
H  0.61800 28.11500 24.88200
H  -3.01900 27.40800 29.93700
H  0.59900 26.04900 32.14800
H  -0.83300 24.97900 32.52800
H  -0.66300 26.51200 33.31600

