158

Mg 17.34500 51.14700 26.56600
C  19.42800 49.83600 29.13000
C  15.12100 52.13100 29.00800
C  15.47100 52.37600 24.18600
C  19.61300 49.92100 24.20600
N  17.27600 51.00900 28.85400
C  18.24800 50.44000 29.62100
C  17.74900 50.53000 31.10400
C  16.23100 50.90300 30.97300
C  16.19100 51.41500 29.53600
C  15.17800 49.80400 31.28200
C  18.63000 51.39900 32.02900
C  18.68900 50.95300 33.51500
H  17.82100 51.50700 34.61500
N  15.58000 52.14400 26.59000
C  14.79300 52.51900 27.67000
C  13.73700 53.48500 27.20600
C  13.73800 53.31600 25.78000
C  14.92300 52.57300 25.44200
C  12.79500 54.07700 28.16500
C  12.78300 53.91600 24.76900
O  12.85100 53.68500 23.58400
C  11.66800 54.68200 25.30100
N  17.47100 51.03800 24.48400
C  16.63800 51.73100 23.74600
C  16.94900 51.74400 22.26300
C  18.46300 51.25500 22.34100
C  18.53300 50.71800 23.71100
C  15.93900 50.90100 21.39000
C  19.46900 52.32400 21.95000
C  20.29300 51.93600 20.70200
N  19.04100 49.94700 26.58100
C  19.88100 49.57200 25.51900
C  21.02400 48.90800 26.06200
C  20.89900 49.00800 27.47500
C  19.66900 49.68000 27.76000
C  22.19200 48.37500 25.17900
C  21.51600 48.63300 28.73800
O  22.59300 48.14700 29.02000
C  20.50900 49.11300 29.82500
C  20.07500 47.86100 30.58200
O  19.16600 47.10300 30.21900
O  20.74500 47.77800 31.74100
C  20.07800 46.91000 32.76700
H  14.48200 52.53000 29.79800
H  14.86200 52.71600 23.34600
H  20.31700 49.63000 23.42300
H  17.74800 49.50100 31.46300
H  16.08000 51.77200 31.61400
H  14.68900 50.08900 32.21300
H  15.64900 48.83200 31.13600
H  14.44600 49.66900 30.48500
H  18.15700 52.38000 32.07200
H  19.65600 51.57000 31.70300
H  19.72200 51.16700 33.78700
H  18.60900 49.86600 33.53600
H  13.23800 54.06500 29.16100
H  11.87000 53.50100 28.19900
H  12.59600 55.14600 28.09600
H  12.00700 55.55900 25.85300
H  11.09300 54.00400 25.93300
H  11.09700 55.04600 24.44700
H  16.94100 52.78400 21.93600
H  18.55400 50.36800 21.71500
H  15.64900 51.48400 20.51600
H  15.09900 50.47700 21.94100
H  16.46700 50.08800 20.89200
H  20.20100 52.44500 22.74800
H  18.99600 53.30500 21.89100
H  20.29200 52.75300 19.98100
H  19.89300 51.13300 20.08300
H  21.35500 51.80000 20.90700
H  21.74700 47.67400 24.47300
H  22.96500 47.92200 25.80000
H  22.58100 49.25000 24.65900
H  21.01300 49.64300 30.63300
H  20.78700 46.23000 33.24000
H  19.22600 46.29500 32.47600
H  19.75200 47.47000 33.64400
Mg 1.53700 42.04600 25.58800
C  3.45600 42.28100 28.54200
C  -1.16000 41.04300 27.41600
C  0.01000 41.14800 22.69800
C  4.57800 42.28800 23.72500
N  1.25500 41.77700 27.82500
C  2.14800 42.04300 28.89800
C  1.39200 42.03200 30.21500
C  -0.09600 41.55300 29.86000
C  -0.07400 41.44700 28.25300
C  -0.37400 40.13800 30.37700
C  1.34300 43.47800 30.80400
C  1.66300 43.58500 32.27100
H  1.30200 42.32200 33.18200
N  -0.34900 41.28800 25.12000
C  -1.28900 40.90200 26.01800
C  -2.43900 40.31500 25.35100
C  -2.09800 40.32700 23.88300
C  -0.80300 41.00300 23.84200
C  -3.72200 39.85100 26.05200
C  -2.90600 39.85400 22.70500
O  -2.50800 39.79800 21.62100
C  -4.32000 39.48100 23.03300
N  2.17700 41.87700 23.55100
C  1.29400 41.61200 22.55300
C  1.97300 41.60800 21.19000
C  3.33600 42.23300 21.48900
C  3.37700 42.16700 23.03000
C  2.05400 40.17400 20.55200
C  3.45200 43.73400 21.02500
C  4.90800 44.30600 20.84000
N  3.59000 42.30400 25.96600
C  4.69100 42.33400 25.13000
C  5.85300 42.56400 25.94900
C  5.41200 42.47400 27.27300
C  4.02600 42.36000 27.24300
C  7.28900 42.80700 25.39900
C  5.87600 42.54800 28.61500
O  6.93300 42.73100 29.10600
C  4.67300 42.51400 29.47900
C  4.69300 41.37700 30.35800
O  4.57700 40.19400 30.07800
O  4.80000 41.83400 31.68900
C  5.21600 40.72500 32.59500
H  -2.11000 40.80300 27.89800
H  -0.62100 40.81900 21.87000
H  5.53900 42.46800 23.23900
H  1.89400 41.37900 30.92900
H  -0.99900 42.03600 30.23100
H  -0.34000 39.46200 29.52200
H  -1.37700 39.91500 30.74200
H  0.23700 39.76900 31.20000
H  0.39600 44.01000 30.71800
H  2.21400 44.03100 30.45100
H  1.08100 44.37000 32.75400
H  2.71400 43.81200 32.45200
H  -4.48900 40.56800 25.75800
H  -3.61600 40.00100 27.12600
H  -3.94400 38.80500 25.83900
H  -4.39100 38.49400 23.49000
H  -4.89500 39.40700 22.11000
H  -4.72600 40.30100 23.62600
H  1.49700 42.28900 20.48500
H  4.17900 41.72800 21.01800
H  1.92400 39.48000 21.38200
H  3.04100 39.99300 20.12600
H  1.24200 40.00200 19.84500
H  3.01200 44.37700 21.78700
H  2.90600 43.91500 20.10000
H  5.08100 44.70600 19.84100
H  5.78400 43.69000 21.04100
H  5.03800 45.15600 21.51000
H  7.18600 43.32700 24.44600
H  7.68800 41.81400 25.19100
H  7.95400 43.33000 26.08600
H  4.62200 43.37400 30.14500
H  4.36000 40.41200 33.19300
H  5.84200 40.97900 33.45100
H  5.74800 39.90000 32.12300

