158

Mg 1.96200 -1.94600 44.53200
C  5.09800 -0.67600 44.03100
C  0.64300 0.49700 42.56100
C  -1.04700 -3.53600 44.73200
C  3.37400 -4.69000 46.19200
N  2.83700 -0.29600 43.40600
C  4.13100 0.07200 43.32600
C  4.33500 1.23400 42.43300
C  2.87200 1.67600 42.13700
C  2.02900 0.52800 42.67100
C  2.46500 3.05600 42.69500
C  5.10400 0.95200 41.08800
C  6.07300 2.12400 40.58800
H  5.77900 2.89000 39.34900
N  0.04100 -1.59700 43.61300
C  -0.32000 -0.47200 42.96300
C  -1.81400 -0.49300 42.76900
C  -2.27800 -1.77400 43.21200
C  -1.08100 -2.35200 43.88800
C  -2.62200 0.65600 41.97800
C  -3.63500 -2.41800 43.05100
O  -4.58500 -1.80100 42.55800
C  -3.88300 -3.86400 43.36500
N  1.25500 -3.97600 45.21000
C  -0.04200 -4.25400 45.35600
C  -0.26800 -5.65000 45.90600
C  1.15100 -5.98100 46.47400
C  1.99800 -4.83000 45.94000
C  -1.38400 -5.66300 46.91900
C  1.73100 -7.35500 46.08900
C  2.54400 -8.04500 47.23900
N  3.84000 -2.58300 45.07000
C  4.25000 -3.73100 45.76100
C  5.69800 -3.65200 45.90100
C  6.03700 -2.50400 45.21300
C  4.92700 -1.85300 44.79700
C  6.37800 -4.67800 46.59100
C  7.12900 -1.63300 44.81900
O  8.34800 -1.76800 45.01200
C  6.59100 -0.49500 43.98900
C  7.09200 0.80400 44.58900
O  6.97200 1.14300 45.74200
O  7.59700 1.55000 43.64200
C  8.18900 2.84700 43.98900
H  0.20700 1.35500 42.04400
H  -2.02200 -3.98400 44.93300
H  3.69600 -5.51300 46.83400
H  4.77600 2.05800 42.99400
H  2.66100 1.80200 41.07500
H  2.30200 3.75800 41.87700
H  3.23900 3.45400 43.35100
H  1.51700 2.86400 43.19800
H  4.35300 0.88200 40.30100
H  5.63100 0.00000 41.15200
H  7.05000 1.70000 40.35300
H  6.17200 2.91800 41.32800
H  -3.34000 1.06900 42.68600
H  -3.02500 0.28400 41.03600
H  -2.02700 1.53200 41.72100
H  -2.96500 -4.36700 43.06100
H  -4.70200 -4.27100 42.77200
H  -4.12600 -4.05400 44.41100
H  -0.57400 -6.33200 45.11300
H  1.10100 -5.87200 47.55800
H  -2.12200 -6.41700 46.64500
H  -1.94900 -4.73800 47.03700
H  -1.08400 -5.91000 47.93700
H  2.30100 -7.29900 45.16100
H  0.88000 -7.98400 45.82700
H  3.55100 -8.38700 47.00100
H  1.95700 -8.91700 47.52900
H  2.54200 -7.37000 48.09500
H  6.68500 -5.39400 45.82800
H  5.73400 -5.06300 47.38200
H  7.31100 -4.36600 47.05900
H  6.98800 -0.60700 42.98000
H  9.10100 2.96300 43.40300
H  8.47400 3.01100 45.02800
H  7.57100 3.69000 43.67800
Mg 50.12500 45.79400 42.67700
C  46.85300 46.72900 41.52700
C  49.73200 42.85800 40.99100
C  53.41700 45.40600 42.94000
C  50.63100 49.34200 43.33500
N  48.34900 44.93800 41.43400
C  47.15300 45.46300 41.08800
C  46.44200 44.57900 40.03100
C  47.34500 43.29300 40.02200
C  48.57900 43.67600 40.89700
C  46.63500 41.95300 40.40800
C  46.17200 45.19900 38.68700
C  44.67900 45.32300 38.31700
H  44.12500 44.70900 37.04400
N  51.30100 44.23700 42.31400
C  51.04100 43.10500 41.59400
C  52.10700 42.25300 41.73400
C  53.17300 42.90900 42.43500
C  52.64900 44.29000 42.57200
C  52.04700 40.85100 41.15700
C  54.54200 42.38300 42.67200
O  54.86000 41.24300 42.31200
C  55.45200 43.09400 43.54900
N  51.80000 47.16100 43.02600
C  53.06600 46.68800 43.12500
C  54.08600 47.80200 43.38200
C  53.19000 49.03000 43.49500
C  51.74200 48.51500 43.31400
C  55.19500 47.59200 44.51300
C  53.58300 50.22500 42.51400
C  53.75400 51.61100 43.22700
N  48.95000 47.66600 42.71200
C  49.24700 48.97200 43.05200
C  48.07200 49.80200 42.99000
C  47.11300 48.93500 42.39300
C  47.69500 47.69900 42.19300
C  47.91300 51.32900 43.23900
C  45.75700 48.88800 41.87700
O  44.84000 49.73300 41.91800
C  45.54100 47.38100 41.28100
C  44.43200 46.78600 42.04700
O  44.47100 46.33600 43.21900
O  43.31500 46.75600 41.32200
C  42.09600 46.17300 41.94700
H  49.61900 41.87800 40.52200
H  54.50100 45.29800 42.86500
H  50.96500 50.37700 43.43300
H  45.46700 44.26800 40.40700
H  47.68900 43.18300 38.99400
H  46.73500 41.85300 41.48900
H  47.10800 41.05100 40.02000
H  45.61600 41.99600 40.02300
H  46.69600 44.68500 37.88100
H  46.57600 46.20900 38.74500
H  44.60700 46.40700 38.23100
H  44.07700 45.04800 39.18300
H  51.19300 40.67700 40.50200
H  52.07200 40.08900 41.93600
H  52.98300 40.74200 40.60900
H  54.92000 43.77600 44.21200
H  56.18200 43.66700 42.97800
H  55.97600 42.31700 44.10500
H  54.63500 47.92000 42.44800
H  53.30200 49.34900 44.53100
H  55.20500 46.57100 44.89400
H  55.02500 48.15200 45.43300
H  56.21600 47.70600 44.14700
H  52.72500 50.33700 41.85100
H  54.54800 50.13300 42.01400
H  53.54400 51.42900 44.28100
H  52.99300 52.30700 42.87500
H  54.75400 52.03200 43.12700
H  48.37300 51.80100 42.37100
H  48.61400 51.53000 44.05000
H  46.89200 51.70300 43.31600
H  45.22300 47.55600 40.25300
H  41.82600 46.79200 42.80200
H  42.28400 45.14600 42.26000
H  41.37300 46.21800 41.13200

