158

Mg -2.26500 17.11300 27.70700
C  -2.83900 15.13500 30.57100
C  -2.35600 19.84300 29.62800
C  -2.33400 18.76100 24.88300
C  -2.57000 14.11200 25.83600
N  -2.49300 17.41800 29.88400
C  -2.71800 16.51600 30.81000
C  -2.73700 17.10800 32.23800
C  -2.80000 18.58000 31.88100
C  -2.60800 18.63400 30.36700
C  -3.97500 19.39700 32.45400
C  -1.59300 16.80100 33.26900
C  -1.11800 17.79300 34.37900
H  -1.06500 17.16400 35.73400
N  -2.28500 19.06700 27.28500
C  -2.24700 20.08100 28.22200
C  -1.93800 21.32700 27.50900
C  -1.86600 21.05700 26.10600
C  -2.16100 19.60600 26.04200
C  -1.77300 22.66400 28.21300
C  -1.45200 21.96900 24.97100
O  -1.40700 21.60000 23.83900
C  -1.22600 23.46000 25.22500
N  -2.62900 16.56900 25.68500
C  -2.60000 17.46100 24.71500
C  -2.79400 16.78800 23.28800
C  -2.56800 15.33300 23.66300
C  -2.49700 15.33700 25.20100
C  -4.19100 17.11400 22.71300
C  -1.49500 14.57000 22.84200
C  -0.08000 14.53600 23.33900
N  -2.62000 15.03100 28.10100
C  -2.80700 13.95700 27.22100
C  -2.94500 12.70100 27.99900
C  -3.03400 13.12400 29.33900
C  -2.86200 14.57500 29.32100
C  -3.12700 11.31000 27.43900
C  -3.21000 12.73000 30.68000
O  -3.36500 11.62900 31.12600
C  -3.13500 14.03000 31.56800
C  -1.97300 13.71300 32.41700
O  -0.81800 13.84400 32.15600
O  -2.46500 13.26500 33.64300
C  -1.48700 12.87200 34.60500
H  -2.48100 20.78700 30.16400
H  -2.29700 19.31900 23.94500
H  -2.74200 13.26000 25.17400
H  -3.70500 16.76400 32.60500
H  -1.90500 19.12000 32.19200
H  -4.51400 19.63000 31.53600
H  -3.79900 20.27900 33.06900
H  -4.72300 18.79100 32.96700
H  -0.72100 16.67700 32.62700
H  -1.89900 15.88800 33.77900
H  -1.78400 18.65400 34.41900
H  -0.18600 18.29500 34.12200
H  -0.89800 23.26700 27.96900
H  -1.81600 22.58200 29.29900
H  -2.64100 23.25400 27.92100
H  -2.14600 23.84900 25.66200
H  -1.23700 23.82400 24.19800
H  -0.24100 23.62400 25.66200
H  -2.03000 17.11500 22.58300
H  -3.46000 14.74100 23.46000
H  -4.71100 16.18700 22.47400
H  -4.08600 17.65900 21.77500
H  -4.85000 17.62500 23.41500
H  -1.45900 14.75400 21.76800
H  -1.82600 13.53200 22.85700
H  0.27700 15.24200 24.08900
H  0.45000 14.79900 22.42400
H  0.13700 13.51900 23.66700
H  -2.21000 10.72100 27.42500
H  -3.54200 11.34000 26.43200
H  -3.80500 10.78600 28.11300
H  -4.06100 14.24000 32.10300
H  -1.05900 13.75000 35.09000
H  -0.59100 12.49300 34.11400
H  -1.84700 12.15800 35.34500
Mg 28.51100 58.80900 42.54400
C  25.87200 56.89200 41.03400
C  30.73500 56.99500 40.83600
C  30.72700 61.06900 43.39800
C  25.89000 60.99600 43.63300
N  28.23100 57.11500 41.12800
C  27.17000 56.50700 40.61000
C  27.52100 55.39500 39.59000
C  29.09800 55.35100 39.74100
C  29.39300 56.59800 40.64800
C  29.63300 54.07200 40.38100
C  26.99500 55.64200 38.14300
C  26.47400 54.48400 37.35900
H  27.08600 54.29500 35.98900
N  30.49300 58.98400 42.17100
C  31.29100 58.13600 41.45700
C  32.63900 58.55200 41.47100
C  32.65500 59.71800 42.23400
C  31.24600 59.96400 42.69300
C  33.77200 57.83300 40.77200
C  33.84700 60.53000 42.61800
O  34.94200 60.12500 42.30400
C  33.81300 61.70000 43.49200
N  28.31500 60.68500 43.57400
C  29.40200 61.36100 43.92200
C  29.04000 62.69800 44.57800
C  27.54800 62.66200 44.49600
C  27.17800 61.29600 43.90600
C  29.57600 62.75700 46.04400
C  26.99200 63.94500 43.78400
C  25.80100 64.61900 44.48000
N  26.31100 58.87100 42.58800
C  25.39200 59.78800 43.09300
C  24.05600 59.40900 42.94900
C  24.20200 58.30300 42.11300
C  25.56500 57.96400 41.91900
C  22.84400 60.10000 43.34800
C  23.36500 57.34800 41.46700
O  22.12300 57.18600 41.55800
C  24.48800 56.38200 40.70900
C  24.23600 54.96500 41.19600
O  24.07200 54.52100 42.32000
O  24.35200 54.15700 40.04100
C  24.47900 52.67900 40.22100
H  31.47100 56.29200 40.43900
H  31.48300 61.79200 43.71100
H  25.11100 61.69000 43.95300
H  26.94900 54.52100 39.90400
H  29.51000 55.32800 38.73200
H  30.40400 53.67500 39.72000
H  28.90800 53.28300 40.57900
H  30.18400 54.22000 41.30900
H  27.85800 56.09000 37.65100
H  26.17800 56.35600 38.24300
H  25.38500 54.50300 37.30100
H  26.68200 53.51600 37.81500
H  33.30900 56.96000 40.31000
H  34.69400 57.67400 41.33000
H  34.13900 58.44100 39.94500
H  33.41400 62.59900 43.02300
H  34.86900 61.89100 43.68500
H  33.35000 61.51600 44.46200
H  29.62300 63.49500 44.11800
H  27.03400 62.69400 45.45700
H  29.53500 63.77000 46.44400
H  30.62300 62.46700 45.96200
H  29.07800 62.10000 46.75800
H  26.58400 63.55500 42.85100
H  27.78300 64.64600 43.51700
H  25.70900 65.70300 44.41800
H  25.76300 64.32000 45.52800
H  24.89400 64.13700 44.11300
H  22.97100 60.73600 44.22300
H  21.99200 59.43200 43.47200
H  22.58000 60.69800 42.47600
H  24.18900 56.54100 39.67300
H  23.44900 52.32100 40.22000
H  24.94400 52.45200 41.18000
H  24.86500 52.18800 39.32700

