158

Mg 0.38800 7.70900 26.31700
C  1.03200 9.88900 28.96000
C  0.78200 5.02700 28.69200
C  0.10300 5.63300 23.84700
C  0.74000 10.36700 24.11300
N  0.94600 7.43600 28.55100
C  0.98900 8.55100 29.43700
C  1.24500 8.06300 30.85700
C  1.16800 6.49000 30.74800
C  0.94400 6.25500 29.23900
C  2.38200 5.76100 31.31400
C  0.11600 8.57000 31.83100
C  0.49000 8.59100 33.35000
H  1.72200 7.88500 33.87400
N  0.35000 5.63600 26.28400
C  0.43600 4.71400 27.34400
C  0.29400 3.36600 26.87800
C  0.08300 3.49400 25.42900
C  0.19700 4.93900 25.14300
C  0.43600 2.12800 27.80600
C  -0.11700 2.41800 24.36700
O  -0.39300 2.67300 23.18700
C  -0.10500 1.03000 24.77500
N  0.65900 7.97400 24.19400
C  0.29600 6.92700 23.41800
C  0.03700 7.36200 22.02200
C  0.42700 8.86000 22.05200
C  0.55600 9.12800 23.52300
C  0.68200 6.53800 20.87800
C  -0.57100 9.81300 21.31500
C  -2.01400 9.82800 21.77600
N  0.69700 9.63300 26.48600
C  0.75600 10.63000 25.52000
C  0.89500 11.91100 26.08600
C  0.93900 11.63200 27.46700
C  0.90600 10.23400 27.63900
C  0.97000 13.23600 25.36400
C  1.05100 12.29600 28.76900
O  1.19200 13.49500 28.99500
C  1.24500 11.18100 29.79900
C  2.46100 11.14800 30.63900
O  3.59900 11.18300 30.20800
O  2.12000 11.30000 31.98300
C  3.17600 11.23200 33.00000
H  0.73500 4.21300 29.41800
H  -0.18000 5.00400 23.00100
H  0.93000 11.15900 23.38500
H  2.15100 8.46500 31.31000
H  0.28000 6.03300 31.18300
H  2.79700 5.24700 30.44700
H  2.03700 5.02100 32.03600
H  3.06100 6.44500 31.82200
H  -0.78500 7.98000 31.66300
H  -0.20700 9.55800 31.50300
H  -0.43600 8.32100 33.85800
H  0.56700 9.61600 33.71300
H  0.33300 1.13600 27.36600
H  -0.35600 2.19800 28.55100
H  1.36900 2.25700 28.35400
H  -0.52300 0.31600 24.06500
H  -0.67400 0.90100 25.69700
H  0.92700 0.77000 25.00900
H  -1.04000 7.19800 21.96600
H  1.32400 9.00900 21.45100
H  1.39600 5.84900 21.33000
H  1.29000 7.18000 20.24000
H  0.04200 5.99200 20.18600
H  -0.65000 9.46700 20.28500
H  -0.23200 10.84800 21.26100
H  -2.76800 9.60700 21.02000
H  -2.14600 10.85600 22.11200
H  -2.24600 9.14900 22.59700
H  0.20100 13.25200 24.59100
H  1.93300 13.23300 24.85400
H  0.94100 14.14200 25.97000
H  0.41700 11.25200 30.50400
H  3.10200 10.48200 33.78700
H  3.22700 12.18800 33.52200
H  4.10200 11.03500 32.45900
Mg 9.81200 47.83700 25.61400
C  7.49200 47.84300 28.17700
C  12.19600 49.01800 27.89100
C  12.16900 48.11300 23.04200
C  7.24300 47.63300 23.28000
N  9.90600 48.24500 27.82100
C  8.79000 48.12200 28.66600
C  9.23600 48.43200 30.12400
C  10.59100 49.17500 29.90700
C  10.95000 48.73600 28.48700
C  10.56000 50.72500 30.07900
C  9.44400 47.15800 31.09000
C  9.85200 47.57100 32.51500
H  9.19100 46.80600 33.72900
N  11.86700 48.37000 25.46500
C  12.65600 48.88300 26.52600
C  14.06600 48.96300 26.04800
C  14.11200 48.51000 24.69900
C  12.67400 48.33600 24.29500
C  15.17100 49.40000 26.97700
C  15.29900 48.23700 23.77800
O  15.19000 47.82000 22.63700
C  16.70600 48.40800 24.40500
N  9.72700 47.96700 23.43500
C  10.81400 47.85900 22.64400
C  10.33600 47.59000 21.24500
C  8.87700 47.42500 21.35900
C  8.53200 47.69000 22.79300
C  10.72800 48.72200 20.23900
C  8.31800 46.03600 20.85600
C  8.31300 44.81900 21.79800
N  7.80400 47.61500 25.70800
C  6.84600 47.59900 24.65700
C  5.53100 47.44400 25.19600
C  5.72000 47.52200 26.59600
C  7.09800 47.67900 26.83000
C  4.26000 47.35000 24.44500
C  4.99000 47.63200 27.85700
O  3.81800 47.66700 28.12900
C  6.18400 47.73800 28.91000
C  6.23700 46.50200 29.68100
O  6.90500 45.51800 29.33700
O  5.42000 46.58600 30.75100
C  5.12300 45.34200 31.50400
H  12.87100 49.38300 28.66800
H  12.88200 48.14400 22.21600
H  6.49200 47.53700 22.49300
H  8.49200 49.14900 30.47100
H  11.31900 48.73400 30.58800
H  10.61400 51.23200 29.11600
H  11.46300 51.00400 30.62200
H  9.70700 51.06600 30.66700
H  10.21300 46.56500 30.59400
H  8.45000 46.74400 31.26000
H  9.70800 48.65000 32.58200
H  10.91700 47.33700 32.52700
H  14.91900 49.63300 28.01100
H  15.48100 50.27500 26.40600
H  15.96600 48.65500 27.00800
H  17.45300 47.97200 23.74100
H  16.80700 47.76900 25.28300
H  16.85900 49.46000 24.64300
H  10.77300 46.64200 20.93300
H  8.38100 48.12600 20.68900
H  10.39500 49.65200 20.70000
H  10.24100 48.61500 19.27000
H  11.80000 48.65800 20.05000
H  8.89900 45.69400 19.99900
H  7.29600 46.15700 20.49700
H  8.50600 45.07300 22.84000
H  9.12000 44.11100 21.61100
H  7.40000 44.22400 21.78300
H  3.41900 47.53700 25.11200
H  4.10600 46.42700 23.88600
H  4.42100 48.13300 23.70400
H  6.03700 48.55100 29.62000
H  4.05400 45.17600 31.36700
H  5.44300 45.55200 32.52500
H  5.66800 44.46600 31.15300

