158

Mg 7.88200 2.73900 27.57100
C  9.44700 1.37500 30.33400
C  5.97800 4.53400 29.90400
C  5.86100 3.60100 25.13700
C  9.41400 0.36800 25.53200
N  7.81500 3.01500 29.82700
C  8.63100 2.41200 30.72500
C  8.38800 2.90000 32.14700
C  7.14300 3.79800 32.00100
C  6.91800 3.75700 30.48100
C  5.89800 3.36900 32.83000
C  9.62900 3.54600 32.88900
C  9.32600 4.62500 33.92200
H  10.17200 4.63800 35.14900
N  6.21500 3.98100 27.54200
C  5.58400 4.61400 28.52800
C  4.50800 5.37800 28.04200
C  4.46700 5.26300 26.58500
C  5.53400 4.23000 26.35200
C  3.54400 6.16800 28.99400
C  3.66300 5.90900 25.54200
O  3.76800 5.62100 24.34400
C  2.59300 6.94200 25.88200
N  7.75800 2.14000 25.58400
C  6.85300 2.73700 24.73200
C  7.12000 2.22000 23.28300
C  8.34800 1.26700 23.42400
C  8.48100 1.22400 24.95300
C  5.76400 1.63200 22.73300
C  9.65300 1.41900 22.55900
C  10.08200 0.14500 21.89900
N  9.17100 1.19800 27.78300
C  9.65000 0.29300 26.91100
C  10.50500 -0.68100 27.53300
C  10.39100 -0.26900 28.94900
C  9.57000 0.86700 29.03400
C  11.38400 -1.78400 26.91400
C  10.87800 -0.63200 30.29500
O  11.66600 -1.47000 30.70200
C  10.32300 0.50100 31.26200
C  9.60200 -0.11900 32.40100
O  8.57800 -0.82900 32.35500
O  10.24900 0.18300 33.56100
C  9.63400 -0.34000 34.78400
H  5.48600 5.15200 30.65800
H  5.20800 3.76100 24.27700
H  9.83800 -0.27000 24.75400
H  8.28300 2.05500 32.82900
H  7.35200 4.83700 32.25700
H  5.23300 2.86100 32.13100
H  5.43600 4.27300 33.22900
H  6.29500 2.65300 33.54900
H  10.30100 3.91900 32.11700
H  10.21600 2.89200 33.53500
H  8.31300 4.44600 34.28400
H  9.35800 5.64800 33.54700
H  3.48800 7.18400 28.60100
H  4.07200 6.31800 29.93500
H  2.55500 5.72400 29.11200
H  2.14000 6.85500 24.89500
H  2.87000 7.99500 25.94100
H  1.88500 6.58100 26.62800
H  7.52000 3.06700 22.72600
H  7.96000 0.25900 23.27500
H  5.01900 1.52100 23.52100
H  5.86200 0.62600 22.32500
H  5.32400 2.23100 21.93500
H  10.47300 1.71300 23.21400
H  9.47400 2.23300 21.85600
H  10.82000 -0.21100 22.61700
H  10.48100 0.34100 20.90400
H  9.27800 -0.55900 21.68300
H  11.27000 -1.71800 25.83200
H  11.02900 -2.74300 27.29200
H  12.43900 -1.56400 27.07500
H  11.17900 1.12100 31.52900
H  9.69500 -1.42800 34.80400
H  8.63700 -0.04300 35.11000
H  10.29300 -0.18400 35.63800
Mg -12.60700 16.65600 41.13600
C  -9.57700 14.72900 40.34300
C  -11.03700 19.29800 39.72300
C  -15.54300 18.34800 41.41700
C  -14.13800 13.68800 41.93400
N  -10.54000 16.88500 39.96800
C  -9.45400 16.04200 39.97300
C  -8.23300 16.75700 39.49100
C  -8.70800 18.27200 39.48300
C  -10.18100 18.18300 39.70700
C  -8.04100 19.03400 40.65300
C  -7.63600 16.23300 38.13400
C  -6.10000 16.26600 38.04300
H  -5.41800 16.86700 36.80200
N  -13.17900 18.58100 40.68500
C  -12.39700 19.52700 40.04300
C  -13.16000 20.74500 39.90700
C  -14.50300 20.48800 40.36500
C  -14.47400 19.11500 40.90200
C  -12.56000 22.02800 39.41100
C  -15.59500 21.45600 40.61800
O  -15.63000 22.62000 40.12600
C  -16.81800 21.14100 41.44500
N  -14.51500 16.12300 41.65700
C  -15.63300 16.96800 41.78800
C  -16.89200 16.23500 42.09800
C  -16.35600 14.82200 42.33300
C  -14.92500 14.86700 41.82300
C  -17.83600 16.80000 43.25000
C  -17.25500 13.72500 41.66900
C  -17.52700 12.43300 42.54100
N  -12.04500 14.56100 41.12500
C  -12.75900 13.48100 41.60000
C  -11.95300 12.36200 41.64300
C  -10.67700 12.71200 41.17200
C  -10.80000 14.14500 40.83700
C  -12.35900 11.02700 42.14700
C  -9.35000 12.30200 40.85300
O  -8.79700 11.22900 41.03100
C  -8.52700 13.57200 40.35500
C  -7.38400 13.81400 41.30800
O  -7.57700 14.30300 42.38400
O  -6.09700 13.58300 40.74500
C  -5.04200 14.02400 41.73800
H  -10.44200 20.19300 39.53200
H  -16.54100 18.78400 41.32800
H  -14.65200 12.85800 42.42400
H  -7.49100 16.55300 40.26200
H  -8.37700 18.87900 38.64000
H  -8.40600 18.72700 41.63300
H  -8.28100 20.09500 40.58400
H  -6.95900 18.90500 40.61500
H  -8.06100 16.76500 37.28200
H  -8.04100 15.25000 37.89400
H  -5.62400 15.29900 38.20500
H  -5.66000 16.78700 38.89300
H  -11.67100 21.88100 38.79600
H  -12.21500 22.58100 40.28500
H  -13.15400 22.73300 38.83000
H  -16.60000 20.66400 42.40100
H  -17.52600 20.50400 40.91600
H  -17.22800 22.11100 41.72500
H  -17.52300 16.18600 41.21000
H  -16.31100 14.62300 43.40400
H  -17.14000 17.48400 43.73600
H  -18.03600 16.00900 43.97300
H  -18.69300 17.30000 42.79900
H  -16.73500 13.48200 40.74200
H  -18.20300 14.21200 41.43800
H  -17.45500 11.41000 42.17400
H  -18.54900 12.59700 42.88400
H  -16.88600 12.47700 43.42200
H  -12.65700 10.49900 41.24100
H  -13.19000 11.16400 42.83900
H  -11.45200 10.67300 42.63700
H  -8.09300 13.41700 39.36700
H  -4.02700 13.79500 41.41300
H  -5.19200 13.53400 42.70000
H  -5.07000 15.09000 41.96600

