158

Mg 35.75600 49.24600 25.96100
C  36.05700 47.65300 29.03800
C  34.57600 52.15700 27.67200
C  35.54200 50.95100 23.02700
C  37.17400 46.52500 24.41100
N  35.29300 49.85800 28.07600
C  35.71400 49.02000 29.15300
C  35.70000 49.80000 30.42400
C  35.06600 51.21900 30.02800
C  35.04000 51.14900 28.57100
C  33.67300 51.42300 30.65400
C  37.08500 49.92100 31.00700
C  37.25000 49.62200 32.48800
H  36.02700 49.60200 33.45600
N  35.10100 51.21700 25.42800
C  34.70100 52.24200 26.30500
C  34.51100 53.42900 25.60200
C  34.94500 53.14300 24.30600
C  35.19000 51.71800 24.20700
C  33.88800 54.70000 26.19300
C  34.97900 54.04200 23.04700
O  35.21600 53.78000 21.86400
C  34.99300 55.60400 23.32100
N  35.98200 48.64500 23.94100
C  35.92600 49.58500 22.95900
C  36.38500 48.89600 21.61100
C  37.02200 47.60200 22.12500
C  36.65100 47.52900 23.57400
C  35.02000 48.69500 20.75200
C  38.63100 47.59800 21.94600
C  39.15800 46.68200 20.85200
N  36.32500 47.37700 26.46500
C  36.97300 46.39700 25.79700
C  37.21500 45.27900 26.69800
C  36.82700 45.74700 27.98700
C  36.35100 47.01500 27.80700
C  37.76500 43.94200 26.26600
C  36.82100 45.35100 29.35700
O  37.12000 44.30700 29.89900
C  36.30300 46.50300 30.07600
C  35.12100 46.15100 30.94700
O  33.97600 45.89600 30.60000
O  35.54800 46.05000 32.24400
C  34.61300 45.51600 33.20800
H  34.26600 53.07000 28.18500
H  35.55000 51.50900 22.08800
H  37.75700 45.77400 23.87400
H  35.11100 49.25700 31.16300
H  35.67300 52.06600 30.34800
H  33.04300 51.70900 29.81100
H  33.78700 52.31800 31.26600
H  33.22600 50.57400 31.17000
H  37.27400 50.93900 30.66600
H  37.85800 49.29900 30.55600
H  37.91600 50.40300 32.85600
H  37.69800 48.64800 32.68700
H  34.66300 55.23100 26.74500
H  33.16800 54.38700 26.95000
H  33.31700 55.33700 25.51800
H  35.71900 55.67300 24.13200
H  34.00700 55.99000 23.58100
H  35.30800 56.16000 22.43800
H  36.98900 49.59500 21.03300
H  36.66100 46.70300 21.62500
H  34.05600 48.75100 21.25800
H  35.09400 47.81700 20.11000
H  34.97500 49.51200 20.03200
H  39.14500 47.44300 22.89500
H  38.91400 48.61500 21.67500
H  38.37400 46.36700 20.16300
H  39.45600 45.79700 21.41400
H  39.86100 47.19200 20.19300
H  36.92500 43.26900 26.09300
H  38.44000 43.60600 27.05400
H  38.38300 44.20500 25.40800
H  37.09700 46.86800 30.72800
H  34.94100 45.94000 34.15700
H  34.64300 44.44800 33.42400
H  33.59000 45.84700 33.03000
Mg -10.73800 38.38800 40.59000
C  -8.84400 35.73900 39.53000
C  -8.18200 40.47300 39.24400
C  -12.80700 41.15800 40.59800
C  -13.15600 36.33900 41.76600
N  -8.72600 38.05700 39.45500
C  -8.24100 36.87700 39.05900
C  -6.76800 37.00900 38.54300
C  -6.56300 38.57300 38.63800
C  -7.91400 39.12000 39.15700
C  -5.33300 39.03600 39.41000
C  -6.70500 36.38800 37.07300
C  -5.36300 35.75200 36.68300
H  -4.87600 36.16200 35.26100
N  -10.43700 40.61600 40.10200
C  -9.31400 41.22700 39.69300
C  -9.55300 42.52200 39.48300
C  -10.94900 42.81100 39.77500
C  -11.49000 41.47600 40.14800
C  -8.47600 43.52900 39.08100
C  -11.66000 44.11700 39.61000
O  -11.08100 45.19000 39.50500
C  -13.17200 44.15500 39.71000
N  -12.58600 38.68700 40.94600
C  -13.24700 39.89100 40.93600
C  -14.76000 39.67200 41.26000
C  -14.85000 38.17200 41.53700
C  -13.40300 37.71200 41.49500
C  -15.37900 40.67500 42.23900
C  -15.76200 37.31600 40.59800
C  -17.17600 37.11200 41.08300
N  -10.92400 36.47300 40.81000
C  -11.93300 35.74300 41.36900
C  -11.51400 34.36000 41.53300
C  -10.30200 34.27900 40.72000
C  -9.98500 35.60700 40.28200
C  -12.21800 33.23300 42.29100
C  -9.25300 33.37300 40.26400
O  -9.03900 32.16600 40.37100
C  -8.31600 34.28600 39.40900
C  -6.93200 34.03500 40.05100
O  -6.07400 33.38700 39.48900
O  -6.74900 34.76100 41.18900
C  -5.32600 34.69900 41.70100
H  -7.43600 41.16400 38.84600
H  -13.42300 42.04600 40.75400
H  -13.95800 35.73600 42.19800
H  -6.16600 36.38700 39.20600
H  -6.29700 38.94200 37.64700
H  -4.76200 39.74600 38.81200
H  -4.65200 38.18600 39.46500
H  -5.73000 39.51800 40.30300
H  -6.88300 37.27800 36.47000
H  -7.51800 35.72100 36.78600
H  -5.44800 34.66500 36.67500
H  -4.60100 36.03600 37.40900
H  -8.28600 43.27300 38.03900
H  -7.60300 43.34600 39.70700
H  -8.69500 44.59300 39.17600
H  -13.34800 44.04500 40.78000
H  -13.58400 43.40100 39.04000
H  -13.58100 45.12600 39.43000
H  -15.30400 39.87600 40.33800
H  -15.22600 37.92600 42.53000
H  -15.75700 40.23500 43.16200
H  -16.17300 41.23100 41.74000
H  -14.63400 41.41200 42.54000
H  -15.28900 36.37000 40.33600
H  -15.98600 37.80400 39.64900
H  -17.52500 36.25500 40.50600
H  -17.76800 38.00600 40.88800
H  -17.23700 36.89300 42.14900
H  -11.89100 33.27300 43.33000
H  -11.79600 32.31100 41.89100
H  -13.28900 33.39300 42.16800
H  -8.36600 33.86000 38.40700
H  -4.90700 35.52100 42.28200
H  -4.63700 34.72600 40.85700
H  -5.19500 33.75300 42.22700

