158

Mg 35.00600 3.07800 30.18000
C  32.69500 3.98300 32.80900
C  37.35300 3.18000 32.45600
C  37.07500 2.62800 27.63100
C  32.29200 3.45300 27.97500
N  34.99400 3.41400 32.37300
C  33.96100 3.60900 33.26100
C  34.41100 3.63900 34.71500
C  35.97000 3.68200 34.54100
C  36.15000 3.45600 33.02900
C  36.76100 4.97100 34.87800
C  33.91200 2.40800 35.46100
C  33.61400 2.56000 36.96200
H  34.34500 3.63900 37.78700
N  36.90400 2.84800 30.03600
C  37.79100 2.81600 31.09400
C  39.11200 2.63300 30.61300
C  39.04600 2.43300 29.19900
C  37.61000 2.58300 28.89000
C  40.25800 2.50900 31.54100
C  40.20200 2.06400 28.16000
O  40.03400 1.91200 26.94000
C  41.61900 1.85000 28.67300
N  34.76900 3.03000 28.07300
C  35.75800 2.79900 27.22100
C  35.25700 2.50900 25.79800
C  33.70100 2.72000 25.88900
C  33.54200 3.09600 27.40400
C  36.02100 3.33100 24.71000
C  32.80700 1.52800 25.50000
C  33.16400 0.15600 26.14700
N  32.99100 3.67100 30.28100
C  31.99800 3.76700 29.34600
C  30.82200 4.29500 29.93500
C  31.06400 4.31000 31.27800
C  32.39300 3.95700 31.47800
C  29.59400 4.57100 29.12900
C  30.35700 4.67500 32.47300
O  29.20700 5.11800 32.68500
C  31.41000 4.40600 33.61100
C  31.53900 5.61900 34.50700
O  31.92500 6.67400 34.13400
O  30.94800 5.36000 35.72000
C  30.65900 6.45100 36.69000
H  38.04300 2.99600 33.28200
H  37.76600 2.42300 26.81100
H  31.49200 3.50000 27.23200
H  34.27400 4.60100 35.21000
H  36.49400 2.97400 35.18400
H  37.76000 4.83500 35.29200
H  36.11800 5.54400 35.54500
H  36.92500 5.56700 33.98000
H  34.60600 1.60600 35.20900
H  32.96500 2.22700 34.95400
H  33.60000 1.62400 37.51900
H  32.56700 2.86200 36.98500
H  40.87100 3.41100 31.53000
H  40.86100 1.66000 31.22000
H  39.86600 2.37300 32.54900
H  42.27800 1.88500 27.80600
H  41.61300 0.85500 29.11800
H  41.93400 2.61200 29.38600
H  35.49800 1.47100 25.56800
H  33.40800 3.52200 25.21200
H  36.65600 4.08900 25.17000
H  35.35900 3.76200 23.95900
H  36.70800 2.59300 24.29700
H  32.89400 1.36600 24.42600
H  31.75000 1.66500 25.72900
H  32.40900 -0.31500 26.77600
H  34.02000 0.36700 26.78700
H  33.44700 -0.58900 25.40400
H  29.55500 3.96300 28.22500
H  29.53700 5.62700 28.86600
H  28.74100 4.37400 29.78000
H  31.05000 3.50800 34.11300
H  31.20700 6.32400 37.62300
H  29.64200 6.45500 37.08100
H  30.79600 7.42700 36.22300
Mg 47.29400 25.32400 28.81000
C  48.51100 27.61200 31.24000
C  46.11700 23.40200 31.39300
C  46.94700 22.68200 26.75200
C  49.08800 26.93900 26.46000
N  47.31200 25.50900 31.04700
C  47.73500 26.58300 31.80500
C  47.26100 26.41000 33.22500
C  46.74400 24.96300 33.29400
C  46.62900 24.64300 31.82300
C  47.45100 23.84100 34.23900
C  46.31500 27.63600 33.65600
C  45.46800 27.54900 34.90400
H  46.09400 27.86300 36.19500
N  46.44200 23.47900 28.96800
C  45.98800 22.83600 30.11200
C  45.37400 21.58800 29.80200
C  45.46300 21.40500 28.45000
C  46.32800 22.53200 27.99700
C  44.77500 20.67000 30.88500
C  44.85700 20.29100 27.51600
O  44.96900 20.25200 26.32200
C  44.13900 19.10200 28.13000
N  47.93400 24.92600 26.82500
C  47.59900 23.78600 26.18300
C  48.15700 23.75400 24.73300
C  48.51500 25.28600 24.55600
C  48.47600 25.74600 26.01800
C  49.40100 22.87100 24.51600
C  47.43400 26.18500 23.78700
C  47.99100 27.07800 22.67000
N  48.44100 27.03900 28.72300
C  49.16400 27.53300 27.70900
C  49.87500 28.71200 28.11100
C  49.60600 28.86400 29.51700
C  48.82100 27.73700 29.86100
C  50.62400 29.61700 27.13000
C  49.85300 29.65100 30.69200
O  50.43300 30.69100 30.86300
C  49.16000 28.86500 31.88400
C  50.27400 28.55900 32.81200
O  51.39600 28.11800 32.49100
O  49.85600 28.68700 34.13700
C  50.77200 28.08700 35.17700
H  45.70400 22.72200 32.14200
H  46.64400 21.96700 25.98400
H  49.51200 27.43400 25.58300
H  48.17500 26.44600 33.81800
H  45.69800 25.04500 33.59100
H  48.39100 24.19200 34.66400
H  47.72800 22.92300 33.72000
H  46.66300 23.54500 34.93200
H  45.69000 27.57500 32.76500
H  46.80900 28.60700 33.65200
H  45.00300 26.56300 34.92200
H  44.60200 28.20800 34.84000
H  44.90800 21.01500 31.91100
H  45.28200 19.71200 31.00500
H  43.70900 20.51200 30.72600
H  43.19000 19.41400 28.56500
H  44.62200 18.72700 29.03200
H  43.98100 18.36800 27.34000
H  47.30200 23.53300 24.09400
H  49.52900 25.47200 24.20200
H  49.75600 22.29400 25.36900
H  50.26600 23.37600 24.08600
H  49.21700 22.16900 23.70200
H  46.92000 26.81200 24.51600
H  46.71100 25.50900 23.33000
H  47.17100 27.06700 21.95200
H  48.93400 26.73900 22.24200
H  48.13900 28.07800 23.07700
H  51.19700 30.36400 27.67900
H  49.92800 30.08200 26.43300
H  51.32400 28.93700 26.64500
H  48.49600 29.60300 32.33400
H  50.29100 27.58200 36.01400
H  51.33400 28.90900 35.62000
H  51.54600 27.46400 34.72900

