158

Mg 25.37700 1.50300 29.21000
C  27.30000 0.90300 32.23000
C  22.67500 1.27500 31.20000
C  23.55700 1.69300 26.38100
C  28.26900 0.93100 27.39300
N  25.04900 0.99300 31.58200
C  25.95700 0.91900 32.56700
C  25.15800 1.06300 33.92800
C  23.76700 0.67400 33.49400
C  23.79900 1.04900 32.02000
C  23.50000 -0.84500 33.72500
C  25.27700 2.50100 34.58300
C  26.12500 2.45600 35.89200
H  25.70400 3.45900 36.90800
N  23.43700 1.71100 28.85800
C  22.46900 1.58000 29.81700
C  21.13000 1.81300 29.11100
C  21.34500 1.91100 27.71000
C  22.84000 1.81300 27.62500
C  19.82600 1.92000 29.82300
C  20.37600 1.96000 26.51200
O  20.76900 2.21600 25.34400
C  18.95700 1.82700 26.73500
N  25.83600 1.29600 27.25900
C  24.94400 1.47300 26.23300
C  25.57300 1.36600 24.82700
C  27.11100 1.30600 25.16800
C  27.10100 1.16100 26.66100
C  25.06500 0.08200 24.02300
C  27.88600 2.58400 24.76200
C  27.24800 4.00200 24.83900
N  27.35300 1.08700 29.64200
C  28.47900 0.96600 28.82500
C  29.65400 0.76400 29.54300
C  29.25900 0.80800 30.90000
C  27.81200 0.88500 30.89500
C  31.08200 0.50400 29.09500
C  29.77400 0.82100 32.25100
O  30.89200 0.71000 32.63700
C  28.55700 0.92400 33.18300
C  28.52900 -0.11100 34.22200
O  27.83400 -1.15400 34.18300
O  29.29300 0.26500 35.34700
C  29.34200 -0.68900 36.41400
H  21.68500 1.35700 31.65100
H  22.98400 1.78700 25.45600
H  29.20200 0.72300 26.86400
H  25.47300 0.34300 34.68300
H  23.08000 1.29300 34.07000
H  22.64700 -0.85400 34.40300
H  24.30700 -1.32300 34.28100
H  23.15000 -1.33800 32.81800
H  24.29500 2.79300 34.95500
H  25.61000 3.19700 33.81400
H  27.08500 2.77400 35.48700
H  26.30000 1.44200 36.25200
H  19.43500 2.88400 29.49700
H  19.85200 1.89800 30.91200
H  19.08500 1.18800 29.50200
H  18.55400 2.33800 27.60900
H  18.86200 0.74300 26.79000
H  18.45100 2.19000 25.84100
H  25.44000 2.25100 24.20500
H  27.58200 0.40500 24.77300
H  24.03300 -0.18800 24.24600
H  25.64700 -0.79000 24.32100
H  25.25100 0.22700 22.95900
H  28.24000 2.29600 23.77300
H  28.84300 2.58700 25.28300
H  27.98600 4.76900 25.07600
H  26.56700 4.01000 25.69100
H  26.79400 4.24900 23.88000
H  31.27000 -0.56200 28.96300
H  31.62500 0.94400 29.93100
H  31.30600 1.06400 28.18700
H  28.55000 1.89200 33.68400
H  30.26700 -0.62100 36.98600
H  29.26400 -1.73300 36.10900
H  28.57300 -0.49100 37.16000
Mg 35.20900 3.00600 29.19000
C  33.26800 4.01200 32.06900
C  37.95700 3.14100 31.36700
C  37.31400 2.65700 26.65200
C  32.52300 3.68900 27.21500
N  35.54200 3.53100 31.48600
C  34.58100 3.84400 32.42400
C  35.13700 3.93400 33.79300
C  36.68200 3.91500 33.50700
C  36.76200 3.54200 31.97600
C  37.54600 5.19700 33.76700
C  34.76700 2.61600 34.60600
C  34.51500 2.82800 36.10100
H  35.38500 3.68700 37.05500
N  37.30200 2.69000 29.02600
C  38.19900 2.68200 30.07100
C  39.51700 2.21200 29.55200
C  39.41400 2.07300 28.17100
C  37.95800 2.43900 27.87900
C  40.66900 1.80700 30.39400
C  40.29900 1.64100 27.11500
O  39.98700 1.62600 25.88400
C  41.73500 1.26600 27.47500
N  34.97200 3.26600 27.30400
C  35.96200 3.01200 26.35000
C  35.48400 3.15200 24.97800
C  33.93000 3.18200 25.09100
C  33.78100 3.37200 26.65800
C  36.10700 4.28900 24.14500
C  33.20900 1.92600 24.43200
C  32.72900 0.87800 25.40400
N  33.30200 3.76800 29.54200
C  32.19600 3.87100 28.60300
C  30.97000 4.10400 29.29500
C  31.35800 4.18500 30.68200
C  32.78200 3.99500 30.74200
C  29.65200 4.26300 28.48300
C  30.84400 4.33300 32.01600
O  29.74200 4.67600 32.42000
C  32.06000 4.19800 33.00300
C  32.28400 5.39400 33.79600
O  32.54500 6.50600 33.34200
O  32.01400 4.99700 35.09200
C  32.13900 6.00400 36.11500
H  38.82200 3.11900 32.03300
H  37.82700 2.53100 25.69700
H  31.69300 3.57500 26.51500
H  34.89000 4.86600 34.30100
H  37.28600 3.12300 33.94900
H  38.47700 4.91600 34.26000
H  37.05100 5.99000 34.32800
H  37.75200 5.58900 32.77100
H  35.68600 2.03100 34.63600
H  33.96500 1.94800 34.29300
H  34.47200 1.83500 36.54900
H  33.54100 3.27200 36.30700
H  40.75100 0.72600 30.28500
H  40.49000 2.13400 31.41900
H  41.52600 2.35700 30.00400
H  42.34100 2.07100 27.89100
H  42.19800 0.92700 26.54800
H  41.74400 0.38700 28.11900
H  35.84900 2.23900 24.50800
H  33.52200 4.02400 24.53300
H  35.41400 5.11500 23.98500
H  36.47100 3.88100 23.20300
H  36.92200 4.67400 24.75800
H  33.85600 1.49300 23.66900
H  32.39300 2.39300 23.88100
H  32.58600 -0.01800 24.80100
H  31.72200 1.02600 25.79400
H  33.38600 0.75000 26.26500
H  29.50300 5.34200 28.54200
H  28.94000 3.73900 29.12100
H  29.65500 3.97400 27.43200
H  31.95800 3.31000 33.62700
H  32.68000 5.58700 36.96400
H  31.15000 6.30700 36.46000
H  32.59100 6.93000 35.75900

