158

Mg 26.69500 50.86400 25.92200
C  24.65000 51.94200 28.66200
C  28.92100 49.60200 28.19600
C  28.74700 50.14300 23.43300
C  24.65100 52.67200 23.77600
N  26.67800 50.75200 28.20300
C  25.80500 51.24600 29.11500
C  26.22700 50.91500 30.51300
C  27.66100 50.27800 30.28300
C  27.83200 50.27800 28.78400
C  28.76600 51.10400 31.03100
C  25.23100 50.05300 31.25100
C  24.53900 50.83700 32.48400
H  24.55100 50.12200 33.85200
N  28.54800 49.93700 25.82200
C  29.22300 49.40300 26.85500
C  30.36100 48.64000 26.37200
C  30.39700 48.89300 24.99800
C  29.21900 49.69000 24.65400
C  31.22900 47.77700 27.24700
C  31.32500 48.31200 24.01300
O  31.21100 48.56400 22.85900
C  32.41400 47.35100 24.42400
N  26.70800 51.33400 23.88800
C  27.63200 50.91000 23.05200
C  27.25000 51.20400 21.62100
C  25.78500 51.84700 21.74500
C  25.71500 51.94300 23.20600
C  28.24600 52.14200 20.81400
C  24.58800 51.07800 21.12600
C  23.99300 51.60600 19.84500
N  24.88900 51.95000 26.08400
C  24.25400 52.69900 25.16300
C  23.14100 53.46100 25.79000
C  23.23500 53.13200 27.19200
C  24.24600 52.10500 27.25600
C  22.16700 54.41200 25.05300
C  22.65500 53.43900 28.48800
O  21.70900 54.10800 28.79600
C  23.56900 52.65600 29.48900
C  24.06600 53.70800 30.47300
O  25.07800 54.29800 30.29800
O  23.30300 53.79300 31.60400
C  23.85400 54.62900 32.75000
H  29.54700 49.09600 28.93300
H  29.44500 49.95700 22.61500
H  24.00400 53.23300 23.09900
H  26.32700 51.84700 31.07000
H  27.72200 49.31300 30.78500
H  28.36600 52.07400 31.32600
H  29.61300 51.34500 30.38900
H  29.18300 50.53000 31.85900
H  25.59000 49.05700 31.51000
H  24.42400 49.87500 30.54100
H  23.50000 50.98400 32.19000
H  24.97600 51.81800 32.66900
H  31.32800 46.76500 26.85500
H  30.92000 47.57400 28.27300
H  32.24000 48.18600 27.23400
H  32.92000 47.76900 25.29500
H  33.11300 47.06700 23.63800
H  32.07800 46.36800 24.75200
H  27.13300 50.26200 21.08500
H  25.87300 52.84400 21.31300
H  29.17200 52.16200 21.38800
H  27.89100 53.17100 20.76900
H  28.40300 51.67400 19.84200
H  23.78700 51.03000 21.86400
H  24.77700 50.01500 20.98300
H  22.96700 51.90100 20.06300
H  24.08500 50.94500 18.98300
H  24.46600 52.47900 19.39500
H  22.67500 54.76900 24.15700
H  21.82600 55.14000 25.78900
H  21.31300 53.86800 24.65000
H  23.01000 52.00100 30.15800
H  22.97100 54.68300 33.38700
H  24.07600 55.64500 32.42500
H  24.62500 54.06500 33.27600
Mg 5.48800 54.39500 41.45400
C  3.20900 51.60500 41.57300
C  7.68500 52.36800 39.86700
C  7.13100 57.11200 40.57500
C  2.53700 56.41700 41.82000
N  5.34500 52.30700 40.60500
C  4.33800 51.36200 40.74200
C  4.71200 50.12800 39.94600
C  6.21900 50.23000 39.81800
C  6.46000 51.70400 40.16000
C  7.14400 49.19600 40.49200
C  3.98300 50.13100 38.56700
C  3.44600 48.83500 38.00600
H  4.15900 48.27800 36.75700
N  7.33800 54.68700 40.61900
C  8.12200 53.69400 40.06400
C  9.44000 54.33400 39.76800
C  9.26900 55.74900 40.00300
C  7.87200 55.93400 40.44900
C  10.50300 53.46900 39.22800
C  10.43500 56.74800 39.88100
O  11.52700 56.41000 39.41300
C  10.30100 58.16000 40.25600
N  4.84700 56.42200 41.17800
C  5.75200 57.37300 40.81100
C  5.09100 58.80900 40.77900
C  3.58600 58.58900 41.16300
C  3.64100 57.04200 41.38300
C  5.80300 59.95600 41.57100
C  2.55900 59.07800 40.10200
C  2.03800 60.53700 40.29800
N  3.35900 54.13100 41.97400
C  2.30900 55.05000 42.07400
C  1.17100 54.34000 42.58300
C  1.49600 52.95700 42.45700
C  2.81300 52.91900 42.02500
C  -0.09700 54.98200 42.91500
C  0.97500 51.63400 42.58400
O  -0.08400 51.21200 43.00900
C  2.14300 50.73400 42.10700
C  1.59500 49.76800 41.10700
O  1.14900 50.13900 40.05100
O  1.92000 48.51100 41.58000
C  1.45300 47.42800 40.69100
H  8.47700 51.69100 39.53900
H  7.79100 57.97300 40.45500
H  1.65800 57.04400 41.98300
H  4.37600 49.20200 40.41300
H  6.52700 50.19100 38.77300
H  6.55900 48.33400 40.81300
H  7.47500 49.55400 41.46700
H  8.02700 48.99900 39.88400
H  4.58900 50.47400 37.72800
H  3.19800 50.88400 38.64000
H  2.37000 48.87300 37.83400
H  3.52500 48.02900 38.73500
H  10.50000 53.58400 38.14400
H  10.48400 52.41200 39.49700
H  11.44900 53.88600 39.57100
H  11.28000 58.57100 40.50200
H  9.75200 58.28600 41.18900
H  9.87900 58.71400 39.41700
H  5.18300 59.12600 39.74000
H  3.32300 59.05000 42.11500
H  5.15400 60.50800 42.25100
H  6.19400 60.65000 40.82700
H  6.67800 59.80400 42.20200
H  1.60600 58.55000 40.13200
H  3.13200 58.97400 39.18000
H  2.77700 61.16200 39.79700
H  2.07200 60.80000 41.35500
H  1.01100 60.76100 40.00800
H  0.15500 55.72000 43.67600
H  -0.85500 54.37400 43.40800
H  -0.58800 55.40100 42.03600
H  2.47800 50.17400 42.98000
H  1.17900 47.71800 39.67700
H  0.67100 46.87500 41.21300
H  2.42000 46.93500 40.59000

