158

Mg 49.38300 47.03300 43.11000
C  45.98300 47.42000 42.53200
C  49.18000 43.94700 41.59400
C  52.73500 46.97800 43.01600
C  49.35800 50.48200 44.08900
N  47.72900 45.85400 42.08300
C  46.40900 46.18900 42.09200
C  45.56400 45.13600 41.47000
C  46.62000 43.90500 41.44300
C  47.91700 44.57000 41.74200
C  46.34300 42.75300 42.44800
C  44.86500 45.41100 40.10400
C  43.75700 44.44800 39.57800
H  44.23000 43.51800 38.50500
N  50.77700 45.60800 42.52200
C  50.46800 44.37400 42.02400
C  51.65200 43.58700 41.93600
C  52.72600 44.41700 42.31500
C  52.10200 45.75800 42.58500
C  51.65200 42.06100 41.57500
C  54.15600 44.05800 42.40300
O  54.50400 42.88200 42.13200
C  55.30500 45.02300 42.68600
N  50.81200 48.56700 43.45500
C  52.14700 48.26600 43.38400
C  52.99100 49.40500 43.84200
C  51.91700 50.54300 44.11200
C  50.58900 49.82500 43.88700
C  53.93100 49.01600 45.09200
C  52.13600 51.81600 43.19600
C  51.54800 53.09400 43.70400
N  47.96400 48.63100 43.42800
C  48.09500 49.94500 43.86100
C  46.77400 50.57400 43.94800
C  45.92700 49.62300 43.43200
C  46.71600 48.45100 43.15000
C  46.55400 52.02300 44.41800
C  44.53600 49.36600 43.06400
O  43.49000 50.04800 43.15600
C  44.55900 47.99800 42.40200
C  43.66200 47.20500 43.25400
O  43.80800 47.00900 44.43300
O  42.82600 46.50800 42.43500
C  42.12900 45.47600 43.14400
H  49.06100 42.90400 41.29600
H  53.79900 47.03200 43.25400
H  49.41200 51.52000 44.42400
H  44.84100 44.84300 42.23100
H  46.71400 43.49000 40.44000
H  45.40900 42.85500 43.00000
H  47.09400 42.57900 43.21800
H  46.15500 41.85300 41.86300
H  45.69600 45.42200 39.39900
H  44.52700 46.44200 40.21300
H  42.96700 45.07000 39.15800
H  43.31800 43.87800 40.39700
H  52.13800 42.06600 40.59900
H  50.64900 41.63800 41.63400
H  52.21300 41.56500 42.36700
H  55.26500 45.39700 43.71000
H  55.28700 45.78800 41.91000
H  56.22200 44.50500 42.40600
H  53.67400 49.69000 43.04200
H  52.09100 50.78600 45.16000
H  54.89800 48.93900 44.59400
H  53.69500 48.10000 45.63300
H  54.08500 49.82200 45.80900
H  51.70600 51.58300 42.22200
H  53.21100 51.96700 43.09800
H  51.15500 53.02200 44.71800
H  50.79100 53.47900 43.02100
H  52.36500 53.80900 43.79600
H  45.52100 52.21400 44.12500
H  47.17800 52.71000 43.84700
H  46.75300 52.04600 45.48900
H  44.07100 48.21500 41.45200
H  41.41700 45.73500 43.92800
H  42.85200 44.73300 43.48000
H  41.54600 45.01600 42.34500
Mg 5.21700 53.90800 42.41400
C  4.58500 50.33600 41.63000
C  8.30500 53.42700 41.33200
C  5.57300 57.19500 42.74800
C  1.84400 54.06800 43.44600
N  6.24100 52.08900 41.40300
C  5.88700 50.77500 41.32900
C  7.05000 49.98000 40.77200
C  8.30100 50.96700 40.90300
C  7.56100 52.25300 41.16300
C  9.39900 50.64700 41.97900
C  6.88600 49.56200 39.30900
C  6.16000 50.37700 38.17800
H  7.02200 50.62500 36.90700
N  6.81300 55.13600 42.15800
C  8.01800 54.77400 41.76600
C  8.89400 55.83800 41.77100
C  8.08800 56.95400 42.13600
C  6.73300 56.45800 42.33100
C  10.33500 55.79900 41.26800
C  8.62000 58.38400 42.34200
O  9.78200 58.63000 41.94900
C  7.90700 59.49400 43.03100
N  3.81600 55.40400 42.88800
C  4.29200 56.67200 43.07700
C  3.15700 57.58300 43.51500
C  1.95100 56.63300 43.47700
C  2.54200 55.23800 43.29100
C  3.41000 58.34400 44.85900
C  0.76400 56.98800 42.40900
C  -0.06700 58.26500 42.78300
N  3.55800 52.50300 42.48500
C  2.32400 52.78500 43.02500
C  1.53700 51.56700 43.11800
C  2.40600 50.56900 42.56200
C  3.62300 51.20200 42.20800
C  -0.00600 51.57100 43.51000
C  2.53300 49.16700 42.22000
O  1.71800 48.28100 42.31800
C  3.88700 48.98600 41.60300
C  3.89300 48.33100 40.26700
O  3.34300 48.79700 39.29200
O  4.52900 47.12500 40.33600
C  4.62400 46.34000 39.12700
H  9.37800 53.28600 41.19100
H  5.81300 58.21600 43.05100
H  0.81400 54.22900 43.77100
H  7.20500 49.06600 41.34600
H  8.78300 51.16000 39.94500
H  9.05600 49.78400 42.55100
H  9.62500 51.47200 42.65400
H  10.28700 50.38300 41.40500
H  6.28900 48.65700 39.42200
H  7.82200 49.16700 38.91300
H  5.89600 51.35700 38.57500
H  5.24500 49.98200 37.73700
H  11.00400 56.47900 41.79600
H  10.41800 56.00800 40.20200
H  10.82700 54.84800 41.47300
H  8.62600 60.31000 43.09800
H  7.63300 59.23600 44.05400
H  7.03100 59.75100 42.43500
H  3.08200 58.37900 42.77500
H  1.45100 56.55000 44.44300
H  3.96900 59.27100 44.73100
H  3.90400 57.63600 45.52400
H  2.51200 58.60800 45.41700
H  0.18800 56.12600 42.07400
H  1.34500 57.45400 41.61300
H  0.05200 58.48600 43.84400
H  -1.12500 58.06700 42.61100
H  0.28400 59.09700 42.17300
H  -0.35500 50.69400 42.96500
H  -0.58000 52.48000 43.33100
H  -0.12200 51.24400 44.54300
H  4.29800 48.28200 42.32700
H  4.32300 46.84800 38.21100
H  4.00500 45.44300 39.14700
H  5.64400 46.04400 38.88300

