158

Mg 35.37000 0.40700 29.63900
C  33.42200 1.35300 32.33400
C  38.02700 0.01100 31.88300
C  37.40300 0.21200 27.05700
C  32.72500 0.94800 27.46200
N  35.68200 0.72700 31.90200
C  34.70800 1.07400 32.80400
C  35.21000 0.95800 34.25200
C  36.83700 0.81400 34.10700
C  36.84700 0.49500 32.54700
C  37.71300 2.00800 34.56400
C  34.38600 -0.18600 35.05700
C  33.82300 0.26100 36.48500
H  34.54600 1.40400 37.19800
N  37.41900 -0.04400 29.50300
C  38.32700 -0.22000 30.49900
C  39.59200 -0.64400 29.89200
C  39.41100 -0.50800 28.49800
C  38.05200 -0.02400 28.31400
C  40.80900 -0.92300 30.72500
C  40.41700 -0.76400 27.35700
O  40.20700 -0.70000 26.18100
C  41.90700 -0.96600 27.72900
N  35.08000 0.41900 27.59500
C  36.06000 0.40800 26.69100
C  35.60000 0.40200 25.22000
C  34.02500 0.47400 25.35900
C  33.90500 0.55900 26.88700
C  36.17500 1.59200 24.37800
C  33.29400 -0.74000 24.66000
C  33.18600 -1.96600 25.54700
N  33.48800 0.96500 29.78500
C  32.46800 0.99100 28.88400
C  31.21200 1.36400 29.47700
C  31.55700 1.59800 30.82500
C  32.87000 1.27400 30.99400
C  29.91400 1.59000 28.72500
C  31.05600 1.93200 32.08300
O  29.89000 2.20600 32.40000
C  32.19400 1.71000 33.14400
C  32.39100 2.93300 33.94100
O  33.27000 3.74600 33.77300
O  31.39200 3.08400 34.93000
C  31.40900 4.33300 35.66500
H  38.86800 -0.02700 32.57900
H  37.90100 0.11600 26.08900
H  31.86100 1.11400 26.81600
H  34.93100 1.90700 34.71100
H  37.21500 -0.08800 34.58900
H  37.10300 2.69100 35.15400
H  37.92000 2.57300 33.65500
H  38.55400 1.83400 35.23600
H  35.08400 -0.98100 35.32100
H  33.61100 -0.72000 34.50700
H  33.98600 -0.48500 37.26300
H  32.77100 0.53500 36.41100
H  41.39300 -1.73300 30.28800
H  40.58400 -1.11600 31.77400
H  41.27300 0.06100 30.66600
H  41.99700 -0.30300 28.59000
H  42.64500 -0.65000 26.99200
H  42.22000 -1.99800 27.89200
H  35.81800 -0.60400 24.86100
H  33.59100 1.40800 25.00100
H  37.02400 1.97400 24.94500
H  35.46800 2.37100 24.09400
H  36.55100 1.19300 23.43600
H  33.90400 -0.92200 23.77400
H  32.35300 -0.35500 24.26800
H  33.48800 -2.76400 24.86900
H  32.13300 -2.22500 25.66600
H  33.84500 -2.11300 26.40300
H  29.59000 0.67500 28.23000
H  30.12000 2.31200 27.93400
H  29.15900 1.94200 29.42800
H  31.88800 0.92600 33.83700
H  30.70700 4.26700 36.49600
H  31.00600 5.14700 35.06200
H  32.39400 4.65700 36.00000
Mg 9.35900 48.54600 25.32700
C  7.31700 48.02500 28.09700
C  11.92700 49.35300 27.43200
C  11.23600 48.94300 22.64700
C  6.54000 48.18300 23.27700
N  9.56600 48.63000 27.52400
C  8.61700 48.36100 28.42500
C  9.06200 48.74200 29.87600
C  10.54400 49.21400 29.62800
C  10.72500 49.03900 28.10300
C  10.80100 50.65900 30.14200
C  9.01100 47.66300 30.96400
C  10.07900 47.73200 32.15800
H  9.74900 46.96300 33.48100
N  11.29700 49.03000 25.07500
C  12.22800 49.31300 26.03900
C  13.56600 49.35400 25.47900
C  13.42100 48.91300 24.09600
C  11.95800 48.93100 23.86300
C  14.79900 49.78500 26.25300
C  14.45700 48.84400 23.04000
O  14.17600 48.56100 21.87000
C  15.93000 49.05100 23.34600
N  8.99500 48.53200 23.30900
C  9.91500 48.85100 22.41600
C  9.29900 48.99500 20.99100
C  7.85000 48.43000 21.13100
C  7.75500 48.42100 22.65100
C  9.29400 50.42100 20.51200
C  7.62000 46.99500 20.57600
C  6.70100 46.80300 19.41600
N  7.33900 48.11800 25.60400
C  6.29600 47.89400 24.65000
C  5.05800 47.67500 25.36500
C  5.44500 47.68400 26.71000
C  6.81000 47.94300 26.78100
C  3.78000 47.61800 24.73000
C  4.99300 47.59100 28.07900
O  3.82900 47.46800 28.45000
C  6.17600 47.81000 29.04400
C  6.33900 46.44800 29.72700
O  6.83900 45.44600 29.31400
O  5.88800 46.46100 31.04500
C  6.08500 45.23200 31.89300
H  12.71700 49.62900 28.13400
H  11.86100 49.23300 21.80000
H  5.70400 48.01800 22.59400
H  8.43300 49.57400 30.19000
H  11.33500 48.53500 29.94600
H  10.97600 51.44200 29.40400
H  11.65700 50.62700 30.81700
H  9.90700 51.01500 30.65400
H  9.11600 46.66300 30.54300
H  8.00500 47.83200 31.34700
H  10.39300 48.75200 32.38000
H  10.87300 47.14700 31.69500
H  14.65100 49.88400 27.32800
H  15.16100 50.72000 25.82400
H  15.57400 49.02300 26.16600
H  16.30400 48.22400 23.94900
H  16.10000 50.01800 23.81800
H  16.57100 48.91000 22.47600
H  9.92200 48.29600 20.43400
H  7.03100 49.03200 20.73600
H  9.71200 51.00700 21.33100
H  8.37200 50.87700 20.15400
H  9.99600 50.38300 19.68000
H  7.29600 46.30100 21.35100
H  8.57700 46.60000 20.23800
H  7.22100 46.16300 18.70300
H  6.71700 47.78800 18.94800
H  5.74600 46.35700 19.69400
H  3.67100 46.77200 24.05200
H  3.67900 48.59800 24.26500
H  3.03500 47.58700 25.52500
H  5.95400 48.57600 29.78600
H  7.12800 45.33300 32.19100
H  5.92300 44.34000 31.28700
H  5.34600 45.10200 32.68300

