158

Mg -1.68100 17.43500 27.02700
C  -2.17900 15.23900 29.72700
C  -2.30300 19.98300 29.23100
C  -2.05100 19.47600 24.28900
C  -1.94100 14.69700 24.92700
N  -2.37900 17.57100 29.23300
C  -2.27800 16.58900 30.15600
C  -2.38200 17.05900 31.59500
C  -2.42600 18.61100 31.39100
C  -2.51900 18.74900 29.87300
C  -3.59400 19.40500 32.04200
C  -1.25400 16.52000 32.55400
C  -1.14700 17.35100 33.82400
H  -0.94900 16.62700 35.25200
N  -1.90300 19.41700 26.83100
C  -2.17400 20.26000 27.86200
C  -2.04900 21.66500 27.34600
C  -1.77300 21.54300 25.92900
C  -1.97800 20.12100 25.62200
C  -2.02200 22.90600 28.21600
C  -1.48800 22.58100 24.86100
O  -1.42900 22.32400 23.67300
C  -1.17700 23.90300 25.37100
N  -2.03900 17.18200 24.90100
C  -2.10700 18.13400 23.94700
C  -2.27900 17.58900 22.56400
C  -1.97200 16.08000 22.75600
C  -1.96800 15.91900 24.30700
C  -3.54600 17.82600 21.76800
C  -0.60100 15.63800 22.14200
C  0.66400 16.07300 22.96600
N  -1.80800 15.33900 27.19600
C  -1.93500 14.39600 26.25500
C  -2.14000 13.07700 26.92500
C  -2.22000 13.32600 28.25800
C  -2.09600 14.77300 28.38600
C  -2.43600 11.87400 26.23900
C  -2.34000 12.71100 29.54900
O  -2.35600 11.54100 29.93600
C  -2.22000 13.90300 30.58600
C  -0.93900 13.63500 31.31800
O  0.20200 13.94800 30.92000
O  -1.14900 12.92600 32.51900
C  0.05500 12.60200 33.33500
H  -2.32100 20.79800 29.95800
H  -1.93400 20.15700 23.44300
H  -2.01800 13.83400 24.26200
H  -3.31600 16.80500 32.09700
H  -1.54500 19.09700 31.81100
H  -4.09000 18.84400 32.83400
H  -4.29300 19.78500 31.29800
H  -3.23100 20.27600 32.58700
H  -0.30400 16.27900 32.07700
H  -1.57100 15.54800 32.93300
H  -1.96100 18.05300 34.00400
H  -0.17900 17.84300 33.73300
H  -2.68300 23.63100 27.74300
H  -1.00700 23.27600 28.36200
H  -2.52600 22.71700 29.16400
H  -0.47800 23.84400 26.20600
H  -2.16500 24.30600 25.59100
H  -0.75200 24.43700 24.52100
H  -1.44900 17.95100 21.95800
H  -2.68500 15.32300 22.42900
H  -4.10000 16.89600 21.89400
H  -3.29700 18.04200 20.72900
H  -4.15300 18.65000 22.14200
H  -0.58800 16.07300 21.14300
H  -0.59400 14.54800 22.12200
H  0.45400 16.55000 23.92300
H  1.09200 16.79900 22.27400
H  1.31100 15.20600 23.09500
H  -1.63000 11.47500 25.62300
H  -3.25500 11.95300 25.52400
H  -2.64800 11.18600 27.05700
H  -3.07500 13.78100 31.25100
H  -0.36900 11.94000 34.09000
H  0.47200 13.43700 33.89900
H  0.79200 12.19700 32.64200
Mg 24.38200 -5.43200 45.50400
C  26.56200 -3.33900 43.96800
C  21.86700 -4.29300 43.37300
C  22.34500 -7.97800 46.50700
C  27.00900 -7.00800 47.16700
N  24.30200 -4.15300 43.70300
C  25.27700 -3.25600 43.40800
C  24.87400 -2.32600 42.27500
C  23.29800 -2.40600 42.28600
C  23.13700 -3.74600 43.14000
C  22.52700 -1.23400 42.95800
C  25.45500 -2.74400 40.85300
C  26.00200 -1.48100 40.17100
H  25.83500 -1.45300 38.66200
N  22.33100 -6.08700 44.98700
C  21.43500 -5.38100 44.15200
C  20.23900 -6.09700 44.23000
C  20.32500 -7.15900 45.14200
C  21.70200 -7.14300 45.56900
C  19.15700 -5.67500 43.19000
C  19.22300 -8.08600 45.53600
O  18.06700 -7.83900 45.10100
C  19.33500 -9.17300 46.58300
N  24.65000 -7.23500 46.66400
C  23.67000 -8.10400 46.90400
C  24.11600 -9.24900 47.76100
C  25.63800 -8.88700 48.05900
C  25.81000 -7.69300 47.20800
C  23.34100 -9.67400 49.02200
C  26.59500 -10.04500 47.75300
C  27.56400 -10.49000 48.81400
N  26.34600 -5.27200 45.62300
C  27.32700 -5.87500 46.41200
C  28.62300 -5.16500 46.23800
C  28.30100 -4.08700 45.32800
C  26.94900 -4.26100 44.98900
C  29.99200 -5.52600 46.91700
C  28.82400 -2.93200 44.68600
O  29.98000 -2.48200 44.82600
C  27.70100 -2.42300 43.65300
C  27.57000 -0.96500 43.91400
O  27.05200 -0.44200 44.91100
O  28.26400 -0.18800 42.96400
C  28.46800 1.28600 43.21300
H  21.03900 -3.89800 42.78000
H  21.84600 -8.91100 46.78000
H  27.93900 -7.17600 47.71500
H  25.08000 -1.33100 42.67100
H  22.70400 -2.51000 41.37800
H  23.17500 -0.52600 43.47500
H  21.84700 -1.69200 43.67600
H  21.96000 -0.68600 42.20600
H  24.66800 -3.30500 40.34900
H  26.23700 -3.47800 41.04800
H  27.07900 -1.57300 40.31000
H  25.64300 -0.54600 40.60000
H  19.54900 -5.72500 42.17400
H  18.74200 -4.71300 43.48800
H  18.42100 -6.47900 43.21600
H  19.87300 -9.97100 46.07000
H  18.39600 -9.49300 47.03300
H  19.99100 -8.85700 47.39500
H  24.16100 -10.13100 47.12100
H  25.75800 -8.63900 49.11400
H  22.39000 -9.14100 49.02500
H  23.80700 -9.33500 49.94700
H  23.09600 -10.73400 49.07700
H  27.30600 -9.74800 46.98100
H  25.97900 -10.82200 47.30000
H  27.42900 -11.57000 48.87600
H  27.25800 -10.11300 49.79000
H  28.56500 -10.13000 48.57800
H  30.39700 -6.52200 46.74100
H  29.82900 -5.31600 47.97400
H  30.55400 -4.80600 46.32200
H  28.14900 -2.67400 42.69100
H  28.21800 1.86600 42.32400
H  29.50800 1.43000 43.50600
H  27.88400 1.72500 44.02200

