158

Mg 40.37300 9.89800 29.00900
C  42.32700 11.18100 31.68400
C  38.11000 8.67900 31.35000
C  38.67600 8.47700 26.55600
C  43.04600 10.60300 26.86100
N  40.32200 9.72300 31.27800
C  41.15100 10.56400 32.08300
C  40.55100 10.52100 33.56600
C  39.41900 9.52000 33.42300
C  39.17600 9.34300 31.95300
C  39.71300 8.14300 34.19500
C  40.11300 11.96600 34.01700
C  40.44500 12.39600 35.48000
H  40.50100 13.94000 35.76700
N  38.62400 8.71700 28.90900
C  37.83600 8.34500 29.98400
C  36.74600 7.47900 29.47100
C  36.80000 7.58400 28.08400
C  38.03700 8.30000 27.77200
C  35.57400 7.02800 30.25800
C  35.77600 7.18100 26.97500
O  35.95500 7.45300 25.86700
C  34.44900 6.53900 27.42200
N  40.73900 9.72600 27.03500
C  39.89800 9.01800 26.24400
C  40.50800 8.74100 24.85300
C  41.92000 9.38900 24.90000
C  41.93100 9.93600 26.34700
C  40.57600 7.28400 24.33400
C  42.19100 10.53000 23.86700
C  41.82100 11.95200 24.27400
N  42.23600 10.80600 29.18000
C  43.23400 11.06600 28.25300
C  44.41700 11.77600 28.82100
C  44.05600 11.90500 30.12700
C  42.74000 11.23200 30.33200
C  45.68400 12.04600 28.14300
C  44.45500 12.34600 31.41400
O  45.53000 12.85000 31.77900
C  43.34700 12.01600 32.43400
C  43.92700 11.44700 33.63100
O  44.26600 10.30000 33.86100
O  43.88800 12.43100 34.59700
C  44.06200 11.83300 35.92200
H  37.41100 8.53000 32.17700
H  38.31100 7.82300 25.76100
H  43.98100 10.70800 26.30700
H  41.29200 10.14000 34.26800
H  38.55700 10.06400 33.81000
H  40.75400 8.04600 34.50200
H  39.63100 7.50200 33.31700
H  39.02000 7.81100 34.96800
H  39.04700 12.12800 33.86200
H  40.61100 12.66100 33.34000
H  41.46300 12.06600 35.68800
H  39.79000 11.82100 36.13500
H  35.80800 7.19800 31.30900
H  35.41900 5.95000 30.22000
H  34.67000 7.56500 29.96900
H  33.70900 7.20100 27.87000
H  34.56300 5.76600 28.18100
H  33.95200 6.03200 26.59500
H  39.91300 9.28500 24.12000
H  42.76100 8.70000 24.83000
H  40.08200 7.36600 23.36500
H  40.02700 6.65500 25.03400
H  41.57000 6.84200 24.39800
H  41.61400 10.36500 22.95800
H  43.27500 10.47800 23.76400
H  41.24100 12.52700 23.55200
H  42.69800 12.50900 24.60400
H  41.13800 11.89800 25.12200
H  45.87100 13.10400 28.32700
H  45.74700 12.13800 27.05900
H  46.45300 11.45500 28.64000
H  42.93100 13.00900 32.60700
H  45.05500 11.39500 36.02100
H  43.37100 11.00500 36.08000
H  43.99700 12.65800 36.63100
Mg 30.57400 58.09500 40.44200
C  27.69800 56.30100 39.56700
C  32.55600 55.70500 39.17300
C  33.24200 60.23800 40.53700
C  28.43300 60.84100 41.24600
N  30.11700 56.29400 39.37400
C  28.89300 55.66200 39.21800
C  29.02400 54.19400 38.71300
C  30.57800 54.08600 38.75300
C  31.17300 55.46300 39.16400
C  31.02800 52.98700 39.71000
C  28.27400 53.80300 37.39800
C  29.05900 53.90500 36.06700
H  28.21800 54.11600 34.84900
N  32.66200 58.00000 40.07200
C  33.23900 56.88100 39.50500
C  34.68800 57.04800 39.51800
C  34.92500 58.35200 40.01100
C  33.54900 58.94700 40.21200
C  35.69600 55.97800 39.13900
C  36.30500 59.02600 40.33900
O  37.39100 58.38600 40.21300
C  36.49800 60.49400 40.70600
N  30.82100 60.18900 40.87400
C  32.04000 60.80900 40.94400
C  31.86800 62.29600 41.11500
C  30.35300 62.44800 41.51200
C  29.81600 61.07600 41.18700
C  32.81800 63.09300 42.08700
C  29.49600 63.73600 40.92600
C  28.75700 64.58000 42.01700
N  28.47400 58.52100 40.52000
C  27.70600 59.68100 40.85000
C  26.26800 59.34400 40.56600
C  26.27700 57.99100 40.29600
C  27.57400 57.59600 40.13300
C  25.08600 60.20900 40.72600
C  25.35600 56.86400 40.09500
O  24.14700 56.85100 40.21600
C  26.30400 55.76800 39.48400
C  26.11200 54.60800 40.36100
O  26.64000 54.42300 41.43500
O  25.23800 53.64500 39.79800
C  24.89700 52.41200 40.69200
H  33.27500 54.93300 38.89300
H  33.89700 61.10100 40.40100
H  27.82600 61.68000 41.59400
H  28.61200 53.50300 39.44900
H  30.99300 53.84700 37.77400
H  31.47700 53.33600 40.64000
H  31.76800 52.40500 39.16100
H  30.23500 52.25700 39.86700
H  27.36600 54.40000 37.32000
H  27.99100 52.77500 37.62100
H  29.65100 52.99800 35.94400
H  29.88600 54.59900 36.21700
H  36.48600 56.44200 38.54900
H  35.20600 55.34800 38.39700
H  36.02000 55.36000 39.97700
H  35.87200 60.69500 41.57500
H  36.21100 61.08100 39.83400
H  37.55800 60.69100 40.86600
H  31.94600 62.83400 40.17100
H  30.36000 62.32100 42.59400
H  32.30600 63.54400 42.93600
H  33.28000 63.79100 41.38800
H  33.59800 62.50200 42.56600
H  28.82900 63.38900 40.13600
H  30.21000 64.43000 40.48200
H  29.40100 65.45500 42.09900
H  28.68600 64.04700 42.96600
H  27.74700 64.85600 41.71300
H  25.13700 60.95400 41.52000
H  24.10900 59.73900 40.83500
H  25.11600 60.76500 39.78900
H  26.03500 55.70900 38.43000
H  25.54300 51.56800 40.45000
H  23.85000 52.11400 40.64900
H  24.98200 52.53700 41.77200

