158

Mg 30.53200 57.67100 40.09700
C  27.57600 55.77400 39.26100
C  32.40300 54.99100 38.92000
C  33.15900 59.63000 40.18400
C  28.43800 60.52200 40.52700
N  30.03600 55.59900 39.20600
C  28.79000 55.09200 39.01800
C  28.85500 53.72600 38.30400
C  30.41200 53.32500 38.47600
C  31.02600 54.67600 38.96500
C  30.67900 52.25100 39.58500
C  28.15600 53.57400 36.83000
C  29.12700 53.49100 35.64200
H  28.62100 53.92200 34.24100
N  32.52200 57.31100 39.61800
C  33.08300 56.18800 39.22700
C  34.51100 56.44400 39.04100
C  34.75800 57.80200 39.34800
C  33.43200 58.28500 39.80400
C  35.47400 55.40300 38.50700
C  36.15900 58.63100 39.18000
O  37.14800 58.01100 38.77900
C  36.39500 59.95800 39.66800
N  30.77700 59.79700 40.25100
C  31.97800 60.34200 40.41900
C  31.98200 61.84300 40.58600
C  30.45900 62.11700 40.85000
C  29.82600 60.75500 40.49400
C  33.04500 62.46900 41.51800
C  29.85900 63.33500 40.15100
C  29.28300 64.41800 41.03500
N  28.45800 58.07200 39.97200
C  27.77900 59.25700 40.23300
C  26.29400 58.97700 40.23300
C  26.22300 57.66300 39.80400
C  27.50300 57.13400 39.66400
C  25.21500 59.90700 40.53000
C  25.30100 56.61500 39.43000
O  24.07100 56.59700 39.35400
C  26.14500 55.35300 39.11000
C  25.77900 54.18200 39.99800
O  26.33700 53.75400 40.98600
O  24.67400 53.56100 39.43900
C  24.19200 52.39600 40.22500
H  33.00800 54.16300 38.54600
H  34.04800 60.24000 40.35600
H  27.66800 61.26600 40.74200
H  28.35600 52.95600 38.89300
H  30.83400 52.94600 37.54500
H  31.06400 52.67700 40.51100
H  31.35400 51.52400 39.13300
H  29.76500 51.69900 39.80400
H  27.70800 54.55000 36.64800
H  27.55600 52.66700 36.89900
H  29.23700 52.40900 35.56700
H  30.10600 53.92400 35.84700
H  35.33600 55.23500 37.43900
H  35.15400 54.48900 39.00800
H  36.50700 55.57900 38.80900
H  36.14100 59.95300 40.72800
H  35.84700 60.64800 39.02700
H  37.45900 60.18200 39.59000
H  32.14700 62.33800 39.62900
H  30.50000 62.38000 41.90700
H  32.69000 63.08500 42.34400
H  33.65100 63.17100 40.94500
H  33.72500 61.75500 41.98200
H  29.02800 63.01400 39.52200
H  30.56700 63.78100 39.45200
H  29.87800 65.33100 40.99800
H  29.14600 64.14200 42.08000
H  28.24700 64.50900 40.70800
H  25.28000 60.13700 41.59300
H  24.23100 59.54200 40.23400
H  25.50500 60.82800 40.02400
H  26.11000 55.08200 38.05500
H  24.25800 52.48000 41.31000
H  24.70800 51.48900 39.91100
H  23.12900 52.18800 40.10100
Mg -12.00300 16.24500 41.33700
C  -9.07000 14.50700 40.59100
C  -10.64100 18.98900 39.84100
C  -15.12300 17.50300 41.07900
C  -13.46100 13.15200 42.38800
N  -10.07100 16.57000 40.16100
C  -8.95800 15.81500 40.16300
C  -7.79400 16.62100 39.63600
C  -8.33400 18.06200 39.46100
C  -9.77800 17.88600 39.82100
C  -7.61300 19.21000 40.23700
C  -7.31900 16.02200 38.26000
C  -5.75700 15.94200 38.16500
H  -5.16400 16.78900 36.99500
N  -12.76300 18.00200 40.59700
C  -12.03100 19.00500 40.00400
C  -12.91200 20.09700 39.66000
C  -14.22400 19.70300 40.05700
C  -14.10100 18.36600 40.58500
C  -12.41900 21.36500 38.88800
C  -15.42700 20.55700 39.93300
O  -15.28700 21.59200 39.36300
C  -16.77800 20.27300 40.49200
N  -14.08900 15.31200 41.53000
C  -15.17900 16.15000 41.45100
C  -16.43800 15.42900 41.92900
C  -15.90700 14.07300 42.62300
C  -14.41000 14.16100 42.16500
C  -17.52000 16.15700 42.77900
C  -16.61400 12.77800 42.25500
C  -16.63100 11.66600 43.33800
N  -11.42000 14.31500 41.60400
C  -12.09600 13.17500 42.04200
C  -11.20300 12.02600 42.10500
C  -10.04200 12.56200 41.58800
C  -10.20400 13.92000 41.23700
C  -11.47000 10.63700 42.53900
C  -8.73300 12.13200 41.17600
O  -8.14900 11.02600 41.22700
C  -8.05100 13.44400 40.52400
C  -6.88200 13.71400 41.35700
O  -6.89400 14.27500 42.46700
O  -5.70100 13.42300 40.68000
C  -4.57900 14.05500 41.28600
H  -10.13700 19.92500 39.58900
H  -16.11800 17.94400 40.99400
H  -13.90700 12.24100 42.79300
H  -6.96900 16.49100 40.33600
H  -8.32600 18.50300 38.46500
H  -8.02500 20.17500 39.94200
H  -6.53100 19.14600 40.11900
H  -7.82500 19.07100 41.29600
H  -7.67200 16.54700 37.37200
H  -7.73500 15.02500 38.11400
H  -5.50200 14.89900 37.97500
H  -5.26800 16.21400 39.10100
H  -13.06300 22.20900 39.13700
H  -12.34700 21.20200 37.81300
H  -11.38300 21.53300 39.18300
H  -17.48400 20.99100 40.07500
H  -16.72200 20.10100 41.56700
H  -17.06600 19.39000 39.92100
H  -16.78500 15.18900 40.92300
H  -16.01000 14.15300 43.70500
H  -17.32800 17.22700 42.86300
H  -17.60800 15.76200 43.79100
H  -18.47300 16.02200 42.26800
H  -16.26600 12.21600 41.38800
H  -17.63900 13.02900 41.98500
H  -16.45300 12.13800 44.30400
H  -15.94100 10.85900 43.09200
H  -17.62500 11.22200 43.27200
H  -11.73200 9.95500 41.73000
H  -12.26400 10.51800 43.27800
H  -10.53200 10.36700 43.02400
H  -7.71500 13.26400 39.50300
H  -4.69500 15.13800 41.30900
H  -3.75100 13.88900 40.59700
H  -4.28300 13.74100 42.28700

