158

Mg 42.14500 41.34100 27.46700
C  41.06500 43.70500 29.90600
C  43.12300 39.21300 29.89300
C  43.26300 39.37400 25.10600
C  41.50200 43.93700 25.06100
N  41.77600 41.35100 29.63300
C  41.47300 42.42500 30.41800
C  41.55100 42.00800 31.92200
C  42.27700 40.62900 31.89400
C  42.40500 40.38000 30.33600
C  43.61400 40.51200 32.67800
C  40.17200 42.01300 32.70900
C  40.16400 42.84600 34.07000
H  38.89000 42.85400 34.95900
N  42.84000 39.41800 27.48200
C  43.15900 38.67200 28.62500
C  43.67300 37.40300 28.28100
C  43.82200 37.55700 26.88000
C  43.26500 38.78800 26.38300
C  44.05600 36.34800 29.29500
C  44.41800 36.45300 25.93800
O  44.54300 36.53800 24.73000
C  44.93700 35.23600 26.65100
N  42.28200 41.62800 25.43600
C  42.72700 40.59900 24.64100
C  42.79100 40.99200 23.18500
C  42.19800 42.38300 23.12300
C  42.02800 42.68600 24.62100
C  44.25000 40.90800 22.64800
C  40.79400 42.45700 22.39900
C  39.53400 41.89700 23.09900
N  41.41800 43.41900 27.39300
C  41.15500 44.26800 26.37400
C  40.66100 45.49200 26.88800
C  40.58300 45.30000 28.26500
C  41.02900 43.99800 28.53500
C  40.23200 46.64700 26.07400
C  40.27200 45.98100 29.54700
O  39.83100 47.11100 29.77300
C  40.59400 44.98600 30.66600
C  41.75300 45.45000 31.51000
O  42.95700 45.44200 31.18000
O  41.28000 45.99500 32.69000
C  42.22300 46.72500 33.52400
H  43.49900 38.64800 30.74900
H  43.58100 38.64700 24.35600
H  41.08600 44.63000 24.32600
H  42.18000 42.68500 32.50000
H  41.62400 39.84800 32.28400
H  44.47700 40.29100 32.05000
H  43.54300 39.81600 33.51400
H  43.89500 41.43300 33.18800
H  39.89500 40.99400 32.97700
H  39.34200 42.36700 32.09700
H  40.43800 43.84600 33.73500
H  40.94200 42.44200 34.71700
H  45.13200 36.17300 29.30400
H  43.44100 35.45300 29.19800
H  43.77300 36.62300 30.31100
H  45.88300 35.60700 27.04500
H  45.10100 34.56700 25.80600
H  44.20800 34.82300 27.34800
H  42.22000 40.30200 22.56400
H  42.97200 43.05400 22.75100
H  44.98700 40.84100 23.44900
H  44.50300 41.81600 22.10200
H  44.38300 40.10800 21.92000
H  40.89600 41.93600 21.44700
H  40.53200 43.50000 22.22200
H  39.10300 41.11300 22.47700
H  38.72500 42.62800 23.11200
H  39.83000 41.50700 24.07300
H  39.72900 47.37600 26.71000
H  39.56600 46.38300 25.25300
H  41.12000 47.16000 25.70400
H  39.69800 44.80200 31.25800
H  41.82800 47.74000 33.58300
H  43.27900 46.80800 33.26400
H  42.23400 46.26600 34.51200
Mg -1.57200 34.56000 25.56300
C  -3.45000 33.10800 28.19300
C  -0.55900 36.83500 27.93500
C  -0.17500 36.26500 23.15100
C  -3.27200 32.41900 23.24000
N  -1.96100 34.89700 27.93800
C  -2.65200 34.10200 28.74300
C  -2.52300 34.61200 30.19400
C  -1.61100 35.88800 30.05000
C  -1.39400 35.96800 28.58100
C  -2.01300 37.16800 30.90500
C  -1.99800 33.54100 31.18900
C  -2.71000 33.47900 32.58300
H  -2.12300 32.60800 33.65500
N  -0.49900 36.28000 25.52400
C  -0.22200 37.10200 26.57700
C  0.58600 38.18600 26.11700
C  0.62800 38.14400 24.74700
C  0.01300 36.88800 24.39700
C  1.02700 39.21000 27.07500
C  1.17300 39.10500 23.73400
O  1.13600 38.88000 22.50600
C  1.60300 40.49700 24.24400
N  -1.84000 34.48500 23.49300
C  -0.97000 35.17800 22.70300
C  -1.15600 34.76200 21.24200
C  -2.06100 33.42400 21.35600
C  -2.40400 33.41300 22.77900
C  -1.72800 35.85900 20.29000
C  -1.32200 32.09100 20.85800
C  -0.03400 31.59300 21.48800
N  -3.03900 33.09400 25.66600
C  -3.64600 32.24800 24.62100
C  -4.39600 31.21900 25.28700
C  -4.48000 31.62200 26.61700
C  -3.60900 32.70900 26.83400
C  -5.11700 30.06800 24.60100
C  -4.96100 31.17800 27.91500
O  -5.75000 30.19200 28.19500
C  -4.45600 32.14900 28.96400
C  -5.53800 32.87800 29.49500
O  -6.13000 33.80200 28.95000
O  -5.77100 32.48700 30.79500
C  -6.88800 33.05400 31.55000
H  -0.13000 37.41800 28.75200
H  0.32700 36.65100 22.26100
H  -3.67500 31.70100 22.52300
H  -3.50700 34.97700 30.48600
H  -0.65500 35.57300 30.46900
H  -2.86400 37.06400 31.57800
H  -2.35500 37.90200 30.17500
H  -1.21000 37.56500 31.52600
H  -0.93600 33.67600 31.39100
H  -2.07800 32.64200 30.57800
H  -3.69000 33.03100 32.42000
H  -2.94400 34.49200 32.90900
H  0.27800 39.99900 27.14200
H  2.03700 39.52700 26.81300
H  1.18900 38.75000 28.05000
H  0.96000 40.86700 25.04200
H  1.67700 41.19800 23.41200
H  2.62800 40.54900 24.61000
H  -0.13000 34.60700 20.90900
H  -2.95300 33.38300 20.73100
H  -1.28900 35.85100 19.29200
H  -1.32000 36.79000 20.68400
H  -2.81700 35.87200 20.32500
H  -1.10500 32.27300 19.80600
H  -2.01000 31.25000 20.94600
H  -0.12600 30.82300 22.25400
H  0.50000 32.42600 21.94600
H  0.62700 31.22800 20.70200
H  -4.44700 29.92900 23.75200
H  -6.07300 30.41600 24.20900
H  -5.15700 29.29300 25.36600
H  -4.02900 31.57800 29.78900
H  -6.46800 33.66000 32.35300
H  -7.47900 32.19400 31.86500
H  -7.45800 33.74300 30.92700

