158

Mg 47.46600 34.63000 27.61800
C  45.72500 32.89700 30.14900
C  47.62300 37.29300 29.61800
C  48.45700 36.51300 24.97900
C  46.62600 32.01200 25.46400
N  46.81400 34.93600 29.57900
C  46.28700 34.10300 30.51500
C  46.36400 34.61300 31.92500
C  46.75500 36.12800 31.68400
C  47.04700 36.20200 30.18900
C  45.81100 37.23900 32.16300
C  47.54400 33.89000 32.76400
C  47.81000 34.33900 34.22400
H  46.80300 35.30300 34.91600
N  48.18000 36.60900 27.35300
C  48.20900 37.56900 28.33200
C  48.69900 38.84100 27.72500
C  48.88900 38.55200 26.33500
C  48.48500 37.16700 26.18300
C  48.81900 40.07300 28.48700
C  49.36600 39.49400 25.18800
O  49.36500 39.26500 23.97500
C  49.93800 40.78600 25.62900
N  47.50100 34.30400 25.52300
C  48.14400 35.14000 24.68400
C  48.31700 34.53500 23.25000
C  47.61800 33.19000 23.42100
C  47.27400 33.12900 24.88600
C  47.79900 35.37100 22.06500
C  48.54500 32.01900 22.93900
C  49.63500 31.39400 23.88400
N  46.44500 32.77000 27.74800
C  46.19200 31.82800 26.77700
C  45.47000 30.69100 27.37600
C  45.22800 31.09800 28.70900
C  45.85100 32.38400 28.86400
C  44.99400 29.41100 26.59900
C  44.56800 30.71600 29.91400
O  43.80100 29.79800 30.18700
C  44.75200 31.99600 30.87400
C  45.11700 31.56800 32.24300
O  45.94600 30.72000 32.53600
O  44.20700 32.02900 33.09900
C  44.24000 31.54400 34.46000
H  47.64500 38.18800 30.24300
H  48.70300 37.09300 24.08700
H  46.40900 31.19300 24.77500
H  45.39300 34.52700 32.41200
H  47.67400 36.36500 32.22000
H  46.40800 37.90000 32.79100
H  44.98700 36.84700 32.75900
H  45.41900 37.83300 31.33700
H  48.48300 33.96500 32.21600
H  47.27600 32.83300 32.75200
H  48.85300 34.60900 34.38800
H  47.61200 33.37400 34.69000
H  48.43600 40.01100 29.50600
H  48.38400 40.89800 27.92300
H  49.87100 40.29400 28.66800
H  49.16100 41.43000 26.04100
H  50.43400 41.33200 24.82700
H  50.60800 40.60400 26.46900
H  49.37700 34.36500 23.06400
H  46.66500 33.19800 22.89200
H  47.43500 36.38900 22.20300
H  46.99800 34.87400 21.51800
H  48.55700 35.63900 21.32900
H  49.01200 32.26200 21.98500
H  47.76800 31.27800 22.75000
H  50.60900 31.17700 23.44400
H  49.28800 30.44600 24.29500
H  49.71700 32.10200 24.70800
H  43.96700 29.53500 26.25700
H  44.95200 28.47100 27.14800
H  45.54500 29.32500 25.66200
H  43.76900 32.46800 30.84500
H  44.87200 30.67500 34.64400
H  43.24600 31.20200 34.75000
H  44.48600 32.36300 35.13500
Mg 26.47200 51.17500 26.88800
C  24.20100 52.22800 29.37700
C  28.55800 50.11400 29.45200
C  28.69400 49.91700 24.63400
C  24.35100 52.19700 24.42700
N  26.33400 51.19700 29.19100
C  25.26600 51.55800 29.96200
C  25.50100 51.32500 31.46700
C  26.99300 50.74900 31.43200
C  27.37400 50.77600 29.96500
C  27.90500 51.35800 32.49300
C  24.46400 50.43000 32.24300
C  23.94200 51.01900 33.62500
H  25.02000 51.55900 34.67200
N  28.39300 50.18100 27.01800
C  29.05100 49.89000 28.18500
C  30.34000 49.31700 27.86500
C  30.42900 49.21600 26.39100
C  29.07800 49.69100 25.92300
C  31.40600 49.04500 28.89500
C  31.56700 48.73900 25.43400
O  31.58400 48.83800 24.21500
C  32.82400 48.08300 26.12600
N  26.49500 50.99700 24.76900
C  27.57300 50.48000 24.11900
C  27.27300 50.49900 22.59300
C  25.79700 51.07600 22.57800
C  25.49500 51.48300 24.00200
C  28.27900 51.49600 21.79900
C  24.65000 50.07300 22.00200
C  24.11800 50.55700 20.67600
N  24.79000 52.15700 26.86500
C  24.01300 52.55300 25.80300
C  22.79400 53.29600 26.23100
C  22.88600 53.18000 27.64600
C  24.05800 52.43100 28.00000
C  21.74500 54.04600 25.46800
C  22.28700 53.59300 28.90800
O  21.34200 54.35100 29.14900
C  23.08400 52.97800 30.09800
C  23.49200 54.04800 31.09000
O  24.17600 55.03100 30.88600
O  22.86100 53.81900 32.30500
C  23.01000 54.77800 33.41600
H  29.23500 49.71700 30.21100
H  29.27500 49.37200 23.88700
H  23.62300 52.45300 23.65400
H  25.43300 52.30900 31.93100
H  26.97600 49.66100 31.50000
H  28.72800 51.80700 31.93800
H  28.31700 50.69500 33.25300
H  27.41600 52.18100 33.01400
H  24.89600 49.44300 32.40800
H  23.59900 50.30200 31.59200
H  23.26000 50.33800 34.13400
H  23.31900 51.81900 33.22600
H  31.04300 49.42600 29.85000
H  32.36000 49.45000 28.55800
H  31.49400 47.96400 29.00800
H  33.39900 47.52800 25.38300
H  32.57600 47.43500 26.96700
H  33.59600 48.78500 26.44200
H  27.32000 49.41900 22.45000
H  25.72700 52.03100 22.05700
H  28.58000 51.00600 20.87200
H  29.07500 51.87100 22.44200
H  27.79900 52.46000 21.63300
H  23.83700 49.93400 22.71500
H  25.13400 49.09900 21.92100
H  24.50000 51.51400 20.32100
H  23.05200 50.68900 20.86300
H  24.26300 49.84400 19.86500
H  22.13200 54.14500 24.45400
H  21.45600 54.97200 25.96500
H  20.95700 53.29400 25.42700
H  22.40300 52.32600 30.64400
H  21.94200 54.97600 33.51500
H  23.56400 55.70100 33.24800
H  23.31400 54.44600 34.40900

