158

Mg 47.35900 25.34000 28.67900
C  48.36700 27.58200 31.18500
C  46.45200 23.10000 31.04300
C  46.41600 23.29900 26.17000
C  48.58400 27.67100 26.27000
N  47.31700 25.47900 30.88600
C  47.79300 26.46800 31.73800
C  47.59000 26.09900 33.21100
C  47.16300 24.55600 33.09200
C  46.94100 24.32600 31.55000
C  48.18800 23.52300 33.80300
C  46.50100 27.03600 33.89100
C  47.02300 27.72700 35.20600
H  45.94200 27.86800 36.38900
N  46.58300 23.39600 28.62300
C  46.29000 22.64600 29.68200
C  45.81400 21.38600 29.25900
C  45.69700 21.42700 27.83700
C  46.25200 22.75400 27.47800
C  45.34000 20.30400 30.21100
C  45.19900 20.32600 26.85600
O  45.15500 20.49800 25.63800
C  44.62100 19.02200 27.30400
N  47.58000 25.43900 26.50800
C  47.02500 24.49400 25.67200
C  47.19900 24.84700 24.17500
C  47.68600 26.32000 24.27600
C  47.94300 26.50200 25.77700
C  48.06500 23.80300 23.46000
C  46.77500 27.37200 23.73800
C  45.34800 27.38300 24.37000
N  48.33700 27.18500 28.63000
C  48.73600 28.01000 27.60500
C  49.46900 29.14800 28.21800
C  49.21200 29.01200 29.60000
C  48.52400 27.81700 29.80400
C  50.18200 30.21900 27.52600
C  49.52900 29.61000 30.89700
O  50.19900 30.60600 31.11100
C  49.00200 28.66100 31.94600
C  50.18200 28.24800 32.84400
O  50.87000 27.23200 32.79900
O  50.40700 29.22100 33.80000
C  51.54200 28.91800 34.73100
H  46.18400 22.39000 31.82800
H  46.07600 22.55000 25.45200
H  48.93800 28.44700 25.58800
H  48.54200 26.12800 33.74100
H  46.13600 24.41200 33.42700
H  48.84800 23.05800 33.07200
H  47.62900 22.71500 34.27500
H  48.67300 24.09200 34.59700
H  45.55300 26.51700 34.03200
H  46.13400 27.75400 33.15800
H  47.49700 28.67100 34.93900
H  47.80000 27.09900 35.64300
H  44.41100 19.80900 29.92700
H  45.12700 20.72800 31.19300
H  46.08000 19.50900 30.29700
H  45.17500 18.59800 28.14200
H  44.68200 18.36700 26.43500
H  43.55200 19.04400 27.51800
H  46.18400 24.83500 23.77700
H  48.64300 26.46100 23.77300
H  48.37500 22.99100 24.11700
H  48.98300 24.28100 23.11900
H  47.54900 23.28100 22.65400
H  46.72900 27.31200 22.65100
H  47.19800 28.32900 24.04500
H  45.34900 28.23900 25.04600
H  45.15800 26.40500 24.81200
H  44.57000 27.52900 23.62200
H  51.23800 29.96400 27.42600
H  49.98300 31.17200 28.01400
H  49.77400 30.39400 26.53000
H  48.32700 29.19600 32.61500
H  51.20100 28.09900 35.36400
H  51.81900 29.76300 35.36000
H  52.49000 28.73200 34.22700
Mg 0.48900 43.26400 25.98600
C  2.86600 43.02300 28.44200
C  -1.91000 42.09800 28.05500
C  -1.56400 43.04700 23.24700
C  3.21100 43.99100 23.62400
N  0.57200 42.57500 27.99100
C  1.53900 42.76700 28.86100
C  1.01000 42.69900 30.30200
C  -0.42100 42.11900 30.10300
C  -0.63400 42.19600 28.61100
C  -0.50400 40.58300 30.50700
C  1.14200 44.01400 31.14100
C  1.23800 43.96600 32.66200
H  0.86300 42.60000 33.29100
N  -1.53300 42.73400 25.73500
C  -2.33600 42.37900 26.71900
C  -3.71900 42.17900 26.15100
C  -3.61900 42.43800 24.70600
C  -2.16800 42.72700 24.48500
C  -4.98000 41.86600 27.01500
C  -4.62300 42.35500 23.72600
O  -4.44300 42.76700 22.61400
C  -5.96800 41.87700 24.12300
N  0.81300 43.37700 23.81300
C  -0.25500 43.38600 22.93600
C  0.16200 43.84800 21.51100
C  1.70800 44.08300 21.62300
C  1.93300 43.83200 23.11600
C  -0.15400 42.95400 20.26400
C  2.25900 45.46800 21.12000
C  2.33100 46.67100 22.00600
N  2.60300 43.51800 25.97300
C  3.53300 43.81600 24.98700
C  4.85200 43.81300 25.61000
C  4.64500 43.52100 26.93000
C  3.26400 43.31300 27.11900
C  6.12300 43.92500 24.85900
C  5.30500 43.23500 28.16500
O  6.49600 43.07800 28.46800
C  4.15500 43.05000 29.24900
C  4.43100 41.87200 30.07400
O  4.17900 40.70900 29.79500
O  4.86900 42.30600 31.30000
C  5.10800 41.35300 32.36500
H  -2.61900 41.66300 28.76200
H  -2.21000 43.13900 22.37100
H  3.98800 44.21500 22.89100
H  1.55900 41.94300 30.86400
H  -1.22100 42.63100 30.63600
H  0.40400 40.33100 31.05400
H  -0.48600 39.87100 29.68200
H  -1.43300 40.38500 31.04200
H  0.29400 44.62900 30.83900
H  2.01300 44.53600 30.74600
H  0.78400 44.78700 33.21600
H  2.29400 44.03200 32.92600
H  -4.86700 41.80600 28.09700
H  -5.25000 40.86100 26.68800
H  -5.78900 42.58400 26.88000
H  -5.83000 40.90200 24.58900
H  -6.59800 41.77500 23.23900
H  -6.46000 42.55500 24.82000
H  -0.29000 44.82900 21.36300
H  2.31700 43.34300 21.10400
H  -0.59900 41.98500 20.49300
H  0.70200 42.89300 19.59300
H  -0.88800 43.55100 19.72300
H  1.72700 45.78800 20.22300
H  3.29500 45.32400 20.81200
H  3.29000 46.73900 22.52000
H  1.61000 46.66400 22.82300
H  2.25500 47.50400 21.30800
H  6.31500 44.87300 24.35600
H  6.22500 43.24400 24.01500
H  6.86100 43.66900 25.62000
H  4.05400 43.98100 29.80600
H  5.34100 41.81300 33.32500
H  5.82500 40.57900 32.09200
H  4.20600 40.77900 32.57900

