158

Mg 24.21400 -7.39000 46.42600
C  26.27600 -4.94100 45.23200
C  21.76300 -6.38300 43.96000
C  22.35900 -10.03900 47.16300
C  26.76400 -8.57600 48.40600
N  24.04700 -5.86500 44.71700
C  25.11200 -4.95700 44.43400
C  24.77700 -4.07800 43.27600
C  23.19700 -4.45200 43.03500
C  22.93600 -5.59800 43.97400
C  22.27300 -3.27900 43.28700
C  25.61700 -4.29400 41.97100
C  26.31900 -3.03100 41.31600
H  26.11100 -3.00400 39.78500
N  22.35600 -8.03500 45.77500
C  21.45500 -7.47300 44.84400
C  20.24100 -8.16600 44.87100
C  20.39700 -9.18300 45.88200
C  21.67200 -9.09800 46.36600
C  19.04400 -8.04200 44.03100
C  19.29800 -10.20400 46.21000
O  18.26500 -10.24100 45.50700
C  19.34700 -11.16000 47.32300
N  24.58900 -9.18100 47.47700
C  23.59700 -10.08200 47.78900
C  24.16000 -11.24800 48.58400
C  25.56600 -10.69000 49.10400
C  25.65600 -9.35300 48.32600
C  23.28500 -11.79300 49.74300
C  26.68400 -11.73600 48.78300
C  26.65600 -13.02600 49.65400
N  26.04600 -6.94000 46.84700
C  26.97000 -7.36800 47.75500
C  28.14800 -6.60400 47.79900
C  27.96500 -5.66200 46.71900
C  26.61300 -5.92800 46.27000
C  29.41400 -6.86700 48.58800
C  28.55800 -4.53900 46.02800
O  29.60100 -3.95700 46.06800
C  27.44500 -4.09500 45.02400
C  27.21300 -2.67300 45.32000
O  26.83900 -2.16200 46.40400
O  27.77300 -1.97600 44.24500
C  27.69000 -0.47600 44.39500
H  20.92100 -6.21200 43.28600
H  21.75700 -10.87200 47.53200
H  27.41700 -8.89600 49.22100
H  24.91600 -3.01900 43.49200
H  23.01500 -4.77000 42.00800
H  21.69900 -3.58800 44.16100
H  21.61700 -3.12200 42.43100
H  22.77700 -2.33200 43.48000
H  24.90400 -4.71700 41.26300
H  26.41700 -4.99800 42.19800
H  27.40100 -3.05500 41.44100
H  26.01300 -2.08100 41.75500
H  18.14700 -7.91900 44.63800
H  18.96200 -8.89500 43.35700
H  19.14500 -7.14800 43.41600
H  19.42300 -10.71800 48.31700
H  20.12200 -11.89800 47.11600
H  18.39300 -11.68400 47.37800
H  24.25100 -12.00300 47.80300
H  25.64800 -10.54300 50.18100
H  23.18100 -12.87200 49.62900
H  22.26300 -11.41400 49.76000
H  23.72000 -11.49600 50.69700
H  27.72000 -11.48300 49.00700
H  26.57700 -11.93700 47.71700
H  27.61100 -13.54400 49.73700
H  25.96500 -13.69900 49.14700
H  26.23400 -12.75300 50.62100
H  29.96700 -7.62700 48.03600
H  29.11600 -7.20700 49.58000
H  29.99100 -5.94200 48.57200
H  27.76600 -4.20700 43.98800
H  26.61900 -0.28800 44.33000
H  28.21300 -0.04600 43.54000
H  28.17700 -0.14100 45.31100
Mg 26.06100 50.59900 25.79800
C  23.90300 51.45600 28.46100
C  28.21200 49.41200 28.23300
C  28.04400 49.59700 23.32100
C  23.74100 51.71500 23.52500
N  26.01400 50.41600 28.23200
C  25.02200 50.80900 29.03300
C  25.40300 50.62700 30.48000
C  26.89500 50.03300 30.37700
C  27.09000 49.94100 28.85300
C  28.05500 50.76900 31.13100
C  24.36700 49.71600 31.27000
C  24.88800 49.17400 32.56500
H  24.11300 49.42100 33.79600
N  27.87500 49.78200 25.77300
C  28.57500 49.23500 26.88300
C  29.89700 48.78900 26.38000
C  29.89300 48.92600 24.98400
C  28.52900 49.48000 24.62600
C  30.96000 48.13000 27.31600
C  30.92800 48.61900 23.94100
O  30.92900 48.95100 22.76000
C  32.16200 47.99500 24.45800
N  25.90200 50.63100 23.71400
C  26.84200 50.13300 22.85800
C  26.36600 50.09000 21.36500
C  24.91400 50.68800 21.46500
C  24.83400 51.02300 22.98000
C  27.35800 50.68800 20.31200
C  23.87700 49.75300 20.79900
C  23.57400 48.46400 21.42100
N  24.19800 51.50500 25.88800
C  23.33400 51.87500 24.86500
C  22.09200 52.32700 25.45900
C  22.24100 52.24700 26.89100
C  23.55000 51.66700 27.10400
C  21.01100 52.80300 24.47700
C  21.68400 52.52600 28.18800
O  20.60900 52.93000 28.60900
C  22.73500 52.13100 29.18500
C  23.16400 53.32900 30.01000
O  24.16200 53.96200 29.73600
O  22.39200 53.40400 31.13400
C  22.72600 54.47100 32.01400
H  29.00900 49.14500 28.93000
H  28.67300 49.20200 22.52000
H  22.98200 52.08200 22.83100
H  25.30500 51.61200 30.93500
H  26.96200 49.03200 30.80500
H  28.67600 50.17200 31.79800
H  27.58100 51.56300 31.70800
H  28.79000 51.24800 30.48400
H  24.20100 48.81000 30.68700
H  23.35500 50.11300 31.33700
H  25.84300 49.64600 32.79700
H  24.95900 48.08800 32.50600
H  31.10700 47.06900 27.11600
H  30.72800 48.23800 28.37600
H  31.92600 48.63500 27.29700
H  32.78200 47.64100 23.63400
H  31.90800 47.10600 25.03500
H  32.68300 48.78400 25.00000
H  26.31700 49.04600 21.05700
H  25.05100 51.63000 20.93300
H  28.17100 51.18600 20.84000
H  26.91900 51.45400 19.67300
H  27.83000 49.93400 19.68200
H  24.33200 49.42600 19.86400
H  22.97900 50.30700 20.53100
H  22.48700 48.42100 21.48900
H  24.11300 48.26600 22.34700
H  23.89500 47.67000 20.74600
H  20.12100 52.97200 25.08300
H  20.76900 51.98800 23.79500
H  21.27600 53.73600 23.97900
H  22.31400 51.32500 29.78500
H  23.69700 54.24000 32.45400
H  21.95300 54.51900 32.78100
H  23.03600 55.43600 31.61400

