158

Mg 53.34800 22.79600 43.84900
C  50.48700 24.52300 42.70900
C  51.79700 19.84200 43.42000
C  56.37700 21.32600 43.93100
C  54.85700 25.93300 44.36200
N  51.49400 22.19900 42.67600
C  50.45000 23.11500 42.51700
C  49.19200 22.24800 42.23700
C  49.51000 20.86500 42.84900
C  50.99700 20.90900 42.98800
C  48.67800 20.64000 44.20700
C  48.96900 22.12600 40.70800
C  47.80600 21.22200 40.24000
H  48.01000 20.17300 39.18900
N  53.99200 20.80800 43.67700
C  53.20700 19.75500 43.60400
C  53.99800 18.56200 43.54200
C  55.36200 18.89900 43.70500
C  55.27900 20.39800 43.76800
C  53.46200 17.12800 43.37300
C  56.55600 17.95900 43.62600
O  56.35800 16.73600 43.53700
C  58.00600 18.38700 43.66000
N  55.36000 23.53500 43.88800
C  56.42900 22.70700 44.07800
C  57.71800 23.52300 44.33400
C  57.24000 25.02400 44.46100
C  55.72500 24.84400 44.21000
C  58.68200 23.01200 45.43000
C  57.96400 25.95500 43.36900
C  57.21100 26.43200 42.12400
N  52.80100 24.78400 43.75500
C  53.46700 25.87900 44.05200
C  52.56700 26.98800 44.06500
C  51.41600 26.50300 43.50500
C  51.58400 25.14300 43.27000
C  52.70900 28.41500 44.62300
C  50.08100 26.85700 43.03800
O  49.40500 27.86100 43.16800
C  49.45400 25.52800 42.39700
C  49.40700 25.78800 40.95000
O  50.40200 26.02600 40.20000
O  48.14600 25.53100 40.46900
C  47.95100 25.78800 38.99900
H  51.20300 18.92700 43.39200
H  57.35400 20.85300 44.05100
H  55.28500 26.91100 44.58900
H  48.28600 22.68600 42.65400
H  49.27100 20.07300 42.13900
H  48.06100 19.76200 44.01600
H  48.09800 21.51300 44.50700
H  49.35800 20.37400 45.01600
H  49.87100 21.60700 40.38200
H  48.85200 23.11100 40.25800
H  47.07000 21.91000 39.82400
H  47.43900 20.68000 41.11200
H  53.89600 16.54700 42.56000
H  52.38700 17.25400 43.25000
H  53.63200 16.57300 44.29600
H  58.59500 17.53500 43.32000
H  58.13100 18.59100 44.72300
H  58.27300 19.29700 43.12300
H  58.30200 23.35600 43.42900
H  57.40800 25.39900 45.47100
H  58.12400 22.52900 46.23200
H  59.41000 23.75600 45.75400
H  59.31600 22.28300 44.92500
H  58.89400 25.50300 43.02400
H  58.43300 26.73600 43.96800
H  56.41600 25.74400 41.83500
H  57.89100 26.63200 41.29600
H  56.76700 27.38700 42.40600
H  52.21500 29.20600 44.06000
H  53.78400 28.59600 44.63700
H  52.29600 28.53600 45.62400
H  48.43300 25.35200 42.73500
H  48.54400 26.61500 38.60800
H  46.91200 25.96200 38.71900
H  48.19100 24.85400 38.49200
Mg 35.52800 49.58700 26.03400
C  35.39800 47.78300 29.08000
C  35.00500 52.50000 27.97200
C  35.65700 51.53300 23.25200
C  36.15700 46.82300 24.33700
N  35.11200 50.05800 28.28000
C  35.14400 49.10500 29.31800
C  35.11600 49.83200 30.67700
C  34.74600 51.32700 30.31200
C  35.00000 51.32200 28.78000
C  33.34100 51.79500 30.80900
C  36.50300 49.68700 31.45200
C  36.55500 49.09200 32.88400
H  35.35100 49.25800 33.83900
N  35.24500 51.76200 25.67800
C  35.13300 52.72400 26.56300
C  35.17600 53.93500 25.91400
C  35.25600 53.69800 24.53900
C  35.29800 52.27700 24.37400
C  35.19500 55.31000 26.61100
C  35.32700 54.82100 23.44100
O  35.60300 54.47900 22.28600
C  35.05200 56.34400 23.60200
N  35.79100 49.27800 24.10700
C  35.92200 50.15300 23.10000
C  36.24000 49.49700 21.79800
C  36.64300 48.06700 22.28500
C  36.17300 48.05900 23.69500
C  35.07900 49.49800 20.70800
C  38.17900 47.67400 22.09600
C  38.51500 46.22900 21.59900
N  35.53300 47.55600 26.44000
C  35.88500 46.54700 25.66600
C  35.92100 45.31200 26.41300
C  35.71100 45.72200 27.80000
C  35.49800 47.10500 27.75300
C  36.28900 43.95700 25.87400
C  35.68700 45.30600 29.18500
O  35.96700 44.21900 29.73800
C  35.45200 46.59900 30.05100
C  34.21300 46.35500 31.00600
O  33.06900 46.59000 30.68900
O  34.60700 45.75900 32.20400
C  33.65800 45.47900 33.37600
H  34.90400 53.36900 28.62600
H  35.75900 52.07800 22.31000
H  36.52800 45.94500 23.80500
H  34.33400 49.40300 31.30500
H  35.38400 52.02900 30.85000
H  32.80400 50.96600 31.27100
H  32.82500 52.00300 29.87100
H  33.42000 52.68000 31.43900
H  37.09100 50.60500 31.45300
H  37.17600 49.16400 30.77200
H  37.33200 49.57500 33.47700
H  36.74100 48.02400 32.77000
H  36.05700 55.90400 26.31000
H  35.33300 55.14500 27.68000
H  34.23900 55.83400 26.62500
H  34.54400 56.73700 22.72200
H  35.99300 56.81800 23.88300
H  34.29400 56.42700 24.38100
H  37.02000 50.16900 21.44100
H  35.97500 47.39400 21.74800
H  35.42000 49.82600 19.72600
H  34.19000 50.04900 21.01600
H  34.86400 48.43300 20.62100
H  38.76900 47.92400 22.97800
H  38.55200 48.33000 21.30900
H  37.64600 45.58300 21.72300
H  39.38300 45.76300 22.06500
H  38.81300 46.13000 20.55600
H  36.35700 43.96300 24.78600
H  35.43200 43.35100 26.16800
H  37.21400 43.57800 26.30900
H  36.32200 46.68400 30.70300
H  33.43800 44.41400 33.30800
H  32.74600 46.06600 33.48200
H  34.25400 45.68200 34.26700

