158

Mg -1.62300 17.76900 25.99600
C  -1.74200 15.54000 28.87200
C  -2.55800 20.21900 27.97100
C  -1.65400 19.64100 23.29200
C  -1.46900 14.78000 23.96500
N  -2.25000 17.75500 28.13300
C  -2.05300 16.84600 29.17500
C  -2.58400 17.39700 30.52400
C  -2.93100 18.85400 30.07800
C  -2.58000 18.97000 28.61200
C  -4.25600 19.44300 30.59400
C  -1.57000 17.07600 31.66400
C  -1.36200 18.13400 32.65800
H  -0.79300 17.63200 33.98600
N  -1.77800 19.68800 25.75900
C  -2.25100 20.58700 26.68300
C  -2.21500 21.97000 26.09900
C  -1.70500 21.79800 24.79500
C  -1.62800 20.33500 24.58000
C  -2.70800 23.08000 26.82200
C  -1.34100 22.83300 23.71800
O  -1.11500 22.45800 22.57300
C  -1.15300 24.25000 24.17200
N  -1.82900 17.32800 23.96100
C  -1.72400 18.30900 22.99000
C  -2.05600 17.80800 21.57700
C  -1.58600 16.33400 21.80800
C  -1.61200 16.12100 23.32700
C  -3.53800 18.04400 21.18200
C  -0.19900 15.94600 21.12500
C  1.03700 16.32000 21.91800
N  -1.34800 15.58700 26.32600
C  -1.42000 14.55200 25.39700
C  -1.45400 13.24600 26.06900
C  -1.50300 13.59200 27.44900
C  -1.50700 15.05800 27.54200
C  -1.57000 11.91100 25.50900
C  -1.60100 13.00900 28.79200
O  -1.73600 11.83900 29.13400
C  -1.68100 14.25300 29.81800
C  -0.51300 14.13400 30.64900
O  0.63200 14.57100 30.40200
O  -0.94000 13.61800 31.84100
C  0.02000 13.36200 32.92300
H  -2.73800 21.00000 28.71300
H  -1.58700 20.22600 22.37300
H  -1.58200 13.85800 23.39000
H  -3.54200 16.89000 30.63700
H  -2.15700 19.49200 30.50400
H  -4.81600 18.63500 31.06500
H  -4.78800 20.00100 29.82300
H  -4.01500 20.15500 31.38400
H  -0.61000 16.96200 31.16100
H  -1.75700 16.12600 32.16500
H  -2.23400 18.76900 32.81700
H  -0.65300 18.87500 32.29100
H  -3.48700 22.94500 27.57100
H  -3.06900 23.85400 26.14500
H  -1.83400 23.43900 27.36600
H  -0.30500 24.21900 24.85600
H  -2.07800 24.63500 24.60200
H  -0.95000 24.73700 23.21800
H  -1.36500 18.23800 20.85100
H  -2.40200 15.69400 21.47300
H  -4.12000 17.97900 22.10200
H  -3.91300 17.28800 20.49200
H  -3.80100 19.03100 20.79900
H  -0.08300 16.64600 20.29700
H  -0.19000 14.95300 20.67700
H  0.80500 17.01400 22.72600
H  1.79900 16.90300 21.40000
H  1.44000 15.37800 22.29000
H  -1.03800 11.89500 24.55800
H  -2.59100 11.55200 25.38100
H  -1.02700 11.22800 26.16300
H  -2.50600 14.15300 30.52300
H  1.05100 13.47700 32.58800
H  -0.16100 12.33600 33.24600
H  -0.09600 13.96700 33.82200
Mg 35.20100 0.49200 29.46700
C  32.97500 1.37700 32.02200
C  37.74600 0.38600 31.72700
C  37.36200 -0.54700 27.04000
C  32.70200 0.76500 27.16200
N  35.26200 0.88500 31.53600
C  34.27300 1.18200 32.43600
C  34.74200 1.18600 33.81000
C  36.25500 1.04900 33.68800
C  36.44300 0.70000 32.17800
C  37.08800 2.31000 34.03200
C  34.12900 0.10200 34.72000
C  34.05800 0.31600 36.24900
H  34.93400 1.49400 36.80900
N  37.29700 -0.14100 29.45800
C  38.16500 0.02000 30.44600
C  39.49300 -0.38400 30.00500
C  39.35200 -0.66600 28.62100
C  37.93800 -0.49000 28.32900
C  40.68800 -0.27100 30.95000
C  40.41100 -1.14700 27.62900
O  40.13600 -1.21800 26.40400
C  41.71700 -1.47800 28.09700
N  34.97400 0.02400 27.36900
C  36.05800 -0.36900 26.59400
C  35.59400 -0.61200 25.15000
C  34.04700 -0.25800 25.22600
C  33.89800 0.28000 26.62200
C  36.45200 0.10300 24.09500
C  33.13700 -1.46200 24.84800
C  32.81600 -2.49600 25.94400
N  33.34900 1.18100 29.46100
C  32.40400 1.27300 28.48400
C  31.14300 1.69000 29.03300
C  31.26900 1.72600 30.39200
C  32.63300 1.39300 30.63800
C  29.84800 1.93000 28.25900
C  30.65700 1.93100 31.63600
O  29.53200 2.21100 32.02000
C  31.72600 1.71400 32.79800
C  31.79400 2.88500 33.62400
O  31.91400 4.00800 33.28000
O  31.55800 2.43300 34.94100
C  31.38500 3.51800 35.92700
H  38.55700 0.31000 32.45300
H  37.99000 -0.94700 26.24200
H  31.92200 0.88600 26.40700
H  34.51000 2.17700 34.20100
H  36.53200 0.25200 34.37800
H  36.71800 2.96700 34.81800
H  36.92500 2.81400 33.07900
H  38.13300 2.04800 34.19500
H  34.53200 -0.86900 34.43300
H  33.10300 -0.02000 34.37400
H  34.32100 -0.64200 36.69700
H  33.02500 0.55700 36.50000
H  41.60300 0.05400 30.45500
H  40.82100 -1.17700 31.54100
H  40.52600 0.47200 31.73000
H  41.61600 -2.19200 28.91400
H  42.34700 -0.59500 28.21400
H  42.24900 -1.98400 27.29100
H  35.81000 -1.67500 25.04800
H  33.80800 0.44600 24.42900
H  37.32800 -0.51900 23.91200
H  36.86600 1.06600 24.39400
H  35.80600 0.17500 23.22000
H  33.62100 -1.91300 23.98200
H  32.18700 -1.17100 24.39900
H  31.74200 -2.47200 26.12600
H  33.46300 -2.30600 26.80100
H  33.17200 -3.47500 25.62300
H  29.95500 1.61400 27.22100
H  29.68400 3.00700 28.24700
H  29.04800 1.37100 28.74300
H  31.36800 0.79700 33.26600
H  30.35900 3.74500 36.21900
H  32.02500 4.39800 35.85400
H  31.85500 3.10300 36.81900

