158

Mg 35.90600 48.94800 25.31700
C  36.14400 47.23300 28.39600
C  34.42700 51.50200 26.91300
C  34.71200 50.03500 22.38400
C  37.01000 46.07000 23.59500
N  35.51400 49.38100 27.42100
C  35.69300 48.55900 28.52800
C  35.35900 49.25400 29.85900
C  34.75900 50.64100 29.33200
C  34.90900 50.50500 27.76200
C  33.29300 50.91100 29.69100
C  36.65700 49.40700 30.71000
C  36.51000 49.50200 32.26300
H  34.99800 49.48200 32.77700
N  34.98400 50.69300 24.71600
C  34.44200 51.65500 25.53100
C  33.80100 52.72900 24.75700
C  33.80800 52.20700 23.37500
C  34.51500 50.94800 23.42500
C  33.08900 53.86600 25.34800
C  33.13600 52.75200 22.14800
O  32.99000 52.16800 21.10500
C  32.50200 54.11100 22.23100
N  36.00100 48.20400 23.27400
C  35.36500 48.85300 22.31500
C  35.42100 48.06700 20.97900
C  36.24400 46.78800 21.38500
C  36.55500 47.08200 22.81300
C  34.10400 47.91800 20.17100
C  37.43300 46.59800 20.40500
C  38.77800 47.15800 20.81400
N  36.49000 47.01700 25.85500
C  36.89600 45.98000 25.04100
C  37.09200 44.85400 25.85300
C  36.85700 45.23600 27.19700
C  36.45900 46.59700 27.10300
C  37.51900 43.53600 25.39800
C  36.85900 44.83300 28.57500
O  37.07800 43.79600 29.16300
C  36.54400 46.15200 29.41900
C  35.48200 45.76900 30.32900
O  34.30200 45.76000 30.15800
O  35.99100 45.34100 31.57600
C  34.98500 45.21200 32.64000
H  34.04200 52.32500 27.51900
H  34.37700 50.42800 21.42100
H  37.19400 45.19600 22.96700
H  34.67100 48.57800 30.36500
H  35.38000 51.51300 29.53500
H  32.59200 51.17300 28.89800
H  33.24800 51.73700 30.40000
H  32.92700 50.02100 30.20300
H  37.12800 50.34100 30.40600
H  37.31700 48.56700 30.49000
H  36.91200 50.48700 32.49900
H  37.05900 48.64100 32.64500
H  33.73000 54.73800 25.21400
H  32.87700 53.75200 26.41100
H  32.10600 54.04100 24.91000
H  33.21900 54.79800 22.68000
H  31.54300 54.08100 22.74900
H  32.29800 54.44800 21.21500
H  35.99500 48.65000 20.25800
H  35.59000 45.91600 21.36700
H  33.92400 46.92300 19.76500
H  34.16300 48.57700 19.30500
H  33.23800 48.19100 20.77400
H  37.12300 46.97700 19.43100
H  37.56800 45.53200 20.22500
H  39.41900 46.39000 21.24600
H  38.61800 47.96900 21.52500
H  39.27000 47.69600 20.00300
H  38.54700 43.64500 25.05100
H  36.99000 43.03000 24.59200
H  37.62600 42.89400 26.27200
H  37.44200 46.36800 29.99900
H  35.69100 45.20000 33.47000
H  34.43400 44.27400 32.70800
H  34.25700 46.01900 32.56600
Mg 9.57900 48.17500 25.40900
C  7.48800 48.20200 28.28300
C  12.17600 49.49400 27.25100
C  11.50700 47.90700 22.70200
C  6.56900 47.72000 23.44200
N  9.71200 48.85300 27.49600
C  8.83500 48.73600 28.55200
C  9.45700 49.16700 29.89900
C  10.71200 49.80400 29.42200
C  10.95600 49.32700 27.96200
C  10.80100 51.32200 29.51600
C  9.55000 48.09000 31.01300
C  9.12500 48.51900 32.38300
H  9.01200 47.44700 33.41800
N  11.57900 48.68400 25.02700
C  12.46700 49.11900 25.96900
C  13.80400 49.00200 25.35300
C  13.68200 48.49000 24.07100
C  12.20100 48.35500 23.86900
C  15.04400 49.44000 26.07100
C  14.81600 48.17900 23.06300
O  14.63600 47.85700 21.93100
C  16.17800 48.24300 23.53500
N  9.06600 47.97300 23.34200
C  10.10800 47.64800 22.47000
C  9.56500 47.13300 21.09500
C  8.01000 47.46400 21.30400
C  7.81600 47.79100 22.75900
C  10.18300 47.73100 19.81400
C  6.92300 46.59500 20.58900
C  5.94700 47.37300 19.73500
N  7.49800 47.85700 25.74000
C  6.39800 47.74300 24.86000
C  5.19300 47.56400 25.60700
C  5.64700 47.60300 26.92100
C  6.98700 47.88700 26.99800
C  3.78100 47.51500 24.96600
C  5.18400 47.45700 28.26000
O  4.07000 47.03600 28.62200
C  6.37300 47.91700 29.21000
C  6.46800 46.72900 30.11200
O  6.90200 45.62100 29.84700
O  5.87700 47.01400 31.31700
C  5.85900 46.07000 32.39300
H  12.97800 49.85100 27.90000
H  12.09300 47.65500 21.81600
H  5.61700 47.56500 22.93000
H  8.82100 49.90700 30.38400
H  11.52700 49.45000 30.05500
H  10.13700 51.77000 30.25500
H  10.60700 51.73000 28.52400
H  11.77100 51.76400 29.74500
H  10.59500 47.85100 31.21300
H  9.09900 47.20700 30.56100
H  8.08200 48.83600 32.38600
H  9.77500 49.36800 32.59200
H  14.74200 50.01200 26.94800
H  15.55300 50.18600 25.46100
H  15.77500 48.70000 26.39600
H  16.89100 47.65800 22.95300
H  16.31200 47.74700 24.49600
H  16.43500 49.30000 23.61300
H  9.57200 46.04800 20.99800
H  7.86400 48.44800 20.85700
H  10.84500 48.52900 20.14900
H  9.49100 48.08400 19.04900
H  10.81600 46.97400 19.35100
H  6.52500 45.87900 21.30800
H  7.29300 45.98000 19.76800
H  4.94500 46.96900 19.87700
H  6.13500 47.25100 18.66900
H  5.91900 48.43900 19.96100
H  2.95800 47.63200 25.67100
H  3.65900 46.68400 24.27100
H  3.72900 48.51800 24.54300
H  6.24100 48.86300 29.73500
H  4.81200 45.86600 32.61900
H  6.36400 46.54900 33.23100
H  6.42300 45.18100 32.10900

