158

Mg 45.53300 4.46200 47.90200
C  43.01900 7.02100 47.23600
C  42.97400 2.20900 47.56200
C  47.91600 2.16200 47.68500
C  47.93200 7.03500 47.66700
N  43.21200 4.62200 47.50700
C  42.48400 5.76600 47.25600
C  41.02300 5.38900 46.91900
C  40.94400 3.82400 47.22600
C  42.48200 3.54400 47.51300
C  40.15100 3.56500 48.45600
C  40.56600 5.65900 45.48200
C  39.18600 6.30700 45.46500
H  38.51200 6.36100 43.97000
N  45.43700 2.44000 47.76300
C  44.29700 1.65300 47.58400
C  44.73500 0.28400 47.61800
C  46.09300 0.19500 47.68800
C  46.58200 1.61500 47.71000
C  43.74100 -0.83600 47.60200
C  47.00200 -1.02400 47.52200
O  46.45700 -2.11200 47.41400
C  48.43000 -1.00200 47.39300
N  47.62200 4.58300 47.53100
C  48.40800 3.46900 47.67100
C  49.91400 3.85200 47.80200
C  49.89000 5.39300 47.73000
C  48.38400 5.70600 47.61500
C  50.61700 3.22600 49.07100
C  50.83000 6.19900 46.72800
C  51.72700 7.32400 47.26500
N  45.57300 6.57900 47.53100
C  46.59500 7.45200 47.65800
C  46.08700 8.78700 47.63200
C  44.71000 8.68000 47.46100
C  44.39100 7.34400 47.41500
C  46.80100 10.03200 47.61400
C  43.46400 9.45900 47.24900
O  43.26000 10.67700 47.16100
C  42.30600 8.34800 47.12300
C  41.37800 8.57200 48.25400
O  41.74700 8.37300 49.40900
O  40.08500 8.69100 47.85400
C  39.04100 8.51000 48.94700
H  42.14700 1.49800 47.62200
H  48.64300 1.35100 47.77000
H  48.78500 7.70700 47.78100
H  40.43800 6.03800 47.57000
H  40.47900 3.30500 46.38800
H  39.14600 3.24700 48.18000
H  40.05700 4.52700 48.96000
H  40.56800 2.77800 49.08500
H  40.43800 4.72300 44.93900
H  41.20700 6.39000 44.98900
H  39.31200 7.35400 45.73800
H  38.54000 5.90900 46.24700
H  43.67400 -1.17500 46.56800
H  42.76300 -0.44400 47.88200
H  44.03800 -1.65800 48.25400
H  48.72400 -0.26400 46.64700
H  48.75800 -1.75600 46.67800
H  48.99300 -1.14400 48.31600
H  50.42800 3.46200 46.92300
H  50.06100 5.73600 48.75000
H  49.93800 2.49400 49.50900
H  50.87700 3.95100 49.84100
H  51.45800 2.61900 48.73500
H  50.29800 6.63200 45.88000
H  51.43400 5.46500 46.19500
H  51.24100 7.76700 48.13500
H  51.96500 7.99400 46.43900
H  52.58700 6.69700 47.50100
H  47.82300 10.01500 47.23600
H  46.93700 10.38600 48.63600
H  46.29900 10.78800 47.01000
H  41.81900 8.43900 46.15200
H  39.07600 9.34600 49.64600
H  39.31300 7.57600 49.43800
H  38.06900 8.53400 48.45300
Mg 17.23000 51.43500 25.56100
C  18.81400 50.47200 28.57400
C  14.32100 52.25900 27.54600
C  15.39000 51.95500 22.75200
C  19.70100 50.07200 23.69000
N  16.68000 51.52600 27.79300
C  17.53900 51.04500 28.77400
C  16.98300 51.53400 30.16400
C  15.44500 51.72400 29.83400
C  15.44800 51.86100 28.29700
C  14.54100 50.53600 30.27500
C  17.60400 52.83200 30.71300
C  17.48700 52.99700 32.18900
H  16.39800 52.36400 33.04800
N  15.25600 52.22300 25.25000
C  14.25300 52.51900 26.12100
C  13.15100 53.11700 25.43900
C  13.46100 53.04300 24.08900
C  14.77300 52.42900 23.97700
C  11.93700 53.70400 26.22600
C  12.65700 53.51500 22.90300
O  13.22300 53.53000 21.79800
C  11.28000 54.07900 23.04800
N  17.56900 51.20000 23.51900
C  16.63200 51.32000 22.55400
C  17.18400 50.94100 21.19500
C  18.73400 50.71900 21.49500
C  18.66000 50.62200 23.01900
C  16.44000 49.78000 20.51400
C  19.77700 51.79200 20.85100
C  21.07000 51.21800 20.29400
N  18.90200 50.44900 25.95500
C  19.91700 50.00000 25.12200
C  21.00800 49.47500 25.91600
C  20.70100 49.73200 27.22900
C  19.32000 50.24400 27.24900
C  22.20700 48.64500 25.38800
C  21.14700 49.66400 28.57400
O  22.22300 49.35500 29.03100
C  19.91700 50.18200 29.51100
C  19.51300 49.09200 30.40600
O  19.39500 47.93400 30.06900
O  18.99900 49.65800 31.61100
C  18.38700 48.77700 32.59500
H  13.43600 52.51100 28.13500
H  15.03400 51.95100 21.72000
H  20.47300 49.54600 23.12500
H  16.99000 50.68700 30.85000
H  15.04800 52.68100 30.17100
H  14.56300 49.79700 29.47500
H  13.55800 50.84300 30.63100
H  15.05100 50.01500 31.08600
H  17.13300 53.66800 30.19500
H  18.66400 52.82700 30.45800
H  17.59900 54.05800 32.41200
H  18.41600 52.71800 32.68600
H  11.86300 53.29200 27.23200
H  11.00500 53.44000 25.72600
H  11.95900 54.79300 26.25700
H  10.67100 53.32600 23.54900
H  10.95100 54.05500 22.00900
H  11.22600 55.05100 23.53800
H  17.08200 51.81800 20.55700
H  18.95300 49.70100 21.17400
H  15.47100 49.69100 21.00500
H  17.00400 48.85000 20.57000
H  16.11200 49.87200 19.47800
H  19.90200 52.61900 21.55100
H  19.24200 52.24600 20.01700
H  21.01200 51.14000 19.20800
H  21.37100 50.27100 20.74200
H  21.87100 51.91400 20.54300
H  23.13800 48.96300 25.85800
H  22.29100 48.55200 24.30500
H  21.95800 47.64300 25.73700
H  20.28200 51.01800 30.10800
H  18.39800 49.33000 33.53500
H  19.10200 47.98200 32.80600
H  17.43600 48.34800 32.28100

