158

Mg 27.05100 50.61200 25.94100
C  25.54200 51.91900 28.85100
C  29.73300 49.82300 28.10000
C  28.51500 49.14800 23.38400
C  24.70200 52.09400 23.96500
N  27.46600 50.68200 28.26500
C  26.64100 51.18700 29.24600
C  27.13100 50.93000 30.66900
C  28.58600 50.53800 30.34100
C  28.61200 50.30500 28.82600
C  29.58800 51.49400 30.95400
C  26.30900 49.80100 31.48700
C  25.60700 50.13600 32.84300
H  26.43200 50.89700 33.96700
N  28.83800 49.65300 25.72000
C  29.81500 49.50900 26.72200
C  30.93000 48.83500 26.10800
C  30.58600 48.36200 24.81400
C  29.25500 49.03800 24.58000
C  32.25500 48.52700 26.95200
C  31.28900 47.42400 23.86900
O  30.80300 47.03100 22.78700
C  32.66400 46.93900 24.24100
N  26.80700 50.80800 23.87000
C  27.40600 49.91200 23.06200
C  26.70900 49.98500 21.64000
C  25.41900 50.80300 21.96500
C  25.68000 51.27300 23.34200
C  27.61900 50.76900 20.72200
C  24.17200 49.91000 21.96300
C  22.87700 50.58600 21.41000
N  25.54200 51.81700 26.21700
C  24.55000 52.24800 25.35100
C  23.47200 52.93600 26.06900
C  23.81700 52.83700 27.38200
C  25.06900 52.10200 27.48600
C  22.28900 53.53900 25.52600
C  23.41500 53.15100 28.72300
O  22.40700 53.72700 29.12900
C  24.53100 52.59500 29.72000
C  25.15800 53.66400 30.53500
O  26.14700 54.31000 30.23700
O  24.40000 53.79100 31.69800
C  24.82700 54.84400 32.67300
H  30.52700 49.67900 28.83600
H  28.82200 48.44000 22.61100
H  23.80900 52.31600 23.37800
H  27.05300 51.82700 31.28400
H  28.84400 49.53900 30.69100
H  30.33600 50.98300 31.56000
H  29.05900 52.23300 31.55500
H  29.88200 51.90700 29.98900
H  26.96300 48.95300 31.69000
H  25.52000 49.42500 30.83500
H  25.24600 49.15000 33.13600
H  24.79300 50.80500 32.56200
H  32.26000 49.22600 27.78800
H  33.11900 48.76600 26.33300
H  32.22500 47.50000 27.31600
H  32.69700 46.35000 25.15800
H  33.36500 47.75300 24.42900
H  32.95400 46.25900 23.44000
H  26.50600 48.99000 21.24400
H  25.35000 51.66800 21.30500
H  27.67700 50.38200 19.70500
H  28.65000 50.54100 20.99500
H  27.64100 51.85900 20.74900
H  24.08700 49.49100 22.96600
H  24.41300 48.99400 21.42300
H  22.65800 49.97000 20.53700
H  23.01900 51.62600 21.11600
H  22.00900 50.49700 22.06200
H  21.43600 52.86100 25.55000
H  22.32100 53.68800 24.44600
H  22.00900 54.41900 26.10400
H  24.03500 51.96100 30.45500
H  25.03100 55.72700 32.06800
H  25.78600 54.58400 33.12100
H  23.94600 55.04700 33.28300
Mg 7.51000 54.51600 41.15200
C  6.72100 51.05200 41.39500
C  10.39900 53.63400 39.57900
C  7.94700 57.69700 40.33300
C  4.04100 55.19200 41.90100
N  8.35900 52.53400 40.43800
C  7.87500 51.24200 40.62600
C  8.75300 50.19400 39.96100
C  10.09500 51.04600 39.81500
C  9.66000 52.46500 40.05200
C  11.34400 50.64500 40.74500
C  8.19700 49.67600 38.58400
C  7.42700 50.64300 37.62500
H  7.94400 50.94400 36.20000
N  9.05600 55.56200 40.20700
C  10.20500 55.03400 39.69700
C  11.06800 56.10700 39.19700
C  10.45600 57.37600 39.43700
C  9.09000 56.92100 39.94900
C  12.34300 55.86100 38.57500
C  10.97900 58.72800 39.07000
O  12.12200 58.75100 38.67700
C  10.18600 59.99600 39.21800
N  6.09800 56.16400 40.91300
C  6.60500 57.38800 40.69700
C  5.54200 58.42300 41.03900
C  4.25800 57.55600 41.25200
C  4.80300 56.15200 41.33100
C  5.93900 59.33100 42.31400
C  3.04200 57.66900 40.15700
C  2.95100 56.57700 39.12800
N  5.80200 53.46900 41.82200
C  4.48300 53.87500 42.07200
C  3.74600 52.69100 42.49700
C  4.59300 51.55800 42.35200
C  5.82300 52.08400 41.87100
C  2.35500 52.72700 43.01500
C  4.71000 50.18900 42.56100
O  3.91400 49.40800 43.06300
C  6.04400 49.81800 41.91600
C  5.72900 48.95900 40.76600
O  4.69000 49.01400 40.07800
O  6.57900 47.90800 40.76100
C  6.24600 46.78900 39.93200
H  11.14900 53.15000 38.95000
H  7.99200 58.78400 40.24400
H  3.02600 55.46600 42.19900
H  8.90300 49.37100 40.66000
H  10.49400 50.96800 38.80300
H  12.35300 50.53300 40.34800
H  11.06700 49.77700 41.34300
H  11.35600 51.39000 41.54100
H  7.61700 48.76900 38.75000
H  9.04300 49.33500 37.98600
H  7.30000 51.66300 37.98900
H  6.47900 50.14200 37.43100
H  12.39700 56.38500 37.62100
H  12.43100 54.81500 38.28200
H  13.16200 56.24000 39.18700
H  9.13800 59.89100 38.93400
H  10.54100 60.77500 38.54200
H  10.30900 60.32100 40.25100
H  5.19400 58.98200 40.17000
H  3.93800 57.74000 42.27700
H  6.84300 59.00000 42.82700
H  5.16200 59.43000 43.07200
H  6.01100 60.38700 42.05700
H  2.99600 58.59900 39.59000
H  2.11400 57.66800 40.73000
H  2.09400 55.92200 39.28700
H  3.89400 56.04700 38.99800
H  2.78200 57.07400 38.17300
H  2.05200 51.72700 43.32500
H  1.73300 52.96700 42.15200
H  2.16300 53.51900 43.73800
H  6.55100 49.22200 42.67500
H  5.87900 47.16800 38.97800
H  5.59500 46.08500 40.45100
H  7.16900 46.20900 39.92200

