158

Mg 1.53200 41.99100 25.01500
C  2.90300 42.09100 28.21400
C  -1.44500 41.34700 26.55500
C  0.29600 41.56400 21.99200
C  4.74300 42.62600 23.68200
N  0.83900 41.70000 27.18300
C  1.52800 41.85200 28.31400
C  0.66800 41.93100 29.51600
C  -0.67100 41.35300 28.92800
C  -0.43300 41.50100 27.44200
C  -1.21500 39.96900 29.34700
C  0.44200 43.29300 30.15500
C  1.20800 43.54700 31.44700
H  0.29700 43.62200 32.72400
N  -0.24300 41.57400 24.35900
C  -1.42100 41.37600 25.17100
C  -2.52600 41.07000 24.30500
C  -2.11800 41.29900 22.99000
C  -0.60200 41.47000 23.06000
C  -3.92900 40.77700 24.78000
C  -2.95600 41.30200 21.70600
O  -2.53200 41.47500 20.58700
C  -4.43000 41.21400 21.72700
N  2.44800 41.96500 23.11900
C  1.67600 41.83200 22.00700
C  2.36600 42.20100 20.76700
C  3.72300 42.82100 21.34500
C  3.66700 42.40500 22.78600
C  2.62900 40.99600 19.85200
C  3.80200 44.33200 21.15100
C  4.56600 44.79900 19.84900
N  3.51100 42.29700 25.76600
C  4.67000 42.58400 25.09000
C  5.77600 42.75500 26.06400
C  5.08100 42.52400 27.28100
C  3.72200 42.22100 27.05900
C  7.18700 43.04100 25.52400
C  5.35100 42.57700 28.71400
O  6.33600 42.76600 29.43000
C  3.94900 42.27100 29.31200
C  4.08500 40.96400 30.05500
O  4.64700 39.96700 29.56800
O  3.49900 41.01400 31.26700
C  3.14200 39.76900 31.94400
H  -2.45900 41.28800 26.95500
H  -0.18300 41.55200 21.01000
H  5.68100 42.83800 23.16400
H  1.08200 41.22200 30.23400
H  -1.48900 42.02700 29.18400
H  -1.07600 39.16100 28.62900
H  -2.27200 39.99400 29.61300
H  -0.75400 39.58700 30.25800
H  -0.58400 43.53700 30.43300
H  0.67000 44.10900 29.46900
H  1.87000 44.40000 31.30000
H  1.84800 42.70600 31.71400
H  -4.16500 39.85300 24.25300
H  -4.67000 41.54200 24.54700
H  -4.04900 40.74200 25.86200
H  -4.91400 41.41800 20.77200
H  -4.77600 41.99900 22.40000
H  -4.65300 40.24000 22.16200
H  1.84100 43.04800 20.32600
H  4.63200 42.37000 20.94900
H  1.87100 40.23100 20.02000
H  3.63700 40.60100 19.97800
H  2.46500 41.20100 18.79400
H  4.60800 44.58200 21.84100
H  2.88000 44.84300 21.42900
H  5.36900 45.45600 20.18300
H  3.88200 45.35700 19.21000
H  4.97000 43.97700 19.25900
H  7.64900 43.93200 25.94900
H  7.12200 43.16000 24.44200
H  7.84500 42.17700 25.62400
H  3.63100 43.02900 30.02700
H  3.57400 39.65100 32.93800
H  3.20900 38.87700 31.32100
H  2.09400 40.01300 32.11800
Mg -12.46600 16.49300 42.30200
C  -9.70000 14.51400 41.62800
C  -10.96300 18.98500 40.55100
C  -15.27400 18.00300 42.38000
C  -14.04400 13.49000 43.68700
N  -10.61300 16.64200 40.91800
C  -9.56700 15.69700 40.94600
C  -8.31200 16.31400 40.24500
C  -8.76000 17.80400 39.98900
C  -10.20900 17.82300 40.50700
C  -7.76200 18.78300 40.73200
C  -7.93400 15.66100 38.89300
C  -6.44200 15.48500 38.52700
H  -5.87000 16.34900 37.42700
N  -12.99600 18.29700 41.65200
C  -12.26300 19.23400 41.07000
C  -13.00800 20.44400 40.92300
C  -14.30400 20.22400 41.39000
C  -14.25200 18.80400 41.85600
C  -12.35900 21.69000 40.24900
C  -15.39700 21.19400 41.43800
O  -15.20700 22.32100 40.94300
C  -16.74000 20.93900 41.99100
N  -14.44800 15.80800 42.93800
C  -15.41200 16.72100 42.82100
C  -16.78300 16.04700 43.12000
C  -16.42400 14.53600 43.45100
C  -14.85500 14.61200 43.43300
C  -17.44200 16.90900 44.28900
C  -17.04600 13.58600 42.41800
C  -17.63400 12.16800 42.87000
N  -12.03100 14.46800 42.75300
C  -12.68500 13.39200 43.33400
C  -11.78800 12.29100 43.53000
C  -10.54800 12.72800 42.99400
C  -10.77200 14.03800 42.40500
C  -12.04800 11.00200 44.30000
C  -9.18200 12.31600 42.74500
O  -8.66800 11.28500 43.14900
C  -8.55200 13.44800 41.88200
C  -7.50700 14.03000 42.78300
O  -7.71500 14.62600 43.80300
O  -6.23200 13.80000 42.33500
C  -5.18700 14.48000 43.12400
H  -10.42200 19.87900 40.23300
H  -16.19500 18.56900 42.22200
H  -14.40500 12.53100 44.06400
H  -7.46300 16.17300 40.91400
H  -8.76000 18.10400 38.94100
H  -8.14300 19.27300 41.62800
H  -7.45500 19.53600 40.00700
H  -6.93500 18.24600 41.19600
H  -8.40200 16.12900 38.02700
H  -8.50600 14.73800 38.79900
H  -6.19300 14.45200 38.28100
H  -5.78700 15.83400 39.32400
H  -12.77200 22.60800 40.66800
H  -12.50300 21.62000 39.17100
H  -11.29700 21.70100 40.49300
H  -16.62000 20.50000 42.98200
H  -17.34100 20.35300 41.29600
H  -17.22100 21.90600 42.13500
H  -17.50700 16.00800 42.30600
H  -16.83600 14.38300 44.44900
H  -16.81300 17.72500 44.64400
H  -17.59800 16.15800 45.06400
H  -18.46800 17.23000 44.10800
H  -16.31500 13.42800 41.62600
H  -17.99200 14.03700 42.11900
H  -17.20100 11.89400 43.83200
H  -17.27500 11.39100 42.19500
H  -18.72200 12.22200 42.82800
H  -11.33300 10.80200 45.09800
H  -11.98700 10.19200 43.57300
H  -13.04800 10.97000 44.73100
H  -8.00800 12.98300 41.06100
H  -4.23400 14.01700 42.86900
H  -5.32000 14.34600 44.19700
H  -5.23800 15.52800 42.82800

