158

Mg 40.39600 9.88000 29.80300
C  42.67300 10.75700 32.34600
C  38.26700 8.67200 32.21400
C  38.46700 8.84100 27.43700
C  42.70900 10.95200 27.36300
N  40.55300 9.63200 32.02200
C  41.48800 10.17000 32.86100
C  41.13800 10.01400 34.37000
C  39.71600 9.25800 34.31000
C  39.46000 9.21700 32.81000
C  39.69800 7.90400 35.03600
C  41.02200 11.37900 35.14000
C  40.19600 11.40800 36.47500
H  40.71700 12.17500 37.63600
N  38.55500 8.89200 29.83600
C  37.84700 8.41700 30.90100
C  36.61200 7.80600 30.41900
C  36.62500 7.95200 29.00700
C  37.92500 8.55700 28.64500
C  35.65000 7.12000 31.40800
C  35.57500 7.58100 28.07400
O  35.69300 7.82900 26.90200
C  34.26500 7.08300 28.59100
N  40.67000 9.71100 27.72100
C  39.73000 9.20300 26.99200
C  39.88600 9.37600 25.53600
C  41.21400 10.09600 25.42000
C  41.59300 10.26200 26.93700
C  39.82600 7.96300 24.82300
C  41.15600 11.50100 24.60300
C  40.79400 12.79500 25.24800
N  42.32300 10.54000 29.82500
C  43.07800 11.05900 28.73600
C  44.28700 11.70700 29.26200
C  44.14400 11.56600 30.70700
C  42.99900 10.87700 30.97600
C  45.30500 12.45500 28.47000
C  44.78400 11.96400 31.98600
O  45.78800 12.63400 32.20400
C  43.73500 11.45200 33.13400
C  44.46800 10.53800 34.06700
O  45.26100 9.64900 33.70500
O  43.99700 10.80100 35.34600
C  44.37700 9.84100 36.38500
H  37.60100 8.32400 33.00600
H  37.84900 8.56600 26.57900
H  43.44200 11.42300 26.70400
H  41.96200 9.44400 34.80000
H  38.87300 9.89000 34.59000
H  39.39500 7.05300 34.42600
H  38.83000 7.79100 35.68500
H  40.61000 7.60500 35.55200
H  40.43900 12.02200 34.48100
H  42.00600 11.81200 35.31800
H  40.16200 10.38300 36.84400
H  39.16300 11.68400 36.26200
H  34.67100 7.59900 31.43300
H  36.13100 7.01400 32.38100
H  35.42000 6.12900 31.01500
H  34.49700 6.11100 29.02600
H  33.61500 6.86200 27.74500
H  33.77900 7.64300 29.39100
H  39.24300 10.17100 25.15800
H  42.02300 9.53500 24.95300
H  39.84100 7.25700 25.65400
H  40.69000 7.94900 24.15900
H  38.88500 7.78300 24.30400
H  40.50900 11.38800 23.73300
H  42.14800 11.56700 24.15800
H  41.59100 13.47800 24.95600
H  40.74900 12.63600 26.32600
H  39.81000 13.13500 24.92500
H  44.90100 12.88800 27.55500
H  46.06600 11.72600 28.19300
H  45.70200 13.22600 29.13000
H  43.52400 12.35900 33.69900
H  45.37000 10.03700 36.79100
H  44.28700 8.82100 36.01100
H  43.63100 10.03400 37.15500
Mg 10.23200 46.65300 25.27700
C  8.23300 47.02900 28.22100
C  12.83300 48.15000 27.19300
C  12.11600 46.47200 22.64900
C  7.35900 46.24700 23.55500
N  10.51700 47.39000 27.45100
C  9.59100 47.37500 28.46700
C  10.20000 47.71800 29.78200
C  11.43200 48.51300 29.33100
C  11.66900 48.01300 27.88700
C  11.31700 50.04600 29.45600
C  10.43900 46.43000 30.65900
C  10.77800 46.72900 32.16600
H  10.20900 45.82600 33.24500
N  12.30400 47.06500 24.97900
C  13.14200 47.68400 25.86600
C  14.44700 47.68400 25.29100
C  14.25500 47.19100 23.94300
C  12.86200 46.93300 23.79400
C  15.67900 47.87500 26.17600
C  15.30700 46.89500 22.84000
O  15.01500 46.30500 21.80900
C  16.74900 47.39300 23.09900
N  9.77500 46.55700 23.30700
C  10.71800 46.35600 22.38700
C  10.21100 45.78400 21.00500
C  8.69300 45.78700 21.29500
C  8.59500 46.22600 22.78200
C  10.63400 46.52900 19.66500
C  7.91900 44.42000 20.99900
C  6.61300 44.64300 20.14700
N  8.19500 46.47800 25.70400
C  7.11700 46.32900 24.85300
C  5.87900 46.29600 25.61100
C  6.29200 46.61700 26.86700
C  7.71100 46.68200 26.93900
C  4.49500 46.05200 25.07400
C  5.79200 46.66100 28.26700
O  4.65900 46.53500 28.69800
C  7.07600 46.92700 29.25500
C  7.16300 45.83600 30.25200
O  7.65700 44.71500 30.19300
O  6.37700 46.26100 31.31900
C  6.07500 45.24900 32.26500
H  13.56400 48.68900 27.79900
H  12.56800 46.28300 21.67300
H  6.48600 46.12300 22.91100
H  9.51400 48.27200 30.42300
H  12.26100 48.16500 29.94800
H  10.34000 50.39500 29.78900
H  11.61600 50.44800 28.48800
H  12.05900 50.37900 30.18200
H  11.33600 45.99100 30.22300
H  9.58300 45.77600 30.82500
H  10.33200 47.67800 32.46100
H  11.84100 46.85500 32.37500
H  16.40700 47.11600 25.88900
H  15.49700 47.73900 27.24200
H  16.13600 48.86000 26.07900
H  17.19100 47.73300 22.16200
H  17.31900 46.59200 23.57200
H  16.53700 48.25200 23.73500
H  10.60700 44.79400 20.77800
H  8.18900 46.59600 20.76700
H  11.06300 45.77500 19.00500
H  11.32600 47.27800 20.05000
H  9.80100 47.02100 19.16300
H  7.59000 44.13600 21.99800
H  8.54000 43.67100 20.50700
H  6.57400 45.59500 19.61900
H  5.73200 44.75200 20.77900
H  6.38600 43.94400 19.34200
H  3.83000 46.37300 25.87600
H  4.16500 45.08200 24.70200
H  4.32300 46.73400 24.24100
H  6.82300 47.86000 29.75900
H  5.08500 44.83100 32.08400
H  6.16600 45.73000 33.23900
H  6.74500 44.39900 32.39800

