158

Mg 1.10700 7.56300 25.69600
C  1.83500 9.25900 28.59500
C  1.42700 4.56000 27.46500
C  0.58800 5.99300 22.78500
C  1.59400 10.64700 23.88300
N  1.96100 6.90700 27.70200
C  1.87600 7.89700 28.77900
C  1.90000 7.12600 30.11300
C  1.96800 5.64300 29.80400
C  1.80300 5.67700 28.20100
C  3.30200 4.96100 30.11800
C  0.66400 7.56900 30.99700
C  1.07100 7.97400 32.42300
H  2.37900 7.45400 33.13900
N  0.87700 5.51600 25.24000
C  1.02800 4.44900 26.06100
C  0.86200 3.22300 25.35100
C  0.65000 3.60700 23.95700
C  0.69700 5.13100 23.95500
C  0.91000 1.81800 25.95900
C  0.48500 2.75500 22.67900
O  0.30200 3.16100 21.57500
C  0.49400 1.26000 22.81800
N  1.16500 8.24800 23.67200
C  0.79600 7.38600 22.67700
C  0.91700 8.04600 21.36000
C  0.82400 9.52100 21.75100
C  1.22700 9.49400 23.21900
C  2.20700 7.59300 20.56600
C  -0.63400 10.16200 21.58500
C  -0.71600 11.59800 21.02100
N  1.59000 9.54300 26.08100
C  1.76400 10.74700 25.27400
C  1.83100 11.88100 26.14300
C  1.79100 11.36800 27.48100
C  1.75300 9.97700 27.38600
C  1.86600 13.34900 25.65300
C  1.96700 11.75600 28.91500
O  2.06300 12.82100 29.47500
C  1.97600 10.39300 29.70600
C  3.27300 10.40500 30.52200
O  4.46300 10.16100 30.23500
O  2.91100 10.91100 31.73900
C  3.86800 10.96900 32.81000
H  1.46900 3.63100 28.03900
H  0.33800 5.51300 21.83600
H  1.65200 11.61200 23.37500
H  2.83700 7.41700 30.58800
H  1.14100 5.03500 30.17100
H  3.91600 5.63700 30.71400
H  3.87200 4.79700 29.20400
H  3.13800 4.02200 30.64700
H  -0.01600 6.72000 30.93500
H  0.17600 8.41700 30.51600
H  0.19200 7.73100 33.02100
H  1.17300 9.05900 32.39800
H  -0.01000 1.23800 25.88400
H  1.11000 1.78900 27.03000
H  1.69800 1.20300 25.52400
H  1.46600 0.76900 22.88000
H  0.14900 0.77300 21.90600
H  -0.24400 1.03800 23.58800
H  0.02500 7.78600 20.79100
H  1.51000 10.10500 21.13800
H  2.27900 6.51900 20.40000
H  3.12400 8.03400 20.95600
H  1.94500 8.03900 19.60700
H  -1.04100 10.26900 22.59000
H  -1.33600 9.52900 21.04100
H  -1.24600 11.72300 20.07700
H  0.27300 12.05500 21.00500
H  -1.28700 12.18800 21.73800
H  1.58100 14.01500 26.46700
H  1.02900 13.28500 24.95700
H  2.77900 13.69600 25.16900
H  1.12600 10.41100 30.38800
H  3.30000 10.38400 33.53300
H  3.99500 11.96100 33.24200
H  4.84900 10.60100 32.51000
Mg 0.82500 43.91900 26.23200
C  3.23300 43.90300 28.76300
C  -1.50600 42.90500 28.56300
C  -1.33200 43.66200 23.70200
C  3.45000 44.16100 23.90200
N  0.87000 43.44700 28.45200
C  1.96700 43.60400 29.24400
C  1.59900 43.42400 30.72900
C  0.17500 42.82900 30.52800
C  -0.23400 43.11500 29.11700
C  -0.05900 41.34400 31.00600
C  1.61700 44.84400 31.41700
C  1.54700 44.99600 32.95400
H  1.26600 43.79700 33.89200
N  -1.18900 43.38800 26.17200
C  -1.94100 43.03000 27.19700
C  -3.26300 42.74000 26.72400
C  -3.26200 43.02200 25.30400
C  -1.89500 43.36900 24.99100
C  -4.43000 42.19200 27.49900
C  -4.37800 42.97400 24.24400
O  -4.16900 43.38500 23.11500
C  -5.84300 42.69000 24.57800
N  1.08100 43.91800 24.06900
C  -0.00300 43.81100 23.28200
C  0.44100 43.85900 21.78900
C  1.96900 44.08300 21.90500
C  2.21100 43.98100 23.38200
C  0.01400 42.66600 20.95900
C  2.46700 45.39900 21.14100
C  1.99900 46.73500 21.90700
N  2.90300 44.19400 26.21700
C  3.88500 44.29400 25.25800
C  5.17700 44.43900 25.85600
C  4.96900 44.25800 27.22900
C  3.57100 44.11900 27.42300
C  6.46400 44.38800 25.08500
C  5.64700 44.04500 28.49200
O  6.80100 43.69900 28.70500
C  4.63300 44.13700 29.55600
C  4.92700 43.05700 30.64300
O  5.00600 41.85200 30.35500
O  4.97400 43.63200 31.86500
C  5.27300 42.71300 32.98400
H  -2.25400 42.59000 29.29400
H  -1.94100 43.50500 22.80900
H  4.23800 44.31700 23.16200
H  2.26700 42.70000 31.19700
H  -0.54900 43.34800 31.15500
H  -0.54500 40.64800 30.32300
H  -0.60700 41.36800 31.94700
H  0.86900 40.87000 31.32600
H  0.72000 45.32200 31.02500
H  2.45300 45.45300 31.07400
H  0.83100 45.80700 33.09100
H  2.48600 45.40600 33.32300
H  -5.21200 42.93500 27.34100
H  -4.14600 42.21400 28.55100
H  -4.85500 41.25200 27.14800
H  -6.09100 41.66400 24.84800
H  -6.53500 42.78400 23.74100
H  -6.19500 43.41100 25.31500
H  -0.06800 44.70900 21.33500
H  2.45100 43.17000 21.55400
H  -0.27600 41.99500 21.76700
H  0.77900 42.21800 20.32500
H  -0.88500 42.94400 20.40800
H  2.08500 45.38400 20.12000
H  3.55600 45.39900 21.13100
H  2.27400 47.55700 21.24700
H  2.55900 46.79400 22.84000
H  0.92800 46.93900 21.92900
H  6.32400 44.88800 24.12600
H  6.61800 43.35300 24.77900
H  7.28500 44.92000 25.56700
H  4.64400 45.12100 30.02500
H  5.08600 43.26900 33.90300
H  6.31400 42.39300 32.93600
H  4.62700 41.83600 32.94500

