158

Mg -2.11900 16.80500 26.99500
C  -2.70200 14.58400 29.59800
C  -2.42200 19.45400 29.16600
C  -2.07600 18.92500 24.34800
C  -2.53900 14.10100 24.73100
N  -2.42800 16.94500 29.13400
C  -2.47400 15.89400 30.08100
C  -2.63500 16.41500 31.51100
C  -2.62200 17.97100 31.23100
C  -2.53500 18.17400 29.71700
C  -3.87700 18.80400 31.76000
C  -1.58300 15.81900 32.54300
C  -1.15400 16.73600 33.73600
H  -1.18700 16.09200 35.18200
N  -1.97700 18.88900 26.79600
C  -2.16100 19.78600 27.80600
C  -2.06100 21.11000 27.29200
C  -1.94500 20.94200 25.86900
C  -2.04200 19.51800 25.60500
C  -2.09500 22.32400 28.25300
C  -1.82200 22.06700 24.84100
O  -2.00100 21.95200 23.60000
C  -1.77400 23.50500 25.34000
N  -2.59000 16.57000 24.79000
C  -2.25500 17.56000 23.97600
C  -2.49700 17.17000 22.48900
C  -2.36200 15.55700 22.62300
C  -2.46200 15.38500 24.15100
C  -3.93500 17.56200 22.03500
C  -1.11300 14.78500 21.99500
C  -1.37800 13.36200 21.41000
N  -2.51900 14.74000 27.09200
C  -2.60200 13.74800 26.09400
C  -2.71300 12.48900 26.66800
C  -2.79400 12.78900 28.02900
C  -2.65000 14.14400 28.24100
C  -2.86500 11.12700 26.08700
C  -2.91100 12.16700 29.30100
O  -3.05100 11.00500 29.63700
C  -2.83100 13.31900 30.38300
C  -1.64400 13.03700 31.22200
O  -0.45500 13.23900 30.93700
O  -2.09000 12.51000 32.41200
C  -1.09100 12.20300 33.40600
H  -2.48700 20.17500 29.98300
H  -1.95400 19.60000 23.49800
H  -2.60700 13.26200 24.03400
H  -3.62000 16.14700 31.89300
H  -1.71500 18.36300 31.69300
H  -4.44300 19.01100 30.85200
H  -3.68900 19.72800 32.30700
H  -4.59100 18.19900 32.31800
H  -0.76500 15.54900 31.87400
H  -2.04600 14.93200 32.97500
H  -1.66700 17.69700 33.69000
H  -0.14100 17.11700 33.61000
H  -3.06100 22.82700 28.21100
H  -1.37300 23.10800 28.02300
H  -2.10400 22.03700 29.30500
H  -1.63800 24.09900 24.43600
H  -0.79500 23.55200 25.81600
H  -2.59900 23.76700 26.00200
H  -1.78400 17.64400 21.81400
H  -3.25100 15.10200 22.18600
H  -4.60500 17.82600 22.85300
H  -4.39900 16.78600 21.42600
H  -3.79100 18.48700 21.47700
H  -0.28300 14.76600 22.70100
H  -0.73200 15.37300 21.16000
H  -0.91600 13.24900 20.43000
H  -2.44700 13.20500 21.26200
H  -0.96200 12.57300 22.03600
H  -3.88000 11.04100 25.69800
H  -2.57900 10.30200 26.73900
H  -2.26700 10.91400 25.20100
H  -3.71800 13.36300 31.01500
H  -1.44100 11.24600 33.79400
H  -1.23100 12.89500 34.23700
H  -0.04800 12.16700 33.09200
Mg -0.09100 7.02500 26.55200
C  0.81100 9.19000 29.24600
C  -0.24100 4.39900 28.83700
C  -0.72200 5.01000 24.13800
C  0.22600 9.78200 24.40800
N  0.03200 6.87800 28.77100
C  0.52500 7.84400 29.63000
C  0.79000 7.29700 31.05100
C  0.49200 5.78000 30.89800
C  0.07700 5.62700 29.40200
C  1.69300 4.86200 31.31500
C  0.04600 7.93600 32.22800
C  0.73200 8.04300 33.66500
H  1.96200 7.20800 33.99900
N  -0.56000 4.97800 26.50700
C  -0.57400 4.08300 27.50200
C  -0.98700 2.79600 27.03700
C  -1.11900 2.89600 25.66000
C  -0.81300 4.33200 25.35400
C  -1.26100 1.65400 27.95200
C  -1.34100 1.79600 24.61300
O  -1.27200 2.03500 23.39300
C  -1.57700 0.38400 24.98200
N  -0.26400 7.33300 24.54600
C  -0.39600 6.30800 23.70900
C  -0.60600 6.78000 22.21600
C  -0.24300 8.32400 22.32000
C  -0.12300 8.49800 23.91500
C  0.25400 5.98700 21.17000
C  -1.28000 9.20900 21.63500
C  -2.49900 9.78000 22.33200
N  0.48500 9.10000 26.73300
C  0.47800 10.07900 25.77000
C  0.80100 11.36000 26.39300
C  0.96200 11.05200 27.75300
C  0.73100 9.67600 27.90900
C  0.95000 12.67500 25.75500
C  1.37300 11.62700 28.96900
O  1.80300 12.76900 29.20600
C  1.10600 10.44100 30.04500
C  2.21800 10.27600 30.96800
O  3.24600 9.69900 30.81700
O  1.94100 11.08600 32.03200
C  2.91100 11.08400 33.08000
H  -0.20000 3.61300 29.59400
H  -0.97700 4.28500 23.36200
H  0.46600 10.60400 23.73100
H  1.86700 7.37300 31.20000
H  -0.46700 5.57300 31.37300
H  2.47900 5.38100 31.86400
H  2.16300 4.24800 30.54700
H  1.41500 4.23000 32.15800
H  -0.86600 7.36000 32.38200
H  -0.21200 8.94200 31.89700
H  0.00100 7.97800 34.47100
H  1.02900 9.09100 33.62700
H  -0.32800 1.11200 28.10800
H  -1.95700 1.04700 27.37300
H  -1.78700 1.94000 28.86300
H  -2.39600 0.36300 25.70100
H  -0.62300 0.19600 25.47500
H  -1.73700 -0.30300 24.15100
H  -1.64200 6.65900 21.89800
H  0.74500 8.59900 21.95000
H  0.98000 6.64500 20.69200
H  -0.35200 5.61800 20.34200
H  0.89200 5.25800 21.66800
H  -1.51800 8.56100 20.79200
H  -0.73400 10.06300 21.23400
H  -3.40000 9.54600 21.76600
H  -2.43800 10.84100 22.57300
H  -2.62100 9.25000 23.27700
H  1.78200 12.71100 25.05100
H  1.13300 13.38500 26.56200
H  0.08000 12.84100 25.11900
H  0.27800 10.78500 30.66500
H  2.30700 11.34400 33.95000
H  3.68900 11.83600 32.94700
H  3.28500 10.08500 33.30500

