158

Mg 29.97700 58.57900 38.69700
C  27.61500 56.56000 37.32600
C  32.44000 56.18000 38.08400
C  32.31900 61.01200 39.28400
C  27.53500 61.20400 38.69700
N  30.00500 56.51600 37.65000
C  28.85300 55.88600 37.36200
C  29.12300 54.39100 37.12100
C  30.66100 54.26400 37.45100
C  31.09100 55.69500 37.80500
C  31.03000 53.26500 38.49000
C  28.78400 53.84300 35.67000
C  29.21600 54.63600 34.42200
H  28.08700 55.06000 33.48100
N  32.10000 58.49800 38.81400
C  32.88900 57.43000 38.48200
C  34.30100 57.79900 38.73700
C  34.23500 59.18500 39.20800
C  32.84600 59.64400 39.07500
C  35.49200 56.88100 38.57200
C  35.48400 59.92300 39.58300
O  36.60700 59.42400 39.64000
C  35.48500 61.44600 39.92100
N  29.94200 60.74600 39.01700
C  31.02700 61.44800 39.39000
C  30.75800 62.93300 39.39100
C  29.21400 62.93700 39.46900
C  28.81100 61.56100 39.04600
C  31.55400 63.86100 40.39400
C  28.47700 64.12300 38.69000
C  28.54100 64.01500 37.10500
N  28.04600 58.88000 38.07200
C  27.13100 59.96400 38.20500
C  25.79700 59.63000 37.71500
C  25.86900 58.19000 37.57600
C  27.28200 57.92400 37.65600
C  24.51800 60.48800 37.56600
C  25.10100 56.99900 37.27900
O  23.90900 56.70500 37.14200
C  26.25600 55.88100 37.03600
C  25.77900 54.74200 37.92400
O  26.05100 54.56400 39.10000
O  24.90200 53.95600 37.21300
C  24.23400 52.93100 37.98200
H  33.13000 55.33400 38.05400
H  32.98400 61.86000 39.45800
H  26.74400 61.94000 38.85400
H  28.51200 53.81200 37.81400
H  31.11500 54.04600 36.48400
H  30.15700 52.92800 39.05000
H  31.76500 53.66000 39.19100
H  31.44500 52.36000 38.04700
H  27.76800 53.45100 35.61700
H  29.38200 52.93500 35.59100
H  29.90200 54.02100 33.83800
H  29.60400 55.57000 34.82900
H  36.11200 57.36700 37.81800
H  35.16900 55.93200 38.14400
H  36.12800 56.66100 39.43000
H  36.46000 61.83400 40.21400
H  34.79300 61.59700 40.75000
H  35.10400 62.09700 39.13400
H  30.96300 63.31500 38.39100
H  28.95000 63.14600 40.50600
H  32.29900 64.48800 39.90400
H  32.02600 63.30500 41.20400
H  30.83800 64.52100 40.88500
H  28.84800 65.12000 38.93100
H  27.47400 64.01700 39.10500
H  28.93900 64.90800 36.62300
H  27.55400 63.76000 36.71700
H  29.06800 63.14300 36.71800
H  23.76700 60.01400 36.93400
H  24.69300 61.49300 37.18000
H  23.99000 60.54600 38.51700
H  26.21100 55.47400 36.02600
H  23.72600 52.27200 37.27900
H  23.54200 53.43100 38.65900
H  24.92600 52.27100 38.50600
Mg 10.14600 47.73500 24.53400
C  7.62800 48.40500 26.77900
C  12.42900 48.90400 26.86900
C  12.43900 47.06000 22.27000
C  7.57000 46.97300 22.06500
N  9.99500 48.45600 26.61400
C  8.87600 48.59900 27.35100
C  9.23700 48.84300 28.82400
C  10.68500 49.43400 28.70300
C  11.08800 48.83200 27.31400
C  10.67200 50.92300 28.66600
C  9.26400 47.54700 29.70200
C  8.95200 47.81200 31.18300
H  8.45800 46.67100 32.01400
N  12.13500 47.87200 24.58000
C  12.88800 48.43700 25.56400
C  14.30600 48.33900 25.18100
C  14.37400 47.70600 23.88600
C  12.94800 47.55000 23.51800
C  15.47200 48.78400 26.14000
C  15.58600 47.28900 23.06400
O  15.49500 46.98000 21.93500
C  16.93200 47.36600 23.71200
N  9.98300 47.01800 22.52400
C  11.17100 46.70800 21.79900
C  10.87500 46.05000 20.39300
C  9.33200 46.03200 20.44300
C  8.91100 46.76400 21.72500
C  11.36600 46.92000 19.20100
C  8.70100 44.57300 20.32000
C  8.64000 43.75300 21.67100
N  8.03000 47.60400 24.40500
C  7.09000 47.37800 23.34700
C  5.75700 47.62900 23.83000
C  5.92100 48.06500 25.16800
C  7.29100 48.06700 25.48300
C  4.49700 47.48800 23.03400
C  5.27200 48.56800 26.36000
O  4.07000 48.83800 26.55100
C  6.34600 48.79100 27.42300
C  5.90500 47.95700 28.53400
O  5.96200 46.71600 28.60400
O  5.32000 48.75700 29.54400
C  4.74900 47.95100 30.64300
H  13.07100 49.32000 27.64700
H  13.20200 46.82900 21.52400
H  6.89300 46.80800 21.22400
H  8.45100 49.51200 29.17400
H  11.42200 49.02700 29.39600
H  11.67400 51.22700 28.96800
H  9.90500 51.34000 29.31900
H  10.50100 51.31300 27.66300
H  10.26100 47.11100 29.76800
H  8.63200 46.73200 29.35100
H  8.28300 48.64400 31.40500
H  9.95600 47.91200 31.59300
H  16.15900 47.94800 26.27000
H  15.12900 48.94000 27.16300
H  16.08300 49.59400 25.74200
H  17.32900 48.28000 24.15400
H  17.66000 47.03300 22.97300
H  17.02800 46.52600 24.40100
H  11.20000 45.01900 20.25500
H  8.93600 46.47100 19.52700
H  11.59900 47.93900 19.51000
H  10.63900 47.02900 18.39700
H  12.31500 46.51800 18.84600
H  9.27400 44.07200 19.54000
H  7.72200 44.84900 19.92700
H  9.22700 44.17500 22.48600
H  9.09900 42.80200 21.40200
H  7.62400 43.52800 21.99700
H  4.09000 46.48000 23.12100
H  4.67100 47.65100 21.97000
H  3.71500 48.13800 23.42600
H  6.27900 49.86800 27.57800
H  5.48800 47.46700 31.28200
H  4.05800 47.17000 30.32700
H  4.25000 48.59600 31.36700

