158

Mg 46.81700 25.04400 28.06300
C  47.43500 27.22400 30.70400
C  46.22200 22.54500 30.24300
C  46.68300 22.91500 25.44100
C  47.91200 27.51000 25.91600
N  46.85500 24.93200 30.27600
C  46.92700 25.99900 31.13500
C  46.69200 25.55600 32.52900
C  46.35500 24.06200 32.46000
C  46.45000 23.76800 30.90100
C  47.14000 23.08900 33.32600
C  45.54800 26.46400 33.25900
C  45.96500 27.28000 34.50500
H  45.04500 27.40000 35.69500
N  46.38000 23.04600 27.85500
C  46.17200 22.14900 28.89200
C  45.97200 20.84900 28.36300
C  46.10600 20.92300 26.95000
C  46.38200 22.34000 26.69200
C  45.54700 19.69500 29.35300
C  46.04800 19.73200 25.99500
O  46.24200 19.78300 24.77100
C  45.65900 18.41400 26.50400
N  47.46200 25.07000 25.97900
C  47.20100 24.13500 25.08900
C  47.75300 24.52400 23.69900
C  47.64000 26.09100 23.86200
C  47.64600 26.26000 25.37800
C  49.21100 24.11600 23.27000
C  46.37000 26.80300 23.19000
C  45.02600 26.38600 23.62800
N  47.60700 27.03800 28.18700
C  48.00800 27.95100 27.19200
C  48.42700 29.16900 27.80900
C  48.29400 28.93400 29.16300
C  47.68500 27.64800 29.33600
C  49.11900 30.26800 27.16400
C  48.30700 29.55700 30.40200
O  48.64500 30.69400 30.74700
C  47.85400 28.48300 31.49300
C  49.08400 28.17700 32.28200
O  50.16500 27.73400 31.95500
O  48.78800 28.53400 33.53300
C  49.86000 28.29900 34.55500
H  45.83500 21.89200 31.02800
H  46.47600 22.23000 24.61700
H  48.19300 28.30200 25.21900
H  47.64500 25.71200 33.03300
H  45.30400 23.92600 32.71400
H  47.87300 22.82100 32.56600
H  46.56600 22.26800 33.75600
H  47.69200 23.45800 34.19000
H  44.70400 25.82300 33.51200
H  45.17000 27.27500 32.63600
H  46.05600 28.31300 34.16800
H  46.96700 27.02300 34.84600
H  46.22400 18.85300 29.21000
H  44.59100 19.46800 28.88100
H  45.60100 19.88500 30.42500
H  46.32300 18.09200 27.30500
H  45.94900 17.70600 25.72800
H  44.60000 18.29800 26.73600
H  46.98600 24.30500 22.95600
H  48.53000 26.46300 23.35500
H  49.97100 24.18900 24.04700
H  49.40300 24.79200 22.43600
H  49.23500 23.08400 22.91900
H  46.32700 26.67600 22.10800
H  46.28900 27.84300 23.50600
H  44.88500 26.94500 24.55200
H  44.84400 25.33800 23.86800
H  44.17200 26.64500 23.00300
H  50.15800 29.93700 27.14300
H  49.06200 31.22600 27.68000
H  48.71000 30.52400 26.18600
H  47.00000 28.80500 32.08900
H  49.50700 27.43600 35.12000
H  49.99000 29.19400 35.16300
H  50.84800 28.01700 34.19000
Mg 46.35100 44.49200 43.30700
C  43.07600 43.62000 43.02100
C  47.22500 41.16500 42.48500
C  49.41300 45.58500 42.54300
C  45.37900 47.95800 43.59800
N  45.25500 42.66900 42.85200
C  43.97900 42.48600 42.76800
C  43.57300 40.97200 42.67800
C  44.93400 40.18700 42.80300
C  45.92900 41.39700 42.74700
C  45.03400 39.17700 43.94700
C  42.68400 40.64700 41.33600
C  42.79700 41.58100 40.14200
H  42.36600 41.11900 38.75000
N  48.07200 43.49800 42.60100
C  48.26200 42.15300 42.39300
C  49.56000 41.92800 41.92400
C  50.24000 43.20600 41.88200
C  49.22200 44.19700 42.32000
C  50.08500 40.51700 41.73200
C  51.70300 43.39300 41.44100
O  52.34200 42.37400 41.09500
C  52.40800 44.64100 41.38700
N  47.26200 46.56500 42.93800
C  48.55900 46.63600 42.83800
C  49.10000 48.08900 42.96000
C  47.81700 48.85400 43.35200
C  46.67900 47.75500 43.33200
C  50.17200 48.26600 43.97400
C  47.52200 50.10400 42.39600
C  47.68100 51.53700 43.05200
N  44.63200 45.62300 43.43200
C  44.35200 46.98700 43.58200
C  42.86900 47.16200 43.67400
C  42.37400 45.87600 43.41500
C  43.46600 44.97500 43.24000
C  42.10000 48.37100 43.90000
C  41.16700 45.21000 43.23100
O  39.97800 45.55600 43.29100
C  41.54900 43.71200 43.06200
C  40.81500 42.90200 44.15700
O  40.09100 41.93300 44.00400
O  41.06300 43.39200 45.42100
C  40.39300 42.73400 46.54900
H  47.39200 40.13000 42.18000
H  50.42700 45.98200 42.46400
H  45.10600 48.98300 43.85700
H  43.05600 40.74200 43.61000
H  45.17500 39.63500 41.89400
H  45.78600 39.50800 44.66300
H  45.34200 38.19000 43.60000
H  44.10300 38.96300 44.47200
H  41.68100 40.58600 41.75900
H  42.91700 39.70400 40.84100
H  43.85800 41.82900 40.12800
H  42.26900 42.48700 40.44000
H  50.98600 40.19700 42.25600
H  50.18000 40.32500 40.66300
H  49.31900 39.81000 42.05000
H  52.54000 45.19200 42.31800
H  51.83700 45.37400 40.81800
H  53.35500 44.58600 40.85100
H  49.55600 48.55200 42.08500
H  47.80800 49.17400 44.39400
H  51.17700 48.38000 43.56800
H  50.31400 47.34900 44.54700
H  49.94700 49.11900 44.61400
H  46.47000 50.06600 42.11000
H  48.18600 50.18000 41.53600
H  48.24700 52.18400 42.38300
H  48.32000 51.43300 43.92900
H  46.66400 51.92200 43.12900
H  42.74600 48.98700 44.52600
H  41.17900 48.14600 44.43900
H  41.83000 48.74800 42.91400
H  41.05300 43.23500 42.21700
H  40.32500 43.44800 47.37000
H  40.87800 41.87000 47.00300
H  39.41700 42.31700 46.29900

