158

Mg 25.77600 51.21200 27.02300
C  23.67200 51.89400 29.84400
C  28.05000 49.89600 29.13800
C  27.86300 51.00200 24.39500
C  23.45500 52.68800 24.96100
N  25.78700 50.88300 29.25100
C  24.82700 51.24300 30.21500
C  25.21000 50.81000 31.60500
C  26.71800 50.34000 31.37900
C  26.86000 50.34000 29.81700
C  27.83000 51.11100 32.13000
C  24.31200 49.68400 32.23700
C  23.95600 49.63200 33.73600
H  24.88300 50.30400 34.83700
N  27.63700 50.48400 26.75900
C  28.40400 49.93700 27.75500
C  29.65600 49.42900 27.12600
C  29.57600 49.64100 25.70200
C  28.27600 50.32200 25.53700
C  30.75900 48.78200 27.99400
C  30.56800 49.28800 24.64500
O  30.41700 49.41100 23.44300
C  31.78100 48.55100 25.05600
N  25.72300 51.87100 25.01300
C  26.71700 51.70400 24.14900
C  26.41100 52.25600 22.72200
C  24.93900 52.72600 22.84700
C  24.68500 52.41800 24.35200
C  27.31600 53.47900 22.34300
C  23.85900 51.97400 21.97200
C  23.90400 52.46900 20.50000
N  23.92200 52.08000 27.31900
C  23.06800 52.52200 26.33300
C  21.85600 52.85600 26.98400
C  22.08600 52.70100 28.41600
C  23.35300 52.13700 28.49300
C  20.63200 53.24300 26.30100
C  21.55700 52.85400 29.69200
O  20.45100 53.19000 30.14600
C  22.53200 52.38000 30.66100
C  22.85900 53.55000 31.51200
O  23.30400 54.64100 31.15000
O  22.49500 53.26800 32.79200
C  22.54300 54.36000 33.70800
H  28.92600 49.50700 29.66200
H  28.64000 50.91100 23.63400
H  22.57300 53.10300 24.46800
H  25.27700 51.76200 32.13200
H  26.77400 49.27000 31.57600
H  27.45500 51.83600 32.85300
H  28.53600 51.64500 31.49400
H  28.48900 50.42300 32.65900
H  24.62300 48.68100 31.94500
H  23.38200 49.75200 31.67200
H  23.70200 48.61000 34.01800
H  23.00600 50.16100 33.80800
H  30.59200 47.70500 28.00300
H  30.80400 49.22600 28.98800
H  31.73300 49.05300 27.58700
H  31.44900 47.63900 25.55100
H  32.48600 49.10900 25.67200
H  32.31200 48.22500 24.16100
H  26.47000 51.42600 22.01700
H  24.75600 53.79800 22.78100
H  27.94400 53.93600 23.10800
H  26.69100 54.09500 21.69700
H  28.06100 53.03500 21.68200
H  22.85600 52.11500 22.37400
H  24.07900 50.90600 21.96300
H  24.58000 53.32000 20.41500
H  22.95700 52.74000 20.03300
H  24.42900 51.73200 19.89200
H  19.84400 53.52900 26.99700
H  20.14500 52.44600 25.73900
H  20.79400 54.17300 25.75600
H  21.97900 51.58500 31.16200
H  21.67200 54.99900 33.56200
H  23.45600 54.94700 33.59900
H  22.40500 53.91100 34.69100
Mg -9.44100 18.39600 43.04500
C  -5.93000 18.10600 43.10200
C  -8.99000 21.73300 42.11500
C  -12.75000 18.56100 42.30700
C  -9.75300 14.89600 43.22900
N  -7.68000 19.75000 42.66000
C  -6.29400 19.43500 42.84700
C  -5.40500 20.56900 42.54300
C  -6.40600 21.81100 42.45100
C  -7.73700 21.07100 42.36100
C  -6.39500 22.93500 43.51800
C  -4.57700 20.39000 41.14300
C  -5.33200 19.88800 39.84700
H  -4.74100 20.07400 38.47100
N  -10.68200 19.98600 42.32800
C  -10.33000 21.21800 41.97200
C  -11.48200 21.96400 41.70700
C  -12.57200 21.11300 41.57400
C  -12.03000 19.80200 42.03200
C  -11.47600 23.38900 41.45400
C  -13.98600 21.41300 41.16900
O  -14.25900 22.59400 40.87000
C  -15.07300 20.39000 40.86300
N  -10.99900 16.82800 42.73800
C  -12.26900 17.24300 42.67200
C  -13.22600 16.10000 42.79700
C  -12.32100 14.91900 43.23200
C  -10.91200 15.56800 43.12100
C  -14.46700 16.33900 43.59700
C  -12.51200 13.60100 42.45800
C  -12.91000 12.39000 43.19800
N  -8.23000 16.87100 43.20900
C  -8.43600 15.49900 43.29500
C  -7.10700 14.88100 43.51200
C  -6.18300 15.89900 43.47900
C  -6.86100 17.08300 43.21700
C  -6.88000 13.44000 43.55400
C  -4.75100 16.11700 43.55000
O  -3.81400 15.27900 43.60700
C  -4.56000 17.58200 43.24800
C  -3.83200 18.12700 44.41200
O  -2.66200 18.44900 44.47500
O  -4.70300 18.36600 45.49400
C  -4.14100 19.16200 46.59700
H  -8.94100 22.81200 41.94900
H  -13.80300 18.76400 42.10000
H  -9.79500 13.82500 43.44100
H  -4.74400 20.67100 43.40400
H  -6.24600 22.32200 41.50200
H  -6.38600 23.92200 43.05600
H  -5.68100 22.69000 44.30500
H  -7.27300 22.93500 44.16300
H  -3.85800 19.59000 41.32200
H  -3.82200 21.14700 40.93500
H  -6.34100 20.29200 39.92700
H  -5.46500 18.80600 39.85100
H  -11.81300 23.47100 40.42100
H  -10.63100 24.03100 41.70500
H  -12.16500 23.87900 42.14100
H  -15.43000 19.92200 41.78000
H  -14.70900 19.65600 40.14500
H  -15.85600 20.95300 40.35500
H  -13.55500 15.92500 41.77200
H  -12.46900 14.70500 44.29000
H  -15.40100 16.23700 43.04400
H  -14.41800 17.36800 43.95500
H  -14.50400 15.78600 44.53500
H  -11.50000 13.30400 42.18200
H  -13.24000 13.59500 41.64700
H  -13.70700 11.86700 42.67000
H  -13.25200 12.70500 44.18400
H  -12.16000 11.62800 43.41000
H  -6.37200 13.33600 42.59500
H  -7.77700 12.83300 43.67500
H  -6.27400 13.34300 44.45500
H  -3.91800 17.70500 42.37600
H  -3.40700 18.53900 47.10800
H  -4.95700 19.28800 47.30800
H  -3.70300 20.10000 46.25700

