158

Mg 36.21500 1.32200 29.81800
C  34.03200 2.58200 32.35100
C  38.60600 1.30900 32.35800
C  38.40200 0.70500 27.48800
C  33.69700 1.87500 27.46500
N  36.28600 1.97500 32.05500
C  35.32000 2.44200 32.82400
C  35.68500 2.42400 34.32100
C  37.21300 2.37200 34.24500
C  37.42900 1.89600 32.77600
C  38.06800 3.72600 34.55300
C  35.16500 1.16600 35.10500
C  34.74200 1.33100 36.56500
H  35.69000 2.15600 37.42300
N  38.18900 0.88900 29.91400
C  38.97400 0.84100 31.00700
C  40.31100 0.39500 30.67600
C  40.23400 0.27400 29.21900
C  38.91300 0.57800 28.80600
C  41.39800 0.17900 31.64700
C  41.28200 -0.18700 28.22100
O  41.15700 -0.39000 27.01600
C  42.58300 -0.68900 28.87400
N  36.03800 1.37300 27.75800
C  37.18700 1.21200 27.01800
C  36.92100 1.38300 25.51600
C  35.36500 1.53100 25.43500
C  34.94400 1.46300 26.95000
C  37.78900 2.54400 24.80100
C  34.62000 0.55200 24.46700
C  34.14800 -0.73700 25.07800
N  34.23300 2.03700 29.86400
C  33.37300 2.22800 28.88100
C  32.12600 2.71100 29.41700
C  32.30400 2.81700 30.78400
C  33.60500 2.39100 31.04800
C  30.91300 3.00800 28.54200
C  31.58000 3.20300 31.99700
O  30.41000 3.48600 32.16200
C  32.78100 2.93100 33.16500
C  32.85500 4.11800 33.95100
O  33.37500 5.15500 33.61300
O  32.43700 3.87800 35.25200
C  32.97300 4.93200 36.17200
H  39.28700 1.21700 33.20700
H  39.05100 0.44200 26.65000
H  32.88300 1.92400 26.73900
H  35.27300 3.36700 34.67900
H  37.64500 1.66000 34.94800
H  38.81300 3.93300 33.78400
H  38.62400 3.61200 35.48400
H  37.38700 4.57200 34.64100
H  35.83400 0.34100 34.86000
H  34.17900 0.89200 34.72900
H  34.83100 0.33800 37.00700
H  33.73800 1.73200 36.69700
H  41.80700 -0.80600 31.42300
H  41.03000 0.10500 32.67000
H  42.24900 0.85600 31.57500
H  42.94200 0.01500 29.62500
H  43.35500 -0.93800 28.14500
H  42.25600 -1.64600 29.28000
H  37.17900 0.45600 25.00300
H  35.17700 2.52700 25.03400
H  37.06300 3.35200 24.88800
H  37.99900 2.18900 23.79200
H  38.65200 2.82500 25.40400
H  35.37600 0.24200 23.74600
H  33.86800 0.96700 23.79700
H  34.92100 -1.50300 25.13100
H  33.30200 -1.08900 24.48800
H  33.87200 -0.72700 26.13200
H  30.53500 2.01300 28.30800
H  31.16500 3.46300 27.58500
H  30.16900 3.58400 29.09300
H  32.38900 2.10900 33.76400
H  32.39700 4.96000 37.09700
H  32.98100 5.97000 35.83900
H  34.00000 4.69600 36.45000
Mg 29.21900 58.71700 41.57100
C  26.26200 57.07600 40.84600
C  30.88200 56.07700 39.96800
C  31.79000 60.69800 41.36200
C  27.15300 61.48700 42.61500
N  28.63000 56.79600 40.58000
C  27.39500 56.40300 40.30600
C  27.30700 55.15600 39.53900
C  28.79400 54.67500 39.57600
C  29.51200 55.91600 40.04300
C  28.99800 53.53100 40.60500
C  26.73700 55.43300 38.03400
C  26.28300 54.25100 37.21500
H  25.73000 54.60800 35.79500
N  31.15100 58.37100 40.97400
C  31.68200 57.23000 40.34000
C  33.07400 57.38600 40.13600
C  33.33300 58.74700 40.35000
C  32.04100 59.41500 40.91200
C  34.02500 56.31900 39.68100
C  34.59700 59.45600 40.06600
O  35.57400 58.82100 39.66200
C  34.76200 60.91600 40.07900
N  29.40700 60.89500 41.85800
C  30.65300 61.40200 41.86500
C  30.61300 62.84100 42.35100
C  29.18700 63.06900 42.87600
C  28.47400 61.77500 42.32500
C  31.68800 63.33600 43.28400
C  28.56500 64.47600 42.42600
C  28.07600 65.45900 43.54500
N  27.07500 59.19000 41.84600
C  26.43100 60.30900 42.32300
C  25.01900 60.06800 42.36500
C  24.89300 58.84200 41.75400
C  26.19300 58.36900 41.51800
C  23.97700 60.91700 42.99500
C  23.95700 57.77000 41.45600
O  22.71800 57.75500 41.47500
C  24.83500 56.60600 40.76900
C  24.54100 55.39700 41.52600
O  24.57600 55.27900 42.72600
O  23.94100 54.38100 40.76500
C  23.55100 53.12600 41.54800
H  31.34600 55.21100 39.49200
H  32.65400 61.35800 41.26000
H  26.62400 62.28000 43.14900
H  26.64300 54.42400 39.99900
H  29.13600 54.32400 38.60300
H  28.22300 53.71200 41.35000
H  29.98000 53.66900 41.05700
H  29.09100 52.51500 40.22100
H  27.57700 55.83000 37.46400
H  25.97200 56.20900 38.06600
H  25.43900 53.87100 37.79000
H  27.06800 53.49800 37.15100
H  33.39100 55.43200 39.68100
H  34.68800 56.18800 40.53600
H  34.45400 56.46900 38.69000
H  34.04700 61.39300 39.40800
H  35.70800 61.34400 39.74600
H  34.73700 61.32900 41.08800
H  30.81700 63.47000 41.48500
H  29.22600 63.09400 43.96500
H  32.56300 62.68700 43.31500
H  31.43600 63.33200 44.34400
H  32.02400 64.32000 42.95500
H  27.77000 64.37800 41.68700
H  29.33400 64.96300 41.82700
H  27.01400 65.65600 43.39400
H  28.62100 66.40200 43.54100
H  28.17000 64.93800 44.49800
H  24.13300 61.99300 42.92100
H  23.98100 60.82300 44.08100
H  23.03900 60.57500 42.55900
H  24.55700 56.49600 39.72100
H  24.08700 53.01400 42.49100
H  23.71900 52.26800 40.89700
H  22.48400 53.27600 41.70900

