158

Mg -1.94400 17.49600 26.39000
C  -2.21800 15.14400 29.02100
C  -2.59700 20.03300 28.60700
C  -2.18600 19.53100 23.82000
C  -1.92400 14.67000 24.15500
N  -2.48600 17.51700 28.57200
C  -2.35400 16.43700 29.47200
C  -2.50400 17.03300 30.92100
C  -2.65500 18.60200 30.73500
C  -2.58200 18.74800 29.19300
C  -3.98300 19.14500 31.41200
C  -1.26100 16.71000 31.76100
C  -1.05500 17.50600 33.04300
H  -0.66300 16.66700 34.28600
N  -2.14600 19.49700 26.24000
C  -2.36200 20.35300 27.28500
C  -2.40100 21.77100 26.74400
C  -2.27000 21.58500 25.32900
C  -2.24500 20.16400 25.07100
C  -2.44100 22.99400 27.59200
C  -2.10400 22.60100 24.28000
O  -2.23200 22.39300 23.08200
C  -1.80800 24.00400 24.77900
N  -2.17000 17.07500 24.25300
C  -1.98700 18.19300 23.48100
C  -1.96300 17.79400 22.00300
C  -1.65300 16.27000 22.09700
C  -1.86200 15.93800 23.57400
C  -3.23400 18.25200 21.27500
C  -0.25600 15.85500 21.56200
C  -0.19200 15.18200 20.14800
N  -2.07200 15.37000 26.44900
C  -2.06200 14.37000 25.51800
C  -2.13300 13.05100 26.05200
C  -2.14000 13.20700 27.45600
C  -2.10200 14.71900 27.66000
C  -2.37600 11.82400 25.30700
C  -2.19700 12.63100 28.81000
O  -2.10600 11.47200 29.22800
C  -2.27000 13.85000 29.80100
C  -1.15000 13.58100 30.72900
O  -0.03200 13.96900 30.53200
O  -1.64100 13.05600 31.83400
C  -0.62800 12.63100 32.82100
H  -2.81700 20.83900 29.31000
H  -2.26400 20.20100 22.96200
H  -1.73800 13.88900 23.41500
H  -3.41600 16.60900 31.34200
H  -1.76800 19.13200 31.08200
H  -3.64500 19.97600 32.03000
H  -4.62100 18.36000 31.81900
H  -4.58600 19.60900 30.63100
H  -0.41700 16.79800 31.07700
H  -1.27200 15.66800 32.08100
H  -1.90000 18.14400 33.29900
H  -0.23200 18.21100 32.93400
H  -2.47600 22.77700 28.66000
H  -3.27000 23.67500 27.39900
H  -1.55800 23.58700 27.35400
H  -0.90700 23.84100 25.37100
H  -2.67700 24.42700 25.28200
H  -1.64400 24.58000 23.86900
H  -1.16200 18.39600 21.57400
H  -2.48800 15.74000 21.64000
H  -3.91700 18.83900 21.89000
H  -3.67900 17.27600 21.08200
H  -3.03900 18.85700 20.38900
H  0.15000 15.18500 22.31900
H  0.29400 16.79500 21.50700
H  0.26800 14.20100 20.26900
H  0.46700 15.79000 19.52800
H  -1.18500 15.09900 19.70700
H  -1.51500 11.25600 24.95400
H  -2.96300 12.15500 24.45000
H  -2.96600 11.27900 26.04300
H  -3.21600 13.83600 30.34100
H  0.23100 12.13600 32.36900
H  -0.93600 11.95200 33.61600
H  -0.32600 13.55400 33.31700
Mg 40.77500 7.90100 29.70300
C  42.42400 9.40900 32.53300
C  38.43900 6.81400 31.93100
C  39.38900 6.35000 27.06600
C  43.56100 8.89100 27.71600
N  40.56600 8.11400 31.96500
C  41.18800 8.80100 32.88400
C  40.48700 8.84300 34.23100
C  39.28400 7.96300 34.01200
C  39.48300 7.50400 32.57900
C  39.21900 6.69900 34.98400
C  40.05400 10.30000 34.59600
C  39.31200 10.48900 35.87400
H  40.01600 11.25800 36.98900
N  39.11100 6.76200 29.54500
C  38.29100 6.42600 30.55700
C  37.10500 5.68000 29.95700
C  37.40700 5.52300 28.55800
C  38.71300 6.22300 28.33800
C  35.93000 5.23300 30.87600
C  36.64300 4.76300 27.51500
O  37.13100 4.35200 26.50900
C  35.24200 4.35100 27.87700
N  41.45700 7.60800 27.73100
C  40.65900 6.90900 26.80500
C  41.39700 6.81100 25.44800
C  42.62500 7.84500 25.64700
C  42.59200 8.06600 27.17600
C  41.85000 5.32200 25.05500
C  42.63800 9.13900 24.80200
C  41.37400 10.06800 24.81800
N  42.50900 8.93900 29.89700
C  43.53400 9.26500 29.01500
C  44.50900 10.06500 29.67100
C  44.14300 10.17000 31.03800
C  42.89800 9.50000 31.13800
C  45.89500 10.55400 29.08200
C  44.49700 10.69800 32.34800
O  45.38100 11.45000 32.60600
C  43.35400 10.29200 33.34200
C  43.83200 9.73500 34.58000
O  44.28200 8.60600 34.61400
O  43.71300 10.62400 35.65300
C  43.72700 9.99600 36.96800
H  37.71600 6.51200 32.69200
H  38.79700 5.94700 26.24100
H  44.25100 9.41400 27.05000
H  41.17400 8.51200 35.00900
H  38.35000 8.52600 34.02600
H  39.83900 6.92500 35.85200
H  39.68100 5.89500 34.41100
H  38.19100 6.66800 35.34500
H  39.38800 10.68200 33.82200
H  40.89800 10.99000 34.58700
H  38.90200 9.65200 36.43800
H  38.46000 11.15500 35.73500
H  34.95300 5.60100 30.56100
H  36.10200 5.59900 31.88800
H  35.89900 4.14400 30.85200
H  34.69200 5.23300 28.20500
H  35.38400 3.73200 28.76300
H  34.74300 3.88000 27.02900
H  40.79200 7.08400 24.58400
H  43.52400 7.40300 25.21800
H  41.54800 5.20200 24.01500
H  41.38700 4.63400 25.76300
H  42.92700 5.22200 25.18900
H  42.67200 8.85000 23.75100
H  43.61000 9.59500 24.98900
H  40.65700 9.67600 25.53900
H  40.82400 10.04700 23.87700
H  41.78800 11.06300 24.97700
H  46.34300 9.90100 28.33300
H  46.57400 10.62200 29.93200
H  45.82800 11.54600 28.63600
H  42.91800 11.25900 33.59200
H  44.43500 9.18600 37.13900
H  42.72000 9.61700 37.14200
H  43.97600 10.73400 37.73100

