158

Mg -12.01000 38.44500 41.94800
C  -10.09900 35.57600 40.91700
C  -9.60600 40.48700 40.46600
C  -13.98100 41.07800 42.47400
C  -14.46500 36.15800 43.06400
N  -10.07900 38.01600 40.78500
C  -9.45400 36.84700 40.52300
C  -8.10500 37.01600 39.69200
C  -7.91800 38.55500 39.88500
C  -9.32000 39.09100 40.37500
C  -6.75300 38.89400 40.86000
C  -8.37400 36.51300 38.24500
C  -7.31500 35.61000 37.65200
H  -6.35300 36.31000 36.72100
N  -11.89300 40.53500 41.51900
C  -10.77800 41.18300 40.93800
C  -11.02400 42.56600 40.95900
C  -12.32600 42.81600 41.46100
C  -12.82500 41.47100 41.89200
C  -10.04400 43.47000 40.25100
C  -12.89400 44.13600 41.55200
O  -12.38800 45.16300 41.20200
C  -14.34900 44.31100 42.15600
N  -13.92000 38.58200 42.55700
C  -14.54000 39.82500 42.78600
C  -15.96100 39.69600 43.25900
C  -16.18300 38.09300 43.11200
C  -14.75700 37.57700 42.97000
C  -16.19400 40.12400 44.78700
C  -16.98800 37.80400 41.82000
C  -18.39800 37.43800 41.97800
N  -12.27600 36.19500 42.09500
C  -13.26000 35.46100 42.67000
C  -12.92100 34.05700 42.65700
C  -11.63700 34.02000 41.97200
C  -11.40100 35.38700 41.61600
C  -13.66100 32.89000 43.22500
C  -10.58600 33.17000 41.47100
O  -10.35300 31.96400 41.42900
C  -9.56700 34.18100 40.85200
C  -8.28900 33.90500 41.55200
O  -7.82100 34.51600 42.48600
O  -7.55900 33.24600 40.65300
C  -6.07400 33.20200 40.96200
H  -8.83900 40.96800 39.85600
H  -14.54900 41.92000 42.87600
H  -15.29900 35.52100 43.36700
H  -7.34500 36.41300 40.18700
H  -7.60000 39.04600 38.96600
H  -7.03400 39.72800 41.50300
H  -5.87800 39.26900 40.33000
H  -6.47000 38.06000 41.50200
H  -8.41800 37.40400 37.61900
H  -9.33800 36.01400 38.34300
H  -8.00100 34.89200 37.20200
H  -6.66500 35.06200 38.33500
H  -9.30800 43.84400 40.96200
H  -10.63300 44.33500 39.94600
H  -9.52600 43.03100 39.39800
H  -15.03700 43.60600 41.68800
H  -14.56700 45.36200 41.96700
H  -14.17000 44.07600 43.20500
H  -16.68000 40.28300 42.68800
H  -16.64500 37.62400 43.98100
H  -16.67600 41.09700 44.69200
H  -15.23700 40.28400 45.28300
H  -16.84100 39.41400 45.30300
H  -16.46800 37.08700 41.18500
H  -16.91500 38.76200 41.30600
H  -18.64100 36.68900 41.22400
H  -19.10000 38.26400 41.86800
H  -18.61600 36.89100 42.89600
H  -14.13900 32.41300 42.36900
H  -14.33300 33.27500 43.99200
H  -12.98100 32.15900 43.66200
H  -9.59700 33.78200 39.83800
H  -5.77400 34.05700 41.56900
H  -5.54700 33.07200 40.01700
H  -5.75000 32.29800 41.47700
Mg 0.91600 43.03900 26.42000
C  2.97300 43.22800 29.11700
C  -1.77600 42.57400 28.82700
C  -1.38000 42.42600 23.95800
C  3.47600 43.35300 24.20500
N  0.65500 42.70800 28.70800
C  1.70900 42.91000 29.61300
C  1.26500 42.71700 31.00500
C  -0.20900 42.24500 30.78400
C  -0.51000 42.52200 29.30900
C  -0.51600 40.75900 31.21900
C  1.33100 44.10000 31.71200
C  1.14200 44.25300 33.19700
H  0.91900 42.93600 34.01200
N  -1.33000 42.61300 26.37400
C  -2.19100 42.57500 27.45800
C  -3.55300 42.27800 26.99700
C  -3.42000 42.17900 25.54900
C  -1.97500 42.44000 25.21600
C  -4.75600 42.12400 27.94000
C  -4.44800 41.69700 24.61500
O  -4.19700 41.39900 23.46800
C  -5.84400 41.59000 25.14200
N  1.06500 42.67700 24.48400
C  -0.00500 42.46700 23.64800
C  0.44200 42.50800 22.16600
C  1.89800 43.03100 22.21000
C  2.18300 43.07100 23.70300
C  0.30700 41.13100 21.44700
C  2.03100 44.41900 21.52500
C  1.94800 45.68800 22.39900
N  2.81700 43.29600 26.54200
C  3.82500 43.48300 25.61600
C  5.13600 43.71000 26.27500
C  4.82000 43.63900 27.60000
C  3.41300 43.36900 27.74700
C  6.58100 43.77600 25.69700
C  5.33500 43.79600 28.96300
O  6.43900 44.12300 29.33300
C  4.23900 43.45000 29.90900
C  4.64100 42.18600 30.54600
O  4.63700 41.10200 30.11100
O  5.00300 42.52000 31.81700
C  5.71800 41.54900 32.68300
H  -2.63500 42.36600 29.46900
H  -2.05800 42.37500 23.10300
H  4.39600 43.61400 23.67900
H  1.89900 41.95600 31.46000
H  -0.87400 42.86100 31.38900
H  -1.10700 40.28900 30.43300
H  -0.96700 40.75000 32.21100
H  0.36100 40.18000 31.50800
H  0.50700 44.71600 31.34900
H  2.28200 44.55600 31.43900
H  0.33900 44.92000 33.51000
H  2.11100 44.58200 33.57300
H  -5.45000 42.91000 27.63900
H  -4.48000 42.26500 28.98500
H  -5.18500 41.12800 27.82900
H  -5.98000 40.65500 25.68500
H  -6.46300 41.55000 24.24600
H  -6.16000 42.48200 25.68300
H  -0.34300 43.15100 21.76800
H  2.52400 42.27400 21.73800
H  1.24700 40.62000 21.23800
H  -0.27200 41.13800 20.52300
H  -0.29300 40.40400 21.99400
H  1.25400 44.45600 20.76100
H  2.95200 44.33400 20.94900
H  1.27100 46.37200 21.88700
H  2.95700 46.08800 22.49400
H  1.67000 45.63200 23.45100
H  7.18000 43.16400 26.37100
H  6.89800 44.81800 25.75100
H  6.58100 43.37100 24.68600
H  4.10700 44.31300 30.56200
H  6.60400 42.02300 33.10500
H  6.11300 40.71500 32.10300
H  5.11300 41.05000 33.44100

