158

Mg 0.38200 7.45300 25.85300
C  1.39100 9.57700 28.53700
C  0.69200 4.86500 27.99900
C  -0.14900 5.51300 23.27700
C  1.13700 10.12900 23.61000
N  1.30500 7.33300 27.92900
C  1.35800 8.26500 28.86000
C  1.30700 7.71200 30.32900
C  1.27300 6.20300 30.07600
C  1.16500 6.09500 28.53600
C  2.34700 5.33500 30.76100
C  0.11800 8.25100 31.17000
C  -0.04600 7.51500 32.51700
H  1.19300 6.84300 33.21300
N  0.18100 5.46600 25.77600
C  0.22100 4.55000 26.76500
C  -0.11300 3.22200 26.26500
C  -0.37700 3.37300 24.85200
C  -0.17800 4.86500 24.58400
C  0.02200 1.93100 27.15600
C  -0.76400 2.43900 23.83300
O  -1.00400 2.71000 22.64700
C  -0.91100 0.99600 24.28800
N  0.48300 7.81200 23.68200
C  0.27100 6.79500 22.84500
C  0.29600 7.27500 21.36400
C  0.78100 8.67500 21.45200
C  0.72600 8.95400 22.99900
C  1.01600 6.33200 20.36800
C  -0.02000 9.78100 20.63200
C  0.93000 10.67100 19.74200
N  1.05200 9.49800 25.98600
C  1.19200 10.47800 25.07400
C  1.44700 11.75700 25.72000
C  1.57800 11.43900 27.08100
C  1.35800 10.04300 27.14100
C  1.78200 13.01700 24.99400
C  1.84000 11.94700 28.36700
O  2.11500 13.08300 28.78800
C  1.58900 10.78700 29.36000
C  2.59200 10.71100 30.43300
O  3.64900 10.14200 30.32300
O  2.16900 11.34400 31.61500
C  3.16100 11.29000 32.73100
H  0.62000 4.08300 28.75700
H  -0.49900 4.87600 22.46200
H  1.30800 10.90700 22.86300
H  2.29600 7.91200 30.74000
H  0.30800 5.88500 30.47000
H  3.03400 5.89300 31.39700
H  2.95300 4.92400 29.95300
H  1.86900 4.58600 31.39200
H  -0.79900 8.10800 30.59800
H  0.23200 9.30000 31.44300
H  -0.89700 6.85300 32.35400
H  -0.29500 8.32800 33.19800
H  0.88600 1.30600 26.93100
H  -0.92700 1.41600 27.00500
H  0.02700 2.18300 28.21600
H  -1.16900 0.49700 23.35300
H  -1.77100 0.98100 24.95800
H  0.06100 0.72700 24.70100
H  -0.75300 7.26300 21.06800
H  1.80800 8.65300 21.08600
H  1.35900 5.54400 21.03900
H  1.71000 6.99300 19.84800
H  0.26100 5.97900 19.66600
H  -0.57100 10.46100 21.28100
H  -0.84600 9.38600 20.04000
H  0.82100 10.44000 18.68200
H  1.97700 10.51300 20.00000
H  0.70800 11.70700 20.00000
H  2.43000 13.63900 25.61200
H  0.88400 13.56400 24.70900
H  2.32200 12.72800 24.09200
H  0.69000 11.06300 29.91300
H  4.00100 11.85000 32.31900
H  3.28500 10.26600 33.08100
H  2.73100 11.80600 33.58900
Mg 9.59800 47.09300 26.82200
C  7.52800 47.05400 29.76500
C  12.20600 47.76400 28.96800
C  11.35000 47.76600 24.13000
C  6.58100 47.07100 24.87600
N  9.77900 47.43600 29.10300
C  8.86800 47.22800 30.11200
C  9.49800 47.54400 31.53600
C  10.98400 48.05000 31.25300
C  10.97800 47.76600 29.67400
C  11.25400 49.56200 31.63900
C  9.21200 46.34400 32.57900
C  10.16600 46.23500 33.76100
H  9.61900 45.77900 35.11100
N  11.51900 47.37800 26.61200
C  12.44000 47.69900 27.58000
C  13.72900 48.01500 26.94500
C  13.43300 48.15100 25.55500
C  12.05400 47.68800 25.38500
C  14.96800 48.33000 27.73900
C  14.34900 48.63600 24.37600
O  13.98500 48.74100 23.18400
C  15.80800 48.82900 24.68200
N  9.02100 47.50400 24.75300
C  9.99800 47.63900 23.81500
C  9.27100 47.81700 22.40900
C  7.76300 47.46800 22.64700
C  7.79400 47.28100 24.16100
C  9.63700 49.22800 21.82800
C  7.28100 46.23700 21.78400
C  8.01900 44.91000 22.12900
N  7.48800 47.08000 27.13300
C  6.42900 47.00900 26.27400
C  5.19500 47.09300 27.02500
C  5.63400 46.97700 28.34400
C  6.98000 47.01800 28.40500
C  3.84300 47.05000 26.49800
C  5.08600 46.76600 29.70100
O  3.93800 46.69400 30.15600
C  6.38400 46.85000 30.66700
C  6.38800 45.52000 31.36600
O  6.95500 44.46300 31.02600
O  5.66100 45.61800 32.46400
C  5.54700 44.39700 33.31400
H  13.02600 47.94100 29.66600
H  11.82400 48.08900 23.20100
H  5.65700 46.93300 24.31000
H  8.91200 48.41400 31.83200
H  11.70100 47.39300 31.74500
H  11.98500 49.69500 32.43700
H  10.39400 50.03500 32.11300
H  11.53300 50.06900 30.71600
H  9.30100 45.45400 31.95600
H  8.19900 46.42100 32.97400
H  10.72300 47.15600 33.93100
H  10.79400 45.41200 33.41900
H  15.38300 49.24000 27.30400
H  15.70500 47.53400 27.63200
H  14.82300 48.57300 28.79100
H  15.93000 49.82400 25.11100
H  16.40400 48.67100 23.78300
H  16.12000 48.05100 25.38000
H  9.77800 47.18100 21.68400
H  7.19300 48.37900 22.46100
H  10.12300 49.78000 22.63300
H  8.82700 49.76300 21.33200
H  10.39000 49.14800 21.04300
H  7.32300 46.52600 20.73400
H  6.24900 46.06800 22.09200
H  8.63000 44.46000 21.34700
H  7.34400 44.13000 22.48300
H  8.74800 45.03100 22.93000
H  3.71100 48.01100 26.00200
H  3.19100 46.93900 27.36500
H  3.77100 46.31300 25.69700
H  6.30300 47.59100 31.46200
H  5.50500 43.42200 32.82700
H  4.59700 44.39900 33.84800
H  6.42400 44.38300 33.96100

