158

Mg 2.24800 -1.95700 44.07500
C  5.62400 -1.45200 43.43700
C  1.50600 0.79300 42.21800
C  -1.03800 -2.67600 44.46400
C  3.08900 -5.09700 45.54700
N  3.48500 -0.53700 42.95800
C  4.84000 -0.48500 42.77800
C  5.25900 0.71000 41.81900
C  3.92800 1.52000 41.73900
C  2.92300 0.50700 42.34800
C  3.96700 2.97500 42.32300
C  5.89000 0.28400 40.41300
C  6.55300 1.51500 39.71100
H  5.95300 1.96200 38.36500
N  0.47100 -1.05600 43.43200
C  0.36400 0.09000 42.66700
C  -0.95400 0.43900 42.36300
C  -1.72100 -0.51700 43.10200
C  -0.78100 -1.53900 43.72700
C  -1.38800 1.61300 41.57900
C  -3.25200 -0.49600 43.18400
O  -3.89000 0.46800 42.65200
C  -4.10800 -1.63400 43.77100
N  1.26500 -3.68800 44.78800
C  -0.09200 -3.65400 44.91100
C  -0.56100 -5.07100 45.49600
C  0.67700 -5.90900 45.68200
C  1.75500 -4.85600 45.35300
C  -1.42100 -4.98200 46.84800
C  0.81000 -7.12200 44.88000
C  0.21500 -8.36600 45.58300
N  4.00100 -3.06900 44.49200
C  4.16900 -4.27100 45.12200
C  5.55700 -4.53300 45.29300
C  6.21100 -3.44100 44.75100
C  5.21400 -2.59300 44.17600
C  6.29700 -5.77600 45.95500
C  7.47700 -2.79000 44.52400
O  8.58500 -3.06900 44.95000
C  7.20400 -1.50900 43.56900
C  7.71900 -0.26100 44.17800
O  8.69800 0.36400 43.78600
O  6.88000 0.12900 45.15400
C  7.16400 1.48200 45.71800
H  1.37200 1.74900 41.70600
H  -2.05600 -2.82700 44.82900
H  3.54700 -6.00600 45.94200
H  5.99500 1.15800 42.48600
H  3.66100 1.59600 40.68500
H  4.87100 3.09600 42.91900
H  3.15700 2.90400 43.05000
H  3.87100 3.71000 41.52400
H  5.15200 -0.16400 39.74800
H  6.70900 -0.42800 40.51500
H  7.61700 1.50900 39.47800
H  6.51400 2.27800 40.48800
H  -1.91100 1.26800 40.68700
H  -0.58000 2.25400 41.22600
H  -2.09200 2.26300 42.09800
H  -5.14600 -1.35700 43.58600
H  -3.92800 -1.75500 44.83900
H  -3.84600 -2.60000 43.34000
H  -1.02500 -5.54700 44.63200
H  0.76600 -6.18700 46.73300
H  -2.49700 -5.09600 46.71600
H  -1.14400 -4.18700 47.54100
H  -1.24400 -5.88600 47.43100
H  1.85100 -7.21100 44.56800
H  0.29700 -7.01900 43.92400
H  -0.41000 -8.10800 46.43800
H  0.98100 -9.06600 45.91500
H  -0.41000 -8.92300 44.88500
H  6.06200 -6.67600 45.38700
H  5.86200 -5.95900 46.93800
H  7.37300 -5.63800 46.06100
H  7.85500 -1.65700 42.70800
H  6.28600 1.96900 46.14300
H  7.45800 2.14500 44.90500
H  7.94200 1.44800 46.48100
Mg 17.51900 52.04100 26.42300
C  19.22300 50.62600 28.99000
C  15.05300 53.27100 28.53900
C  15.71200 52.95400 23.73900
C  19.73700 50.37600 24.16300
N  17.21600 51.92800 28.55200
C  18.05900 51.30300 29.42600
C  17.46900 51.51400 30.86700
C  16.01200 52.01000 30.60000
C  16.02500 52.43700 29.15000
C  14.91400 50.92700 30.76800
C  18.19800 52.71000 31.55700
C  18.19300 52.75200 33.12300
H  17.08700 52.03700 33.93900
N  15.77300 53.22100 26.22600
C  14.98700 53.64600 27.17600
C  14.05800 54.62500 26.59300
C  14.08900 54.44100 25.17600
C  15.27100 53.53300 24.99400
C  13.16000 55.42900 27.52100
C  13.26600 55.04700 24.01500
O  13.55600 54.97700 22.82000
C  12.18000 55.99300 24.42400
N  17.61000 51.60800 24.33100
C  16.78400 52.15000 23.41000
C  17.17600 51.94700 21.93300
C  18.57600 51.23700 22.11400
C  18.64400 51.01000 23.57600
C  16.08700 51.25300 21.12600
C  19.81200 52.10900 21.62600
C  21.18300 51.41800 21.49000
N  19.13200 50.76700 26.54800
C  19.98200 50.29600 25.55000
C  20.98900 49.55400 26.20200
C  20.82600 49.77600 27.56400
C  19.64000 50.41000 27.73300
C  22.09100 48.78600 25.55800
C  21.40300 49.42300 28.85400
O  22.42000 48.84200 29.16000
C  20.34600 49.99300 29.91100
C  19.95200 49.00600 30.94300
O  19.63300 47.85200 30.67600
O  20.13600 49.51200 32.14200
C  19.81000 48.55300 33.25900
H  14.16900 53.51200 29.13300
H  15.24100 53.26200 22.80400
H  20.48000 49.87600 23.53900
H  17.24200 50.67600 31.52600
H  15.64700 52.81000 31.24400
H  13.97300 51.25500 31.21000
H  15.29400 50.08800 31.35200
H  14.78000 50.59800 29.73800
H  17.88100 53.68900 31.19800
H  19.21600 52.51300 31.22100
H  18.24200 53.79800 33.42300
H  19.07700 52.21700 33.47000
H  13.52600 55.41200 28.54800
H  12.15800 55.00600 27.59400
H  13.10000 56.48000 27.24100
H  12.62900 56.96300 24.63900
H  11.57800 55.68100 25.27600
H  11.53100 56.11500 23.55700
H  17.38300 52.94100 21.53900
H  18.61900 50.28500 21.58400
H  16.52300 50.36300 20.67100
H  15.66600 51.87100 20.33200
H  15.22800 50.96700 21.73300
H  19.96700 52.85600 22.40400
H  19.57000 52.63200 20.70100
H  21.77900 51.69600 22.35900
H  21.76300 51.80000 20.65000
H  21.16300 50.34300 21.31300
H  23.04600 49.09000 25.98700
H  22.01900 48.91600 24.47800
H  22.08900 47.70100 25.66000
H  20.80900 50.80500 30.47100
H  20.76000 48.36500 33.75800
H  19.21500 47.65600 33.08500
H  19.28600 49.07800 34.05800

