158

Mg 9.93200 46.68500 26.29200
C  7.64400 47.12100 28.97000
C  12.32400 48.17300 28.31500
C  11.85600 46.80000 23.58100
C  7.19600 46.02300 24.27600
N  10.07200 47.26100 28.41100
C  9.01200 47.29900 29.34400
C  9.47200 47.67600 30.81300
C  10.77800 48.39100 30.41800
C  11.13300 47.82300 29.01200
C  10.58400 49.96200 30.43200
C  9.62400 46.34300 31.65300
C  9.33500 46.42300 33.13700
H  10.06900 45.39100 34.02400
N  11.89600 47.22700 25.97400
C  12.69800 47.85000 26.96000
C  14.01400 47.92500 26.43800
C  13.94600 47.55100 25.06200
C  12.56900 47.21900 24.80000
C  15.20000 48.41500 27.24200
C  15.09800 47.45300 24.02100
O  14.77000 47.12200 22.89500
C  16.47300 47.66900 24.32400
N  9.56700 46.54100 24.17400
C  10.59300 46.49500 23.28400
C  10.05200 46.25000 21.80300
C  8.58500 45.85100 22.10200
C  8.45600 46.01600 23.62600
C  10.32000 47.47200 20.92400
C  7.97900 44.51100 21.51200
C  7.43700 44.60300 20.07100
N  7.84700 46.76000 26.50500
C  6.86600 46.41100 25.62300
C  5.55900 46.44900 26.23100
C  5.79700 46.68900 27.61000
C  7.19400 46.90700 27.68600
C  4.20400 46.22900 25.52600
C  5.17100 46.88200 28.87500
O  3.97900 46.81900 29.21200
C  6.29500 47.34400 29.77300
C  6.10400 46.52700 31.04500
O  6.47900 45.35900 31.15900
O  5.43700 47.21400 32.01900
C  5.17400 46.35400 33.16400
H  13.05300 48.71100 28.92400
H  12.42300 46.94700 22.65900
H  6.32700 45.66300 23.72100
H  8.74800 48.35200 31.26900
H  11.58700 48.15100 31.10800
H  10.40200 50.32100 29.41900
H  11.47700 50.42400 30.85200
H  9.79600 50.28000 31.11500
H  10.64400 45.96700 31.57200
H  8.91400 45.66100 31.18600
H  8.27700 46.19200 33.26100
H  9.48500 47.45200 33.46300
H  15.03400 48.42200 28.32000
H  15.72200 49.28300 26.84100
H  15.94900 47.62300 27.24600
H  16.89600 46.86700 24.92900
H  16.69000 48.47500 25.02400
H  16.95000 47.84800 23.36000
H  10.55300 45.43300 21.28500
H  7.86600 46.56700 21.70400
H  10.99900 48.17100 21.41300
H  9.38800 47.96100 20.64200
H  10.71900 47.12900 19.96900
H  7.11800 44.21900 22.11300
H  8.78200 43.78300 21.63400
H  8.15100 44.11000 19.41100
H  7.36400 45.57600 19.58500
H  6.42400 44.22300 19.93900
H  3.84000 45.25200 25.84200
H  4.25200 46.31000 24.44000
H  3.42600 46.91900 25.85200
H  6.22600 48.39100 30.06700
H  4.29400 46.82700 33.59900
H  6.07800 46.24700 33.76500
H  4.82100 45.33100 33.03300
Mg -6.12100 24.85600 25.80500
C  -4.42800 26.12100 28.69100
C  -7.69500 22.66200 27.76100
C  -7.20300 23.36500 23.08400
C  -4.05200 27.05000 23.90400
N  -6.06700 24.56200 28.02800
C  -5.44900 25.19400 29.02700
C  -5.93300 24.73900 30.40200
C  -6.76200 23.50400 30.00600
C  -6.84300 23.56700 28.52300
C  -5.94100 22.18600 30.38500
C  -6.63300 25.87300 31.22300
C  -6.37900 25.98300 32.76400
H  -5.94800 24.72700 33.50900
N  -7.42500 23.28000 25.48600
C  -8.04000 22.59200 26.41000
C  -9.07900 21.74900 25.74600
C  -8.92600 21.94900 24.31700
C  -7.79100 22.87600 24.23200
C  -10.04900 20.84000 26.53700
C  -9.66300 21.40900 23.14100
O  -9.39700 21.62300 21.98100
C  -10.71100 20.44300 23.50100
N  -5.49700 24.99300 23.80700
C  -6.20600 24.30000 22.86100
C  -5.56300 24.65200 21.42400
C  -4.66100 25.87700 21.71200
C  -4.60900 25.93300 23.28400
C  -4.81500 23.53000 20.67500
C  -5.21600 27.23500 21.08000
C  -4.24600 28.24500 20.53400
N  -4.58700 26.32200 26.16700
C  -3.91400 27.18200 25.29200
C  -2.97800 28.02700 26.00400
C  -3.17000 27.63100 27.38400
C  -4.15800 26.61400 27.43300
C  -1.97800 28.88500 25.40800
C  -2.68900 27.90000 28.72500
O  -1.90100 28.71600 29.17100
C  -3.46100 26.88500 29.61600
C  -2.48400 26.03800 30.37500
O  -1.77700 25.17600 29.87500
O  -2.44900 26.41100 31.72200
C  -1.67100 25.52000 32.54100
H  -8.22600 21.89800 28.33300
H  -7.57500 22.89800 22.16900
H  -3.33300 27.60900 23.30200
H  -4.99600 24.54800 30.92500
H  -7.78200 23.55800 30.38400
H  -5.64700 22.30200 31.42900
H  -5.10200 22.18600 29.69000
H  -6.56400 21.29900 30.27400
H  -7.68100 25.80400 30.93100
H  -6.20100 26.80500 30.86000
H  -7.35700 26.22400 33.17900
H  -5.66200 26.76100 33.02700
H  -11.07000 20.95600 26.17500
H  -9.85600 20.99800 27.59800
H  -9.87400 19.77600 26.37600
H  -11.13400 20.12500 22.54800
H  -11.53600 21.03600 23.89400
H  -10.43300 19.52600 24.02100
H  -6.39400 24.98600 20.80200
H  -3.66900 25.70100 21.29500
H  -4.79700 22.75700 21.44300
H  -3.79700 23.88600 20.51500
H  -5.32800 23.26900 19.74900
H  -5.71400 27.72400 21.91700
H  -5.92500 27.04200 20.27400
H  -3.22000 27.87700 20.53000
H  -4.35000 29.15400 21.12700
H  -4.52300 28.47700 19.50500
H  -1.25900 29.25300 26.14100
H  -2.49700 29.73200 24.95900
H  -1.44000 28.37300 24.61100
H  -3.96100 27.56600 30.30500
H  -0.60300 25.71900 32.45300
H  -1.77000 24.43600 32.50300
H  -2.05600 25.79000 33.52400

