158

Mg 43.67300 42.44800 26.68200
C  42.58900 44.70400 29.09700
C  45.08600 40.41200 29.06000
C  44.91000 40.41000 24.21400
C  42.74900 44.70200 24.20000
N  43.71300 42.51000 28.78600
C  43.19800 43.55100 29.61600
C  43.34000 43.17800 31.10700
C  44.48100 42.05700 31.00600
C  44.48300 41.63400 29.52300
C  45.94600 42.56900 31.39100
C  42.01100 42.87500 31.78800
C  41.70100 43.67300 33.06300
H  42.49400 43.40700 34.30200
N  44.75300 40.53800 26.64400
C  45.28300 39.94800 27.75200
C  45.83300 38.63400 27.36100
C  45.69400 38.52400 25.89700
C  45.12800 39.85300 25.51500
C  46.27100 37.58400 28.34100
C  45.96800 37.34900 24.94900
O  45.80600 37.44000 23.70500
C  46.49800 36.00600 25.51100
N  44.01600 42.66700 24.56800
C  44.50900 41.65100 23.76100
C  44.32800 42.02900 22.23300
C  43.72000 43.40800 22.31400
C  43.41300 43.60000 23.80000
C  45.63400 41.86300 21.42400
C  42.60900 43.78500 21.25600
C  41.23400 43.11700 21.40300
N  42.75200 44.30800 26.57400
C  42.50500 45.17200 25.52100
C  41.96700 46.38400 25.96100
C  41.96800 46.29400 27.42400
C  42.45500 44.98800 27.73500
C  41.75000 47.61400 25.19200
C  41.66700 46.91100 28.71400
O  41.19000 48.03500 28.96400
C  42.14000 45.95400 29.84200
C  43.13600 46.60900 30.67600
O  44.33700 46.63400 30.33500
O  42.60700 47.16900 31.84100
C  43.49200 47.94000 32.69700
H  45.49600 39.75300 29.82800
H  45.32800 39.71200 23.48500
H  42.44200 45.36500 23.38900
H  43.73400 44.01800 31.67900
H  44.30200 41.23800 31.70300
H  46.05000 43.63000 31.61700
H  46.57100 42.41800 30.51100
H  46.49200 41.98200 32.12900
H  42.02800 41.82700 32.08700
H  41.21200 43.02800 31.06300
H  40.64700 43.58700 33.32700
H  41.86900 44.69700 32.72800
H  45.50400 36.82300 28.48600
H  46.65500 38.09300 29.22500
H  47.12800 37.11100 27.86200
H  45.93300 35.56000 26.33000
H  47.49000 36.20300 25.91800
H  46.60600 35.30900 24.68000
H  43.52200 41.48100 21.74600
H  44.52600 44.11400 22.11400
H  45.33100 41.74500 20.38300
H  46.23300 41.11000 21.93400
H  46.15500 42.82100 21.41600
H  43.07900 43.50800 20.31200
H  42.46900 44.86500 21.22100
H  40.93300 42.71200 20.43700
H  40.48300 43.83900 21.72300
H  41.27400 42.35800 22.18500
H  42.66800 48.15500 24.96200
H  41.08800 48.33300 25.67500
H  41.28100 47.16600 24.31600
H  41.20000 45.90500 30.39100
H  44.49000 48.00200 32.26300
H  43.44900 47.51200 33.69900
H  43.07200 48.93100 32.87000
Mg 7.89700 52.03300 41.08700
C  7.45000 48.60700 40.70500
C  11.20400 51.57400 40.25500
C  8.20600 55.23800 41.40900
C  4.32300 52.31700 41.89400
N  9.20700 50.34300 40.55300
C  8.78400 49.05300 40.42700
C  9.90300 48.25700 39.97800
C  11.19200 49.01400 40.31400
C  10.53200 50.41300 40.42700
C  12.12200 48.62400 41.46900
C  9.83100 47.82800 38.46400
C  9.26800 48.87500 37.54900
H  8.68200 48.38400 36.24000
N  9.44000 53.23700 40.68500
C  10.72200 52.86200 40.32700
C  11.49200 54.06600 40.23100
C  10.65200 55.19200 40.50100
C  9.38000 54.62100 40.86400
C  12.93900 54.05500 39.78600
C  11.07600 56.62500 40.43800
O  12.21500 56.90400 40.27600
C  10.04700 57.82900 40.52600
N  6.46400 53.61600 41.53000
C  6.90400 54.83000 41.71300
C  5.76900 55.85900 42.13600
C  4.53100 54.87200 42.26800
C  5.13100 53.49800 41.92800
C  5.97800 56.83300 43.26900
C  3.25800 55.19500 41.37800
C  1.97800 55.60900 42.14600
N  6.22500 50.79800 41.17800
C  4.84000 50.98100 41.59800
C  4.12800 49.70500 41.62900
C  5.11700 48.77300 41.26200
C  6.31300 49.46900 41.01400
C  2.68400 49.36300 41.96200
C  5.35400 47.36100 41.14600
O  4.60000 46.41700 41.33200
C  6.90400 47.18300 40.79300
C  6.90000 46.45400 39.50700
O  6.53900 46.95600 38.46700
O  7.21500 45.16100 39.71300
C  6.71100 44.34600 38.66200
H  12.25100 51.39900 40.00000
H  8.28000 56.32400 41.50400
H  3.29100 52.45800 42.22000
H  9.88100 47.33500 40.55700
H  11.84700 49.20500 39.46400
H  11.70600 47.85500 42.11900
H  12.09000 49.53700 42.06400
H  13.17800 48.41800 41.29400
H  9.23000 46.92900 38.32800
H  10.84600 47.60600 38.13400
H  10.02900 49.64400 37.41700
H  8.37500 49.30100 38.00400
H  13.40500 53.08100 39.63200
H  13.61300 54.65100 40.40000
H  13.00800 54.44600 38.77100
H  9.89200 58.01100 41.59000
H  9.12800 57.66200 39.96500
H  10.49900 58.64600 39.96300
H  5.67500 56.50600 41.26400
H  4.11100 54.65800 43.25100
H  5.43300 56.57500 44.17700
H  5.73000 57.81600 42.86800
H  7.01500 56.79400 43.60200
H  2.99200 54.39900 40.68200
H  3.55500 55.99500 40.70000
H  1.96500 55.19000 43.15200
H  1.19100 55.15200 41.54600
H  1.96200 56.69500 42.05700
H  2.21600 50.31500 42.21300
H  2.68100 48.56500 42.70400
H  2.17600 48.98500 41.07500
H  7.24700 46.52400 41.59100
H  7.19100 44.61100 37.72000
H  5.62200 44.40600 38.65800
H  7.00900 43.31400 38.84700

