158

Mg 41.80000 41.15500 26.87800
C  40.91200 43.31500 29.56000
C  42.85300 38.95800 29.36900
C  43.16800 39.27100 24.50400
C  40.84300 43.52100 24.65000
N  41.82500 41.20900 29.28500
C  41.42200 42.14300 30.16800
C  41.58300 41.78600 31.69300
C  42.31900 40.43100 31.47000
C  42.38100 40.19800 29.90300
C  43.72600 40.41100 32.13600
C  40.13400 41.78200 32.47100
C  40.05300 40.99800 33.84800
H  39.91700 41.77200 35.12900
N  42.85000 39.40000 26.96400
C  43.11700 38.64000 28.03900
C  43.74200 37.44000 27.62700
C  43.98200 37.56100 26.23900
C  43.32200 38.78300 25.83800
C  44.07600 36.33500 28.57900
C  44.66400 36.55400 25.33300
O  44.76900 36.75800 24.13300
C  45.30400 35.34500 25.92100
N  42.21500 41.42200 24.92700
C  42.54100 40.45200 24.11200
C  42.26700 40.82600 22.63400
C  41.20700 41.87500 22.78100
C  41.42800 42.29600 24.20000
C  43.53600 41.28600 21.85000
C  39.73300 41.63000 22.31000
C  39.00100 40.33400 22.77100
N  41.10700 43.08700 27.03800
C  40.80800 43.91200 26.00000
C  40.31800 45.11700 26.51000
C  40.37200 44.93600 27.92800
C  40.80400 43.64600 28.16700
C  39.87800 46.25800 25.74300
C  39.99500 45.56600 29.17300
O  39.50500 46.69300 29.46000
C  40.20200 44.49700 30.22100
C  41.13900 45.04100 31.27000
O  42.23600 45.57600 31.13000
O  40.51400 44.97900 32.48100
C  41.15000 45.62200 33.67500
H  43.00100 38.22900 30.16800
H  43.47200 38.65600 23.65400
H  40.38600 44.14200 23.87700
H  42.27800 42.55300 32.03500
H  41.70400 39.64400 31.90600
H  44.03400 41.22700 32.78900
H  44.42500 40.26200 31.31300
H  43.79700 39.58800 32.84600
H  39.37300 41.43000 31.77500
H  39.87400 42.81300 32.71400
H  41.03500 40.52800 33.89000
H  39.38200 40.14200 33.91400
H  45.14300 36.45600 28.76600
H  43.71700 35.38600 28.18000
H  43.53300 36.41800 29.52100
H  46.03700 35.70300 26.64500
H  45.86600 34.78400 25.17500
H  44.65500 34.61800 26.41000
H  41.79700 39.96100 22.16500
H  41.52900 42.67000 22.10900
H  44.36800 40.77300 22.33200
H  43.71500 42.33300 22.09500
H  43.56700 41.06700 20.78300
H  39.67100 41.62300 21.22100
H  39.16900 42.48000 22.69300
H  38.46600 39.86200 21.94600
H  38.24300 40.64200 23.49100
H  39.75200 39.76400 23.31800
H  39.57400 45.96600 24.73800
H  40.64800 47.01200 25.58100
H  38.95600 46.63700 26.18500
H  39.18000 44.32300 30.56000
H  41.68300 44.88400 34.27400
H  40.37800 46.14300 34.24100
H  41.78000 46.46900 33.40100
Mg -9.75100 40.12900 41.50900
C  -8.57800 36.85100 40.61800
C  -6.82600 41.38900 40.33700
C  -11.19600 43.09800 41.67400
C  -12.85500 38.69200 42.25700
N  -7.95300 39.20500 40.49400
C  -7.64800 37.85300 40.38400
C  -6.28400 37.71200 39.74100
C  -5.60100 39.07700 40.08000
C  -6.88000 39.96400 40.40100
C  -4.64100 39.08800 41.28700
C  -6.41600 37.41400 38.16800
C  -5.59900 36.32000 37.51300
H  -4.40700 36.81500 36.60700
N  -9.01100 41.97100 41.29300
C  -7.85200 42.30700 40.67700
C  -7.84700 43.75000 40.61800
C  -9.00000 44.27500 41.18600
C  -9.82800 43.10900 41.40900
C  -6.64500 44.43600 40.12000
C  -9.30100 45.74600 41.32400
O  -8.39300 46.55300 41.05200
C  -10.61600 46.24400 41.89000
N  -11.81900 40.80400 42.08800
C  -12.10800 42.12600 42.02900
C  -13.64300 42.31400 42.12000
C  -14.11100 40.92000 42.60500
C  -12.89300 40.06300 42.30700
C  -14.20000 43.46500 43.08100
C  -15.29800 40.41900 41.81500
C  -16.22800 39.42500 42.53200
N  -10.51000 38.17400 41.57200
C  -11.80900 37.77900 41.90300
C  -11.90100 36.34100 41.87900
C  -10.66200 35.95400 41.34300
C  -9.84200 37.12300 41.12100
C  -13.23900 35.59100 42.23900
C  -9.83700 34.80200 40.91600
O  -10.09600 33.58900 40.97500
C  -8.52100 35.35900 40.46400
C  -7.42300 34.75600 41.20100
O  -7.28600 34.87500 42.39600
O  -6.47800 34.14700 40.35500
C  -5.36700 33.70800 41.11800
H  -5.92700 41.84800 39.91900
H  -11.66200 44.08500 41.70500
H  -13.83900 38.31200 42.54000
H  -5.81700 36.92600 40.33300
H  -5.07200 39.44700 39.20300
H  -4.64400 38.10400 41.75500
H  -4.88300 39.77900 42.09400
H  -3.63000 39.26900 40.92000
H  -6.06000 38.34000 37.71500
H  -7.43700 37.23500 37.83100
H  -6.33600 35.71900 36.98000
H  -5.20100 35.74400 38.34800
H  -6.81500 44.62800 39.06100
H  -5.73500 43.85000 40.25100
H  -6.41600 45.38000 40.61600
H  -10.67100 45.94600 42.93700
H  -11.51100 46.00700 41.31400
H  -10.52000 47.32600 41.97400
H  -13.90500 42.57100 41.09400
H  -14.19400 40.89600 43.69200
H  -13.40000 43.82100 43.73100
H  -14.89800 43.02000 43.78900
H  -14.61600 44.31600 42.54100
H  -14.93300 39.90800 40.92400
H  -15.87200 41.25200 41.40900
H  -17.30200 39.58100 42.43200
H  -15.92100 39.38200 43.57700
H  -15.95100 38.50900 42.00900
H  -13.82600 35.31600 41.36300
H  -13.87800 36.20400 42.87400
H  -12.97900 34.63200 42.68600
H  -8.41900 35.10900 39.40800
H  -4.80900 34.50400 41.61200
H  -4.75700 33.07700 40.47200
H  -5.70700 32.97700 41.85100

