158

Mg 2.04800 -2.31900 45.00800
C  5.56800 -1.41300 44.88900
C  1.36300 0.53100 43.28200
C  -0.92900 -3.52400 44.66300
C  3.14500 -5.59900 46.07500
N  3.35600 -0.79100 44.02100
C  4.71800 -0.54500 44.12600
C  5.14200 0.61500 43.23500
C  3.79200 1.24700 42.80500
C  2.75800 0.34200 43.43100
C  3.74900 2.68000 43.39200
C  5.88800 -0.00600 42.04800
C  7.16800 0.73000 41.68700
H  7.48000 0.70200 40.14900
N  0.35700 -1.49800 44.30100
C  0.22600 -0.32900 43.62800
C  -1.16200 -0.09900 43.21100
C  -1.79200 -1.38000 43.42500
C  -0.77500 -2.21000 44.12300
C  -1.56900 1.12200 42.60800
C  -3.23600 -1.68600 43.09800
O  -3.94100 -0.89200 42.62400
C  -3.85900 -3.10500 43.23800
N  1.23400 -4.32700 45.29700
C  -0.08800 -4.47800 45.18900
C  -0.57500 -5.87400 45.68000
C  0.77000 -6.46300 46.22200
C  1.77100 -5.39600 45.82100
C  -1.66800 -5.78100 46.87500
C  1.03400 -7.87100 45.58200
C  1.68900 -8.96300 46.37300
N  3.96500 -3.31200 45.47400
C  4.21800 -4.64300 45.90800
C  5.68000 -4.73800 46.08400
C  6.22800 -3.50600 45.73300
C  5.14400 -2.69300 45.39300
C  6.34000 -5.96100 46.54700
C  7.47600 -2.74900 45.71400
O  8.61900 -3.06900 46.10900
C  7.07200 -1.37900 45.02200
C  7.60100 -0.24800 45.91400
O  7.47600 -0.28400 47.13300
O  8.16500 0.78400 45.13300
C  8.42600 2.01100 45.95500
H  1.17300 1.41000 42.66200
H  -1.97100 -3.83200 44.55200
H  3.40100 -6.62500 46.34900
H  5.68600 1.32300 43.86000
H  3.60500 1.31700 41.73400
H  4.32700 3.43200 42.85600
H  3.95900 2.65700 44.46200
H  2.72700 3.05700 43.34500
H  5.33700 -0.04400 41.10800
H  6.17300 -1.03600 42.25800
H  7.99400 0.31500 42.26400
H  7.11700 1.77500 41.99400
H  -1.19900 1.12400 41.58200
H  -1.18000 1.93500 43.22100
H  -2.65500 1.21000 42.61200
H  -3.18100 -3.86300 42.84600
H  -4.78900 -3.09600 42.67000
H  -3.92200 -3.30500 44.30800
H  -0.88700 -6.44700 44.80700
H  0.68300 -6.54800 47.30500
H  -1.87800 -4.71800 46.99200
H  -1.23600 -6.15600 47.80300
H  -2.54600 -6.39500 46.67300
H  1.65800 -7.73000 44.70000
H  0.06400 -8.14700 45.16900
H  2.27900 -9.61200 45.72500
H  0.90500 -9.63400 46.72400
H  2.35300 -8.66300 47.18300
H  5.89000 -6.32300 47.47200
H  7.42700 -5.88100 46.56500
H  6.13200 -6.66600 45.74200
H  7.52800 -1.29100 44.03700
H  8.59300 2.84200 45.26900
H  9.35000 1.88700 46.52000
H  7.57200 2.19500 46.60600
Mg 44.76800 4.68200 48.25500
C  42.66100 7.44200 47.35300
C  42.21800 2.62100 47.40200
C  46.99000 2.14000 48.37000
C  47.48200 6.99000 48.47400
N  42.68600 4.95800 47.42300
C  42.00400 6.17900 47.14200
C  40.52400 5.90000 46.62500
C  40.43500 4.35900 46.96400
C  41.84200 3.94800 47.37700
C  39.46600 4.11600 48.16400
C  40.47500 6.16200 45.07700
C  39.02000 6.46400 44.49100
H  38.89400 7.39100 43.26200
N  44.64100 2.71100 48.04600
C  43.51500 2.01000 47.64400
C  43.84300 0.63700 47.79300
C  45.18400 0.43200 48.21800
C  45.63400 1.81300 48.26400
C  42.75900 -0.48800 47.56400
C  45.75500 -0.89500 48.66100
O  45.08200 -1.91500 48.65000
C  47.19600 -0.93600 49.30400
N  46.92000 4.58300 48.30500
C  47.59400 3.40000 48.44900
C  49.06300 3.59800 48.52400
C  49.23300 5.19100 48.42000
C  47.82800 5.66500 48.40200
C  49.70300 2.90000 49.73800
C  50.11100 5.66700 47.18500
C  51.35800 6.52800 47.43800
N  45.13500 6.80100 47.94700
C  46.24100 7.59300 48.17900
C  45.93800 8.98200 47.94900
C  44.50100 9.01400 47.74000
C  44.08400 7.68100 47.69600
C  46.96900 10.14500 48.04600
C  43.27500 9.85300 47.45300
O  43.17600 11.08800 47.30700
C  42.07400 8.87300 47.20500
C  41.03000 9.27400 48.16400
O  40.98200 8.84300 49.34200
O  40.10500 10.26000 47.58000
C  38.99300 10.69600 48.49000
H  41.35100 1.97100 47.26400
H  47.81300 1.44700 48.55600
H  48.32300 7.68500 48.53100
H  39.84600 6.52800 47.20400
H  40.16500 3.70200 46.13700
H  39.08600 5.06400 48.54700
H  39.92600 3.62200 49.01900
H  38.66400 3.43000 47.89100
H  40.74600 5.31800 44.44300
H  41.23000 6.85200 44.70000
H  38.43400 6.86900 45.31700
H  38.67500 5.44500 44.31700
H  41.96300 -0.18900 46.88100
H  42.22400 -0.61600 48.50500
H  43.26000 -1.35400 47.13300
H  47.30800 -1.97200 49.62300
H  47.38900 -0.21100 50.09500
H  47.91600 -0.87500 48.48800
H  49.46500 3.13200 47.62400
H  49.76000 5.61600 49.27400
H  50.39300 2.11700 49.42300
H  48.96400 2.48200 50.42100
H  50.26900 3.64800 50.29300
H  49.38900 6.35500 46.74700
H  50.39300 4.92900 46.43300
H  51.60500 6.41700 48.49300
H  51.17900 7.59900 47.33800
H  52.17100 6.25800 46.76300
H  47.13400 10.50700 49.06100
H  46.64200 11.00100 47.45600
H  47.92500 9.73400 47.72200
H  41.76600 9.01200 46.16900
H  38.09000 10.92400 47.92300
H  39.33000 11.61800 48.96400
H  38.70700 9.98700 49.26700

