158

Mg 49.09600 34.87900 26.76800
C  47.25300 33.52900 29.53300
C  49.27800 37.84900 28.56200
C  50.35800 36.46800 23.96400
C  48.07800 32.25800 24.86300
N  48.63400 35.46100 28.96600
C  47.82400 34.75100 29.81500
C  47.78900 35.52300 31.12600
C  48.14800 37.00600 30.70900
C  48.76400 36.72900 29.33600
C  46.92900 38.00700 30.68000
C  48.66700 34.90500 32.29500
C  47.82800 34.84400 33.65300
H  47.26200 36.10500 34.26700
N  49.92000 36.79000 26.44000
C  49.88600 37.83000 27.31400
C  50.62300 38.94100 26.73500
C  51.00000 38.53000 25.42000
C  50.36300 37.18000 25.20800
C  51.13200 40.12100 27.59500
C  51.87400 39.20800 24.40000
O  52.17900 38.62700 23.35700
C  52.39500 40.61300 24.65700
N  49.17700 34.42600 24.71500
C  49.83300 35.18300 23.73800
C  49.85400 34.42600 22.36400
C  49.26100 32.98900 22.74700
C  48.81300 33.21800 24.16400
C  48.99500 35.24700 21.33700
C  50.26000 31.82900 22.76800
C  49.93900 30.58000 21.89900
N  47.93100 33.17700 27.07300
C  47.62300 32.18900 26.22700
C  46.79400 31.17500 26.79200
C  46.63400 31.65400 28.11900
C  47.30600 32.90000 28.22000
C  46.17600 29.91900 26.12100
C  46.01100 31.42800 29.45300
O  45.28700 30.50400 29.85900
C  46.36800 32.64300 30.35600
C  47.09100 32.05700 31.53800
O  48.27700 31.72900 31.60400
O  46.04200 31.66900 32.48400
C  46.44600 30.69100 33.47700
H  49.24500 38.86700 28.95500
H  50.77700 37.08300 23.16500
H  47.90500 31.32700 24.32000
H  46.77500 35.34200 31.48500
H  48.87200 37.40100 31.42200
H  46.05200 37.58900 31.17300
H  46.75000 38.28700 29.64200
H  47.12200 38.86600 31.32200
H  49.47000 35.62800 32.44200
H  49.13700 33.98400 31.95200
H  48.51800 34.42600 34.38500
H  47.00200 34.15100 33.49100
H  51.39600 39.79200 28.60000
H  50.47800 40.98000 27.44600
H  52.14400 40.34500 27.25700
H  52.61700 40.88700 23.62600
H  53.38200 40.49600 25.10500
H  51.71400 41.33300 25.11000
H  50.86500 34.37400 21.96000
H  48.34200 32.69400 22.24000
H  48.03100 34.81900 21.06300
H  49.65100 35.30000 20.46800
H  48.86500 36.25700 21.72700
H  50.46300 31.40500 23.75100
H  51.26900 32.10700 22.46200
H  49.43400 29.79600 22.46300
H  50.85700 30.13100 21.51900
H  49.40600 30.84000 20.98400
H  45.29700 29.65400 26.70900
H  46.89100 29.09800 26.07900
H  45.80600 30.06600 25.10600
H  45.49400 33.21300 30.67300
H  46.34300 29.72100 32.99000
H  45.68600 30.74600 34.25600
H  47.48300 30.87500 33.75500
Mg 5.60800 54.59200 39.79700
C  4.21200 51.25900 39.80100
C  8.60100 53.16500 39.30200
C  6.66800 57.67300 39.28800
C  2.24500 55.83900 39.93700
N  6.23000 52.44200 39.62100
C  5.54100 51.22000 39.62200
C  6.47300 50.10400 39.52300
C  7.84700 50.74900 39.90700
C  7.55300 52.22800 39.56600
C  8.20700 50.48900 41.35600
C  6.57900 49.34800 38.14700
C  6.49900 50.26300 36.90700
H  5.23600 49.98200 36.06900
N  7.41500 55.34900 39.36600
C  8.51900 54.58000 39.18200
C  9.60400 55.51100 38.88600
C  9.14800 56.88000 38.87800
C  7.72100 56.72300 39.26400
C  11.02800 55.07400 38.67200
C  9.94400 58.17400 38.80400
O  11.14400 58.09700 38.67300
C  9.28200 59.52300 38.71000
N  4.62800 56.49300 39.89200
C  5.34600 57.57900 39.56000
C  4.35700 58.78200 39.41900
C  2.93200 58.23200 39.65400
C  3.27200 56.74800 39.91800
C  4.80700 60.09300 40.03400
C  1.88300 58.58900 38.61300
C  0.44000 58.90000 39.11900
N  3.70500 53.81900 39.95200
C  2.42200 54.43900 40.02200
C  1.36400 53.43400 40.32900
C  2.05200 52.18600 40.24300
C  3.41400 52.46900 39.98100
C  -0.13600 53.55700 40.48600
C  1.89500 50.76400 40.29500
O  0.86200 50.13100 40.50900
C  3.21000 50.13500 40.00200
C  3.01200 49.13400 38.95800
O  2.46000 49.38200 37.84900
O  3.42900 47.88400 39.42300
C  3.40100 46.75500 38.45700
H  9.61800 52.83400 39.51900
H  7.07000 58.64700 39.00300
H  1.23400 56.24000 40.02500
H  6.18100 49.34300 40.24600
H  8.58900 50.23200 39.29800
H  9.11600 49.88800 41.37400
H  7.47500 49.92400 41.93300
H  8.56300 51.36700 41.89500
H  5.80800 48.57900 38.10100
H  7.53000 48.81900 38.20800
H  7.32700 50.10400 36.21600
H  6.56900 51.30400 37.22100
H  11.22500 54.03000 38.91600
H  11.61500 55.69300 39.35100
H  11.40000 55.19600 37.65500
H  10.14700 60.18700 38.72600
H  8.61400 59.79900 39.52600
H  8.70000 59.55600 37.79000
H  4.29000 58.93900 38.34300
H  2.62200 58.56600 40.64500
H  3.96000 60.77600 40.10600
H  5.63000 60.62000 39.55100
H  5.23500 59.79500 40.99100
H  1.88100 57.63600 38.08500
H  2.18300 59.35000 37.89200
H  -0.07100 59.25500 38.22400
H  0.34900 59.51500 40.01400
H  -0.04400 57.98500 39.46000
H  -0.53400 53.16200 41.42100
H  -0.68500 53.08200 39.67300
H  -0.36800 54.62000 40.54000
H  3.50100 49.62600 40.92000
H  2.49300 46.16600 38.58800
H  4.35400 46.25300 38.62000
H  3.50900 47.10400 37.43000

