158

Mg 40.69400 8.42000 28.90900
C  42.41200 9.79400 31.57600
C  38.75000 6.80500 31.06900
C  38.87500 7.53300 26.22300
C  43.21200 9.79400 26.78200
N  40.64300 8.17200 31.16100
C  41.37300 8.99500 31.94800
C  40.84000 8.78800 33.44500
C  39.75000 7.62900 33.30100
C  39.70000 7.48400 31.74300
C  39.90800 6.36100 34.07800
C  40.33400 10.17700 34.05400
C  40.43600 10.23300 35.59900
H  40.71600 11.54600 36.34100
N  39.14800 7.20600 28.69600
C  38.39800 6.68500 29.70900
C  37.23800 6.03400 29.16800
C  37.19200 6.34200 27.74800
C  38.43300 7.03300 27.46200
C  36.35700 5.18200 29.98900
C  36.12600 5.98000 26.77200
O  36.25000 6.30200 25.62100
C  34.80900 5.37400 27.18800
N  41.05800 8.47500 26.80400
C  40.10400 8.15200 25.90200
C  40.36400 8.63300 24.44200
C  41.84800 9.03400 24.65400
C  42.08200 9.15300 26.18600
C  40.20100 7.55500 23.36400
C  42.37800 10.18000 23.75800
C  41.71500 11.49500 24.14000
N  42.46600 9.43800 29.08500
C  43.30800 10.00300 28.13000
C  44.42300 10.56700 28.85200
C  44.13000 10.58700 30.16500
C  42.88900 9.91400 30.26300
C  45.49200 11.24200 28.26100
C  44.57400 11.09400 31.50700
O  45.58100 11.64000 31.85600
C  43.35700 10.69200 32.42200
C  43.95800 9.94700 33.61400
O  44.33700 8.78000 33.65600
O  43.98900 10.79000 34.76300
C  44.56500 10.27200 36.01200
H  38.11800 6.29800 31.80200
H  38.16200 7.44500 25.40100
H  44.02700 10.16500 26.15700
H  41.71200 8.35800 33.93800
H  38.72700 7.96200 33.47500
H  39.00200 6.22200 34.66900
H  40.64900 6.52500 34.85900
H  40.16300 5.51600 33.43800
H  39.26600 10.37600 34.14500
H  40.67400 11.07300 33.53400
H  41.12100 9.44300 35.90700
H  39.49100 9.94400 36.06000
H  35.81100 4.47100 29.36900
H  35.53600 5.72700 30.45300
H  36.87000 4.58100 30.74000
H  34.10500 5.49700 26.36500
H  34.53200 5.83800 28.13500
H  34.98900 4.31400 27.36600
H  39.72700 9.44600 24.09300
H  42.51800 8.20000 24.44700
H  40.93800 7.63900 22.56500
H  39.29600 7.55600 22.75700
H  40.19600 6.57000 23.83100
H  42.46100 9.91900 22.70300
H  43.44400 10.23300 23.97600
H  41.18300 11.84700 23.25700
H  42.41100 12.25600 24.49400
H  41.00100 11.45200 24.96300
H  45.22800 11.98000 27.50300
H  46.18000 10.45600 27.95200
H  45.99600 11.83400 29.02600
H  42.89200 11.62500 32.73900
H  43.69800 9.97600 36.60200
H  45.06800 11.03700 36.60300
H  45.28000 9.45100 35.96800
Mg 26.05800 50.40000 27.29600
C  24.03300 51.43300 29.91200
C  28.66600 49.79300 29.61700
C  28.09200 49.75600 24.83700
C  23.68900 51.72400 25.07900
N  26.23200 50.41900 29.46500
C  25.22500 50.89400 30.35600
C  25.63600 50.53000 31.81100
C  27.19100 50.23500 31.67900
C  27.39300 50.12700 30.17200
C  28.17700 51.25900 32.20200
C  24.83600 49.34400 32.35800
C  24.55100 49.14000 33.84600
H  25.17000 50.09500 34.91600
N  28.09000 49.70300 27.21800
C  28.97300 49.53300 28.26800
C  30.24500 49.13800 27.68900
C  30.09600 49.08200 26.30100
C  28.69600 49.47000 26.06400
C  31.46500 48.93900 28.58000
C  31.12500 48.86300 25.20200
O  30.79900 48.76800 24.02300
C  32.60900 48.74500 25.49700
N  25.97800 50.81000 25.19900
C  26.90000 50.36000 24.35000
C  26.34000 50.22600 22.92800
C  24.84700 50.64500 23.08300
C  24.82700 51.07000 24.56900
C  27.12200 51.05900 21.80600
C  23.74000 49.58100 22.79900
C  22.44400 50.14000 22.09700
N  24.34000 51.53000 27.38500
C  23.49000 52.04900 26.43700
C  22.32000 52.65400 27.08200
C  22.49700 52.37500 28.44000
C  23.72900 51.76300 28.56200
C  21.17000 53.26800 26.39500
C  21.86700 52.48400 29.71600
O  20.76900 52.90200 30.11800
C  22.89400 51.89300 30.73800
C  23.30200 52.91700 31.75300
O  24.23000 53.67500 31.62500
O  22.62900 52.74200 32.95100
C  23.04900 53.55400 34.10900
H  29.47000 49.80400 30.35600
H  28.67500 49.46000 23.96300
H  22.83500 51.71800 24.39800
H  25.41200 51.45700 32.33700
H  27.52000 49.32300 32.17700
H  28.88100 50.76800 32.87400
H  27.62600 52.04100 32.72500
H  28.68700 51.67200 31.33200
H  25.38100 48.46700 32.00800
H  23.93200 49.21700 31.76200
H  25.15500 48.25100 34.03000
H  23.52800 48.84300 34.07700
H  31.50600 49.82600 29.21200
H  32.42800 48.94300 28.07000
H  31.37400 47.95900 29.04800
H  33.15000 48.60100 24.56100
H  32.76400 47.98600 26.26400
H  32.96700 49.72300 25.81700
H  26.31400 49.16700 22.67100
H  24.65100 51.56800 22.53600
H  27.77100 51.65500 22.44900
H  26.51400 51.79600 21.28100
H  27.70700 50.41900 21.14600
H  23.45000 49.09300 23.73000
H  24.18700 48.89900 22.07600
H  22.40000 49.75100 21.08000
H  22.57400 51.21800 22.00000
H  21.54000 49.91000 22.66000
H  21.21200 52.92400 25.36100
H  21.33400 54.33900 26.51000
H  20.21100 53.08100 26.87800
H  22.47100 51.01200 31.22200
H  23.28700 54.59700 33.90100
H  23.95700 53.05100 34.44200
H  22.26300 53.46400 34.85900

