158

Mg 2.80600 -3.20900 45.07600
C  5.72500 -1.14000 44.37900
C  1.08200 -1.32000 42.97400
C  0.64400 -5.50900 45.45300
C  5.29600 -5.34800 46.75100
N  3.44900 -1.36800 43.82000
C  4.62100 -0.79100 43.61300
C  4.55200 0.36400 42.57900
C  2.99100 0.27300 42.14200
C  2.40500 -0.84000 43.09000
C  2.25500 1.62500 42.27100
C  5.47100 0.21100 41.31300
C  6.53600 1.28100 41.12000
H  6.60800 1.93600 39.77900
N  1.03300 -3.32200 44.35200
C  0.41700 -2.43500 43.52800
C  -0.89200 -3.01900 43.11300
C  -1.02100 -4.24900 43.83200
C  0.24600 -4.47900 44.61100
C  -1.85700 -2.30800 42.17400
C  -2.25100 -5.19600 43.67300
O  -3.18400 -4.83400 42.93000
C  -2.29200 -6.54600 44.18700
N  3.00200 -5.24800 45.99900
C  1.80800 -5.88500 46.13300
C  1.96800 -7.12200 47.06900
C  3.49700 -7.20200 47.22300
C  4.02200 -5.83700 46.63100
C  1.06400 -7.07500 48.35600
C  4.09700 -8.40100 46.37400
C  3.68300 -9.71500 46.91900
N  4.99500 -3.18700 45.69400
C  5.76000 -4.10100 46.38600
C  7.07500 -3.65100 46.59500
C  7.10500 -2.41100 45.87600
C  5.85500 -2.22700 45.24800
C  8.35300 -4.28400 47.40500
C  7.92200 -1.30900 45.51400
O  9.10100 -1.05100 45.67800
C  7.06500 -0.46000 44.43000
C  6.97800 0.95600 44.89900
O  7.61000 1.88600 44.46100
O  6.09500 1.01800 45.93900
C  5.88100 2.28500 46.63800
H  0.44300 -0.68100 42.36100
H  -0.17800 -6.17000 45.73400
H  6.03300 -5.99400 47.23200
H  4.84800 1.23000 43.17200
H  2.80900 -0.12600 41.14400
H  1.81200 1.98800 41.34400
H  2.90200 2.40900 42.66500
H  1.52800 1.46400 43.06700
H  4.87100 0.14000 40.40600
H  6.03300 -0.72200 41.37200
H  7.50000 0.91400 41.47100
H  6.20400 2.11400 41.73900
H  -1.53500 -1.29200 41.94700
H  -2.86700 -2.34400 42.58200
H  -1.72500 -2.85100 41.23800
H  -1.29300 -6.94300 44.00500
H  -3.07500 -7.06500 43.63400
H  -2.45900 -6.56400 45.26400
H  1.53700 -7.87600 46.41000
H  3.85400 -7.20100 48.25200
H  0.83600 -6.00900 48.35400
H  1.67900 -7.30600 49.22600
H  0.14800 -7.65300 48.23400
H  5.17900 -8.29600 46.45800
H  3.79000 -8.47300 45.33100
H  2.93400 -9.61000 47.70300
H  4.50300 -10.31600 47.31400
H  3.30700 -10.23900 46.04000
H  8.43000 -5.31000 47.04600
H  8.16800 -4.30700 48.47900
H  9.25000 -3.68400 47.25200
H  7.50100 -0.35000 43.43700
H  5.49500 1.91700 47.58900
H  5.32000 3.09300 46.17000
H  6.84700 2.74800 46.83900
Mg -2.14000 33.66200 26.13000
C  -3.88600 32.27300 28.93100
C  -0.74400 35.82600 28.34100
C  -1.03000 35.47500 23.40800
C  -4.29600 31.96800 24.00500
N  -2.51800 34.08700 28.37500
C  -3.02200 33.26300 29.38000
C  -2.72500 33.73600 30.82400
C  -1.63400 34.83500 30.53500
C  -1.71800 35.01800 28.99200
C  -1.67900 36.17900 31.22800
C  -2.23400 32.68300 31.80600
C  -2.88800 32.62500 33.25200
H  -2.04500 32.43000 34.54400
N  -0.94600 35.24900 25.94600
C  -0.37300 35.98200 26.98400
C  0.51800 36.97400 26.43300
C  0.37700 36.94500 25.03100
C  -0.54900 35.81300 24.70500
C  1.37900 38.02700 27.22200
C  0.89400 37.84500 23.98200
O  0.60200 37.74600 22.79000
C  1.97800 38.84800 24.24800
N  -2.77900 33.79800 24.01100
C  -2.11600 34.57000 23.04600
C  -2.38700 34.08600 21.61500
C  -3.44700 33.06400 21.90800
C  -3.51100 32.91300 23.42500
C  -2.80300 35.17800 20.60700
C  -3.24100 31.68100 21.14100
C  -2.18800 30.77200 21.74500
N  -3.64200 32.28100 26.30700
C  -4.37500 31.64800 25.38400
C  -5.24900 30.65200 26.07400
C  -5.12000 30.87900 27.43700
C  -4.13800 31.89000 27.55200
C  -6.18600 29.74500 25.32400
C  -5.56700 30.48200 28.74300
O  -6.32500 29.57100 29.15900
C  -4.74700 31.38000 29.79100
C  -5.80800 32.07200 30.57300
O  -6.36200 33.07600 30.08200
O  -6.03500 31.54800 31.84600
C  -6.84900 32.38000 32.72500
H  -0.04500 36.31200 29.02500
H  -0.28700 35.62300 22.62100
H  -4.83900 31.20100 23.44900
H  -3.65000 34.20400 31.16000
H  -0.61300 34.53000 30.76800
H  -0.79400 36.55300 31.74300
H  -2.36500 36.09900 32.07100
H  -2.01800 37.00400 30.60200
H  -1.21800 32.98200 32.06400
H  -2.22200 31.69500 31.34600
H  -3.46600 31.70200 33.20200
H  -3.63800 33.38300 33.47600
H  2.40300 37.99100 26.85000
H  1.38600 37.64100 28.24200
H  0.89200 38.99300 27.09200
H  1.64100 39.44600 25.09400
H  2.07000 39.50100 23.38100
H  2.94200 38.37800 24.44500
H  -1.54800 33.47900 21.27600
H  -4.41700 33.46800 21.62000
H  -3.24300 36.05600 21.07900
H  -3.59600 34.84400 19.93700
H  -1.97800 35.54700 19.99800
H  -2.99400 31.97400 20.12100
H  -4.15500 31.08800 21.14300
H  -1.77100 31.14900 22.67900
H  -1.48600 30.59200 20.93100
H  -2.75700 29.86300 21.93900
H  -7.09200 30.24900 24.99000
H  -6.58800 28.96500 25.97000
H  -5.82500 29.32000 24.38700
H  -4.16100 30.74000 30.45000
H  -7.73000 32.56500 32.11000
H  -6.34600 33.23300 33.18000
H  -7.26000 31.74000 33.50600

