158

Mg -1.88100 17.67900 26.90200
C  -2.36200 15.26400 29.33500
C  -2.26900 20.02500 29.37000
C  -1.74400 20.03700 24.43200
C  -1.99000 15.20000 24.43500
N  -2.21600 17.55300 29.19600
C  -2.24700 16.45900 29.98700
C  -2.44000 16.87100 31.43000
C  -2.60000 18.41000 31.31600
C  -2.34500 18.71100 29.86000
C  -4.08600 18.87600 31.75100
C  -1.30800 16.32900 32.38800
C  -0.91900 17.04300 33.63800
H  -0.75600 16.17000 34.76600
N  -1.88400 19.67600 26.91700
C  -2.07800 20.46100 28.00300
C  -1.91400 21.84500 27.63700
C  -1.75700 21.88500 26.23200
C  -1.79400 20.49000 25.81400
C  -2.04200 23.08500 28.60700
C  -1.55300 23.03600 25.22800
O  -1.50900 22.96100 24.00700
C  -1.47600 24.38100 25.79700
N  -2.04900 17.58500 24.72400
C  -1.79900 18.70800 23.92200
C  -1.50400 18.30400 22.45800
C  -1.73700 16.77100 22.45200
C  -1.89100 16.49200 23.97800
C  -2.31600 19.10300 21.37600
C  -0.46900 15.89200 21.85500
C  0.87500 15.96000 22.59800
N  -2.13400 15.67300 26.81600
C  -2.18000 14.80100 25.79600
C  -2.34900 13.48400 26.23100
C  -2.47800 13.65000 27.61800
C  -2.30100 14.97600 27.92500
C  -2.45500 12.16200 25.43900
C  -2.63800 12.88800 28.93100
O  -2.88100 11.68200 29.12500
C  -2.66300 13.89100 30.04400
C  -1.70300 13.40600 31.09300
O  -0.48800 13.48800 30.98300
O  -2.38700 12.81700 32.16200
C  -1.59600 12.06600 33.09100
H  -2.27500 20.77800 30.16100
H  -1.70300 20.77000 23.62300
H  -1.84600 14.36200 23.74900
H  -3.34500 16.37800 31.78500
H  -1.81400 18.94900 31.84500
H  -4.75000 18.02700 31.91100
H  -4.61200 19.40900 30.96000
H  -4.05900 19.48200 32.65700
H  -0.35000 16.29600 31.86900
H  -1.76300 15.36800 32.62500
H  -1.58000 17.84400 33.96900
H  0.06900 17.46900 33.46200
H  -2.50300 24.02000 28.28700
H  -1.01900 23.38700 28.83200
H  -2.55100 22.78800 29.52400
H  -2.43700 24.66300 26.22600
H  -1.17500 25.02700 24.97100
H  -0.73400 24.54500 26.57800
H  -0.46600 18.63500 22.41800
H  -2.60200 16.62300 21.80600
H  -2.88200 19.83800 21.94900
H  -3.05500 18.47300 20.88200
H  -1.56700 19.60800 20.76700
H  -0.26000 16.14600 20.81600
H  -0.68500 14.82500 21.78600
H  0.65300 16.07800 23.65900
H  1.45300 16.79500 22.20200
H  1.49100 15.07000 22.47100
H  -1.80500 11.48600 25.99500
H  -2.05900 12.15800 24.42400
H  -3.41200 11.64500 25.36200
H  -3.66800 13.96900 30.45800
H  -2.18700 11.23000 33.46400
H  -1.24800 12.82400 33.79200
H  -0.69300 11.66300 32.63200
Mg 0.43900 7.87900 26.30100
C  1.34900 9.74900 29.04400
C  0.36200 5.11000 28.36700
C  0.11200 5.98700 23.56000
C  1.16200 10.65700 24.34300
N  0.92600 7.44800 28.44000
C  1.10400 8.43600 29.40300
C  1.09400 7.80900 30.78700
C  1.18500 6.27000 30.58100
C  0.85200 6.25900 29.00400
C  2.60400 5.63200 30.81700
C  -0.23000 8.20500 31.55300
C  -0.35200 7.90600 33.04100
H  0.85500 7.28300 33.77600
N  0.07000 5.84500 26.03800
C  -0.01300 4.90200 26.98900
C  -0.46300 3.68600 26.37400
C  -0.65300 3.97700 24.94800
C  -0.15200 5.29800 24.78300
C  -0.71500 2.39000 27.06400
C  -1.28800 3.09600 23.85100
O  -1.41300 3.44800 22.66100
C  -1.81700 1.77300 24.13300
N  0.67800 8.26400 24.26300
C  0.47600 7.29500 23.32100
C  0.75700 7.80500 21.85300
C  1.09100 9.30700 22.12300
C  1.02400 9.42700 23.69700
C  1.81800 7.01300 21.03400
C  0.19900 10.38600 21.35800
C  -1.24100 10.36100 21.72600
N  1.11300 9.84000 26.58400
C  1.15700 10.92200 25.66200
C  1.36900 12.20000 26.36800
C  1.53500 11.70400 27.73300
C  1.26600 10.35400 27.75400
C  1.51500 13.57100 25.78400
C  1.78000 12.15100 29.04100
O  1.88600 13.36500 29.37600
C  1.58500 10.93700 29.96100
C  2.86900 10.97000 30.77900
O  3.83600 10.17000 30.62500
O  2.66600 11.81500 31.85700
C  3.58500 11.53300 32.99800
H  0.30400 4.19900 28.96600
H  0.03700 5.38300 22.65300
H  1.54600 11.50600 23.77400
H  1.93500 8.24200 31.32700
H  0.42000 5.69900 31.10700
H  3.16100 5.29800 29.94200
H  2.42000 4.70800 31.36400
H  3.18400 6.22200 31.52600
H  -1.07400 7.60300 31.21700
H  -0.53600 9.24000 31.39700
H  -1.16200 7.21100 33.25800
H  -0.60000 8.83700 33.55100
H  -1.77600 2.25300 27.27200
H  -0.22300 2.35500 28.03700
H  -0.31000 1.56600 26.47600
H  -0.91000 1.17300 24.20900
H  -2.24200 1.33200 23.23200
H  -2.45800 1.62900 25.00300
H  -0.21900 7.71600 21.37800
H  2.12200 9.55800 21.87200
H  2.60000 7.71600 20.75000
H  1.44100 6.52400 20.13600
H  2.31000 6.17100 21.52200
H  0.53600 10.42900 20.32200
H  0.49600 11.37500 21.70800
H  -1.57300 11.39200 21.84100
H  -1.37600 9.83500 22.67100
H  -1.86800 9.97600 20.92200
H  1.79700 14.29500 26.54900
H  0.61600 13.83700 25.22700
H  2.31500 13.61700 25.04500
H  0.70900 11.05200 30.60000
H  4.22000 12.40300 32.83300
H  4.16400 10.60900 32.98200
H  2.98700 11.69800 33.89400

