158

Mg 50.43900 46.21300 40.81000
C  47.28400 47.38900 39.96800
C  49.56200 43.11900 39.60700
C  53.53800 45.20100 41.34400
C  51.42800 49.57800 41.42000
N  48.66300 45.36400 39.97000
C  47.46500 46.04200 39.60000
C  46.45000 45.07900 38.96000
C  47.08500 43.74000 39.21600
C  48.55000 44.10300 39.60600
C  46.42300 42.88800 40.38700
C  46.15700 45.43100 37.43500
C  45.12700 44.50800 36.79200
H  45.68500 43.77700 35.54800
N  51.46200 44.40100 40.55300
C  50.86200 43.25800 40.11800
C  51.84800 42.17700 40.17300
C  53.00000 42.73800 40.72800
C  52.72800 44.15900 40.90800
C  51.55400 40.77400 39.81500
C  54.26800 41.95000 41.01900
O  54.33500 40.79400 40.67200
C  55.45700 42.52400 41.74400
N  52.29500 47.32500 41.14400
C  53.34400 46.57200 41.56200
C  54.51000 47.51900 41.88800
C  53.89100 48.92000 41.97300
C  52.45100 48.61900 41.49900
C  55.33000 46.99300 43.13400
C  54.54700 49.94000 40.98900
C  54.79800 51.22900 41.67600
N  49.48800 48.13000 40.77700
C  50.06200 49.37100 41.04000
C  49.01200 50.40900 40.86800
C  47.89600 49.62300 40.43000
C  48.25100 48.30700 40.42200
C  49.13400 51.88600 41.02300
C  46.49600 49.68900 40.02700
O  45.74100 50.63900 40.12400
C  46.15500 48.21300 39.55700
C  44.87300 47.69600 40.28800
O  44.79300 47.23100 41.41800
O  43.80100 47.97500 39.56100
C  42.45500 47.61100 40.02300
H  49.27500 42.11100 39.30100
H  54.60100 44.98600 41.46600
H  51.59300 50.61700 41.71200
H  45.54200 45.20800 39.55000
H  47.17400 43.19500 38.27600
H  45.79100 43.51900 41.01100
H  47.24600 42.56900 41.02600
H  45.85800 42.05500 39.96700
H  47.11300 45.56100 36.92700
H  45.61300 46.37200 37.35400
H  44.27800 45.14600 36.54500
H  44.70800 43.66200 37.33700
H  50.72500 40.78000 39.10800
H  51.27500 40.26300 40.73600
H  52.34300 40.18500 39.34700
H  54.95300 42.94200 42.61600
H  55.99200 43.29600 41.19100
H  56.09500 41.69000 42.03700
H  55.17100 47.47500 41.02300
H  53.72700 49.08400 43.03800
H  54.87400 46.13500 43.62700
H  55.58300 47.66700 43.95300
H  56.31800 46.61000 42.87800
H  53.89500 50.10500 40.13200
H  55.47100 49.53700 40.57400
H  54.74600 51.06300 42.75200
H  54.02700 51.91400 41.32200
H  55.76100 51.63300 41.36400
H  48.79400 52.17800 42.01600
H  48.64000 52.47300 40.24900
H  50.19400 52.10500 40.89900
H  46.11000 48.24200 38.46800
H  41.85900 47.45600 39.12300
H  41.92200 48.25400 40.72300
H  42.64200 46.63400 40.46900
Mg -5.24700 26.09200 25.78100
C  -4.11300 27.51300 28.74400
C  -7.33500 24.03000 27.69800
C  -6.51900 24.84900 22.97800
C  -3.03700 28.18500 24.01800
N  -5.49500 25.66500 27.93400
C  -4.98200 26.42700 28.98900
C  -5.37400 25.90600 30.38100
C  -6.09000 24.50300 29.98900
C  -6.35700 24.71600 28.46900
C  -5.32900 23.22000 30.23900
C  -6.43700 26.80800 31.05700
C  -6.55400 26.76600 32.61800
H  -5.78700 25.66000 33.38500
N  -6.60400 24.50500 25.39000
C  -7.40600 23.95700 26.27300
C  -8.36800 23.18200 25.52700
C  -8.19400 23.43200 24.19200
C  -7.05600 24.28600 24.12200
C  -9.50400 22.48200 26.27300
C  -9.07100 22.89000 23.02000
O  -8.75600 23.04900 21.80600
C  -10.22400 22.02300 23.21800
N  -4.83500 26.50700 23.77400
C  -5.46200 25.76200 22.81100
C  -4.78000 26.01500 21.44100
C  -3.89200 27.24500 21.76200
C  -3.89700 27.31600 23.27100
C  -4.10400 24.80300 20.85300
C  -4.40900 28.53000 21.09200
C  -3.38600 29.36100 20.30800
N  -3.81600 27.53100 26.26700
C  -3.05000 28.32400 25.41800
C  -2.28200 29.30400 26.25700
C  -2.68700 28.97500 27.58000
C  -3.63200 27.92600 27.53500
C  -1.27200 30.31200 25.85300
C  -2.46900 29.29500 28.96900
O  -1.68000 29.97000 29.59800
C  -3.50700 28.50600 29.71100
C  -2.91800 27.84400 30.96900
O  -2.13000 26.91100 31.01900
O  -3.08000 28.67100 32.07300
C  -2.25900 28.41700 33.27400
H  -8.02400 23.43800 28.30400
H  -7.01100 24.51400 22.06300
H  -2.30500 28.84400 23.54600
H  -4.47400 25.59300 30.91100
H  -7.02100 24.36800 30.54000
H  -6.00400 22.48000 30.67000
H  -4.46900 23.47100 30.85900
H  -4.94100 22.91800 29.26600
H  -7.40400 26.56700 30.61600
H  -6.23500 27.85700 30.84400
H  -7.60900 26.71500 32.88700
H  -6.19000 27.70100 33.04600
H  -9.38500 22.49800 27.35600
H  -9.64400 21.48200 25.86200
H  -10.42500 23.05000 26.14500
H  -10.94600 21.95800 22.40400
H  -10.84100 22.21800 24.09500
H  -9.74400 21.05500 23.36600
H  -5.65000 26.31000 20.85400
H  -2.88900 27.05100 21.38200
H  -4.29900 23.88300 21.40400
H  -3.01800 24.86900 20.91700
H  -4.30900 24.76900 19.78300
H  -4.93800 29.10300 21.85200
H  -5.23600 28.31700 20.41500
H  -3.43200 29.22400 19.22700
H  -2.38500 29.09100 20.64500
H  -3.59600 30.42200 20.43900
H  -1.70400 31.18900 25.37000
H  -0.46800 29.91000 25.23700
H  -0.76400 30.81000 26.67800
H  -4.31100 29.17300 30.02200
H  -1.22700 28.06600 33.25600
H  -2.84500 27.67600 33.81800
H  -2.43900 29.26800 33.93000

