158

Mg 44.35200 3.79700 47.29100
C  42.27300 6.67000 46.88800
C  41.66200 1.86500 46.73400
C  46.37300 1.26900 46.79700
C  47.14300 6.06400 47.03100
N  42.19800 4.24600 46.85100
C  41.56200 5.40600 46.79800
C  40.08600 5.23700 46.51600
C  39.83300 3.71900 46.86300
C  41.33300 3.23500 46.81900
C  39.14000 3.47500 48.19800
C  39.75600 5.67900 45.04200
C  38.61200 6.66300 44.93700
H  38.35100 7.46000 43.59000
N  44.05400 1.76700 46.94600
C  42.82800 1.13700 46.84300
C  43.01900 -0.24600 46.76400
C  44.46800 -0.45200 46.75400
C  45.02600 0.88200 46.84900
C  41.88500 -1.25400 46.84200
C  45.11500 -1.80300 46.63800
O  44.48600 -2.82400 46.64500
C  46.58200 -1.98400 46.48400
N  46.49600 3.72600 46.83600
C  47.01300 2.50100 46.79400
C  48.54400 2.58500 46.82900
C  48.76400 4.07700 46.64700
C  47.41800 4.69400 46.88600
C  49.29100 1.97800 48.02700
C  49.34500 4.50900 45.26400
C  50.86200 4.82000 45.00600
N  44.67900 5.85300 47.16600
C  45.86700 6.61700 47.08800
C  45.53900 8.06600 46.95100
C  44.13100 8.11600 46.96900
C  43.67300 6.80100 47.09300
C  46.59600 9.15300 46.75600
C  42.97800 9.02900 46.87200
O  42.94600 10.23700 46.78900
C  41.68000 8.09400 46.83000
C  40.85300 8.37400 48.02500
O  41.19200 8.10300 49.14100
O  39.64200 8.90500 47.68800
C  38.67800 8.92000 48.84600
H  40.70800 1.36600 46.54900
H  47.06000 0.42100 46.81300
H  48.07200 6.63500 47.07600
H  39.62200 5.98400 47.15900
H  39.22100 3.27400 46.07900
H  39.00200 4.44100 48.68600
H  39.77100 2.85800 48.83800
H  38.18300 2.95300 48.19000
H  39.50600 4.84900 44.38200
H  40.63900 6.17100 44.63300
H  38.65700 7.37700 45.75900
H  37.66000 6.13500 44.98700
H  41.90800 -1.73100 47.82200
H  41.96700 -1.95200 46.00900
H  40.92400 -0.80400 46.59300
H  46.95500 -1.69100 45.50300
H  46.83000 -3.04500 46.48700
H  47.05000 -1.58100 47.38300
H  48.94900 1.98500 46.01500
H  49.37800 4.37800 47.49500
H  49.94100 1.18500 47.65700
H  48.67600 1.52700 48.80600
H  49.88100 2.74200 48.53500
H  48.72300 5.30100 44.84700
H  49.14900 3.66000 44.60800
H  51.25500 3.98800 44.42100
H  51.45600 4.76600 45.91800
H  51.07700 5.74000 44.46100
H  47.47500 8.88300 47.34300
H  46.20900 10.05900 47.22300
H  46.89500 9.24400 45.71200
H  41.21500 8.33100 45.87300
H  38.90000 9.60500 49.66500
H  38.50300 7.96400 49.33800
H  37.71000 9.31500 48.53800
Mg 40.30800 9.78700 29.98300
C  42.18400 10.61600 32.90300
C  37.96200 8.34400 32.02000
C  38.55100 8.89100 27.25200
C  42.84200 11.00200 28.02500
N  40.19000 9.36500 32.20100
C  40.92100 9.93100 33.22900
C  40.35100 9.72800 34.59700
C  39.19200 8.73100 34.28200
C  39.05600 8.81300 32.75100
C  39.21000 7.27200 34.83300
C  39.85500 10.99100 35.49500
C  39.84500 10.87200 36.97200
H  40.74700 11.78900 37.81400
N  38.54700 8.63000 29.66500
C  37.64300 8.19400 30.59600
C  36.49800 7.61200 29.98900
C  36.64300 7.86100 28.58100
C  37.96600 8.49300 28.44400
C  35.34000 6.93800 30.71600
C  35.73000 7.43500 27.39300
O  36.00100 7.69700 26.22700
C  34.54500 6.53900 27.67400
N  40.64000 9.90700 27.97700
C  39.79700 9.45300 26.99900
C  40.25000 9.97700 25.64800
C  41.53100 10.74900 25.87500
C  41.76600 10.54000 27.34300
C  40.25900 9.00400 24.45400
C  41.52200 12.24100 25.41400
C  40.42400 13.09700 25.99200
N  42.17100 10.61000 30.35000
C  43.08600 11.12600 29.41900
C  44.24400 11.74300 30.15700
C  43.94600 11.51900 31.57400
C  42.69600 10.85100 31.57300
C  45.53400 12.27200 29.58200
C  44.43800 11.61100 32.93900
O  45.36300 12.15400 33.46400
C  43.23100 11.17000 33.84300
C  43.81500 10.24500 34.78700
O  43.92800 9.04800 34.63300
O  44.05400 10.88000 36.00200
C  44.18800 10.16700 37.26600
H  37.16700 8.02000 32.69500
H  38.04600 8.58100 26.33500
H  43.62200 11.40600 27.37600
H  41.09400 9.17200 35.16900
H  38.29400 9.17900 34.70700
H  38.32700 6.97500 35.39800
H  40.06500 7.22200 35.50800
H  39.33900 6.49600 34.07900
H  38.83600 11.22400 35.18600
H  40.57900 11.71400 35.11700
H  40.09300 9.85500 37.27500
H  38.81300 10.92300 37.31900
H  34.39600 7.48000 30.77900
H  35.61400 6.67900 31.73900
H  35.09600 5.95800 30.30300
H  33.85700 6.46200 26.83300
H  34.00600 7.07500 28.45600
H  34.85100 5.55100 28.02000
H  39.54100 10.79400 25.51800
H  42.42700 10.44200 25.33600
H  39.67900 8.11700 24.70800
H  41.29400 8.76300 24.21400
H  39.74900 9.54200 23.65400
H  41.49000 12.33000 24.32800
H  42.45000 12.65800 25.80400
H  39.88700 13.52700 25.14700
H  40.92500 13.94700 26.45400
H  39.84400 12.52800 26.71900
H  45.76400 11.76100 28.64700
H  46.27600 12.04200 30.34600
H  45.49300 13.34700 29.40500
H  42.76100 12.01100 34.35200
H  44.39300 10.83900 38.09900
H  44.98500 9.43600 37.13600
H  43.23100 9.66300 37.40200

