158

Mg 47.13200 44.19900 43.13800
C  43.73900 43.37900 42.74500
C  47.83100 40.84400 42.42900
C  50.36500 45.08600 42.79800
C  46.23000 47.67200 42.77000
N  45.87300 42.30900 42.70000
C  44.52400 42.19700 42.67900
C  44.09200 40.75900 42.54800
C  45.45600 39.98600 42.55100
C  46.44600 41.07500 42.49500
C  45.64700 38.85800 43.56800
C  43.13700 40.54300 41.32500
C  43.57500 41.20800 39.99400
H  43.23900 40.48200 38.67000
N  48.87700 43.14800 42.71400
C  48.90000 41.78100 42.41300
C  50.25600 41.40200 42.19100
C  51.07500 42.59400 42.32000
C  50.11100 43.69900 42.56600
C  50.71600 39.94700 41.92300
C  52.55100 42.63600 42.04600
O  53.21100 41.65100 41.62800
C  53.22800 43.90800 42.17700
N  48.14500 46.14100 42.63300
C  49.51700 46.17900 42.90900
C  50.00100 47.65500 42.97600
C  48.65300 48.43700 42.87300
C  47.58200 47.34800 42.68000
C  50.98700 47.96500 44.18400
C  48.57000 49.52300 41.74500
C  48.41400 50.96800 42.27100
N  45.44800 45.37200 42.96600
C  45.18700 46.68500 42.85600
C  43.74000 46.96100 42.81500
C  43.17900 45.65700 42.81400
C  44.23100 44.75900 42.86000
C  43.02100 48.30000 42.74700
C  41.93200 45.02300 42.71100
O  40.77800 45.46200 42.53000
C  42.23400 43.49600 42.79800
C  41.74200 43.15300 44.16700
O  40.91600 42.29600 44.30600
O  42.35300 43.79700 45.21200
C  42.02500 43.24800 46.54400
H  48.13100 39.80300 42.29800
H  51.38900 45.39000 43.02500
H  45.90300 48.71200 42.83600
H  43.51900 40.48100 43.43200
H  45.52500 39.52400 41.56700
H  44.85700 38.58300 44.26700
H  46.43400 39.09800 44.28300
H  45.92500 37.95400 43.02600
H  42.15000 40.90800 41.60800
H  43.05800 39.47300 41.13200
H  44.65400 41.34500 40.06100
H  43.02600 42.14000 39.86200
H  51.78600 39.75100 41.85900
H  50.14600 39.51800 41.09900
H  50.46600 39.36600 42.81000
H  52.76400 44.62600 41.50100
H  54.26600 43.82300 41.85600
H  53.19600 44.19200 43.22900
H  50.50400 47.82100 42.02300
H  48.55300 48.91500 43.84800
H  52.00700 47.95200 43.80000
H  50.97800 47.13800 44.89300
H  50.63700 48.85600 44.70500
H  47.85500 49.16400 41.00500
H  49.55500 49.59600 41.28300
H  49.16000 51.66500 41.88800
H  48.56700 51.04500 43.34800
H  47.36100 51.22200 42.15300
H  42.06100 48.27400 43.26300
H  42.77700 48.51200 41.70600
H  43.71000 49.03300 43.16500
H  41.68900 42.95300 42.02600
H  42.68300 42.39900 46.72500
H  41.03500 42.81500 46.68800
H  42.14800 44.02000 47.30400
Mg 16.34100 51.79100 25.62800
C  18.00200 50.30600 28.50600
C  14.08500 53.03200 27.89200
C  14.62900 52.57900 22.99400
C  18.78700 50.08300 23.67800
N  16.14000 51.71700 27.90700
C  16.89600 51.04600 28.85000
C  16.55400 51.43800 30.28800
C  15.19400 52.12500 30.07700
C  15.11000 52.28400 28.51400
C  13.85400 51.54200 30.64300
C  17.53000 52.56000 30.83600
C  17.86400 52.46400 32.31100
H  16.96000 51.65400 33.29000
N  14.62300 52.65000 25.43100
C  13.77500 53.20300 26.44600
C  12.68100 53.87400 25.88200
C  12.82300 53.76000 24.49500
C  14.03800 52.94200 24.20900
C  11.68100 54.62600 26.69700
C  11.86000 54.15800 23.33700
O  12.14000 53.91000 22.14400
C  10.61600 54.93100 23.58000
N  16.61500 51.32900 23.63500
C  15.81100 51.91900 22.75100
C  16.30200 51.68200 21.34900
C  17.70900 51.13800 21.55800
C  17.72900 50.78400 23.03600
C  15.26800 50.68400 20.63600
C  18.82700 52.17000 21.33700
C  19.85100 51.86600 20.29500
N  18.11800 50.53400 25.97300
C  18.94700 49.90300 25.08100
C  20.03400 49.27500 25.82300
C  19.66200 49.42600 27.16600
C  18.46400 50.11400 27.18100
C  21.22500 48.50300 25.33900
C  20.07900 49.06900 28.51100
O  21.09300 48.47500 28.82800
C  19.01700 49.63900 29.49200
C  18.49700 48.46700 30.25600
O  17.48800 47.80500 30.02000
O  19.34300 48.19800 31.29700
C  19.01400 46.99300 32.09200
H  13.39800 53.47200 28.61800
H  14.09900 52.81800 22.06900
H  19.65300 49.75300 23.10200
H  16.55300 50.56700 30.94300
H  15.09900 53.06500 30.62000
H  14.12400 50.63300 31.17900
H  13.16500 51.23800 29.85500
H  13.32300 52.19600 31.33400
H  17.26300 53.56500 30.50900
H  18.43300 52.43800 30.23700
H  17.78500 53.47900 32.70100
H  18.91100 52.18500 32.43500
H  11.40600 55.53700 26.16600
H  11.99100 54.85500 27.71700
H  10.77700 54.01700 26.71200
H  9.92500 55.07500 22.74900
H  10.99500 55.92200 23.83000
H  10.09700 54.60200 24.48000
H  16.14200 52.59100 20.76900
H  17.87300 50.18900 21.04800
H  14.79500 49.99900 21.34000
H  15.81000 50.04200 19.94300
H  14.54100 51.29900 20.10600
H  19.35300 52.36700 22.27100
H  18.39900 53.12900 21.04400
H  20.27800 52.73700 19.79900
H  19.57700 51.17900 19.49400
H  20.64200 51.43500 20.90800
H  22.04200 49.17500 25.07500
H  21.03200 47.85500 24.48400
H  21.46100 47.72800 26.06700
H  19.56700 50.31600 30.14500
H  19.77800 46.78500 32.84100
H  19.02200 46.20900 31.33400
H  18.08500 47.20800 32.62000

