158

Mg 8.40000 3.79100 27.76500
C  9.72800 2.33600 30.76400
C  6.51800 5.84100 29.96400
C  6.77400 4.93000 25.15700
C  9.43400 1.01300 26.02100
N  8.21600 4.11700 30.08000
C  8.90800 3.41100 31.05700
C  8.75200 4.08000 32.46800
C  7.66500 5.11300 32.10300
C  7.40800 5.00700 30.65400
C  6.47100 5.20400 33.03900
C  10.06400 4.67800 32.90900
C  10.01000 5.26500 34.30500
H  10.96100 4.81400 35.44000
N  6.88800 5.24700 27.62600
C  6.21000 5.94000 28.55700
C  5.40200 6.92700 27.97800
C  5.45500 6.74400 26.58700
C  6.36200 5.55100 26.40700
C  4.57500 7.96700 28.75300
C  4.94700 7.56200 25.48000
O  5.08500 7.32500 24.30600
C  4.20000 8.85800 25.73200
N  8.27500 3.20100 25.86100
C  7.63500 3.87900 24.91400
C  7.57000 3.17000 23.54600
C  8.25100 1.83900 23.92600
C  8.75100 2.01900 25.36300
C  6.22900 3.16300 22.81000
C  9.37900 1.51700 22.90600
C  9.11300 0.23900 22.22300
N  9.43700 2.03600 28.20400
C  9.76200 0.97300 27.44700
C  10.51800 -0.03900 28.17700
C  10.57500 0.48900 29.51200
C  9.89200 1.73000 29.46500
C  10.90600 -1.42700 27.65600
C  10.97800 0.17300 30.81100
O  11.63200 -0.75300 31.27100
C  10.51700 1.45600 31.69100
C  9.72100 0.91600 32.81500
O  8.60100 0.45900 32.77100
O  10.46600 1.16600 33.97800
C  9.81600 0.87100 35.23400
H  5.94100 6.46200 30.65300
H  6.40100 5.22300 24.17300
H  9.67600 0.14800 25.40000
H  8.35600 3.40100 33.22400
H  8.14500 6.08600 32.20700
H  6.16800 4.22400 33.40800
H  5.55800 5.33900 32.46100
H  6.45800 6.00600 33.77700
H  10.40300 5.38400 32.15000
H  10.85700 3.94000 32.79300
H  8.98300 5.15300 34.65200
H  10.13600 6.34700 34.28200
H  5.18800 8.86800 28.72200
H  4.53100 7.60900 29.78200
H  3.59600 8.11200 28.29600
H  4.22700 9.45500 24.82100
H  4.69800 9.41900 26.52300
H  3.21900 8.70800 26.18300
H  8.16700 3.68700 22.79400
H  7.62700 0.94600 23.97400
H  5.40700 3.45600 23.46300
H  6.05600 2.11300 22.57500
H  6.28900 3.76100 21.90100
H  10.38900 1.54300 23.31300
H  9.52600 2.27100 22.13400
H  9.32600 0.40700 21.16700
H  8.15100 -0.24900 22.37600
H  9.82600 -0.50800 22.57400
H  10.04200 -1.86700 27.15900
H  11.17700 -2.04600 28.51100
H  11.83800 -1.37200 27.09200
H  11.41200 1.94900 32.06900
H  10.65800 0.67800 35.89800
H  9.14700 0.01500 35.13900
H  9.25700 1.79900 35.35400
Mg -11.97900 38.41600 42.01600
C  -10.02200 35.61800 41.31800
C  -10.11800 40.33000 40.01700
C  -14.48700 40.63900 42.05100
C  -14.34200 36.07300 43.45800
N  -10.40100 37.90200 40.65400
C  -9.61800 36.72500 40.60200
C  -8.37700 36.93500 39.73200
C  -8.32000 38.51600 39.50300
C  -9.67800 38.98000 40.14200
C  -7.12600 39.16800 40.17900
C  -8.34800 36.00700 38.48500
C  -7.05100 35.27500 38.13500
H  -6.30100 35.87600 36.97900
N  -12.15400 40.32800 41.33000
C  -11.28800 40.95500 40.56400
C  -11.72500 42.33700 40.25600
C  -13.07800 42.49000 40.87100
C  -13.32400 41.11800 41.47700
C  -10.87400 43.31800 39.58500
C  -14.00500 43.72200 40.70000
O  -13.50300 44.74800 40.22200
C  -15.43400 43.61600 41.11100
N  -14.23600 38.29400 42.31800
C  -14.84200 39.37300 42.51800
C  -16.37400 39.08600 42.78800
C  -16.23600 37.64800 43.33500
C  -14.87500 37.26600 42.96100
C  -17.09500 40.02800 43.68500
C  -17.34000 36.61500 42.76200
C  -18.46300 36.11300 43.74900
N  -12.17200 36.31100 42.39700
C  -13.06500 35.62200 43.16500
C  -12.51600 34.36500 43.53100
C  -11.29700 34.28000 42.79300
C  -11.17300 35.53800 42.13500
C  -13.11400 33.26000 44.39400
C  -10.22900 33.48100 42.53600
O  -9.77900 32.35700 42.81600
C  -9.44500 34.24600 41.43100
C  -7.99700 34.26300 41.75900
O  -7.11800 33.82900 40.99500
O  -7.72200 34.99300 42.95100
C  -6.32900 35.13800 43.28600
H  -9.52300 40.93000 39.32400
H  -15.32200 41.34100 42.09800
H  -14.96400 35.52200 44.16600
H  -7.54100 36.60300 40.34800
H  -8.24800 38.74500 38.43900
H  -6.47900 38.35900 40.51700
H  -7.41600 39.72200 41.07200
H  -6.60200 39.89200 39.55500
H  -8.57600 36.55400 37.57000
H  -9.14200 35.27400 38.62300
H  -7.42800 34.29400 37.84300
H  -6.33500 35.30000 38.95600
H  -9.86400 42.96100 39.78300
H  -11.10500 44.31100 39.97100
H  -10.97200 43.22800 38.50300
H  -15.92600 42.75700 40.65400
H  -15.93100 44.48800 40.68700
H  -15.64400 43.63200 42.18000
H  -16.97400 39.07600 41.87800
H  -16.40600 37.64300 44.41100
H  -16.55500 40.89200 44.07500
H  -17.26100 39.48800 44.61700
H  -18.08600 40.29400 43.31900
H  -16.83900 35.71500 42.40500
H  -17.78500 36.92600 41.81700
H  -18.63300 35.03700 43.76700
H  -19.40200 36.63900 43.57500
H  -18.14900 36.39700 44.75300
H  -14.06000 32.96000 43.94200
H  -13.36600 33.48400 45.43100
H  -12.35000 32.48300 44.37900
H  -9.50400 33.54800 40.59500
H  -6.39900 35.68500 44.22700
H  -5.91700 35.86200 42.58300
H  -5.76800 34.20400 43.31800

