158

Mg 47.80700 16.31200 27.94900
C  45.91200 15.98800 30.91100
C  49.89700 18.40800 29.65400
C  49.23800 17.01500 24.98500
C  45.25700 14.46400 26.31800
N  47.89100 17.05400 30.06600
C  47.02600 16.78600 31.07800
C  47.52800 17.36800 32.46700
C  48.61000 18.36600 31.89400
C  48.82400 17.99500 30.41200
C  48.17500 19.80200 32.03900
C  48.02000 16.32600 33.51400
C  47.83800 16.83500 35.00400
H  47.63000 18.27600 35.35400
N  49.50900 17.42800 27.48100
C  50.24600 18.18500 28.33300
C  51.41600 18.73800 27.65500
C  51.20800 18.42500 26.23900
C  49.91600 17.63000 26.12100
C  52.55700 19.41600 28.41800
C  52.16000 18.72200 25.08800
O  51.89400 18.28500 23.95000
C  53.42100 19.55100 25.31000
N  47.37600 15.78700 25.97100
C  48.09000 16.20300 24.91700
C  47.54700 15.64100 23.61200
C  46.30800 14.80700 24.10000
C  46.35500 14.96800 25.59000
C  47.20000 16.68800 22.54400
C  46.35700 13.29900 23.65000
C  45.73300 13.13500 22.25200
N  45.89300 15.50600 28.45200
C  44.94500 14.77900 27.70300
C  43.82200 14.44900 28.50400
C  44.20800 14.81900 29.79200
C  45.43500 15.51100 29.70600
C  42.66700 13.56200 28.09000
C  43.73700 14.77200 31.17500
O  42.75800 14.31700 31.74800
C  44.89500 15.53000 31.90900
C  44.29700 16.73000 32.67100
O  44.03200 17.84100 32.17900
O  44.05100 16.30400 34.00000
C  43.48600 17.36900 34.87000
H  50.57600 19.05100 30.21700
H  49.68200 17.24600 24.01400
H  44.52200 13.75100 25.94000
H  46.64200 17.90900 32.79800
H  49.56700 18.24500 32.40000
H  47.40400 20.15600 32.72300
H  48.04400 20.28400 31.07100
H  49.04100 20.31000 32.46400
H  49.05500 16.09300 33.26500
H  47.39800 15.44900 33.33600
H  48.62600 16.52200 35.68700
H  46.97000 16.29500 35.38000
H  53.43700 18.78200 28.30300
H  52.46900 19.35300 29.50200
H  52.67700 20.42000 28.01200
H  53.58900 20.03500 24.34800
H  54.24100 18.91700 25.64900
H  53.17200 20.35400 26.00400
H  48.25300 14.93400 23.17600
H  45.40300 15.26900 23.70600
H  47.82700 16.63500 21.65400
H  47.41800 17.69100 22.91100
H  46.18200 16.61600 22.16000
H  45.92400 12.60200 24.36700
H  47.40900 13.01300 23.67200
H  44.87600 12.49300 22.45600
H  46.44500 12.74900 21.52300
H  45.32500 14.04800 21.81700
H  43.06300 12.74100 27.49300
H  42.01300 14.26400 27.57300
H  42.11200 13.13900 28.92800
H  45.29700 14.80100 32.61200
H  42.42900 17.39400 34.60600
H  44.06300 18.29300 34.83600
H  43.47400 17.09600 35.92500
Mg 9.29900 47.47100 26.43700
C  7.35200 47.88900 29.42900
C  12.14100 48.36800 28.17500
C  11.01600 47.27600 23.61300
C  6.28600 46.62800 24.77300
N  9.63800 48.25600 28.50600
C  8.70800 48.21200 29.57800
C  9.36600 48.60300 30.87000
C  10.83400 49.10200 30.39200
C  10.88900 48.58100 28.91700
C  11.23300 50.59000 30.45500
C  9.67400 47.35900 31.80900
C  9.13600 47.52400 33.20500
H  9.35100 46.37300 34.24900
N  11.27200 47.67800 26.01600
C  12.32200 47.95400 26.87000
C  13.60400 48.01400 26.17700
C  13.33200 47.79300 24.83100
C  11.85700 47.56200 24.75200
C  14.96700 48.35100 26.85400
C  14.20700 47.60900 23.63500
O  13.75700 47.30300 22.56300
C  15.59900 47.88200 23.77700
N  8.76300 47.01500 24.54400
C  9.70000 46.95700 23.53700
C  9.04900 46.53800 22.24100
C  7.59400 46.16700 22.61600
C  7.49200 46.71000 24.04500
C  9.10900 47.62100 21.07300
C  7.29900 44.73400 22.38400
C  8.10500 43.68400 23.12900
N  7.20900 47.32500 26.90500
C  6.14400 47.04400 26.06900
C  4.98400 47.09000 26.89800
C  5.39500 47.33800 28.19400
C  6.79500 47.55300 28.20600
C  3.57100 46.98100 26.38200
C  4.92000 47.55400 29.56000
O  3.85800 47.63700 30.10400
C  6.19000 47.79600 30.42000
C  6.30900 46.55300 31.30200
O  6.68400 45.44100 30.99500
O  5.82900 46.79700 32.57900
C  5.88800 45.74400 33.56100
H  12.98200 48.76900 28.74500
H  11.35400 47.32100 22.57500
H  5.45800 46.30400 24.13900
H  8.79800 49.42900 31.29700
H  11.66900 48.64500 30.92300
H  11.98900 50.68900 29.67600
H  11.51900 50.95500 31.44100
H  10.22700 50.95500 30.24400
H  10.72500 47.19000 32.04200
H  9.12900 46.48300 31.45800
H  8.05100 47.58200 33.12200
H  9.41800 48.49900 33.60100
H  15.63300 47.49800 26.72900
H  15.01600 48.67200 27.89400
H  15.43900 49.24300 26.44300
H  16.16600 47.76100 22.85400
H  15.81700 47.08200 24.48500
H  15.70300 48.85200 24.26400
H  9.67700 45.74300 21.83900
H  6.89400 46.82800 22.10500
H  9.53800 47.18000 20.17300
H  9.80700 48.41300 21.34100
H  8.11900 47.99800 20.81500
H  7.25200 44.49100 21.32300
H  6.29000 44.60400 22.77500
H  9.05200 44.01500 23.55500
H  8.26400 42.82000 22.48300
H  7.65400 43.27700 24.03300
H  2.87900 47.52900 27.02100
H  3.24100 45.96300 26.17200
H  3.51900 47.50600 25.42800
H  6.16100 48.75000 30.94600
H  4.92100 45.24400 33.61100
H  5.89100 46.25900 34.52200
H  6.72100 45.05400 33.42300

