158

Mg 41.82400 40.89000 26.40900
C  40.76300 43.19700 28.87400
C  42.72200 38.67900 28.92900
C  43.01400 38.78300 23.97200
C  40.98800 43.16000 23.88000
N  41.71800 41.03100 28.63300
C  41.15200 41.99000 29.44000
C  41.28700 41.58700 30.94000
C  41.96500 40.15400 30.86200
C  42.20000 39.95200 29.36000
C  43.24400 40.05600 31.70600
C  39.91600 41.75100 31.71500
C  39.77200 42.83400 32.74100
H  39.06800 42.53700 34.08500
N  42.67700 38.96400 26.45400
C  42.98700 38.24100 27.56600
C  43.43000 36.90100 27.14600
C  43.51100 36.88700 25.70400
C  43.06200 38.24100 25.31100
C  43.77200 35.81500 28.12600
C  43.96900 35.78100 24.64500
O  44.04600 35.88900 23.41600
C  44.23800 34.48500 25.20700
N  42.04000 40.98200 24.24100
C  42.54800 39.96600 23.45900
C  42.48800 40.28000 21.99400
C  41.58100 41.52200 21.95500
C  41.53300 41.91600 23.42900
C  43.84700 40.38400 21.22300
C  40.12000 41.45200 21.33400
C  39.23100 40.25100 21.72900
N  41.08600 42.81900 26.28600
C  40.81300 43.61900 25.18700
C  40.26100 44.89300 25.61700
C  40.31000 44.81600 27.06000
C  40.70400 43.50200 27.41800
C  39.77300 46.01200 24.80800
C  40.06900 45.46700 28.32600
O  39.66100 46.60800 28.57000
C  40.42600 44.57200 29.50700
C  41.47800 45.19300 30.38600
O  42.63400 45.37300 30.13200
O  40.88900 45.48400 31.62000
C  41.72900 46.11600 32.62400
H  42.91100 37.99300 29.75700
H  43.27900 38.06100 23.19700
H  40.83000 43.94700 23.14000
H  42.08300 42.18100 31.38700
H  41.16600 39.46000 31.12300
H  43.37600 39.17700 32.33700
H  43.28900 40.83800 32.46400
H  44.08200 40.33700 31.06900
H  39.76100 40.79100 32.20600
H  39.09400 41.87900 31.01100
H  39.36800 43.75700 32.32600
H  40.73400 43.23100 33.06600
H  43.17500 35.95300 29.02800
H  44.84200 35.77000 28.32500
H  43.48100 34.82800 27.76800
H  43.41900 34.00600 25.74300
H  44.95000 34.74800 25.98900
H  44.72400 33.84100 24.47400
H  41.99100 39.46500 21.46900
H  42.08400 42.40700 21.56500
H  44.56500 39.79600 21.79600
H  43.95700 41.43200 20.94700
H  43.68100 39.75500 20.34800
H  40.22900 41.46700 20.25000
H  39.54400 42.34300 21.58400
H  38.77300 39.67300 20.92600
H  38.41600 40.62100 22.35200
H  39.70500 39.51600 22.37900
H  40.62800 46.68200 24.89600
H  38.83500 46.40000 25.20500
H  39.64500 45.63300 23.79400
H  39.53000 44.61600 30.12700
H  41.44400 45.68200 33.58300
H  41.51500 47.18400 32.57900
H  42.80400 46.01000 32.48300
Mg -0.11900 43.95200 26.37900
C  2.02000 43.22900 29.23300
C  -2.68100 42.72600 28.21700
C  -1.82700 44.12800 23.64100
C  2.86700 44.94800 24.62400
N  -0.28800 43.18800 28.47500
C  0.65300 42.95500 29.47000
C  0.01100 42.58800 30.76200
C  -1.43800 42.24100 30.32300
C  -1.49700 42.76900 28.92000
C  -1.84400 40.71900 30.37900
C  0.01200 43.68600 31.88000
C  0.62200 43.38000 33.28600
H  0.13300 42.08200 33.85500
N  -2.04700 43.53700 25.95100
C  -2.93900 42.99300 26.82400
C  -4.25500 42.85100 26.11400
C  -3.99200 43.08000 24.75700
C  -2.58900 43.65100 24.76100
C  -5.47900 42.34700 26.80100
C  -4.83700 42.97500 23.53900
O  -4.48200 43.28200 22.40900
C  -6.17800 42.36300 23.66300
N  0.38500 44.67400 24.46400
C  -0.54800 44.60500 23.51500
C  0.02500 44.96800 22.14000
C  1.48600 45.50600 22.50400
C  1.63100 45.01300 23.95300
C  -0.09900 43.82700 21.07200
C  1.72300 47.02300 22.39600
C  1.20600 47.95900 23.50500
N  2.04400 44.03000 26.80800
C  3.04700 44.48600 25.99800
C  4.25400 44.36900 26.78800
C  3.87400 43.90200 28.01600
C  2.51000 43.75300 28.00800
C  5.62400 44.74000 26.26000
C  4.40200 43.50100 29.30400
O  5.56200 43.40200 29.71600
C  3.19000 43.14600 30.15900
C  3.42000 41.85600 30.85800
O  3.20400 40.76000 30.39300
O  3.90700 42.08100 32.17200
C  4.14600 40.88500 32.98600
H  -3.54300 42.45200 28.82800
H  -2.41200 44.22200 22.72400
H  3.69800 45.20000 23.96200
H  0.57000 41.77100 31.21900
H  -2.15500 42.77200 30.94900
H  -1.08600 40.20200 30.96800
H  -1.74300 40.35100 29.35800
H  -2.83400 40.62800 30.82500
H  -0.97800 44.09500 32.08200
H  0.70300 44.42200 31.46800
H  0.50400 44.25900 33.92000
H  1.70000 43.40900 33.12800
H  -5.45800 42.42400 27.88800
H  -5.64200 41.32700 26.45200
H  -6.34800 42.87000 26.40100
H  -6.13300 41.48900 24.31300
H  -6.57400 42.04500 22.69800
H  -6.84400 43.06500 24.16500
H  -0.55600 45.83900 21.83600
H  2.27000 45.06300 21.89100
H  0.77100 43.95000 20.42600
H  -0.91700 43.92100 20.35900
H  -0.06000 42.79900 21.43400
H  1.28400 47.47800 21.50800
H  2.80300 47.10600 22.27400
H  2.01100 48.64300 23.77600
H  1.18000 47.39300 24.43600
H  0.23300 48.42400 23.34900
H  5.62800 44.47800 25.20200
H  6.29000 44.11100 26.85100
H  5.66000 45.82600 26.35100
H  3.12500 43.89600 30.94700
H  4.82500 40.18400 32.49900
H  3.22400 40.31900 33.11800
H  4.49300 41.13400 33.98900

