158

Mg 9.80700 47.86900 26.83700
C  8.11900 48.11100 29.90700
C  12.46300 49.55800 28.36800
C  11.16600 47.95400 23.88000
C  6.54000 47.11500 25.38600
N  10.19000 48.72000 28.86800
C  9.41200 48.54300 30.01600
C  10.18300 48.92600 31.25500
C  11.19800 49.88800 30.56000
C  11.37600 49.35000 29.16600
C  10.86200 51.42900 30.64300
C  10.82300 47.70900 32.13700
C  10.43800 47.78400 33.65300
H  10.31200 46.47600 34.39200
N  11.66000 48.49100 26.22600
C  12.62700 49.10200 27.00500
C  13.81700 49.25500 26.15500
C  13.47900 48.70600 24.85200
C  12.02900 48.36100 24.92200
C  15.06300 49.99900 26.63700
C  14.41700 48.59300 23.69000
O  14.06800 48.20400 22.59900
C  15.89000 48.83200 23.94200
N  8.94100 47.68500 24.91300
C  9.76700 47.71500 23.86800
C  9.06400 47.28200 22.55000
C  7.64400 46.82000 23.06300
C  7.68600 47.31600 24.57400
C  9.01900 48.29700 21.50600
C  7.39100 45.28500 22.94200
C  7.96500 44.25000 23.94300
N  7.68700 47.70600 27.51300
C  6.50400 47.33000 26.81900
C  5.39800 47.13600 27.73600
C  6.04900 47.39400 29.01800
C  7.41100 47.74900 28.78600
C  3.94800 46.73500 27.40600
C  5.75800 47.40100 30.44900
O  4.72300 47.24000 31.04600
C  7.15600 47.76200 31.06500
C  7.57800 46.47300 31.74300
O  7.89500 45.48000 31.16800
O  7.32000 46.53500 33.09200
C  7.24600 45.27400 33.78100
H  13.25400 50.14400 28.84200
H  11.62600 47.81900 22.89900
H  5.60600 46.71700 24.98400
H  9.56700 49.55200 31.90100
H  12.12900 49.87300 31.12600
H  10.16600 51.60800 31.46200
H  10.50100 51.75000 29.66600
H  11.74800 52.04200 30.80700
H  11.91100 47.73800 32.08800
H  10.45900 46.76100 31.74200
H  9.49100 48.32400 33.64400
H  11.22900 48.31500 34.18300
H  14.82500 50.41500 27.61600
H  15.34900 50.70900 25.86200
H  15.90700 49.31400 26.71800
H  16.22100 48.14800 24.72300
H  16.08600 49.87300 24.20100
H  16.49300 48.55400 23.07700
H  9.57200 46.36500 22.25100
H  6.85700 47.35100 22.52800
H  9.79500 49.01000 21.78600
H  8.10900 48.89400 21.56700
H  9.17900 48.04100 20.45900
H  7.62200 44.97200 21.92300
H  6.35200 45.04900 23.17500
H  8.60300 44.78200 24.64900
H  8.68800 43.59500 23.45800
H  7.24400 43.79500 24.62300
H  3.75700 46.57500 26.34500
H  3.27200 47.47600 27.83300
H  3.75000 45.78500 27.90200
H  7.09100 48.54100 31.82500
H  7.75000 44.39800 33.37300
H  6.19600 44.99100 33.85200
H  7.67800 45.48400 34.75900
Mg 1.40800 42.37900 27.03100
C  2.71900 42.28300 30.34500
C  -1.46100 40.79400 28.36400
C  0.26500 41.73100 23.90000
C  4.34900 43.39600 25.83200
N  0.65100 41.82400 29.13900
C  1.36000 41.93900 30.33400
C  0.49900 41.56900 31.51100
C  -0.80700 41.01500 30.90700
C  -0.56800 41.22000 29.33800
C  -1.19300 39.56900 31.36300
C  0.39200 42.74700 32.57500
C  0.98800 42.41300 34.00100
H  0.13800 42.08400 35.20500
N  -0.35000 41.39500 26.25200
C  -1.41600 40.88500 26.93900
C  -2.42700 40.45000 25.97500
C  -1.96600 40.68600 24.71200
C  -0.62000 41.29500 24.87900
C  -3.71200 39.84200 26.47900
C  -2.67400 40.56400 23.41900
O  -2.18700 40.80700 22.30100
C  -4.08100 40.04700 23.48600
N  2.16900 42.53900 25.19400
C  1.51200 42.31100 24.02800
C  2.32400 42.80200 22.81000
C  3.55900 43.52000 23.41500
C  3.33700 43.08600 24.91000
C  2.72900 41.64600 21.83400
C  3.39500 45.01900 23.23900
C  3.77200 45.46300 21.85400
N  3.19200 42.80600 27.88900
C  4.32200 43.20200 27.21300
C  5.38100 43.39500 28.20300
C  4.77900 43.04300 29.40600
C  3.43500 42.69400 29.18000
C  6.77900 43.86300 28.00800
C  4.98500 42.86100 30.82500
O  6.02600 43.02200 31.44000
C  3.68800 42.38500 31.51400
C  3.98000 41.04800 32.17700
O  4.02300 39.96600 31.64700
O  4.42400 41.31800 33.40900
C  4.73700 40.10400 34.19300
H  -2.39400 40.40300 28.77500
H  -0.09500 41.56500 22.88300
H  5.22000 43.87700 25.38400
H  1.04500 40.76400 32.00200
H  -1.56800 41.74400 31.18700
H  -0.58000 39.26700 32.21200
H  -1.16900 38.82600 30.56600
H  -2.20000 39.79400 31.71500
H  -0.62500 43.10000 32.74300
H  0.84200 43.64700 32.15500
H  1.53200 43.34100 34.18000
H  1.81000 41.71000 33.86600
H  -3.80600 39.66700 27.55100
H  -3.74500 38.81500 26.11500
H  -4.59400 40.40500 26.17200
H  -4.46000 39.93700 22.47000
H  -4.64700 40.77100 24.07200
H  -4.03500 39.03500 23.88700
H  1.60300 43.42500 22.28200
H  4.56200 43.31100 23.04200
H  3.44800 41.02300 22.36600
H  3.19100 42.18200 21.00500
H  1.86100 41.02600 21.61300
H  3.86000 45.63400 24.01000
H  2.34100 45.28200 23.32600
H  4.05900 44.62100 21.22400
H  4.64000 46.12200 21.87300
H  2.96500 46.04100 21.40100
H  7.06500 44.68000 28.67000
H  6.84000 44.33400 27.02700
H  7.44200 42.99800 28.02400
H  3.49800 43.16300 32.25300
H  5.77700 40.32200 34.43600
H  4.81400 39.15500 33.66300
H  4.10900 39.95300 35.07100

