158

Mg 47.98800 15.97000 29.18700
C  45.94100 15.75100 31.83400
C  50.23300 17.85900 31.05600
C  49.82100 16.36100 26.36800
C  45.42700 14.48800 27.14800
N  48.03400 16.82900 31.19500
C  47.15500 16.41200 32.11300
C  47.79400 16.63500 33.53000
C  48.87700 17.71000 33.23300
C  49.00700 17.56800 31.70200
C  48.50400 19.12700 33.61000
C  48.34600 15.33900 34.23600
C  48.66100 15.42100 35.73500
H  48.43100 16.74600 36.43200
N  49.81600 16.82400 28.86600
C  50.59900 17.49100 29.76000
C  51.94700 17.67400 29.18800
C  51.81700 17.32300 27.79400
C  50.45400 16.82800 27.61400
C  53.18000 18.00500 29.89700
C  52.80900 17.43300 26.57300
O  52.59300 16.86900 25.50300
C  54.09300 18.22800 26.68000
N  47.62400 15.58700 27.08300
C  48.56500 15.83900 26.14900
C  48.13500 15.54900 24.66700
C  46.81800 14.71700 24.97200
C  46.62900 14.90600 26.49900
C  47.75900 16.88800 23.88300
C  46.88100 13.20600 24.63900
C  45.98400 12.61600 23.54100
N  46.07000 15.29300 29.41600
C  45.13500 14.74400 28.54500
C  43.87300 14.49400 29.23100
C  44.20000 14.82900 30.57700
C  45.49100 15.34300 30.60200
C  42.64100 13.91800 28.64500
C  43.65100 14.82200 31.89900
O  42.59000 14.40700 32.30300
C  44.79200 15.35400 32.81500
C  44.28100 16.43800 33.78500
O  43.89100 17.54500 33.46300
O  44.34100 16.03200 35.05800
C  44.03800 17.07200 36.04300
H  51.09400 18.20100 31.63600
H  50.34500 16.52000 25.42400
H  44.64800 13.96800 26.58700
H  47.09900 17.05000 34.25900
H  49.78800 17.32300 33.68900
H  49.43100 19.69700 33.54700
H  48.04900 19.26900 34.59000
H  47.94700 19.50400 32.75200
H  49.28200 15.05700 33.75300
H  47.59700 14.55300 34.14300
H  49.66400 15.03100 35.90800
H  47.95600 14.67800 36.10900
H  53.67100 18.85500 29.42500
H  53.76500 17.11400 29.66900
H  53.11900 18.09200 30.98200
H  54.71300 17.49900 27.20200
H  53.91400 19.15000 27.23400
H  54.40800 18.47400 25.66600
H  48.90000 15.04200 24.07900
H  45.90700 15.10600 24.51800
H  47.65700 17.75200 24.54000
H  46.87600 16.61500 23.30500
H  48.61100 16.97500 23.20800
H  46.70300 12.65800 25.56500
H  47.93100 13.07800 24.37800
H  46.42000 11.68900 23.16800
H  45.75000 13.35000 22.77000
H  45.05700 12.25800 23.98900
H  42.40200 14.28200 27.64500
H  41.82800 14.20500 29.31200
H  42.62100 12.83100 28.57700
H  45.15600 14.50800 33.39800
H  44.79200 17.85200 35.94500
H  44.01500 16.50400 36.97300
H  43.02500 17.46700 35.96100
Mg 28.25800 56.50700 40.36900
C  25.98600 53.95900 39.32600
C  30.65100 54.58000 38.91800
C  30.37300 59.16400 40.20600
C  25.50500 58.68700 40.63600
N  28.19500 54.53000 39.14200
C  27.26300 53.65800 38.91500
C  27.76900 52.37600 38.25700
C  29.32600 52.53500 38.43500
C  29.40500 53.98700 38.93500
C  29.90600 51.64000 39.48000
C  27.29900 52.09200 36.86200
C  27.81800 53.12500 35.73500
H  26.82400 53.71100 34.71400
N  30.33400 56.77600 39.87600
C  31.11800 55.85500 39.30300
C  32.50700 56.34900 39.30700
C  32.38600 57.74400 39.72900
C  31.00400 57.97200 40.00000
C  33.69900 55.53900 38.82100
C  33.58300 58.70500 39.81300
O  34.66200 58.36800 39.26300
C  33.51000 59.97400 40.59900
N  27.98000 58.55000 40.36100
C  29.02100 59.44600 40.37200
C  28.46200 60.88700 40.62100
C  26.91900 60.77700 40.51200
C  26.78300 59.26700 40.50600
C  28.87700 61.40600 41.98500
C  26.30800 61.41600 39.26600
C  25.23000 62.48700 39.53800
N  26.19400 56.30300 40.36400
C  25.20100 57.27800 40.55700
C  23.89700 56.59000 40.56700
C  24.18600 55.26900 40.09000
C  25.59200 55.21200 39.93300
C  22.62000 57.31400 40.98800
C  23.58600 54.00000 39.81000
O  22.42200 53.63000 39.86500
C  24.72100 53.09700 39.19800
C  24.81300 51.81200 39.95700
O  24.53100 50.69600 39.50200
O  25.37900 52.02600 41.23700
C  25.66100 50.81500 42.07200
H  31.42300 53.93200 38.49700
H  30.92900 60.08500 40.01800
H  24.63200 59.33800 40.71400
H  27.41800 51.55900 38.88700
H  29.83300 52.36900 37.48400
H  29.39000 50.68900 39.61100
H  29.97700 52.16100 40.43500
H  30.91500 51.38800 39.15400
H  26.21200 52.02200 36.91600
H  27.73300 51.14100 36.55200
H  28.67400 52.79600 35.14500
H  28.22200 53.95400 36.31500
H  34.03100 55.81800 37.82100
H  33.39900 54.49500 38.73000
H  34.55200 55.61800 39.49300
H  32.69500 59.84200 41.31000
H  33.36400 60.74200 39.83800
H  34.44200 60.31100 41.05300
H  28.86900 61.58900 39.89300
H  26.40400 61.15200 41.39700
H  29.70700 60.90400 42.48300
H  28.04300 61.53400 42.67400
H  29.21400 62.43600 41.86600
H  26.00100 60.53700 38.69900
H  27.04400 61.98000 38.69200
H  25.44700 63.33400 38.88800
H  25.13500 62.83100 40.56800
H  24.33200 62.08900 39.06600
H  21.85100 56.56000 41.15800
H  22.29300 57.85000 40.09800
H  22.84600 57.99000 41.81200
H  24.46300 53.11800 38.13900
H  26.58800 51.07900 42.58000
H  25.80900 49.99500 41.36900
H  24.93400 50.60300 42.85600

