158

Mg 25.26000 0.72300 29.74200
C  27.27400 0.65700 32.64400
C  22.42500 0.92700 31.76900
C  23.45100 0.17600 26.92900
C  28.15900 -0.00900 27.83900
N  24.93700 0.71700 32.05400
C  25.92400 0.71000 33.05600
C  25.25100 0.83700 34.46900
C  23.70800 0.87200 34.05900
C  23.67400 0.82800 32.52400
C  22.81400 -0.25800 34.71300
C  25.76600 2.10300 35.37900
C  26.40500 1.83600 36.68100
H  26.26700 2.95600 37.74600
N  23.26700 0.69100 29.41300
C  22.23600 0.81400 30.30000
C  21.03000 1.04700 29.58700
C  21.26300 0.84100 28.24600
C  22.74300 0.59300 28.11500
C  19.69400 1.26600 30.18900
C  20.25700 0.75300 27.12000
O  20.56200 0.37900 25.99300
C  18.93400 1.21000 27.31100
N  25.75900 0.23700 27.77600
C  24.78900 -0.01500 26.82500
C  25.37900 -0.26800 25.45100
C  26.86700 -0.42400 25.81000
C  26.97400 0.02900 27.21400
C  24.64300 -1.32700 24.53900
C  27.71900 0.50200 24.86400
C  27.97800 1.97800 25.22800
N  27.36800 0.50800 30.11500
C  28.40400 0.15000 29.21000
C  29.61200 0.03900 30.07200
C  29.19200 0.26200 31.34700
C  27.84800 0.52600 31.36200
C  31.02000 -0.18900 29.55600
C  29.72300 0.42800 32.65700
O  30.91000 0.41000 33.01900
C  28.50700 0.77200 33.54900
C  28.41400 -0.30800 34.61800
O  27.67000 -1.30200 34.48800
O  29.25800 0.01600 35.62400
C  29.26200 -0.98500 36.76500
H  21.51500 0.94700 32.37300
H  22.83900 0.11700 26.02600
H  29.08100 0.01500 27.25500
H  25.59800 0.01200 35.09000
H  23.34400 1.85400 34.36100
H  21.93900 0.10300 35.25400
H  23.34600 -0.93300 35.38300
H  22.41600 -0.91400 33.93900
H  24.93800 2.74000 35.68900
H  26.35400 2.84000 34.83200
H  27.46200 1.57400 36.65100
H  25.94100 0.95800 37.13100
H  19.15000 2.18400 29.96600
H  19.85500 1.23400 31.26600
H  19.07500 0.39600 29.97000
H  18.50800 1.34000 26.31700
H  18.95500 2.22000 27.72000
H  18.20100 0.61600 27.85700
H  25.27700 0.65700 24.88500
H  27.21700 -1.45400 25.74800
H  25.33200 -2.12000 24.24600
H  24.27700 -0.81400 23.65000
H  23.86100 -1.82100 25.11500
H  27.36600 0.44200 23.83500
H  28.69300 0.01300 24.84900
H  27.49000 2.32300 26.13900
H  27.49100 2.49200 24.40000
H  29.05500 2.14600 25.22100
H  31.36800 0.71200 29.05200
H  30.99900 -1.07700 28.92500
H  31.73900 -0.38200 30.35200
H  28.55000 1.73900 34.05000
H  29.34600 -2.03900 36.49800
H  28.28000 -0.85900 37.22200
H  30.06900 -0.95200 37.49700
Mg 40.40900 9.74600 29.40500
C  42.41500 10.79400 32.08600
C  38.29300 8.33000 31.76100
C  38.75800 8.55600 26.87800
C  42.94300 10.92400 27.24400
N  40.46900 9.47400 31.67700
C  41.26300 10.24000 32.54400
C  40.76100 10.20100 33.98300
C  39.47300 9.23500 33.89800
C  39.42000 8.99000 32.38000
C  39.53300 7.92900 34.65100
C  40.65500 11.52600 34.64600
C  39.62500 11.74300 35.69600
H  40.07700 12.21900 37.07300
N  38.85300 8.57400 29.30900
C  38.01500 8.16800 30.39800
C  36.87000 7.46300 29.90700
C  36.95700 7.57500 28.52500
C  38.27100 8.13500 28.13800
C  35.80400 6.78600 30.69900
C  35.89900 7.32800 27.51000
O  36.05300 7.44000 26.27900
C  34.43400 7.04600 27.92600
N  40.72800 9.83600 27.38600
C  39.87800 9.29600 26.51700
C  40.27600 9.41100 25.09800
C  41.74200 9.96800 25.25500
C  41.78400 10.36600 26.75200
C  40.14900 8.11900 24.11900
C  42.12300 11.29500 24.44300
C  43.60600 11.37200 23.94700
N  42.33500 10.56100 29.58200
C  43.21000 11.07000 28.60300
C  44.36700 11.67900 29.20400
C  44.03600 11.55200 30.57600
C  42.83000 10.89900 30.79700
C  45.55300 12.32800 28.54300
C  44.51700 11.90000 31.95200
O  45.50500 12.56300 32.24700
C  43.47100 11.38100 32.98700
C  44.05600 10.43300 34.03400
O  44.51900 9.31500 33.80600
O  44.31600 11.14500 35.19900
C  45.16200 10.50200 36.30600
H  37.55400 7.88100 32.42800
H  38.09200 8.46000 26.01800
H  43.72100 11.14900 26.51100
H  41.55800 9.63500 34.46500
H  38.59100 9.73000 34.30300
H  39.09800 7.06600 34.14600
H  38.73100 8.02900 35.38300
H  40.39700 7.60500 35.23100
H  40.73400 12.27400 33.85700
H  41.54800 11.68200 35.25100
H  39.11600 10.79900 35.88800
H  38.78800 12.30600 35.28300
H  36.15800 6.25100 31.58100
H  35.45200 5.94800 30.09800
H  34.89800 7.39000 30.66900
H  34.36500 6.01300 28.26700
H  33.80600 7.12500 27.03800
H  34.03400 7.73200 28.67300
H  39.57500 10.16600 24.74100
H  42.31100 9.05100 25.10800
H  40.96200 8.14700 23.39400
H  39.16600 8.32800 23.69700
H  40.17600 7.18000 24.67200
H  41.81000 12.05700 25.15700
H  41.42200 11.47500 23.62800
H  43.46900 11.69100 22.91400
H  44.10000 10.40000 23.93400
H  44.25300 12.06500 24.48300
H  45.36800 12.37000 27.46900
H  46.49600 11.81000 28.72000
H  45.75400 13.36600 28.80800
H  43.12600 12.28200 33.49500
H  46.12500 11.01000 36.25700
H  45.19200 9.43700 36.07900
H  44.68800 10.82500 37.23400

