158

Mg 53.32600 23.96100 44.37300
C  51.07500 26.35700 43.29500
C  51.38500 21.54100 42.94800
C  55.92500 21.85000 44.46000
C  55.39600 26.52200 45.43600
N  51.50000 23.96500 43.21500
C  50.75900 25.05100 42.83100
C  49.55700 24.55200 41.90900
C  49.43800 23.11500 42.38000
C  50.88400 22.79400 42.85400
C  48.32000 22.78400 43.40900
C  49.71600 24.85900 40.37400
C  51.16300 25.26000 39.88600
H  51.37100 25.83100 38.50200
N  53.57500 21.99500 43.92800
C  52.65200 21.15400 43.40800
C  53.06800 19.77100 43.43100
C  54.37100 19.78500 43.93900
C  54.69200 21.25500 44.11600
C  52.29800 18.56300 42.83800
C  55.24500 18.54800 44.19800
O  54.76200 17.41900 43.91600
C  56.51500 18.66100 44.97400
N  55.38600 24.21500 44.64800
C  56.22500 23.17300 44.79500
C  57.63500 23.58800 45.05200
C  57.49800 25.04800 45.50500
C  55.96200 25.29900 45.18700
C  58.52100 22.69700 46.07100
C  58.52600 26.10700 44.98000
C  58.35700 26.73500 43.65400
N  53.18000 25.99000 44.60900
C  54.09400 26.93500 45.15000
C  53.47400 28.22100 45.15900
C  52.24600 28.03700 44.55600
C  52.15400 26.70000 44.15700
C  54.02400 29.47600 45.80200
C  51.01500 28.61900 44.13100
O  50.54400 29.77700 44.36700
C  50.19800 27.52400 43.22800
C  49.95300 28.02000 41.85400
O  50.83700 28.57700 41.16900
O  48.59600 27.88800 41.53600
C  48.20400 28.39600 40.20900
H  50.74500 20.77000 42.51300
H  56.80500 21.20300 44.47200
H  56.12200 27.22000 45.85900
H  48.80800 25.26400 42.25700
H  49.22700 22.46600 41.53000
H  47.30400 22.83400 43.01800
H  48.32600 23.64300 44.08000
H  48.68000 21.94500 44.00500
H  48.87900 25.49500 40.08500
H  49.57400 23.90300 39.87100
H  51.83500 24.42900 40.09900
H  51.51800 26.04300 40.55600
H  51.91300 18.13900 43.76600
H  52.94100 17.82900 42.35200
H  51.53100 18.89600 42.13900
H  56.50500 17.78000 45.61600
H  56.61800 19.52200 45.63400
H  57.39800 18.67900 44.33500
H  57.94700 23.53800 44.00900
H  57.29500 25.13500 46.57200
H  58.80200 23.39200 46.86300
H  59.48800 22.35900 45.69900
H  57.95400 21.85200 46.46300
H  59.54300 25.90600 45.31600
H  58.18700 26.87000 45.68200
H  59.33100 26.83900 43.17700
H  57.66900 27.58000 43.65200
H  57.80700 26.04500 43.01400
H  54.15100 30.13000 44.94000
H  55.02000 29.49100 46.24400
H  53.27400 29.80300 46.52200
H  49.25400 27.40100 43.75800
H  48.22600 29.48600 40.20600
H  47.17300 28.05000 40.14500
H  48.76100 27.93500 39.39300
Mg 42.56200 41.30800 26.02400
C  41.90600 43.32600 28.74400
C  44.05700 39.06300 28.36300
C  43.46100 39.15300 23.55100
C  41.81400 43.66100 23.72300
N  43.07100 41.32100 28.33700
C  42.50300 42.17700 29.25600
C  42.74800 41.73200 30.71800
C  43.58700 40.48300 30.45100
C  43.59700 40.23700 28.98100
C  45.09400 40.48300 30.97400
C  41.40300 41.44000 31.38600
C  40.87900 42.48200 32.46400
H  41.79200 42.76000 33.73000
N  43.39500 39.31700 26.02200
C  43.97400 38.66100 27.02300
C  44.37600 37.36600 26.54800
C  44.08100 37.29500 25.17000
C  43.54700 38.62500 24.84600
C  44.91300 36.29800 27.52600
C  44.36800 36.12500 24.20300
O  43.97000 36.13700 23.08800
C  44.92800 34.79100 24.65000
N  42.84400 41.42300 23.92300
C  43.10600 40.44200 23.14200
C  42.92700 40.74600 21.60900
C  42.30800 42.16700 21.69200
C  42.28500 42.45800 23.20500
C  44.08100 40.54000 20.72800
C  40.93800 42.27800 20.94800
C  39.69400 41.51400 21.60500
N  42.09600 43.13000 26.17700
C  41.82600 44.01000 25.07000
C  41.30800 45.22000 25.62200
C  41.37700 45.04000 27.07800
C  41.78200 43.69500 27.33700
C  40.87800 46.50500 24.93000
C  41.10600 45.58800 28.30700
O  40.71200 46.75200 28.49500
C  41.38800 44.59300 29.42600
C  42.51600 45.11900 30.22600
O  43.63300 45.24000 29.83800
O  42.00300 45.54400 31.36800
C  42.97700 46.18500 32.20400
H  44.51400 38.45300 29.14500
H  43.63300 38.37500 22.80400
H  41.32100 44.39000 23.07700
H  43.29000 42.56700 31.16200
H  43.10500 39.62700 30.92300
H  45.19000 39.50400 31.44300
H  45.21800 41.24500 31.74400
H  45.85200 40.54000 30.19300
H  41.45600 40.49600 31.93000
H  40.64900 41.30400 30.61100
H  39.97600 41.92200 32.70900
H  40.55700 43.42000 32.01300
H  45.50700 36.78100 28.30100
H  45.55100 35.58500 27.00400
H  44.18600 35.70200 28.07900
H  44.70400 34.00800 23.92600
H  44.40600 34.49600 25.56100
H  46.00300 34.96900 24.68600
H  42.10100 40.17500 21.18500
H  42.95000 42.84300 21.12700
H  44.89400 41.13100 21.15000
H  43.87000 40.80100 19.69100
H  44.37800 39.49100 20.71700
H  41.08100 41.91900 19.92900
H  40.73400 43.34600 21.02900
H  39.39000 40.65000 21.01300
H  38.84600 42.15600 21.84000
H  40.00400 41.15300 22.58600
H  40.41400 46.48000 23.94400
H  41.79400 47.09400 24.98200
H  40.22400 47.04200 25.61700
H  40.50300 44.51000 30.05600
H  43.63600 46.89700 31.70700
H  43.63800 45.36600 32.48500
H  42.61300 46.57200 33.15600

