158

Mg 35.79400 1.96100 29.61400
C  33.89400 3.28200 32.13200
C  38.70200 2.36600 31.69800
C  37.65600 0.98700 27.06100
C  33.02800 2.22200 27.40900
N  36.21900 2.88000 31.54200
C  35.22600 3.06400 32.47900
C  35.76500 3.12500 33.94100
C  37.27800 3.28200 33.61900
C  37.43900 2.79200 32.20200
C  37.85000 4.67900 33.70900
C  35.40600 1.80200 34.72100
C  34.93100 1.87000 36.19100
H  35.14900 3.15500 37.01900
N  37.86200 1.62100 29.40400
C  38.87100 1.84600 30.36700
C  40.13600 1.46000 29.85100
C  39.94000 1.21900 28.46800
C  38.41800 1.23800 28.24200
C  41.25600 1.48400 30.68100
C  40.97500 0.92500 27.40700
O  40.64600 0.65500 26.28300
C  42.42300 0.98500 27.71800
N  35.38400 1.69500 27.50400
C  36.30600 1.09600 26.76800
C  35.83100 0.87200 25.29800
C  34.26300 1.24800 25.42400
C  34.17600 1.67500 26.87000
C  36.58000 1.65000 24.13900
C  33.40300 0.04600 25.10900
C  33.00100 -0.16500 23.63900
N  33.85900 2.48500 29.70200
C  32.82800 2.48400 28.79700
C  31.62900 2.93200 29.47300
C  31.99400 3.19400 30.80200
C  33.37900 2.95900 30.84100
C  30.28300 3.03500 28.89700
C  31.51200 3.59000 32.09000
O  30.33200 3.66800 32.47600
C  32.76300 3.75900 33.04100
C  32.80100 5.12300 33.55700
O  33.52400 5.99600 33.17000
O  32.04800 5.11100 34.78100
C  32.09500 6.43900 35.55800
H  39.44800 2.34200 32.49600
H  38.21000 0.62000 26.19400
H  32.25100 2.13900 26.64600
H  35.38900 4.03800 34.40300
H  37.91600 2.68900 34.27300
H  37.21100 5.43000 34.17300
H  38.07600 5.09900 32.72900
H  38.79400 4.67700 34.25500
H  36.29000 1.16600 34.77400
H  34.70200 1.18200 34.16500
H  35.40900 1.05100 36.72900
H  33.88400 1.60500 36.33300
H  41.42700 2.47300 31.10600
H  42.22300 1.22000 30.25200
H  41.04200 0.90500 31.57900
H  42.62700 0.03600 28.21500
H  42.64700 1.90200 28.26300
H  42.88400 1.01800 26.73100
H  35.86500 -0.20000 25.10600
H  34.03600 2.21700 24.98000
H  36.94000 0.93500 23.39900
H  37.42100 2.21600 24.53800
H  35.96400 2.38500 23.62200
H  32.47500 -0.03500 25.67500
H  33.88200 -0.89500 25.37900
H  32.01200 0.28300 23.53300
H  33.10600 -1.20700 23.33800
H  33.70100 0.40400 23.02700
H  29.53300 2.48400 29.46500
H  30.21100 2.87200 27.82200
H  30.03100 4.05700 29.17900
H  32.63400 3.08300 33.88600
H  32.89600 6.35800 36.29300
H  31.24700 6.41900 36.24300
H  32.22800 7.36700 35.00200
Mg 53.88400 23.42400 44.35300
C  51.21400 25.82400 43.18700
C  51.89600 21.07500 42.78000
C  56.46300 21.44000 44.24400
C  55.61600 26.15100 45.33100
N  51.81500 23.50400 43.11000
C  51.00400 24.53100 42.72900
C  49.95500 24.02600 41.76100
C  49.86200 22.57600 42.29400
C  51.22900 22.33300 42.83600
C  48.74100 22.28100 43.30500
C  50.52900 24.09500 40.25000
C  49.72100 24.99200 39.20200
H  50.51800 25.56800 37.94600
N  54.08600 21.49900 43.78500
C  53.17400 20.68900 43.21600
C  53.79700 19.34800 42.94100
C  55.12900 19.48200 43.41900
C  55.29200 20.83200 43.81500
C  53.14700 18.15900 42.37900
C  56.05000 18.24900 43.45100
O  55.69700 17.18300 43.02400
C  57.36700 18.29700 44.18900
N  55.90300 23.89600 44.33400
C  56.73000 22.80100 44.52500
C  58.12600 23.32000 45.04400
C  57.77100 24.76800 45.44500
C  56.37900 25.06300 44.93100
C  58.77500 22.48200 46.23800
C  58.65900 25.83100 44.76000
C  58.90300 27.13900 45.56800
N  53.50300 25.56600 44.41500
C  54.33300 26.49400 44.99000
C  53.63200 27.71500 45.08600
C  52.46700 27.49100 44.30400
C  52.39400 26.16100 43.96600
C  54.03400 28.99700 45.77400
C  51.32800 28.11500 43.74400
O  51.01700 29.29000 43.79800
C  50.41200 27.06500 43.03200
C  50.07300 27.53100 41.67600
O  50.88200 27.80800 40.80100
O  48.73000 27.78600 41.66600
C  48.22400 28.38600 40.38100
H  51.40100 20.17400 42.41100
H  57.34100 20.79800 44.34400
H  56.08900 26.94900 45.90700
H  49.00400 24.54700 41.87500
H  49.59200 21.98500 41.41900
H  49.37200 22.03500 44.15900
H  48.12500 21.44600 42.97100
H  48.12100 23.16700 43.44300
H  50.45700 23.09300 39.82700
H  51.57700 24.38300 40.33600
H  49.28500 25.81300 39.77200
H  48.86900 24.38600 38.89400
H  53.19800 17.33000 43.08500
H  53.78300 17.80600 41.56700
H  52.14200 18.32300 41.98800
H  57.08500 18.60500 45.19600
H  58.09500 18.96400 43.72900
H  57.71000 17.27200 44.32900
H  58.77600 23.25200 44.17200
H  57.79200 24.86200 46.53100
H  58.07400 21.65000 46.30300
H  58.89600 23.03400 47.17100
H  59.72100 22.03400 45.93300
H  58.20700 26.08000 43.80000
H  59.62200 25.34800 44.59700
H  58.37800 27.32600 46.50500
H  58.61700 27.93200 44.87800
H  59.92900 27.43000 45.79100
H  55.11300 29.08100 45.91100
H  53.71000 28.85900 46.80600
H  53.45400 29.76300 45.26000
H  49.49700 26.99300 43.61900
H  49.03900 28.90500 39.87800
H  47.42300 29.07600 40.64600
H  47.62300 27.69500 39.79000

