158

Mg 46.76300 34.53800 28.12600
C  45.28500 33.04300 30.89700
C  47.24600 37.44800 30.15900
C  47.88600 36.21900 25.45700
C  45.95000 31.91200 26.18300
N  46.25400 35.18500 30.25500
C  45.82600 34.28500 31.20400
C  46.16400 34.80700 32.58900
C  46.33900 36.33300 32.30600
C  46.53000 36.36000 30.78800
C  45.20500 37.38600 32.79600
C  47.39400 34.17600 33.31300
C  47.51100 34.31100 34.78600
H  46.64000 35.20000 35.67400
N  47.30200 36.63700 27.81100
C  47.58500 37.57300 28.77500
C  48.12000 38.75600 28.15300
C  48.27700 38.44100 26.77100
C  47.82000 37.04200 26.59600
C  48.36300 40.03400 28.89100
C  48.86900 39.32600 25.59000
O  48.87200 38.88500 24.43400
C  49.42400 40.72600 25.76100
N  47.01800 34.05900 26.17800
C  47.49300 34.92500 25.17100
C  47.67700 34.11000 23.85100
C  46.94100 32.77500 24.10300
C  46.71100 32.86700 25.59200
C  47.25000 34.90600 22.61200
C  47.84400 31.53400 23.69300
C  47.08500 30.31200 23.45400
N  45.77800 32.78500 28.42900
C  45.52600 31.76100 27.53000
C  44.89300 30.65200 28.15400
C  44.82000 31.09300 29.49600
C  45.34000 32.42100 29.60400
C  44.45400 29.31300 27.47400
C  44.23500 30.80500 30.77600
O  43.59500 29.87100 31.11300
C  44.46600 32.09700 31.59100
C  44.82200 31.79200 32.96700
O  45.82900 31.25600 33.40500
O  43.64100 31.97400 33.69200
C  43.60500 31.58400 35.13500
H  47.61000 38.24700 30.80800
H  48.23300 36.47300 24.45300
H  45.86500 31.04200 25.52900
H  45.23700 34.64800 33.14100
H  47.34500 36.60000 32.63000
H  44.39200 36.73100 33.10700
H  44.85500 37.92900 31.91700
H  45.39500 38.15500 33.54400
H  48.31600 34.63000 32.95000
H  47.44600 33.11800 33.05600
H  48.53500 34.66500 34.90700
H  47.32300 33.28700 35.10900
H  48.40000 40.89900 28.22900
H  49.39600 39.91800 29.21800
H  47.62100 40.33300 29.63100
H  49.76100 40.93300 26.77600
H  48.56800 41.39400 25.66600
H  50.22000 40.86000 25.02800
H  48.74500 33.90800 23.77700
H  45.93600 32.66400 23.69300
H  46.53700 35.69300 22.85400
H  46.80200 34.28200 21.83900
H  48.18000 35.30000 22.20100
H  48.65000 31.36100 24.40600
H  48.47400 31.71300 22.82100
H  47.13800 29.72000 24.36800
H  47.53300 29.75300 22.63200
H  46.03600 30.51700 23.24400
H  43.52000 29.45900 26.93100
H  44.33400 28.56500 28.25800
H  45.15200 28.93500 26.72700
H  43.47900 32.55500 31.64700
H  42.57700 31.53200 35.49400
H  44.17100 32.40700 35.57100
H  44.10500 30.64600 35.37800
Mg 24.85800 49.89500 27.18900
C  22.95100 51.22100 29.89400
C  27.36700 49.38500 29.42700
C  26.95100 49.30700 24.62900
C  22.42400 51.10100 24.97700
N  25.07600 50.25300 29.34500
C  24.12400 50.63900 30.34000
C  24.64100 50.61900 31.77400
C  26.14200 50.04800 31.51500
C  26.23100 49.98400 29.97700
C  27.37300 50.78000 32.16200
C  23.82300 49.84800 32.85500
C  24.47300 49.62500 34.24000
H  23.88200 50.22300 35.61600
N  26.90300 49.34500 27.09900
C  27.64600 48.97800 28.14000
C  28.84700 48.34700 27.56400
C  28.80200 48.33200 26.14800
C  27.51200 49.04600 25.87000
C  29.90300 47.82700 28.47700
C  29.78600 47.93400 25.13500
O  29.71900 48.22500 23.98000
C  30.95500 47.09100 25.57400
N  24.68900 50.16100 25.11300
C  25.68800 49.87400 24.26700
C  25.46400 50.44200 22.89700
C  23.95200 50.85800 22.91800
C  23.63700 50.80000 24.40800
C  26.46500 51.63800 22.68700
C  23.04100 49.99900 21.96700
C  22.46700 48.63100 22.57600
N  23.01900 50.94500 27.34600
C  22.15200 51.34200 26.36200
C  21.04400 52.03900 26.97600
C  21.27200 51.96100 28.33300
C  22.48400 51.32500 28.54000
C  19.91400 52.66100 26.21200
C  20.77900 52.34400 29.59800
O  19.69700 52.89300 29.89000
C  21.89200 51.98900 30.61600
C  22.26000 53.30300 31.12900
O  22.64700 54.24300 30.53000
O  22.02500 53.30700 32.53500
C  22.18300 54.62300 33.25300
H  28.14900 49.05800 30.11600
H  27.47500 48.96200 23.73600
H  21.71500 51.44800 24.22200
H  24.80200 51.63400 32.13700
H  26.11300 49.03700 31.92300
H  27.99200 49.94900 32.50100
H  26.95200 51.35600 32.98700
H  27.92800 51.34600 31.41400
H  23.46600 48.93300 32.38200
H  22.90000 50.41500 32.98100
H  25.48200 50.02900 34.16100
H  24.39900 48.54100 34.33000
H  30.03900 46.81000 28.11000
H  29.66900 47.87100 29.54100
H  30.92600 48.17800 28.33900
H  30.64400 46.11700 25.95200
H  31.52600 47.69600 26.27900
H  31.64800 46.90500 24.75400
H  25.57400 49.60500 22.20800
H  23.86600 51.87800 22.54300
H  27.50800 51.38900 22.88000
H  26.06900 52.53200 23.16800
H  26.35500 51.77100 21.61000
H  23.69500 49.81500 21.11400
H  22.18600 50.63600 21.73900
H  22.93500 48.37700 23.52600
H  22.56200 47.84000 21.83200
H  21.39800 48.75700 22.75200
H  19.81900 52.41500 25.15500
H  20.05000 53.73900 26.30000
H  18.93800 52.44800 26.64800
H  21.44500 51.37300 31.39600
H  22.92200 55.17600 32.67400
H  22.58600 54.49100 34.25700
H  21.29900 55.25700 33.30700

