158

Mg 9.98100 47.36900 26.02800
C  8.02700 47.33500 28.92900
C  12.63300 48.77900 27.97200
C  11.92200 47.56600 23.29000
C  7.09600 46.86600 24.14100
N  10.18000 48.01200 28.12000
C  9.35000 47.71700 29.11600
C  9.84000 48.35100 30.37200
C  11.12700 49.12100 30.02900
C  11.34200 48.55300 28.62300
C  11.02100 50.67300 30.08100
C  10.10500 47.31400 31.56300
C  9.74500 47.69100 33.01300
H  9.87900 46.60000 34.07000
N  12.02800 47.96400 25.67700
C  12.92600 48.47800 26.64100
C  14.29000 48.43400 25.97200
C  14.09500 48.09800 24.57400
C  12.61000 47.90100 24.45300
C  15.59500 48.78100 26.76500
C  15.24300 47.75900 23.52600
O  14.98600 47.45300 22.34300
C  16.68800 47.82500 23.94200
N  9.51900 47.28800 24.01300
C  10.55500 47.24700 23.09400
C  10.01900 47.07900 21.65300
C  8.50100 46.67700 21.92400
C  8.34300 46.99500 23.46200
C  10.35600 48.31000 20.78000
C  8.21800 45.21800 21.57500
C  8.47900 44.13800 22.68600
N  7.90100 47.03600 26.43500
C  6.86500 46.87100 25.57000
C  5.65600 46.77900 26.36800
C  6.04800 46.87700 27.69100
C  7.46800 47.06400 27.69900
C  4.25300 46.64900 25.80700
C  5.59100 46.88600 29.08600
O  4.43800 46.65300 29.55800
C  6.90900 47.27500 29.91200
C  7.15800 46.13300 30.82400
O  7.72500 45.13300 30.48300
O  6.58700 46.42400 32.05600
C  6.50200 45.24200 32.89200
H  13.44200 49.13800 28.61200
H  12.47700 47.50800 22.35200
H  6.20000 46.74500 23.52900
H  9.06200 49.04000 30.70000
H  12.00400 48.82600 30.60600
H  11.41400 51.06100 29.14200
H  11.52500 51.12600 30.93500
H  10.02000 51.09000 30.18700
H  11.19100 47.23100 31.59700
H  9.75800 46.30200 31.35600
H  8.70100 48.00400 33.05100
H  10.41200 48.52800 33.21600
H  15.40200 48.94000 27.82600
H  15.86200 49.74500 26.33200
H  16.32700 47.97900 26.67200
H  16.72000 46.89300 24.50600
H  16.84300 48.71600 24.54900
H  17.50200 47.91800 23.22400
H  10.50900 46.21500 21.20400
H  7.74400 47.28500 21.42900
H  10.76300 49.12900 21.37300
H  9.49800 48.83400 20.35800
H  11.11600 48.05700 20.04100
H  8.75800 44.91000 20.68000
H  7.14400 45.08800 21.44000
H  8.93800 44.32700 23.65600
H  9.23300 43.49300 22.23500
H  7.55700 43.57200 22.81900
H  4.04300 45.59600 25.62100
H  4.27100 47.15100 24.84000
H  3.57000 47.17700 26.47400
H  6.82200 48.21300 30.46000
H  6.26900 44.36100 32.29500
H  5.62500 45.35500 33.53100
H  7.36500 45.28300 33.55600
Mg -11.56400 38.52300 42.37500
C  -9.50600 35.81200 41.86900
C  -9.08100 40.50300 40.95900
C  -13.70200 41.17700 42.22100
C  -14.08500 36.40100 43.33000
N  -9.66700 38.16100 41.18700
C  -9.00900 36.95000 41.23000
C  -7.68600 37.01000 40.48200
C  -7.40700 38.52400 40.53100
C  -8.80600 39.09700 40.88300
C  -6.23300 38.98600 41.63000
C  -7.92000 36.35000 39.07900
C  -6.81400 35.64200 38.23800
H  -6.32600 36.36500 36.96300
N  -11.38000 40.60900 41.87500
C  -10.23100 41.19200 41.36900
C  -10.52900 42.60700 41.06600
C  -11.90600 42.86300 41.35600
C  -12.35800 41.55800 41.83100
C  -9.49600 43.57800 40.29400
C  -12.72800 44.07300 41.19600
O  -12.21400 45.15500 40.72900
C  -14.27200 44.16700 41.29300
N  -13.62700 38.74800 42.57300
C  -14.25100 39.94000 42.61300
C  -15.56000 39.81900 43.34400
C  -15.78000 38.25800 43.45900
C  -14.42000 37.73300 43.02000
C  -15.49200 40.64400 44.68500
C  -17.02900 37.64200 42.65200
C  -17.79700 36.66900 43.39900
N  -11.84100 36.51500 42.66600
C  -12.85700 35.80800 43.11200
C  -12.41900 34.51800 43.46400
C  -11.06300 34.38000 42.98600
C  -10.81900 35.69200 42.41100
C  -13.30900 33.39600 44.09200
C  -9.93100 33.58500 42.82900
O  -9.88500 32.41900 43.09900
C  -8.85200 34.43000 41.98500
C  -7.62900 34.44500 42.92300
O  -7.61100 34.62400 44.11700
O  -6.55000 34.10400 42.19600
C  -5.32600 33.89800 43.00000
H  -8.37600 41.22100 40.53500
H  -14.39700 41.99800 42.40900
H  -14.80100 35.75300 43.84000
H  -6.85700 36.49100 40.96200
H  -7.01600 38.88200 39.57900
H  -5.26600 39.14000 41.15200
H  -6.12400 38.23600 42.41300
H  -6.42400 39.94800 42.10500
H  -8.22500 37.22500 38.50600
H  -8.84500 35.77400 39.10500
H  -7.22400 34.65800 38.01100
H  -5.94900 35.62000 38.90100
H  -8.64900 43.01300 39.90300
H  -9.33600 44.43600 40.94800
H  -10.00300 43.98500 39.42000
H  -14.63100 43.35200 40.66500
H  -14.70600 45.14000 41.06700
H  -14.53000 44.06100 42.34700
H  -16.30300 40.18500 42.63500
H  -15.94800 38.07400 44.52000
H  -15.93400 40.14700 45.54900
H  -15.99000 41.61300 44.65100
H  -14.43900 40.85200 44.87300
H  -16.61100 37.16800 41.76400
H  -17.74600 38.39100 42.31600
H  -18.84500 36.93900 43.27400
H  -17.70200 36.75700 44.48100
H  -17.69000 35.64700 43.03500
H  -12.71200 32.53500 44.39200
H  -14.17200 33.08100 43.50600
H  -13.81800 33.83100 44.95200
H  -8.83900 34.03500 40.97000
H  -5.48200 33.02500 43.63300
H  -5.09500 34.65400 43.75100
H  -4.47200 33.67700 42.36100

