158

Mg 41.70600 41.64900 26.05200
C  41.24300 43.86300 28.80800
C  43.33900 39.48900 28.16100
C  42.05200 39.46200 23.41700
C  40.85300 44.26400 23.90300
N  42.08400 41.57000 28.31900
C  41.82300 42.62800 29.17400
C  42.38000 42.23700 30.59200
C  43.27600 40.99800 30.26100
C  42.94900 40.69000 28.80400
C  44.83000 41.11100 30.55900
C  41.21500 41.94300 31.57400
C  41.45500 42.43500 32.99500
H  40.40600 41.99700 34.02000
N  42.56000 39.80600 25.85000
C  43.13500 39.09000 26.82300
C  43.57600 37.82300 26.31700
C  43.21200 37.77400 24.92700
C  42.53400 39.07300 24.66000
C  44.28900 36.76300 27.08700
C  43.43600 36.61000 23.88000
O  43.31500 36.80800 22.66900
C  43.78900 35.20400 24.29500
N  41.73700 41.97100 23.98000
C  41.79500 40.81800 23.13900
C  41.57500 41.25100 21.72600
C  40.87600 42.72100 21.83800
C  41.24400 43.06900 23.32900
C  42.97100 41.21800 20.98100
C  39.39100 42.73900 21.54600
C  38.35300 42.48500 22.70300
N  41.01400 43.61200 26.24800
C  40.78600 44.53400 25.27400
C  40.37300 45.71300 25.96000
C  40.54900 45.46500 27.29300
C  40.99500 44.19900 27.43900
C  40.04900 46.92200 25.22500
C  40.31200 46.06000 28.62100
O  39.83600 47.14200 28.85200
C  40.72800 45.03700 29.69200
C  41.82800 45.64600 30.55600
O  42.98900 45.73400 30.26700
O  41.23300 46.02700 31.73300
C  42.20100 46.54400 32.71000
H  43.63800 38.71200 28.86900
H  42.08900 38.74900 22.59000
H  40.63500 45.06500 23.19300
H  43.01300 43.02900 30.99200
H  43.02600 40.08300 30.79800
H  45.35600 40.26400 30.11800
H  45.04600 41.18200 31.62500
H  45.26500 42.01800 30.14000
H  41.19900 40.86300 31.72200
H  40.27000 42.39300 31.27000
H  41.45800 43.52500 33.01700
H  42.38400 41.99800 33.36400
H  43.86400 35.78100 26.87800
H  44.26100 36.95400 28.16000
H  45.37800 36.79400 27.05200
H  43.53100 34.42800 23.57500
H  43.20300 34.91100 25.16600
H  44.82400 35.12200 24.62700
H  40.93400 40.58000 21.15400
H  41.39100 43.26900 21.04900
H  43.64300 40.42100 21.30000
H  43.45800 42.16600 21.20800
H  42.72800 41.16100 19.92000
H  39.20100 42.00500 20.76300
H  39.28300 43.69400 21.03200
H  38.91700 42.22300 23.59800
H  37.68200 41.65200 22.49500
H  37.70000 43.34600 22.84400
H  39.37800 46.68500 24.40000
H  40.96900 47.27700 24.76100
H  39.60600 47.69500 25.85400
H  39.84600 44.70700 30.24100
H  42.60800 45.81800 33.41400
H  41.70300 47.18800 33.43600
H  43.01200 47.11200 32.25200
Mg 35.42900 49.18300 25.91400
C  35.95300 47.50800 28.93800
C  34.38000 51.86900 27.60000
C  34.93000 50.57800 22.94500
C  36.50900 46.24300 24.19300
N  35.16700 49.62900 28.11500
C  35.40600 48.80900 29.09500
C  35.14100 49.55200 30.43400
C  34.38500 50.83100 29.93700
C  34.69900 50.80600 28.49000
C  32.91000 50.73000 30.19000
C  36.45900 49.82600 31.26000
C  36.54200 49.15700 32.64100
H  36.31200 50.05500 33.86400
N  34.79600 51.02600 25.30900
C  34.53000 52.01400 26.14700
C  34.21900 53.23500 25.41000
C  34.25100 52.81300 24.04000
C  34.66200 51.39600 24.06500
C  33.87300 54.62400 26.08700
C  33.96200 53.65400 22.83900
O  34.10600 53.22300 21.70200
C  33.51700 55.11500 22.93800
N  35.80300 48.54800 23.92100
C  35.41000 49.26500 22.83800
C  35.49000 48.59200 21.46300
C  36.29300 47.32300 21.94600
C  36.29100 47.35600 23.47400
C  34.09100 48.25700 20.95100
C  37.73500 47.32800 21.43900
C  37.87400 47.02900 19.91800
N  35.98500 47.23900 26.42600
C  36.38700 46.16800 25.60600
C  36.66200 45.03500 26.39700
C  36.51800 45.47100 27.71200
C  36.12500 46.83700 27.66600
C  37.22800 43.60800 26.00700
C  36.63900 45.18500 29.14400
O  37.00700 44.12100 29.64200
C  36.44300 46.51600 29.95200
C  35.46300 46.13600 30.88300
O  34.32200 45.93200 30.56900
O  36.00500 45.96600 32.14300
C  35.00200 45.36500 33.03100
H  33.90600 52.73700 28.06300
H  34.68700 50.90700 21.93200
H  36.81000 45.33500 23.66600
H  34.50100 48.99400 31.11700
H  34.80900 51.74300 30.35700
H  32.53500 49.80500 30.62700
H  32.41500 50.87500 29.23000
H  32.62800 51.58400 30.80500
H  36.53000 50.90700 31.37300
H  37.32500 49.51500 30.67600
H  37.55200 48.75300 32.69900
H  35.80100 48.35800 32.60400
H  34.76800 55.15200 25.75800
H  33.79700 54.50500 27.16700
H  33.02600 55.04300 25.54300
H  34.27900 55.73900 23.40500
H  32.62200 55.10100 23.56100
H  33.15900 55.55100 22.00500
H  35.97200 49.23400 20.72500
H  35.75700 46.42000 21.65500
H  33.33500 48.52000 21.69000
H  33.85900 47.24900 20.60800
H  33.93500 48.99400 20.16300
H  38.33400 46.69200 22.09100
H  38.06300 48.35200 21.61600
H  38.25700 47.84800 19.30900
H  36.86300 46.87900 19.53700
H  38.38200 46.07500 19.78100
H  36.45200 42.98000 25.56900
H  37.64600 43.03700 26.83600
H  38.07700 43.58400 25.32400
H  37.34700 46.92300 30.40500
H  35.00900 44.27900 32.94600
H  33.98000 45.65900 32.79200
H  35.30800 45.59000 34.05300

