158

Mg 25.45400 -8.07900 47.79300
C  28.28000 -5.88300 47.05700
C  23.83400 -6.48000 45.19800
C  23.28800 -10.55100 47.68600
C  27.68500 -10.01000 49.74100
N  26.08700 -6.43600 46.28700
C  27.25600 -5.72600 46.13100
C  27.15400 -4.83500 44.92300
C  25.64400 -4.97200 44.52700
C  25.11500 -6.09000 45.36300
C  24.85900 -3.63100 44.59400
C  28.05000 -5.12200 43.71100
C  28.70200 -3.86900 43.09300
H  28.19600 -3.38100 41.74300
N  23.66500 -8.31300 46.82000
C  23.12900 -7.48800 45.83900
C  21.77800 -7.93100 45.50300
C  21.59400 -9.08300 46.29400
C  22.84700 -9.38200 47.00600
C  20.90800 -7.28600 44.48600
C  20.18000 -9.85100 46.48900
O  19.24200 -9.54400 45.81500
C  19.95200 -10.89900 47.49400
N  25.63500 -10.11000 48.46500
C  24.49500 -10.91700 48.39700
C  24.66600 -12.07200 49.33400
C  26.11000 -11.96700 49.86500
C  26.47400 -10.61000 49.36700
C  23.59600 -12.22600 50.43200
C  27.11200 -13.15300 49.28900
C  27.67500 -13.97400 50.43200
N  27.47900 -7.93400 48.44000
C  28.23100 -8.77600 49.22600
C  29.52500 -8.38900 49.26700
C  29.51700 -7.15800 48.56200
C  28.25300 -6.94000 48.03900
C  30.65000 -9.11800 49.82300
C  30.46100 -6.12100 48.13100
O  31.61700 -5.87300 48.47700
C  29.66300 -5.25000 47.09000
C  29.59900 -3.78100 47.41300
O  29.85300 -3.30800 48.51200
O  29.37000 -3.13800 46.26700
C  29.65600 -1.65700 46.29300
H  23.25800 -5.97700 44.41800
H  22.54200 -11.33900 47.81100
H  28.21300 -10.65900 50.44200
H  27.36500 -3.82800 45.28300
H  25.54000 -5.39000 43.52600
H  23.84600 -3.77400 44.21800
H  25.27900 -2.88900 43.91400
H  24.82900 -3.24400 45.61300
H  27.44200 -5.56700 42.92300
H  28.79500 -5.90400 43.85600
H  29.73800 -4.17300 42.94800
H  28.61200 -3.02400 43.77500
H  21.14100 -7.48400 43.44000
H  21.06800 -6.21100 44.40700
H  19.87500 -7.51200 44.75100
H  20.32000 -10.61900 48.48200
H  20.56200 -11.71600 47.10900
H  18.93000 -11.26600 47.58800
H  24.56400 -12.90600 48.64000
H  26.12000 -11.95400 50.95500
H  23.36800 -13.29200 50.41700
H  22.67000 -11.68000 50.25200
H  24.04700 -11.85100 51.35100
H  27.95300 -12.68900 48.77400
H  26.70900 -13.73900 48.46300
H  28.71100 -13.75800 50.69600
H  27.75000 -15.04900 50.26600
H  27.12100 -13.83300 51.36000
H  30.77500 -9.96000 49.14300
H  30.36200 -9.69500 50.70200
H  31.64100 -8.66900 49.88700
H  30.20400 -5.32700 46.14700
H  29.99400 -1.22500 47.23500
H  28.76900 -1.13100 45.93800
H  30.42900 -1.48200 45.54400
Mg 34.85400 49.16900 25.11400
C  34.96900 47.46300 28.14300
C  33.27500 51.81700 26.63900
C  34.47600 50.59500 22.02200
C  36.21700 46.28300 23.57700
N  33.97600 49.44800 27.19700
C  34.28800 48.68900 28.34000
C  33.95200 49.46900 29.62400
C  33.26100 50.87200 29.07700
C  33.56600 50.75500 27.53400
C  31.77600 50.87600 29.21600
C  35.21700 49.73200 30.53700
C  34.88900 50.26600 31.96800
H  33.49200 50.13500 32.55200
N  33.98700 50.95800 24.41100
C  33.41100 51.92800 25.23900
C  32.93500 52.91900 24.35000
C  33.16100 52.58700 23.00600
C  33.96600 51.33200 23.10300
C  32.32600 54.09200 25.04700
C  32.73300 53.20200 21.71300
O  32.79600 52.66700 20.62400
C  31.97000 54.62400 21.86600
N  35.42800 48.57000 23.11100
C  35.14000 49.36500 22.02900
C  35.76400 48.70200 20.73100
C  36.42200 47.42400 21.30800
C  35.98900 47.41600 22.77100
C  34.80300 48.42200 19.54100
C  37.97500 47.30300 21.02300
C  38.22700 46.06300 20.22200
N  35.43800 47.28300 25.69700
C  35.90800 46.20300 24.94200
C  36.15400 45.05800 25.84800
C  35.91800 45.55000 27.14700
C  35.38000 46.87800 26.97200
C  36.44500 43.69000 25.40600
C  35.99000 45.28000 28.50300
O  36.30900 44.30500 29.15200
C  35.24200 46.42400 29.21000
C  34.05800 45.92200 29.79100
O  33.10400 45.42300 29.18200
O  34.18100 46.13600 31.14100
C  33.09700 45.64400 31.98300
H  32.87300 52.63200 27.24400
H  34.35300 51.01500 21.02200
H  36.65800 45.42800 23.06100
H  33.24800 48.89500 30.22700
H  33.74800 51.79400 29.39600
H  31.53400 50.06400 29.90100
H  31.13000 50.75600 28.34600
H  31.51400 51.81800 29.69900
H  35.67700 50.54900 29.98000
H  35.98200 48.95600 30.58200
H  35.16000 51.32200 31.99100
H  35.56800 49.84900 32.71200
H  31.27000 54.01000 25.30500
H  32.49500 54.95600 24.40400
H  32.80900 54.36900 25.98400
H  31.72600 54.90000 20.84000
H  32.69600 55.34900 22.23600
H  31.12400 54.45700 22.53300
H  36.61000 49.29200 20.37700
H  35.93300 46.51600 20.95400
H  34.65900 47.35100 19.39800
H  35.29800 48.84700 18.66800
H  33.80500 48.79800 19.76500
H  38.54700 47.24200 21.94900
H  38.42400 48.06200 20.38200
H  38.75100 46.34800 19.30900
H  37.32100 45.58800 19.84700
H  38.95300 45.36600 20.63900
H  36.10300 43.08400 26.24500
H  37.51200 43.58800 25.20800
H  35.85700 43.51200 24.50600
H  36.00200 46.75900 29.91600
H  32.50600 44.79500 31.64200
H  32.31800 46.36400 32.23300
H  33.50700 45.42500 32.96900

