158

Mg 35.19000 2.13100 28.86100
C  33.08500 3.19300 31.52500
C  37.80500 2.15600 31.23900
C  37.24200 1.49100 26.54200
C  32.53800 2.52300 26.67800
N  35.39800 2.63100 31.07300
C  34.39600 2.92500 31.92300
C  34.93900 3.00700 33.39700
C  36.45200 2.96500 33.26700
C  36.60900 2.65300 31.73500
C  37.13100 4.31100 33.65800
C  34.30000 1.82300 34.22700
C  34.09700 1.97500 35.75000
H  34.80100 3.04600 36.55500
N  37.20700 1.86400 28.85900
C  38.14900 1.84000 29.88300
C  39.42400 1.39600 29.42900
C  39.29600 1.30300 27.99900
C  37.85600 1.53500 27.75700
C  40.65500 1.04800 30.31200
C  40.38000 1.13000 26.98500
O  40.09400 1.19400 25.80200
C  41.82500 1.18700 27.48400
N  34.92000 2.07800 26.86900
C  35.93600 1.72300 26.12700
C  35.51100 1.44200 24.58700
C  33.94400 1.64500 24.67400
C  33.78900 2.14900 26.13500
C  36.22300 2.28200 23.54300
C  33.04200 0.41400 24.36000
C  32.91300 -0.81500 25.34200
N  33.18000 2.58600 29.00100
C  32.18400 2.72900 28.01200
C  30.94200 3.07400 28.59200
C  31.22700 3.28200 29.92700
C  32.61300 3.00500 30.15500
C  29.63800 3.22300 27.74500
C  30.68300 3.69900 31.25200
O  29.59600 4.04900 31.64900
C  31.82100 3.44900 32.31600
C  31.78500 4.57600 33.18400
O  32.36400 5.63800 32.95200
O  31.14000 4.18000 34.38900
C  31.29800 5.25100 35.35500
H  38.60400 2.15400 31.98400
H  37.72200 1.15300 25.62200
H  31.77900 2.60600 25.89700
H  34.47500 3.90800 33.79900
H  36.90200 2.24900 33.95400
H  38.00500 4.50600 33.03700
H  37.43100 4.29300 34.70500
H  36.28300 4.99500 33.61900
H  34.82900 0.87100 34.18600
H  33.27300 1.62400 33.92100
H  34.09500 0.96300 36.15500
H  33.07700 2.35700 35.76500
H  40.86700 0.00100 30.09600
H  40.49400 1.06700 31.39000
H  41.51600 1.68200 30.09600
H  42.50200 1.40900 26.66000
H  42.13000 0.33100 28.08700
H  41.82100 2.09900 28.08100
H  35.65900 0.38700 24.35800
H  33.58500 2.38600 23.95900
H  36.58100 1.62000 22.75500
H  37.07700 2.86500 23.88700
H  35.57700 3.02100 23.06800
H  33.45900 -0.01300 23.44800
H  32.07100 0.86800 24.16000
H  33.50000 -0.61200 26.23800
H  33.37300 -1.60400 24.74700
H  31.86500 -1.04700 25.52800
H  28.93500 2.45300 28.06400
H  29.88200 3.00900 26.70400
H  29.38200 4.25500 27.98400
H  31.39000 2.66800 32.94300
H  31.06600 6.26000 35.01300
H  32.30400 5.19900 35.77000
H  30.61900 5.14300 36.20100
Mg 15.82900 51.06300 25.74300
C  17.80100 50.03600 28.41900
C  13.36900 51.80800 28.00600
C  13.78900 51.84600 23.16400
C  18.21100 49.85900 23.55700
N  15.54800 50.82400 28.00500
C  16.55300 50.54400 28.89800
C  16.18300 50.82000 30.35500
C  14.58000 51.06400 30.18800
C  14.46300 51.21200 28.63400
C  13.66700 49.90200 30.80400
C  16.94100 52.08300 30.94300
C  16.85500 52.39400 32.42500
H  16.07300 51.39200 33.26400
N  13.81800 51.73100 25.61900
C  13.02400 52.03400 26.66000
C  11.83600 52.62800 26.19300
C  11.95700 52.72500 24.75000
C  13.19300 52.07400 24.41100
C  10.77000 53.15300 27.16500
C  11.07900 53.39100 23.78600
O  11.31900 53.44300 22.56500
C  9.85000 54.08100 24.21400
N  15.93100 50.67100 23.68500
C  14.96700 51.19900 22.82700
C  15.48400 50.93200 21.30700
C  16.90300 50.37900 21.41000
C  17.03400 50.31100 22.97700
C  14.47300 50.08800 20.53400
C  17.99100 51.25600 20.81900
C  18.97600 50.48900 19.95900
N  17.67700 50.17200 25.89600
C  18.47800 49.70300 24.91400
C  19.64000 49.16400 25.58200
C  19.47400 49.30500 26.94900
C  18.19100 49.82400 27.09600
C  20.85400 48.49600 24.84700
C  20.06800 48.96300 28.21900
O  21.09900 48.46300 28.49100
C  19.02000 49.59000 29.23800
C  18.62600 48.51100 30.12400
O  17.84100 47.59500 29.92400
O  19.35100 48.65200 31.33800
C  18.98900 47.61800 32.37400
H  12.72600 52.18900 28.80200
H  13.23400 52.13600 22.26900
H  18.98800 49.50200 22.87800
H  16.35700 49.88600 30.88900
H  14.37400 52.02300 30.66300
H  13.07300 50.52800 31.47000
H  14.30800 49.28700 31.43500
H  13.09300 49.26400 30.13200
H  16.69400 52.94300 30.32000
H  17.96800 51.83200 30.67700
H  16.44600 53.39100 32.58800
H  17.87400 52.33400 32.80800
H  10.25500 52.27800 27.56200
H  10.05900 53.87400 26.76200
H  11.24800 53.59200 28.04100
H  9.40200 54.67600 23.41900
H  10.05600 54.79900 25.00800
H  9.12100 53.30700 24.45600
H  15.42100 51.96000 20.95000
H  16.97800 49.34600 21.07000
H  15.07100 49.35600 19.99100
H  13.98600 50.81900 19.88800
H  13.79500 49.53500 21.18400
H  18.55800 51.71100 21.63100
H  17.46600 52.09600 20.36500
H  19.35400 51.19500 19.22000
H  18.70500 49.46800 19.68900
H  19.83900 50.38000 20.61600
H  21.72600 48.76900 25.44100
H  20.91600 48.86600 23.82400
H  20.57100 47.44400 24.83100
H  19.54100 50.35100 29.82100
H  19.35300 47.83400 33.37800
H  19.30900 46.64800 31.99300
H  17.90200 47.69500 32.40400

