158

Mg 48.00300 16.35100 28.03100
C  46.30700 16.11000 30.98500
C  50.45000 18.13400 29.67200
C  49.45700 16.95300 25.02500
C  45.27300 15.00600 26.37100
N  48.35200 17.03100 30.13400
C  47.48700 16.73800 31.25200
C  48.19800 17.14000 32.56100
C  49.32100 18.11800 32.06700
C  49.36300 17.83100 30.52500
C  49.10000 19.64200 32.32100
C  48.71000 16.06500 33.56900
C  48.73800 16.43400 35.05100
H  48.09100 17.75600 35.51200
N  49.78300 17.35200 27.48100
C  50.72000 17.93100 28.31100
C  51.91600 18.13000 27.48700
C  51.63200 17.78400 26.12900
C  50.24500 17.34200 26.20300
C  53.17000 18.65100 28.02300
C  52.52700 17.97900 24.85800
O  52.08700 17.84100 23.73700
C  53.89500 18.66400 24.96600
N  47.57000 15.86600 25.96300
C  48.29900 16.29900 24.89800
C  47.61500 15.97500 23.49900
C  46.31800 15.22600 24.03200
C  46.40900 15.25800 25.55500
C  47.32700 17.28100 22.73400
C  45.98900 13.80500 23.59400
C  45.68200 13.56100 22.14900
N  46.12200 15.71800 28.50400
C  45.15300 15.14500 27.75300
C  44.02500 14.83000 28.52900
C  44.45400 15.14700 29.85800
C  45.74300 15.65000 29.75900
C  42.67000 14.23200 28.09400
C  43.95400 15.25200 31.17300
O  42.90500 15.00200 31.69600
C  45.17700 15.84400 32.03300
C  44.65800 16.98000 32.84800
O  44.71300 18.22100 32.64100
O  43.94500 16.42900 33.90100
C  43.63000 17.39200 34.98100
H  51.25900 18.49200 30.31300
H  49.85000 17.13700 24.02300
H  44.51000 14.42800 25.84600
H  47.43100 17.74000 33.05100
H  50.27300 17.82500 32.51000
H  49.78200 19.89000 33.13400
H  48.03100 19.77100 32.49400
H  49.42000 20.23600 31.46500
H  49.71200 15.71400 33.32500
H  47.98200 15.28400 33.35200
H  49.77900 16.49700 35.36500
H  48.33100 15.55400 35.55000
H  53.67100 19.40400 27.41500
H  53.90000 17.89200 28.30400
H  52.94400 19.14400 28.96800
H  53.79300 19.69900 25.29000
H  54.33000 18.74900 23.97000
H  54.59900 18.09500 25.57200
H  48.28200 15.32500 22.93300
H  45.35100 15.68100 23.81700
H  46.31400 17.29100 22.33100
H  48.08800 17.39800 21.96300
H  47.38900 18.22300 23.27700
H  45.21200 13.27400 24.14500
H  46.87700 13.20700 23.79800
H  45.99600 12.53300 21.97300
H  46.26900 14.29500 21.59700
H  44.64900 13.72100 21.84100
H  42.82600 13.25600 27.63500
H  42.08900 14.91800 27.47800
H  42.02800 14.06000 28.95800
H  45.66300 15.16100 32.72900
H  43.24700 16.86300 35.85400
H  42.81500 18.09100 34.79300
H  44.48100 18.02800 35.22700
Mg 50.11800 46.11100 42.85700
C  46.96300 46.53100 41.18300
C  50.42500 43.09500 41.25900
C  53.27300 46.09600 43.88800
C  49.71300 49.39200 43.88200
N  48.91100 45.05900 41.18500
C  47.63000 45.38100 40.83100
C  47.16300 44.26600 39.83600
C  48.13700 43.04900 40.06900
C  49.22000 43.76800 40.98000
C  47.52200 41.82200 40.92800
C  47.11000 44.78300 38.40600
C  46.04000 44.03500 37.60100
H  45.72600 44.41600 36.12600
N  51.64600 44.69300 42.64600
C  51.56700 43.48900 41.96200
C  52.86300 42.84600 42.09300
C  53.60400 43.64000 43.05300
C  52.88200 44.88100 43.26800
C  53.18200 41.45800 41.48600
C  54.93800 43.40400 43.67700
O  55.48000 42.40900 43.27600
C  55.60300 44.22600 44.76500
N  51.41100 47.52100 43.77100
C  52.69300 47.34600 44.05600
C  53.31700 48.58300 44.72800
C  52.19100 49.68700 44.59400
C  50.99000 48.78300 44.07700
C  53.80700 48.37200 46.18900
C  52.62900 50.88600 43.65500
C  53.17900 52.11500 44.42600
N  48.67600 47.63400 42.73500
C  48.63900 48.86300 43.26400
C  47.35400 49.51500 43.01000
C  46.69800 48.67000 42.15600
C  47.50600 47.50500 42.06400
C  47.05300 50.93700 43.41700
C  45.51200 48.56700 41.35500
O  44.55000 49.29300 41.18200
C  45.60800 47.09800 40.66600
C  44.41700 46.25700 41.08400
O  44.31200 45.63500 42.10600
O  43.49400 46.26400 40.05900
C  42.22200 45.68000 40.32400
H  50.42600 42.08600 40.84200
H  54.25600 46.05700 44.36400
H  49.50800 50.39600 44.26100
H  46.18100 43.92300 40.16400
H  48.46100 42.59400 39.13300
H  46.54100 42.21000 41.20300
H  48.03600 41.77000 41.88800
H  47.54800 40.91000 40.33200
H  48.01800 44.58400 37.83800
H  47.00200 45.84700 38.19700
H  45.08100 44.13300 38.11100
H  46.29100 42.97500 37.55600
H  53.47800 40.74300 42.25400
H  54.10800 41.51900 40.91600
H  52.42000 41.00100 40.85300
H  56.16800 45.13700 44.56700
H  56.34500 43.58400 45.24100
H  54.90500 44.47500 45.56300
H  54.23500 48.81000 44.18600
H  51.99300 50.01500 45.61400
H  53.73800 49.38000 46.59800
H  54.81700 47.96900 46.11000
H  53.14000 47.67500 46.69500
H  51.82000 51.25900 43.02700
H  53.38000 50.64400 42.90400
H  54.11100 52.49500 44.00700
H  53.29400 51.80600 45.46500
H  52.44100 52.91100 44.32600
H  47.89100 51.60100 43.62900
H  46.54100 51.03100 44.37400
H  46.56000 51.47900 42.61000
H  45.60200 47.14500 39.57700
H  42.31600 44.60100 40.19900
H  41.50900 46.07700 39.60200
H  41.87500 46.10400 41.26600

