158

Mg 6.59600 53.99400 40.29400
C  6.16600 50.49400 40.01900
C  9.74800 53.56900 39.09800
C  6.64800 57.24800 39.86400
C  3.09300 54.13600 40.85700
N  7.70800 52.23300 39.45200
C  7.33600 50.92800 39.44200
C  8.56300 50.06600 39.27000
C  9.77000 51.04800 39.23200
C  9.06200 52.36300 39.29700
C  10.76600 50.80600 40.36000
C  8.55500 49.32300 37.92600
C  8.45200 50.13900 36.66900
H  7.48300 49.74100 35.51000
N  8.06200 55.27700 39.71200
C  9.32800 54.88400 39.25500
C  10.09800 56.06400 39.05300
C  9.20900 57.15600 39.27500
C  7.92300 56.59200 39.60900
C  11.54800 56.11300 38.58200
C  9.64300 58.60400 39.32200
O  10.75500 58.89900 38.92400
C  8.74300 59.71900 39.80200
N  5.03500 55.42800 40.29500
C  5.40200 56.76400 40.20800
C  4.18600 57.67500 40.38200
C  3.00400 56.61000 40.51800
C  3.73800 55.28000 40.53100
C  4.42600 58.60900 41.70600
C  1.85000 56.62200 39.39900
C  0.57900 57.41700 39.64600
N  4.89400 52.65100 40.43100
C  3.58800 52.83200 40.96100
C  3.05200 51.53100 41.31800
C  3.99700 50.60400 40.91500
C  5.07700 51.32100 40.42300
C  1.75100 51.29200 42.01400
C  4.29100 49.23300 40.82700
O  3.49900 48.30700 41.10900
C  5.66000 49.02700 40.26100
C  5.44900 48.11400 39.08900
O  4.77000 48.33700 38.06500
O  6.25700 47.05700 39.13500
C  6.06700 46.05500 38.05800
H  10.78000 53.43500 38.76900
H  6.50700 58.33000 39.83000
H  2.03800 54.29700 41.08700
H  8.72200 49.38900 40.10900
H  10.39800 51.10600 38.34300
H  10.74600 49.76900 40.69300
H  10.54500 51.58000 41.09600
H  11.79400 50.97600 40.04000
H  7.65700 48.71200 37.83600
H  9.40200 48.64800 37.80300
H  9.47700 50.31500 36.34500
H  8.08800 51.11600 36.98700
H  11.91300 55.22100 38.07300
H  12.23700 56.46100 39.35100
H  11.64000 56.85600 37.78900
H  7.81600 59.83500 39.24200
H  9.28500 60.62400 39.52800
H  8.54100 59.56500 40.86200
H  4.07700 58.27100 39.47500
H  2.55500 56.68900 41.50800
H  4.37300 59.63700 41.34700
H  5.33500 58.40300 42.27100
H  3.61300 58.42200 42.40800
H  1.52500 55.60500 39.17800
H  2.26100 56.92700 38.43700
H  0.32800 58.18600 38.91600
H  0.57900 58.04700 40.53600
H  -0.17900 56.64600 39.51400
H  1.09700 50.76400 41.32000
H  1.33000 52.20400 42.43600
H  1.96100 50.72700 42.92200
H  6.19500 48.45500 41.02000
H  6.73000 46.20700 37.20600
H  5.08600 46.07400 37.58400
H  6.29400 45.05600 38.43200
Mg 9.42500 48.45300 24.64000
C  7.33800 48.70100 27.46500
C  11.94600 49.75800 26.66500
C  11.48500 48.30100 22.01500
C  6.69800 47.57400 22.71900
N  9.54500 49.24600 26.74500
C  8.58000 49.26600 27.69900
C  9.06900 49.79300 29.04200
C  10.37900 50.60000 28.57500
C  10.69200 49.86900 27.21400
C  10.29700 52.09000 28.44000
C  9.34600 48.63900 30.00300
C  8.83700 48.77900 31.48100
H  8.93300 47.53600 32.33200
N  11.46400 48.95000 24.36100
C  12.35400 49.37400 25.33200
C  13.70000 49.38800 24.72700
C  13.53800 48.89300 23.41300
C  12.08300 48.74400 23.18400
C  15.02600 49.79200 25.41400
C  14.63100 48.36900 22.46600
O  14.36300 47.66400 21.44900
C  16.07200 48.53500 22.70200
N  9.08200 48.15100 22.58000
C  10.12800 48.04600 21.71900
C  9.72800 47.39700 20.42400
C  8.21400 47.26600 20.57600
C  7.91300 47.73600 22.04800
C  10.02000 48.18600 19.17200
C  7.86500 45.75900 20.48400
C  8.32100 44.80400 21.57900
N  7.42200 48.14900 25.02100
C  6.42200 47.78300 24.11800
C  5.23800 47.62200 24.79000
C  5.59200 47.89900 26.13000
C  6.89200 48.24400 26.24500
C  3.82000 47.35000 24.22000
C  5.00800 47.98900 27.47900
O  3.86000 47.75200 27.80100
C  6.17600 48.37300 28.44400
C  6.40400 47.16900 29.30000
O  7.04800 46.20400 28.97000
O  5.73400 47.27400 30.47100
C  5.50600 46.03200 31.31100
H  12.69300 50.22400 27.31100
H  12.12400 48.05700 21.16300
H  5.86400 47.27200 22.08200
H  8.36200 50.49300 29.48800
H  11.16500 50.40900 29.30600
H  10.54500 52.52400 27.47100
H  11.07500 52.43500 29.12000
H  9.37900 52.61700 28.70300
H  10.42100 48.48200 30.09700
H  8.95700 47.67000 29.68800
H  7.80400 49.12700 31.48900
H  9.56200 49.48600 31.88400
H  14.78800 50.18400 26.40200
H  15.62600 50.54600 24.90400
H  15.53700 48.84200 25.57200
H  16.45400 49.46800 23.11600
H  16.58500 48.24000 21.78600
H  16.33900 47.82900 23.48800
H  10.27800 46.45800 20.49100
H  7.73400 47.85400 19.79400
H  10.34600 49.20600 19.37400
H  9.13100 48.21700 18.54300
H  10.91100 47.83200 18.65200
H  8.27300 45.39200 19.54300
H  6.79100 45.69800 20.30900
H  8.54800 45.32700 22.50800
H  9.18700 44.25700 21.20500
H  7.54900 44.05500 21.75500
H  4.04600 46.68200 23.38800
H  3.35200 48.27600 23.88700
H  3.16900 46.85100 24.93700
H  5.87300 49.25600 29.00500
H  5.95700 46.20200 32.28800
H  5.97800 45.16700 30.84600
H  4.45200 45.75400 31.32800

