158

Mg 8.06100 2.06300 28.19800
C  9.74800 0.75400 30.93200
C  6.23300 4.05400 30.37600
C  6.17000 3.22400 25.59400
C  9.35200 -0.44200 26.20200
N  7.84500 2.15200 30.45900
C  8.84600 1.72800 31.27900
C  8.71200 2.41400 32.69400
C  7.48400 3.34700 32.62700
C  7.10400 3.17800 31.04200
C  6.37600 2.87800 33.64800
C  10.04300 3.02700 33.32500
C  10.55700 2.58400 34.73800
H  10.90800 3.69800 35.78500
N  6.51400 3.40800 27.97900
C  5.85900 4.12800 28.99800
C  4.92800 5.02600 28.45000
C  4.85600 4.75500 27.06500
C  5.86400 3.77700 26.81200
C  4.12400 5.94700 29.27100
C  3.96100 5.39700 25.98500
O  4.06700 5.05800 24.78400
C  2.97800 6.43500 26.38700
N  7.82700 1.46800 26.24000
C  7.09200 2.16800 25.27700
C  7.45000 1.76900 23.77700
C  8.31700 0.52800 24.11500
C  8.59200 0.56100 25.59400
C  6.30600 1.50800 22.79300
C  9.75100 0.56700 23.45400
C  10.20500 -0.77400 22.90600
N  9.29700 0.54500 28.43700
C  9.69400 -0.45200 27.59400
C  10.57400 -1.36200 28.29900
C  10.60500 -0.91100 29.58700
C  9.82600 0.20900 29.66300
C  11.41100 -2.49800 27.85100
C  11.21700 -1.22100 30.84500
O  11.94100 -2.08900 31.25800
C  10.69200 -0.07700 31.81000
C  10.05700 -0.70200 32.99300
O  9.04900 -1.36300 32.97100
O  10.83500 -0.45800 34.14400
C  10.34900 -1.07000 35.44300
H  5.75800 4.72800 31.09100
H  5.72300 3.52400 24.64400
H  9.79300 -1.29700 25.68600
H  8.52500 1.64300 33.44100
H  7.64200 4.42000 32.73200
H  6.16400 3.78500 34.21400
H  6.90300 2.14800 34.26300
H  5.42300 2.48000 33.30000
H  9.96800 4.11400 33.29800
H  10.82600 2.69100 32.64500
H  11.42200 1.95900 34.51400
H  9.85500 1.88300 35.18900
H  4.21900 5.70500 30.32900
H  3.05200 5.91300 29.07900
H  4.36400 7.00500 29.16500
H  2.48900 6.74500 25.46400
H  3.41400 7.29800 26.89100
H  2.21900 5.96400 27.01100
H  8.01300 2.60600 23.36600
H  7.71500 -0.34000 23.84700
H  5.34600 1.67400 23.28000
H  6.44700 0.48600 22.44000
H  6.45000 2.12200 21.90400
H  10.53500 0.94200 24.11300
H  9.79900 1.25200 22.60700
H  9.36100 -1.45600 23.00400
H  10.88900 -1.30600 23.56700
H  10.69300 -0.83500 21.93400
H  12.36100 -2.04300 27.57000
H  11.01800 -2.91200 26.92300
H  11.51300 -3.14300 28.72400
H  11.61500 0.37300 32.17700
H  10.02600 -0.27300 36.11300
H  11.17300 -1.61100 35.90600
H  9.66100 -1.89100 35.24200
Mg 42.09900 41.36900 26.91600
C  41.23700 43.89600 29.11200
C  42.92200 39.54500 29.64500
C  43.32200 39.03500 24.85200
C  42.19800 43.68400 24.31300
N  41.99400 41.65400 29.10500
C  41.44000 42.71800 29.78500
C  41.31900 42.40400 31.31600
C  42.17000 41.18100 31.49600
C  42.43800 40.74400 29.98400
C  43.54600 41.34900 32.19300
C  39.88400 42.52800 31.82800
C  39.37700 41.66000 33.03100
H  38.70700 42.31100 34.24100
N  42.76900 39.45600 27.19600
C  43.03700 38.90000 28.39500
C  43.62100 37.55200 28.28800
C  43.66100 37.37400 26.87100
C  43.24600 38.64900 26.21500
C  44.07200 36.65300 29.47200
C  43.93100 36.13100 26.07500
O  43.99500 36.05700 24.84900
C  44.20600 34.92800 26.88100
N  42.64900 41.32500 24.85200
C  43.02300 40.20900 24.21900
C  42.97800 40.42100 22.61200
C  42.69800 41.97100 22.51600
C  42.50700 42.38900 23.98800
C  44.21700 39.95700 21.89900
C  41.61000 42.37100 21.58800
C  41.80500 43.70000 20.95300
N  41.75000 43.41400 26.71700
C  41.79100 44.19600 25.60000
C  41.48800 45.54000 25.96300
C  41.18600 45.48200 27.33300
C  41.44000 44.16700 27.73100
C  41.31200 46.59600 24.91500
C  40.70600 46.23600 28.43700
O  40.34600 47.40200 28.54900
C  40.78900 45.20800 29.70200
C  41.77600 45.76000 30.68100
O  42.99800 45.75700 30.61700
O  41.17000 46.27200 31.80100
C  41.98300 46.73600 32.95300
H  43.15300 38.94800 30.52900
H  43.74000 38.27500 24.19000
H  42.37500 44.40000 23.50800
H  41.90700 43.26100 31.64500
H  41.56100 40.53000 32.12200
H  44.41300 41.37700 31.53300
H  43.67600 40.62600 32.99900
H  43.58400 42.28600 32.74900
H  39.29900 42.19700 30.96900
H  39.74200 43.60500 31.92400
H  40.16500 41.09300 33.52900
H  38.90300 40.85100 32.47600
H  43.76300 35.60900 29.41800
H  43.68900 36.87000 30.46900
H  45.16200 36.64800 29.46100
H  44.93200 35.09700 27.67600
H  44.53700 34.06200 26.30800
H  43.34800 34.74500 27.52800
H  42.07900 39.93100 22.23700
H  43.64400 42.41400 22.20500
H  44.79900 40.71300 21.37200
H  44.12800 39.06700 21.27600
H  44.91400 39.59600 22.65500
H  40.62000 42.37000 22.04400
H  41.67700 41.68300 20.74500
H  41.48800 43.49400 19.93000
H  42.82500 44.05800 20.81200
H  41.19700 44.45200 21.45600
H  40.74800 46.18100 24.07900
H  42.33000 46.87500 24.64200
H  40.76900 47.44300 25.33400
H  39.82400 45.13000 30.20300
H  41.44000 47.62600 33.27200
H  43.01600 47.01300 32.74600
H  41.87800 46.02600 33.77400

