158

Mg 24.08400 -5.47500 46.23400
C  26.37400 -3.15700 45.11500
C  21.69200 -4.29800 44.07300
C  22.08700 -8.22200 47.04400
C  26.64500 -6.86600 48.27800
N  24.06600 -3.99400 44.79000
C  25.07700 -3.08600 44.57100
C  24.68000 -2.02700 43.60700
C  23.07700 -2.26100 43.48500
C  22.90700 -3.63500 44.11100
C  22.04500 -1.14900 44.14900
C  25.44700 -2.16200 42.25800
C  25.81700 -0.88000 41.57200
H  25.24500 -0.79000 40.17400
N  22.12300 -6.10300 45.69400
C  21.32800 -5.45700 44.81500
C  20.02400 -6.07200 44.88400
C  20.08700 -7.27400 45.57500
C  21.47500 -7.24400 46.16700
C  18.80400 -5.61500 44.09700
C  19.00300 -8.34600 45.69400
O  17.92700 -8.11500 45.15700
C  19.22000 -9.68900 46.26500
N  24.23300 -7.22500 47.52500
C  23.30900 -8.20800 47.67200
C  23.89500 -9.43400 48.45600
C  25.19300 -8.81200 49.11600
C  25.41100 -7.54800 48.25300
C  22.98700 -10.18300 49.34600
C  26.41000 -9.69700 49.03900
C  27.02800 -9.98000 47.63200
N  26.17500 -5.17300 46.64700
C  27.04600 -5.67600 47.53000
C  28.31000 -4.90100 47.49900
C  28.07000 -3.95600 46.51900
C  26.79500 -4.11100 46.03000
C  29.51100 -5.13800 48.37400
C  28.70300 -2.90900 45.77100
O  29.86400 -2.47500 45.74300
C  27.58400 -2.27600 44.81600
C  27.53600 -0.83100 45.06100
O  26.84100 -0.27600 45.93800
O  28.27000 -0.08600 44.09200
C  28.11200 1.41100 44.09000
H  20.89700 -3.96100 43.40500
H  21.57600 -9.17500 47.20000
H  27.41800 -7.28300 48.92700
H  24.88200 -1.04600 44.03900
H  22.71200 -2.28700 42.45900
H  22.69200 -0.38100 44.57400
H  21.37100 -1.75500 44.75400
H  21.45200 -0.68100 43.36300
H  24.80100 -2.73300 41.59000
H  26.38600 -2.70200 42.38000
H  26.88100 -0.64500 41.61300
H  25.38900 -0.10000 42.20200
H  18.69800 -5.94000 43.06200
H  18.80600 -4.52500 44.10000
H  17.93500 -5.93300 44.67300
H  19.48200 -9.39800 47.28200
H  20.10500 -10.17900 45.86000
H  18.32300 -10.29600 46.14500
H  24.24800 -10.17500 47.73900
H  24.99300 -8.43700 50.12000
H  21.99700 -9.72900 49.37500
H  23.31600 -10.14600 50.38400
H  22.96700 -11.16600 48.87500
H  26.31200 -10.67000 49.52100
H  27.07700 -9.22400 49.76000
H  27.14200 -11.05100 47.46700
H  28.05700 -9.62900 47.71300
H  26.48000 -9.45500 46.84900
H  30.46700 -4.96400 47.87800
H  29.59800 -6.12900 48.81800
H  29.46200 -4.45200 49.21900
H  27.91300 -2.43600 43.78900
H  27.25000 1.73100 43.50500
H  28.97500 1.86300 43.60000
H  27.94800 1.79700 45.09600
Mg 26.66000 50.17200 25.91400
C  24.72000 51.38400 28.63100
C  28.80600 48.62200 28.16500
C  28.15600 48.86400 23.34600
C  24.43500 51.92000 23.79800
N  26.72200 50.07900 28.08500
C  25.79800 50.56600 28.99200
C  26.24600 50.22700 30.41600
C  27.69600 49.59800 30.21700
C  27.80200 49.47300 28.72800
C  28.90000 50.38500 30.85100
C  25.22000 49.31500 31.20700
C  24.66100 49.74900 32.54600
H  24.33800 48.81400 33.74300
N  28.44600 49.06600 25.74200
C  29.11100 48.50200 26.80100
C  30.20800 47.78900 26.27200
C  29.94100 47.62500 24.83700
C  28.78200 48.48800 24.57200
C  31.35600 47.31700 27.08200
C  30.77000 46.98400 23.86500
O  30.55200 47.10500 22.66200
C  31.96600 46.24800 24.25800
N  26.45300 50.48600 23.89000
C  27.04300 49.67900 23.03100
C  26.61900 49.82600 21.55300
C  25.37400 50.76500 21.76100
C  25.44500 51.14500 23.25500
C  27.77300 50.32800 20.66300
C  23.90100 50.09500 21.60300
C  22.95800 50.87600 20.67800
N  25.08800 51.59600 26.09200
C  24.22200 52.09400 25.12600
C  23.11900 52.76700 25.82600
C  23.28200 52.51400 27.16100
C  24.45200 51.73200 27.28600
C  21.85700 53.31100 25.25800
C  22.59000 52.63200 28.44100
O  21.59900 53.24400 28.74300
C  23.58500 51.95600 29.43500
C  24.12300 52.86000 30.56400
O  25.24400 53.37500 30.57400
O  23.26000 52.95400 31.63100
C  23.54600 53.66100 32.87900
H  29.33600 47.95300 28.84700
H  28.57300 48.25700 22.54000
H  23.57100 52.24800 23.21500
H  26.34300 51.10200 31.05800
H  27.81000 48.63900 30.72200
H  29.50000 50.66000 29.98400
H  29.41800 49.79800 31.60900
H  28.53000 51.30400 31.30500
H  25.70000 48.33800 31.27300
H  24.34000 49.26800 30.56500
H  23.65700 50.14300 32.38800
H  25.27900 50.52500 32.99800
H  32.27000 47.68000 26.61200
H  31.30000 46.22900 27.10500
H  31.34200 47.75900 28.07900
H  32.13600 45.81900 25.24600
H  32.74900 46.92900 23.92600
H  32.06400 45.44200 23.53100
H  26.16100 48.94400 21.10700
H  25.59400 51.64000 21.14900
H  28.75400 50.07500 21.06500
H  27.85300 51.40600 20.52100
H  27.69500 50.04200 19.61400
H  23.37300 50.04800 22.55600
H  24.05800 49.07900 21.24200
H  22.81500 50.17700 19.85400
H  23.35900 51.82600 20.32700
H  21.96200 51.11800 21.04700
H  21.55400 52.83400 24.32600
H  21.95400 54.37800 25.05700
H  21.05200 53.05400 25.94600
H  23.03900 51.12600 29.88200
H  23.52200 52.95700 33.71100
H  22.83800 54.48500 32.96500
H  24.53400 54.12000 32.91900

