158

Mg 43.19900 41.55100 26.74500
C  42.36300 43.66800 29.46400
C  44.40000 39.29900 28.84700
C  44.21700 39.77800 24.05700
C  42.76800 44.30400 24.64500
N  43.32400 41.58800 28.90500
C  42.86900 42.43400 29.81000
C  42.98500 41.87000 31.19500
C  43.71100 40.49000 31.04100
C  43.81500 40.40200 29.47700
C  45.13900 40.28400 31.68200
C  41.52600 41.84500 31.95200
C  41.43400 42.64000 33.24000
H  40.90200 42.03900 34.61400
N  44.10000 39.76300 26.46400
C  44.40700 38.91300 27.49900
C  44.87400 37.63600 26.96000
C  44.79700 37.75600 25.58800
C  44.37300 39.11400 25.27900
C  45.45300 36.53700 27.83100
C  45.18300 36.74600 24.53900
O  45.32800 37.02500 23.34200
C  45.66200 35.28300 24.87700
N  43.80600 42.06800 24.60900
C  43.94900 41.09400 23.72000
C  43.89100 41.66300 22.23400
C  43.28200 43.06300 22.47600
C  43.30600 43.17300 23.99300
C  45.28800 41.83700 21.36200
C  41.92200 43.40200 21.81400
C  41.67300 44.89400 21.55800
N  42.55500 43.53100 26.90000
C  42.38200 44.52700 25.95200
C  41.71800 45.74400 26.53800
C  41.71500 45.41400 27.93100
C  42.28900 44.10300 28.10300
C  41.45400 47.07000 25.89200
C  41.51400 45.88200 29.26900
O  41.14800 46.98900 29.60100
C  41.91000 44.81500 30.26700
C  43.00000 45.42900 31.11100
O  44.16300 45.57600 30.74300
O  42.43400 45.77700 32.31300
C  43.43300 46.07200 33.32300
H  44.70600 38.58300 29.61300
H  44.24000 39.14300 23.17000
H  42.52900 45.15400 24.00300
H  43.67300 42.47000 31.79100
H  43.08500 39.68400 31.42200
H  45.89300 40.13300 30.90900
H  44.94800 39.33700 32.18600
H  45.46400 41.02000 32.41700
H  41.25400 40.79400 32.05200
H  40.78100 42.19200 31.23600
H  40.85800 43.52700 32.97600
H  42.43100 42.99400 33.50100
H  45.35400 36.66900 28.90800
H  46.52700 36.41500 27.68600
H  44.93300 35.61500 27.57100
H  46.13800 35.32700 25.85600
H  46.37400 34.93200 24.12900
H  44.82000 34.59400 24.93100
H  43.18900 41.05500 21.66300
H  43.94300 43.84500 22.10200
H  46.05900 41.42200 22.01200
H  45.52200 42.90100 21.32800
H  45.47300 41.30400 20.42900
H  41.18100 43.04500 22.53000
H  41.74400 42.81000 20.91600
H  41.31300 44.98500 20.53300
H  42.55800 45.49200 21.77600
H  40.84600 45.25400 22.17000
H  42.07100 47.13800 24.99700
H  41.59600 47.87900 26.60900
H  40.42500 47.01700 25.53600
H  41.02800 44.52800 30.83900
H  44.12900 45.24800 33.16600
H  43.00000 46.10900 34.32300
H  43.84800 47.07900 33.38400
Mg 9.89500 47.44700 25.61400
C  7.59800 47.46800 28.33000
C  12.41000 48.49100 27.81500
C  12.05000 47.34600 23.05400
C  7.24100 46.75300 23.43100
N  9.95800 48.00600 27.85800
C  8.91200 47.81600 28.75100
C  9.38500 48.34100 30.13100
C  10.88300 48.76900 29.86900
C  11.16600 48.41500 28.42400
C  11.36000 50.20700 30.11400
C  9.13900 47.37100 31.37800
C  10.09700 47.56800 32.53200
H  9.48900 47.10700 33.88700
N  11.93500 47.89200 25.46000
C  12.78900 48.27300 26.44700
C  14.12800 48.41600 25.90400
C  14.02500 48.06500 24.56500
C  12.64600 47.74600 24.26500
C  15.31300 48.84400 26.75000
C  15.16100 48.03900 23.50000
O  15.00000 47.79900 22.33300
C  16.63400 48.10000 23.91600
N  9.61400 47.40800 23.42800
C  10.71200 47.12000 22.69200
C  10.33600 46.39000 21.36300
C  8.76900 46.31900 21.51400
C  8.49400 46.86100 22.85800
C  10.94800 47.04400 20.03600
C  8.21200 44.88300 21.42400
C  8.46500 43.91600 22.60200
N  7.90200 47.07500 25.78700
C  6.90600 46.97400 24.79000
C  5.63800 46.85700 25.46400
C  5.82700 47.05400 26.81200
C  7.22300 47.18900 26.98600
C  4.38000 46.60900 24.72700
C  5.24800 47.06600 28.21400
O  4.07000 46.89200 28.59100
C  6.42000 47.29700 29.23000
C  6.63500 46.11500 30.05100
O  7.17000 45.15600 29.63300
O  6.08600 46.35500 31.27700
C  6.20600 45.29600 32.23900
H  13.27200 48.52800 28.48400
H  12.76100 46.92300 22.34200
H  6.51200 46.37700 22.70900
H  8.73200 49.20800 30.23000
H  11.60900 48.21900 30.46900
H  10.50800 50.84500 30.34800
H  12.03900 50.59500 29.35600
H  11.89700 50.25100 31.06200
H  9.09800 46.35900 30.97600
H  8.13600 47.66200 31.68800
H  10.36300 48.61900 32.64300
H  11.00900 46.98600 32.39400
H  16.24100 48.27300 26.78500
H  15.02800 49.14100 27.75900
H  15.65300 49.78100 26.31100
H  17.26900 47.98200 23.03800
H  16.72600 47.23200 24.56900
H  16.85200 49.08800 24.32200
H  10.82900 45.42700 21.49900
H  8.28200 46.96700 20.78700
H  11.44300 46.26900 19.45000
H  11.79800 47.67800 20.28900
H  10.10500 47.56700 19.58600
H  8.87600 44.40000 20.70800
H  7.16900 44.96100 21.11600
H  8.95000 44.48400 23.39600
H  9.08400 43.04500 22.38700
H  7.50200 43.53900 22.94900
H  4.35100 47.24500 23.84300
H  3.54200 46.75000 25.41000
H  4.33500 45.56500 24.41900
H  6.04700 48.09200 29.87600
H  7.09700 44.68600 32.09200
H  5.36500 44.62800 32.05700
H  6.15700 45.79100 33.20900

