158

Mg 34.78400 3.04200 29.38200
C  33.11900 4.22000 32.12900
C  37.58700 2.51400 31.24300
C  36.49200 2.13300 26.52300
C  32.15900 4.06500 27.28000
N  35.31800 3.34300 31.47800
C  34.42700 3.83100 32.39600
C  35.17900 3.86300 33.78600
C  36.66600 3.53000 33.44800
C  36.53700 3.11700 31.99000
C  37.68500 4.72800 33.48800
C  34.51300 2.98600 34.86300
C  34.01800 3.74700 36.14100
H  35.00600 4.67700 36.82900
N  36.72500 2.40700 28.92700
C  37.67700 2.20700 29.87200
C  38.93400 1.78700 29.24100
C  38.63800 1.67100 27.86100
C  37.23700 2.03700 27.73500
C  40.15400 1.46500 30.03600
C  39.49500 1.18300 26.63800
O  39.02600 0.97400 25.56200
C  40.91700 0.84300 26.84500
N  34.36300 2.99900 27.19700
C  35.33200 2.72300 26.29100
C  34.73300 2.94900 24.81400
C  33.28500 3.44200 25.09100
C  33.22500 3.49700 26.61200
C  35.58700 4.02900 24.03000
C  32.16500 2.53000 24.36900
C  31.45500 1.44100 25.17300
N  33.02200 3.84200 29.61700
C  32.06600 4.22400 28.72200
C  30.92100 4.58600 29.42300
C  31.26700 4.54500 30.71400
C  32.60000 4.12300 30.81400
C  29.58100 4.96100 28.95500
C  30.80400 4.83300 32.05300
O  29.69000 5.25300 32.43500
C  32.00400 4.68200 33.06800
C  32.27800 6.10200 33.52800
O  33.02500 6.88400 33.02100
O  31.58400 6.30300 34.68300
C  31.98700 7.50000 35.47800
H  38.45700 2.51800 31.90400
H  36.99800 1.92500 25.57800
H  31.27300 4.32200 26.69600
H  35.05300 4.91300 34.05200
H  36.90800 2.62700 34.00800
H  37.09800 5.64500 33.43700
H  38.24400 4.74400 32.55200
H  38.30100 4.68900 34.38600
H  35.15000 2.18900 35.24600
H  33.67300 2.54000 34.32900
H  33.59200 2.98500 36.79500
H  33.15700 4.39300 35.96500
H  41.04400 2.04200 29.78400
H  40.34700 0.40500 29.87600
H  40.01800 1.51500 31.11700
H  41.42500 1.73100 27.22100
H  41.36900 0.49300 25.91700
H  40.98600 0.01000 27.54400
H  34.84700 1.96900 24.35100
H  33.13300 4.49000 24.83400
H  36.66300 3.96500 24.18800
H  35.26700 4.99100 24.43100
H  35.39400 3.93200 22.96100
H  32.56100 2.10900 23.44500
H  31.41100 3.17100 23.91200
H  30.42900 1.70900 25.42400
H  31.97200 1.18900 26.09900
H  31.38000 0.49600 24.63400
H  29.86400 5.65500 28.16300
H  28.95300 5.47100 29.68500
H  29.18700 4.00600 28.60600
H  31.95200 3.94600 33.87000
H  32.31700 8.24600 34.75400
H  32.72800 7.44500 36.27600
H  31.10400 8.00000 35.87500
Mg 17.69500 53.31100 26.01000
C  19.58800 51.89300 28.66300
C  15.46200 54.30600 28.43500
C  15.77300 54.28500 23.64900
C  20.00800 51.89500 23.72300
N  17.53400 53.13800 28.33600
C  18.42100 52.51100 29.17200
C  17.95900 52.68000 30.59900
C  16.54900 53.24600 30.44600
C  16.56700 53.71500 29.02100
C  15.48200 52.14900 30.71300
C  18.91600 53.67900 31.39800
C  19.07500 53.45000 32.90900
H  18.04500 52.66600 33.72500
N  15.80700 54.20300 26.07700
C  15.09500 54.61800 27.12500
C  13.85700 55.30300 26.67400
C  13.89900 55.20500 25.23600
C  15.20000 54.52800 24.93600
C  12.77600 55.64200 27.60800
C  12.85300 55.65500 24.21700
O  13.00300 55.57400 23.03200
C  11.53200 56.31400 24.70200
N  17.91300 53.13100 24.02500
C  16.94500 53.60600 23.18800
C  17.43500 53.79100 21.77800
C  18.83300 53.07100 21.82800
C  18.98300 52.73500 23.28800
C  16.55700 53.34500 20.53600
C  20.06600 54.00200 21.33800
C  21.29400 53.26500 20.82300
N  19.46800 52.27100 26.08900
C  20.32900 51.79200 25.08900
C  21.44100 51.03200 25.68600
C  21.14700 51.07300 27.05900
C  19.96200 51.78800 27.25700
C  22.50800 50.36800 24.96400
C  21.66200 50.65200 28.31700
O  22.65600 49.95700 28.55600
C  20.72500 51.25300 29.43100
C  20.28300 50.20300 30.36300
O  19.46800 49.35300 30.08100
O  20.81900 50.46900 31.61000
C  20.55400 49.54300 32.72500
H  14.72500 54.68500 29.14600
H  15.22100 54.63600 22.77500
H  20.82800 51.54800 23.09100
H  18.00800 51.73100 31.13300
H  16.37900 54.12800 31.06400
H  15.08600 51.90700 29.72700
H  14.67800 52.51100 31.35300
H  15.76500 51.24900 31.25900
H  18.71600 54.72500 31.16400
H  19.89100 53.53000 30.93500
H  19.07900 54.43700 33.37100
H  20.07700 53.07100 33.10600
H  11.76400 55.44900 27.25300
H  12.78300 56.68200 27.93400
H  12.93800 55.09600 28.53700
H  11.76300 56.98000 25.53300
H  10.92400 55.48500 25.06500
H  11.10100 56.79500 23.82400
H  17.59100 54.84400 21.54300
H  18.95600 52.08200 21.38500
H  15.53700 53.02300 20.74900
H  16.97900 52.42900 20.12400
H  16.67200 54.01400 19.68300
H  20.34100 54.51500 22.25900
H  19.67300 54.74500 20.64400
H  21.30100 52.18200 20.94800
H  22.17000 53.75900 21.24200
H  21.32700 53.46900 19.75300
H  23.43400 50.37200 25.54000
H  22.77900 51.07600 24.18200
H  22.35100 49.31200 24.74500
H  21.27700 51.99100 30.01300
H  20.99500 48.57300 32.49600
H  19.48800 49.44600 32.92700
H  20.99800 49.85200 33.67100

