158

Mg 55.57100 24.12600 43.88600
C  53.00000 26.41600 43.06900
C  53.72900 21.59000 42.88200
C  58.33300 22.17500 43.95000
C  57.68100 26.98100 44.48600
N  53.64400 24.06000 42.91200
C  52.64200 25.06200 42.81200
C  51.27400 24.45700 42.49300
C  51.57600 22.92800 42.61900
C  53.10500 22.85900 42.81900
C  50.83900 22.17700 43.76000
C  50.83300 24.76100 41.03200
C  49.35000 24.78000 40.64500
H  49.03700 24.37500 39.20200
N  55.96900 22.10800 43.63900
C  55.03000 21.23600 43.18800
C  55.60100 19.94600 43.08600
C  56.98800 20.09000 43.37600
C  57.24800 21.54200 43.66000
C  54.89800 18.70000 42.64500
C  57.97300 18.92000 43.44300
O  57.58900 17.83600 43.33400
C  59.46800 19.19400 43.61000
N  57.68800 24.55200 44.13800
C  58.53500 23.54600 44.23800
C  59.89000 24.04500 44.67000
C  59.81100 25.58600 44.53400
C  58.26800 25.74600 44.51200
C  60.30200 23.55000 46.08600
C  60.63100 26.23200 43.37300
C  61.74400 27.18600 43.66500
N  55.36800 26.23400 43.88900
C  56.32400 27.24600 44.26700
C  55.61600 28.51500 44.29500
C  54.35700 28.26300 43.81200
C  54.30000 26.87500 43.52000
C  56.17900 29.81400 44.79500
C  53.07500 28.88700 43.57200
O  52.66000 30.02100 43.83100
C  52.10000 27.69500 43.05000
C  51.68200 28.05000 41.75800
O  52.39900 28.40600 40.79500
O  50.29100 27.98400 41.56800
C  49.67000 28.89400 40.56900
H  52.99000 20.79800 42.74800
H  59.28100 21.63900 44.03700
H  58.22500 27.92300 44.58400
H  50.53400 24.78600 43.22200
H  51.37800 22.44300 41.66300
H  51.49800 21.64700 44.44800
H  50.13700 21.42400 43.40300
H  50.38000 22.93000 44.40100
H  51.34000 24.05900 40.37100
H  51.27400 25.70300 40.70700
H  49.07700 25.82700 40.78100
H  48.83100 24.06300 41.28000
H  55.24100 18.40700 41.65300
H  53.81000 18.77200 42.67100
H  55.22300 17.85500 43.25100
H  59.95200 19.79300 42.83900
H  59.95600 18.22400 43.50900
H  59.71000 19.54700 44.61300
H  60.65200 23.72400 43.96000
H  60.17400 25.96500 45.48900
H  59.87000 22.57600 46.31800
H  60.07000 24.23100 46.90500
H  61.37700 23.36600 46.07400
H  60.01300 26.92000 42.79500
H  61.02900 25.43700 42.74200
H  62.62800 26.90600 43.09200
H  62.05800 27.04200 44.69900
H  61.41200 28.20300 43.46000
H  57.06600 30.11100 44.23600
H  56.33700 29.71400 45.86900
H  55.41300 30.57000 44.62300
H  51.26000 27.71000 43.74400
H  48.99800 29.52300 41.15300
H  49.11900 28.24300 39.89000
H  50.40000 29.35800 39.90500
Mg 41.52000 41.21200 26.77500
C  40.61100 43.73400 29.08800
C  42.30300 39.24500 29.30400
C  42.50900 38.99500 24.49600
C  40.63600 43.46500 24.10600
N  41.68500 41.54300 28.92000
C  41.16300 42.60200 29.69000
C  41.17300 42.32100 31.24300
C  41.83200 40.91000 31.24700
C  41.92700 40.52100 29.73800
C  43.15300 40.86900 32.11000
C  39.76500 42.40300 31.86700
C  39.52400 43.21700 33.14200
H  39.14400 42.39000 34.31900
N  42.38400 39.42800 26.91100
C  42.55000 38.72800 28.05800
C  43.24500 37.43800 27.74500
C  43.31600 37.36600 26.35600
C  42.71000 38.66900 25.84400
C  43.83200 36.51800 28.80600
C  43.99500 36.30600 25.41300
O  44.10300 36.39000 24.16000
C  44.59700 35.11200 26.08500
N  41.57000 41.20800 24.59100
C  41.89100 40.13000 23.91600
C  41.82700 40.30200 22.41700
C  41.02500 41.65200 22.38100
C  41.15800 42.23300 23.74200
C  43.19000 40.34900 21.74400
C  39.54500 41.44200 21.96600
C  38.63900 40.50600 22.82400
N  40.87100 43.20500 26.61400
C  40.47200 43.98500 25.48500
C  39.97600 45.28500 25.88900
C  40.08100 45.24100 27.28900
C  40.54500 43.95900 27.68200
C  39.63100 46.38200 24.96600
C  39.89300 45.93100 28.54800
O  39.58000 47.09300 28.75400
C  40.11000 44.96300 29.75900
C  41.20200 45.56800 30.59700
O  42.37800 45.68000 30.27800
O  40.58600 46.33300 31.56200
C  41.43400 47.18000 32.39900
H  42.50100 38.44800 30.02500
H  42.66500 38.16400 23.80500
H  40.26700 44.08900 23.28800
H  41.79100 43.12700 31.64000
H  41.12100 40.20400 31.67600
H  44.00900 40.36600 31.66200
H  42.96500 40.39600 33.07400
H  43.41000 41.85500 32.49700
H  39.37600 41.39600 32.01900
H  39.02700 42.66800 31.11000
H  38.66600 43.86900 32.97900
H  40.41600 43.80500 33.36000
H  43.96400 37.16500 29.67300
H  44.85000 36.16700 28.63700
H  43.17500 35.66600 28.98400
H  43.87900 34.57000 26.70000
H  45.50600 35.33200 26.64600
H  44.88800 34.45600 25.26400
H  41.18200 39.48900 22.08300
H  41.42900 42.29800 21.60200
H  43.92600 40.52800 22.52800
H  43.19700 41.20900 21.07500
H  43.35200 39.51300 21.06300
H  39.56200 41.01600 20.96300
H  39.07300 42.42400 21.93900
H  37.64200 40.86800 23.07500
H  39.07900 40.14500 23.75300
H  38.40600 39.72500 22.10000
H  38.91500 45.92900 24.28000
H  40.25800 46.90100 24.24100
H  38.97400 47.04200 25.53300
H  39.22100 44.89100 30.38600
H  41.46300 46.85300 33.43900
H  41.01900 48.18200 32.28900
H  42.50600 47.21100 32.20600

