158

Mg 47.20400 24.89800 28.76400
C  48.02600 27.41600 31.25800
C  46.55000 22.78200 31.27200
C  46.97200 22.51500 26.45400
C  48.32400 27.15100 26.42300
N  47.37900 25.13100 31.06200
C  47.63500 26.19300 31.83700
C  47.37700 25.85200 33.33700
C  47.16400 24.32300 33.33500
C  47.03900 24.02200 31.82200
C  48.40700 23.51800 33.91500
C  46.19300 26.71600 33.91000
C  46.42300 27.28200 35.32900
H  45.36800 26.89400 36.42300
N  46.84400 22.91200 28.83500
C  46.50000 22.25100 29.97100
C  46.22300 20.80300 29.57100
C  46.39800 20.71000 28.14500
C  46.72600 22.04000 27.74700
C  45.79800 19.78300 30.59300
C  46.15300 19.58200 27.20100
O  46.14800 19.69000 25.98600
C  45.84200 18.23900 27.79700
N  47.89000 24.76800 26.69800
C  47.41800 23.71800 25.95400
C  47.52300 24.04000 24.46400
C  47.67300 25.61000 24.51400
C  48.03400 25.85400 25.92200
C  48.63400 23.20300 23.70800
C  46.35000 26.27800 23.93200
C  45.23200 26.56900 24.94500
N  47.85100 26.91100 28.80100
C  48.27500 27.72400 27.72900
C  48.57100 29.05500 28.10000
C  48.49500 28.95200 29.48300
C  48.09000 27.65900 29.86900
C  49.03000 30.25700 27.32000
C  48.71500 29.71400 30.71100
O  49.15400 30.85400 30.84300
C  48.33400 28.70500 31.96000
C  49.46000 28.74900 32.84300
O  50.61000 28.39400 32.63900
O  48.99900 29.20100 34.08400
C  49.98700 29.21000 35.18400
H  46.02800 22.12700 31.97200
H  46.93300 21.85200 25.58700
H  48.53000 27.74200 25.52800
H  48.34100 26.10200 33.77900
H  46.16600 24.06500 33.68900
H  49.03400 24.17000 34.52200
H  49.02500 23.04400 33.15300
H  47.93800 22.81400 34.60200
H  45.27900 26.13200 33.79800
H  45.89000 27.57100 33.30500
H  46.37600 28.36400 35.20600
H  47.38600 26.99700 35.75400
H  45.48800 20.18800 31.55600
H  46.54800 18.99200 30.61100
H  44.91500 19.31400 30.15800
H  46.74700 18.00700 28.36000
H  45.69900 17.47900 27.02900
H  45.03200 18.21000 28.52600
H  46.56200 23.87500 23.97700
H  48.63800 25.89700 24.09700
H  49.20900 22.67000 24.46400
H  49.34500 23.81000 23.14800
H  48.16200 22.47000 23.05400
H  45.83300 25.62700 23.22700
H  46.57000 27.22800 23.44400
H  44.41400 25.88400 24.72100
H  44.79000 27.56000 24.84800
H  45.45000 26.38700 25.99800
H  48.78300 31.06300 28.01100
H  48.43200 30.36500 26.41600
H  50.10800 30.19000 27.16900
H  47.50800 29.18900 32.48100
H  50.89200 28.63900 34.97200
H  49.52300 28.90100 36.12100
H  50.34700 30.21900 35.38300
Mg 35.43900 49.41900 24.50800
C  35.82000 47.63400 27.35800
C  34.18300 52.03000 26.23500
C  34.78200 51.04900 21.52100
C  36.58000 46.63800 22.68200
N  35.02100 49.75100 26.55600
C  35.35800 48.95000 27.64000
C  35.02100 49.57100 28.98400
C  34.45400 50.95700 28.54900
C  34.62700 50.89600 27.04800
C  32.97400 51.12100 28.94300
C  36.29500 49.65100 29.91900
C  36.11900 49.17000 31.37900
H  34.74800 48.93300 31.90200
N  34.53100 51.26300 23.98800
C  34.15300 52.22200 24.87200
C  33.66900 53.34900 24.16100
C  33.92000 53.06200 22.74700
C  34.44800 51.71900 22.69900
C  33.28100 54.57200 24.86500
C  33.67200 53.95800 21.54300
O  33.99800 53.71300 20.40400
C  33.07600 55.36400 21.83000
N  35.71800 48.92400 22.41300
C  35.32700 49.73800 21.31600
C  35.84500 49.17900 19.94700
C  36.48600 47.78300 20.41600
C  36.23700 47.76200 21.92400
C  34.66800 49.03400 18.99300
C  37.95900 47.61900 19.88000
C  38.46400 46.15500 19.51100
N  36.19800 47.54200 24.93900
C  36.63600 46.50200 24.11000
C  37.10400 45.44000 24.89400
C  36.71500 45.78400 26.17700
C  36.24800 47.07900 26.13600
C  37.71800 44.08200 24.28500
C  36.64600 45.31200 27.56900
O  36.95600 44.25600 28.07500
C  35.99500 46.51000 28.45600
C  34.83100 46.00400 29.13300
O  33.71700 45.85000 28.65400
O  35.27500 45.46300 30.30600
C  34.28400 44.71600 31.13100
H  33.68500 52.75800 26.87800
H  34.58700 51.49700 20.54400
H  36.92100 45.72600 22.18800
H  34.21100 49.02000 29.46200
H  34.94100 51.88600 28.84700
H  32.72400 50.65800 29.89700
H  32.30000 50.68900 28.20300
H  32.71200 52.17500 29.04000
H  36.75000 50.63800 29.84500
H  37.14200 49.03600 29.61400
H  36.61600 49.84400 32.07700
H  36.71000 48.27900 31.59000
H  33.73300 55.43800 24.38100
H  33.54200 54.49300 25.92100
H  32.23300 54.84400 24.74000
H  32.17300 55.11800 22.38900
H  32.70200 55.80600 20.90600
H  33.76200 56.06400 22.30600
H  36.58400 49.80000 19.44100
H  35.80700 47.09900 19.90800
H  34.83400 48.42500 18.10500
H  34.23800 50.00500 18.74600
H  33.87400 48.53300 19.54600
H  38.71500 48.13500 20.47300
H  37.96600 48.14500 18.92600
H  39.38200 45.97200 20.07100
H  38.72600 46.10800 18.45400
H  37.69900 45.42800 19.78400
H  37.14600 43.83600 23.39000
H  37.62800 43.31100 25.05100
H  38.78100 44.18200 24.06400
H  36.73400 46.75800 29.21700
H  34.86800 44.10300 31.81800
H  33.75300 44.03200 30.46800
H  33.55200 45.32400 31.66200

