158

Mg -11.07700 38.98200 42.37500
C  -8.79700 36.23100 41.63400
C  -9.02200 41.09700 40.74900
C  -13.55400 41.13200 42.55500
C  -13.34500 36.44600 43.58500
N  -9.18500 38.59200 41.25600
C  -8.46600 37.44100 40.97700
C  -7.31900 37.74800 39.97300
C  -7.33200 39.34200 39.84500
C  -8.60400 39.72800 40.62900
C  -6.12900 40.01500 40.58000
C  -7.41900 36.95600 38.66500
C  -6.14600 36.32900 38.13500
H  -5.47200 37.20400 37.10600
N  -11.18200 40.82900 41.93400
C  -10.20400 41.58600 41.34300
C  -10.57700 42.94000 41.35500
C  -11.87400 43.01700 41.83900
C  -12.26700 41.64600 42.18500
C  -9.68700 44.03800 40.89700
C  -12.68800 44.24700 42.08500
O  -12.14900 45.34000 41.89800
C  -14.16200 44.31400 42.54700
N  -13.18800 38.74100 42.94400
C  -14.03900 39.86700 42.87700
C  -15.48600 39.50500 43.15800
C  -15.46300 37.95400 43.50700
C  -13.90800 37.73200 43.45400
C  -16.02200 40.40000 44.29400
C  -16.24000 37.07800 42.40600
C  -16.75000 35.76300 42.87500
N  -11.10200 36.88200 42.80900
C  -12.00600 36.08400 43.36100
C  -11.47100 34.75900 43.54900
C  -10.22700 34.76800 42.89400
C  -9.99700 36.09100 42.45000
C  -12.06800 33.53300 44.23600
C  -9.00200 33.95300 42.59200
O  -8.75900 32.79400 42.89900
C  -8.17100 34.88300 41.63500
C  -6.74300 34.81300 42.16200
O  -5.94300 33.83100 41.89900
O  -6.52100 35.98100 42.84600
C  -5.12700 36.01800 43.45400
H  -8.57200 41.91900 40.18900
H  -14.39100 41.83200 42.58200
H  -13.95000 35.57700 43.85200
H  -6.42200 37.48900 40.53500
H  -7.43600 39.72800 38.83100
H  -5.39900 39.23800 40.80400
H  -6.29600 40.46000 41.56100
H  -5.78800 40.86600 39.99000
H  -7.68500 37.70000 37.91400
H  -8.11900 36.12100 38.70500
H  -6.38100 35.33800 37.74600
H  -5.51300 36.13200 39.00000
H  -9.87600 44.94200 41.47600
H  -9.81800 44.30700 39.84900
H  -8.62000 43.81700 40.93600
H  -14.41300 45.37300 42.61800
H  -14.29100 44.03200 43.59200
H  -14.73700 43.76300 41.80300
H  -16.01800 39.55000 42.20800
H  -15.98300 37.78900 44.45100
H  -16.00100 39.83800 45.22700
H  -17.04100 40.74900 44.12500
H  -15.39100 41.26400 44.50200
H  -15.63300 36.93800 41.51200
H  -17.04700 37.70200 42.02200
H  -16.33000 35.62500 43.87100
H  -16.26900 35.02000 42.23900
H  -17.83800 35.72200 42.81700
H  -12.30800 33.99600 45.19300
H  -11.48900 32.62100 44.38500
H  -13.02900 33.33000 43.76500
H  -8.23500 34.54400 40.60100
H  -4.43100 36.66100 42.91600
H  -4.69400 35.01800 43.48200
H  -5.26800 36.33200 44.48800
Mg -10.83300 17.24200 41.08800
C  -7.25500 17.13800 40.89500
C  -10.60400 20.50000 40.30900
C  -13.94100 17.03400 40.01100
C  -10.72000 13.73500 41.18300
N  -9.09500 18.55300 40.38600
C  -7.75900 18.37700 40.60300
C  -6.96900 19.56900 40.14900
C  -8.02600 20.68300 40.42500
C  -9.34700 19.86700 40.37600
C  -7.82200 21.56100 41.75600
C  -6.54400 19.40000 38.60400
C  -5.08000 19.08400 38.43200
H  -4.76500 17.93500 37.49300
N  -12.13600 18.61100 40.20800
C  -11.89400 19.93800 40.15100
C  -13.05100 20.65400 39.81200
C  -14.08700 19.66200 39.77900
C  -13.44000 18.33300 40.04500
C  -12.99300 22.13700 39.47000
C  -15.59700 19.92500 39.28300
O  -15.95300 21.08100 38.94300
C  -16.59200 18.76600 39.16600
N  -12.14300 15.48400 40.48400
C  -13.38800 15.72700 40.20200
C  -14.24300 14.46100 40.25800
C  -13.21900 13.35400 40.70500
C  -12.00300 14.22900 40.86500
C  -15.57200 14.52900 41.02500
C  -12.95700 12.03800 39.93900
C  -13.60100 10.82600 40.58500
N  -9.42400 15.67600 41.40500
C  -9.50200 14.33000 41.48800
C  -8.15300 13.80400 41.74300
C  -7.31300 14.86900 41.51900
C  -8.08700 16.01300 41.27300
C  -7.74100 12.38700 41.94400
C  -5.83700 15.20000 41.50200
O  -4.84500 14.46600 41.59000
C  -5.76300 16.76200 41.17200
C  -5.15200 17.53400 42.36200
O  -3.96100 17.72100 42.41400
O  -6.12100 17.95600 43.27100
C  -5.53800 18.72900 44.38100
H  -10.62100 21.58400 40.17700
H  -15.02800 17.10200 40.08900
H  -10.68400 12.67600 41.44400
H  -6.05800 19.61500 40.74500
H  -8.03600 21.35600 39.56700
H  -6.87300 21.33600 42.24300
H  -8.59600 21.34000 42.49100
H  -7.88600 22.63200 41.56600
H  -6.70700 20.32300 38.04900
H  -7.08800 18.58800 38.12200
H  -4.66300 19.08000 39.43900
H  -4.57000 19.93800 37.98700
H  -13.01400 22.65500 40.42900
H  -13.86700 22.53700 38.95600
H  -12.10000 22.40400 38.90500
H  -16.26000 17.98400 38.48200
H  -17.49200 19.08200 38.64000
H  -16.95700 18.47600 40.15100
H  -14.51400 14.26900 39.22000
H  -13.50100 13.05900 41.71600
H  -16.32800 14.25200 40.29000
H  -15.85900 15.46500 41.50400
H  -15.56300 13.71700 41.75200
H  -11.88500 11.88600 39.81100
H  -13.40200 12.24600 38.96600
H  -14.40800 10.41300 39.98000
H  -13.86100 11.01300 41.62700
H  -12.76900 10.12300 40.62200
H  -8.62100 11.75800 41.81000
H  -7.45300 12.29700 42.99200
H  -6.93100 11.93900 41.36800
H  -5.05700 16.87800 40.35000
H  -6.33800 18.83800 45.11300
H  -5.15500 19.69900 44.06200
H  -4.68100 18.23200 44.83600

