158

Mg 25.38600 1.08000 29.56100
C  27.39100 1.11900 32.33600
C  22.59100 1.42500 31.68000
C  23.40600 1.18000 26.83300
C  28.10600 0.60000 27.56300
N  25.05700 1.29600 31.79100
C  26.06200 1.31400 32.75100
C  25.39700 1.65500 34.16000
C  23.86000 1.66000 33.85200
C  23.83600 1.50600 32.36800
C  22.90100 0.63300 34.65100
C  25.96400 3.04700 34.75300
C  26.70100 2.89000 36.12400
H  26.15200 3.75000 37.30200
N  23.32500 1.01500 29.30200
C  22.36900 1.15900 30.25400
C  21.03400 1.06600 29.66500
C  21.28300 0.86700 28.26100
C  22.70400 1.03100 28.06100
C  19.78400 1.12600 30.51000
C  20.26300 0.57400 27.22200
O  20.52000 0.33100 26.05900
C  18.82500 0.42300 27.64900
N  25.74500 0.93500 27.46700
C  24.78800 1.09900 26.50300
C  25.27700 1.04700 25.05600
C  26.82000 1.01500 25.34300
C  26.95300 0.94800 26.84600
C  24.74700 -0.06500 24.12200
C  27.71300 2.16800 24.67400
C  27.32400 2.49500 23.20600
N  27.31700 0.76500 29.87700
C  28.33400 0.64900 28.94100
C  29.53400 0.55200 29.69600
C  29.22400 0.71400 31.04200
C  27.84600 0.89800 31.08000
C  30.81400 0.18200 29.10600
C  29.75500 0.77600 32.40300
O  30.87500 0.64000 32.75700
C  28.53600 1.05200 33.24000
C  28.24900 -0.01200 34.29800
O  27.68000 -1.11900 34.12900
O  28.80800 0.37200 35.48200
C  28.63300 -0.54100 36.61500
H  21.71300 1.61000 32.30200
H  22.69000 1.21300 26.00800
H  29.00000 0.57300 26.93800
H  25.55500 0.78900 34.80300
H  23.48800 2.66700 34.03900
H  22.39200 0.00800 33.91700
H  22.15600 1.24000 35.16400
H  23.41000 -0.02800 35.35300
H  25.16000 3.76600 34.90800
H  26.65700 3.50100 34.04500
H  27.68400 3.25600 35.82800
H  26.69900 1.85100 36.45400
H  19.19900 0.20600 30.50500
H  19.23600 1.97200 30.09500
H  20.06000 1.23600 31.55900
H  18.65900 -0.57800 28.04700
H  18.24900 0.32800 26.72800
H  18.51100 1.20300 28.34300
H  24.98800 2.03700 24.70300
H  27.17700 0.06300 24.95100
H  24.01000 -0.75300 24.53500
H  25.54700 -0.66800 23.69400
H  24.29500 0.49800 23.30400
H  28.74000 1.80300 24.69100
H  27.51900 2.98100 25.37400
H  26.72800 3.40200 23.10100
H  26.79500 1.64400 22.77800
H  28.25700 2.64800 22.66400
H  31.58900 0.52500 29.79200
H  30.98600 0.73900 28.18400
H  30.80500 -0.90500 29.02700
H  28.74200 1.99400 33.74900
H  27.57000 -0.54600 36.85500
H  29.21500 -0.13600 37.44300
H  29.07800 -1.52900 36.50000
Mg 6.12800 55.01500 41.14900
C  3.71800 52.51100 41.14800
C  8.35400 52.59300 40.04800
C  8.32100 57.44000 40.46700
C  3.72000 57.35900 41.84900
N  5.93200 52.83400 40.43400
C  4.88500 52.06600 40.52900
C  5.27700 50.61100 40.10900
C  6.75000 50.53900 40.11400
C  7.05500 52.10500 40.18600
C  7.44700 49.63700 41.16900
C  4.61100 50.44900 38.67500
C  4.19200 49.07200 38.24300
H  4.95600 48.47600 37.04400
N  8.17700 55.04400 40.45900
C  8.90000 53.97500 40.11400
C  10.22900 54.30200 39.75900
C  10.30500 55.71200 39.90400
C  8.94400 56.19700 40.33500
C  11.20900 53.18300 39.31400
C  11.47300 56.49100 39.59700
O  12.49900 55.96500 39.20400
C  11.36700 57.97400 39.72200
N  5.99800 57.04600 40.96100
C  6.99600 57.88100 40.65000
C  6.58800 59.29200 40.62900
C  5.11200 59.26800 40.98400
C  4.88500 57.79100 41.24600
C  7.44500 60.09200 41.62900
C  4.16000 59.69000 39.80700
C  2.96500 60.61500 40.09700
N  4.12300 55.00000 41.44600
C  3.29500 56.01200 41.94700
C  2.06500 55.44100 42.37300
C  2.20500 54.08600 42.09800
C  3.42900 53.86800 41.50900
C  0.92200 56.24700 42.90200
C  1.52200 52.87700 42.12700
O  0.47100 52.58200 42.63800
C  2.50700 51.75800 41.46500
C  1.77200 51.05400 40.42400
O  1.17800 51.62300 39.51300
O  1.71500 49.65400 40.56400
C  0.86000 48.99700 39.60800
H  8.98700 51.73900 39.79900
H  8.89800 58.24300 40.00300
H  2.91600 58.05800 42.08700
H  4.80600 49.84500 40.72500
H  7.08500 50.26400 39.11300
H  6.93900 48.69400 41.37200
H  7.60300 50.29400 42.02500
H  8.43700 49.56600 40.72000
H  5.33800 50.78700 37.93600
H  3.70800 51.04000 38.52600
H  3.14500 49.10100 37.93900
H  4.31800 48.41800 39.10600
H  10.63500 52.53600 38.65100
H  11.51400 52.57200 40.16400
H  12.02000 53.49000 38.65300
H  12.34200 58.44700 39.83800
H  10.77500 58.14000 40.62300
H  10.90300 58.38900 38.82800
H  6.75700 59.81100 39.68500
H  4.89400 59.71700 41.95400
H  7.95100 59.44900 42.34900
H  6.90300 60.92900 42.06900
H  8.26600 60.55800 41.08300
H  3.61800 58.81300 39.45100
H  4.64300 59.99400 38.87900
H  2.10900 60.10800 39.65300
H  3.17400 61.47500 39.46100
H  2.79700 60.90400 41.13500
H  0.55100 56.97200 42.17700
H  1.24100 56.71700 43.83100
H  0.16900 55.47700 43.07700
H  2.69200 51.06900 42.28900
H  1.46200 48.15400 39.26900
H  0.54800 49.54800 38.72100
H  0.05500 48.55000 40.19100

