158

Mg 8.03100 3.24700 27.83400
C  9.56300 1.60400 30.44000
C  6.30600 5.19600 30.12300
C  6.32300 4.72300 25.18900
C  9.31200 0.86200 25.65400
N  7.80800 3.18900 29.99700
C  8.70700 2.63200 30.84700
C  8.55000 3.24600 32.28300
C  7.27400 4.15200 32.21700
C  7.15700 4.21700 30.66300
C  5.98200 3.61200 32.95300
C  9.86700 3.83500 32.97100
C  10.42500 3.16400 34.16400
H  10.96100 4.01500 35.26800
N  6.52000 4.69800 27.65600
C  6.01100 5.47200 28.73000
C  5.30700 6.57200 28.14600
C  5.34300 6.45200 26.73200
C  6.04600 5.24400 26.46300
C  4.60100 7.46500 29.18700
C  4.73100 7.41700 25.75100
O  4.92200 7.19300 24.54400
C  4.06900 8.66400 26.25200
N  7.76200 2.74900 25.74000
C  7.07500 3.51500 24.87700
C  7.20500 2.93200 23.39500
C  8.06200 1.57400 23.65000
C  8.44200 1.74200 25.10400
C  5.86800 2.75500 22.67000
C  9.29200 1.47600 22.62500
C  9.49000 0.14400 21.97100
N  9.34500 1.56300 27.97800
C  9.73800 0.67100 27.03200
C  10.60900 -0.23900 27.67700
C  10.68800 0.06900 29.06500
C  9.79900 1.17700 29.12900
C  11.25000 -1.35300 26.87800
C  11.15500 -0.35000 30.36000
O  11.93700 -1.23500 30.70300
C  10.39100 0.63400 31.26900
C  9.55300 -0.00200 32.28100
O  8.48100 -0.65100 32.09800
O  10.09700 0.08000 33.54400
C  9.15700 -0.29200 34.65000
H  5.93500 5.84700 30.91700
H  6.02200 5.23800 24.27400
H  9.63100 0.07500 24.96700
H  8.33300 2.34700 32.86100
H  7.38700 5.20200 32.48600
H  5.30200 3.20500 32.20500
H  5.56000 4.36200 33.62100
H  6.26500 2.73600 33.53700
H  9.46100 4.78900 33.31000
H  10.73500 3.99200 32.33100
H  11.18800 2.42100 33.92900
H  9.66100 2.50700 34.58000
H  5.29900 8.10000 29.73400
H  4.16500 6.84400 29.97000
H  3.85900 8.17200 28.81600
H  4.76700 9.30800 26.78800
H  3.17300 8.42900 26.82600
H  3.71700 9.16300 25.35000
H  7.74700 3.67500 22.81000
H  7.44700 0.67600 23.60500
H  5.78800 3.34300 21.75600
H  5.09500 3.10300 23.35700
H  5.62100 1.70800 22.49800
H  10.15800 1.61500 23.27200
H  9.27600 2.22500 21.83400
H  8.68700 -0.55100 22.21700
H  10.44300 -0.13600 22.42000
H  9.48700 0.20500 20.88300
H  11.84800 -0.91000 26.08200
H  10.63900 -2.16300 26.47900
H  11.94700 -1.85000 27.55200
H  11.15700 1.10300 31.88700
H  8.74600 -1.28300 34.45700
H  8.48800 0.56200 34.74900
H  9.83100 -0.40600 35.49900
Mg -5.98300 25.01800 26.72600
C  -4.47000 26.39600 29.61800
C  -7.63600 22.79500 28.63300
C  -6.98000 23.62800 23.83800
C  -3.69600 26.97500 24.84700
N  -5.94100 24.57000 28.92000
C  -5.40700 25.34200 29.90100
C  -5.89700 24.79200 31.31200
C  -6.54400 23.36500 30.87200
C  -6.71800 23.57200 29.35800
C  -5.81800 22.03300 31.26700
C  -6.75000 25.84400 32.09700
C  -7.52000 25.51100 33.37100
H  -6.96900 24.67300 34.52600
N  -7.29900 23.58000 26.25800
C  -7.94700 22.79600 27.24000
C  -8.90000 21.93500 26.53300
C  -8.76900 22.12900 25.11400
C  -7.65000 23.17700 24.98300
C  -9.87100 21.11200 27.40600
C  -9.63500 21.58700 23.97300
O  -9.48700 21.88400 22.78700
C  -10.73200 20.59600 24.36200
N  -5.40500 25.28700 24.64700
C  -5.99100 24.58100 23.66000
C  -5.41000 24.89400 22.32400
C  -4.54300 26.19900 22.59700
C  -4.61800 26.25400 24.13100
C  -4.60600 23.60700 21.97000
C  -4.82400 27.56900 21.86300
C  -3.55400 28.17800 21.20800
N  -4.40600 26.35700 27.10000
C  -3.62700 27.09300 26.22900
C  -2.73700 27.97000 26.92300
C  -3.11600 27.77500 28.26000
C  -4.10600 26.76400 28.34000
C  -1.80500 29.02000 26.39200
C  -2.85700 28.19200 29.60300
O  -2.13000 29.06800 30.09700
C  -3.72900 27.26700 30.56900
C  -2.69200 26.50000 31.35700
O  -1.83500 25.83600 30.77200
O  -2.83900 26.60200 32.68800
C  -1.65500 25.96900 33.35800
H  -8.18100 21.98800 29.12800
H  -7.33000 23.15200 22.92000
H  -2.98100 27.59000 24.29700
H  -4.97600 24.45500 31.78800
H  -7.49600 23.18200 31.37100
H  -5.21700 21.67500 30.43100
H  -6.51800 21.21900 31.45800
H  -5.12300 22.12800 32.10100
H  -7.53300 26.14700 31.40200
H  -6.09300 26.65300 32.41700
H  -8.41800 25.01800 32.99800
H  -7.78800 26.49300 33.76000
H  -9.69200 20.04100 27.50900
H  -10.91400 21.29100 27.14700
H  -9.93300 21.51700 28.41600
H  -11.45600 21.13000 24.97800
H  -10.32000 19.80600 24.99000
H  -11.27700 20.14900 23.53100
H  -6.12900 25.06800 21.52400
H  -3.54900 25.84500 22.32300
H  -5.15500 23.17100 21.13500
H  -4.48300 22.90700 22.79600
H  -3.60400 23.87800 21.63600
H  -5.12300 28.37600 22.53200
H  -5.50900 27.36500 21.04000
H  -3.87900 28.43800 20.20000
H  -2.69300 27.51300 21.13600
H  -3.36900 29.09100 21.77300
H  -1.34000 28.63100 25.48600
H  -1.03400 29.25500 27.12600
H  -2.35600 29.94100 26.20000
H  -4.36100 27.68900 31.35100
H  -1.34300 26.73900 34.06300
H  -0.79800 25.76700 32.71500
H  -1.87200 24.98100 33.76500

