158

Mg 7.97100 2.54300 27.63500
C  9.36200 1.03400 30.44500
C  5.95600 4.35800 29.80600
C  6.38400 3.90400 24.94500
C  9.68200 0.43800 25.64800
N  7.62300 2.56700 29.91100
C  8.38700 1.98700 30.82200
C  7.95800 2.45300 32.24100
C  6.67300 3.36200 32.00300
C  6.70000 3.39500 30.48800
C  5.29300 2.92500 32.52500
C  9.08600 3.07500 33.12900
C  8.63000 3.53300 34.51600
H  9.51000 3.28700 35.72500
N  6.48800 4.04000 27.39000
C  5.78000 4.61300 28.43700
C  4.86800 5.56100 27.90500
C  4.99600 5.51100 26.49500
C  6.05700 4.50100 26.20600
C  3.80500 6.37800 28.73900
C  4.23800 6.30900 25.52500
O  4.43700 6.21500 24.30900
C  3.20600 7.27800 25.86300
N  7.88700 2.12700 25.61800
C  7.20200 2.78800 24.67200
C  7.41000 2.24900 23.26900
C  8.71300 1.32300 23.50700
C  8.84100 1.35800 25.01000
C  6.07000 1.58900 22.71500
C  10.03800 1.89100 22.83700
C  10.85100 0.80100 22.20400
N  9.13300 0.86100 27.95000
C  9.78200 0.15800 27.00000
C  10.75800 -0.68500 27.59200
C  10.61900 -0.43100 28.96600
C  9.57800 0.54200 29.12600
C  11.67400 -1.54200 26.84100
C  11.11300 -0.76500 30.28100
O  12.01500 -1.57500 30.52500
C  10.32200 0.15600 31.36000
C  9.61100 -0.78000 32.29900
O  8.97600 -1.74000 32.02400
O  9.78000 -0.37800 33.58100
C  8.85600 -0.88500 34.59800
H  5.28900 4.88900 30.48800
H  5.96700 4.41900 24.07700
H  10.33900 -0.05800 24.93100
H  7.79400 1.56800 32.85500
H  6.88700 4.31800 32.48200
H  4.59700 2.71500 31.71300
H  4.96900 3.60200 33.31500
H  5.48500 1.97000 33.01500
H  9.45700 3.92300 32.55300
H  9.92100 2.37500 33.15600
H  7.65000 3.10300 34.72400
H  8.43900 4.60500 34.45500
H  3.59800 6.04000 29.75400
H  2.77700 6.29900 28.38500
H  4.07600 7.43200 28.79900
H  2.76500 7.71200 24.96600
H  3.52400 8.09800 26.50700
H  2.32900 6.74100 26.22300
H  7.56700 3.04100 22.53700
H  8.54000 0.26600 23.30700
H  6.18700 0.51100 22.83000
H  5.80900 1.96700 21.72700
H  5.30700 1.85200 23.44700
H  10.64800 2.32400 23.63000
H  9.98600 2.71200 22.12100
H  10.63000 0.77300 21.13700
H  10.64900 -0.19200 22.60400
H  11.89300 1.10700 22.28900
H  12.12800 -2.24200 27.54300
H  12.53400 -1.06900 26.36800
H  11.10200 -2.11900 26.11500
H  10.97300 0.83000 31.91700
H  9.38900 -1.43700 35.37200
H  8.05700 -1.55300 34.27700
H  8.33000 -0.01900 34.99800
Mg -12.06700 16.30600 41.34900
C  -9.18400 14.37300 40.93100
C  -10.17600 18.98100 40.04400
C  -14.83200 17.98700 40.86000
C  -13.87800 13.41200 42.46200
N  -9.96300 16.71100 40.63600
C  -8.94900 15.71300 40.54400
C  -7.71300 16.30300 40.00300
C  -7.88900 17.86400 40.00400
C  -9.41300 17.90600 40.21500
C  -7.15200 18.70400 41.15000
C  -7.42100 15.75300 38.52300
C  -6.16900 15.03400 38.17700
H  -5.43700 15.57800 36.85700
N  -12.48000 18.28800 40.66700
C  -11.59400 19.15200 40.15900
C  -12.25600 20.34900 39.77700
C  -13.63200 20.15600 40.05900
C  -13.71500 18.74500 40.55400
C  -11.49300 21.57100 39.15600
C  -14.76100 21.05000 39.63700
O  -14.65300 21.97700 38.86200
C  -16.20100 20.75000 39.99100
N  -14.13400 15.72900 41.44800
C  -15.08800 16.63400 41.22200
C  -16.48300 15.99400 41.46600
C  -16.17400 14.64400 42.24000
C  -14.62400 14.56300 42.04800
C  -17.60800 16.93900 42.07100
C  -16.97400 13.32200 41.83600
C  -17.44500 12.56300 43.06300
N  -11.56700 14.28400 41.76700
C  -12.44900 13.21600 42.16400
C  -11.60700 11.98800 42.23700
C  -10.32600 12.38200 41.71100
C  -10.35700 13.81200 41.52400
C  -12.05600 10.55700 42.70300
C  -8.97300 11.98300 41.31500
O  -8.47900 10.88300 41.22900
C  -8.15300 13.29200 41.00600
C  -7.14400 13.64200 41.98800
O  -7.31100 13.88400 43.14300
O  -5.95200 13.50800 41.35700
C  -4.79800 13.88500 42.21500
H  -9.61600 19.89200 39.82000
H  -15.69700 18.65300 40.88700
H  -14.43500 12.54000 42.81000
H  -6.95500 16.02200 40.73400
H  -7.80300 18.39000 39.05300
H  -6.29900 18.10900 41.47900
H  -7.80700 18.94700 41.98700
H  -6.74800 19.62800 40.73700
H  -7.42600 16.62900 37.87500
H  -8.26400 15.14300 38.19700
H  -6.43300 13.97700 38.13800
H  -5.48100 15.25500 38.99300
H  -12.23800 22.36700 39.17400
H  -11.21500 21.34300 38.12700
H  -10.64300 21.93700 39.73200
H  -16.83500 21.60400 39.75400
H  -16.21200 20.70000 41.08000
H  -16.59400 19.91000 39.41800
H  -16.85800 15.68600 40.49000
H  -16.54200 14.86000 43.24300
H  -18.12900 16.41700 42.87400
H  -18.41500 17.38000 41.48500
H  -17.19600 17.79900 42.59800
H  -16.34400 12.64000 41.26600
H  -17.78600 13.63600 41.18000
H  -18.24200 13.16700 43.49800
H  -16.62700 12.51900 43.78200
H  -17.75300 11.52300 42.95300
H  -12.30800 9.78400 41.97800
H  -12.90400 10.57500 43.38900
H  -11.23100 10.22700 43.33400
H  -7.66600 13.15200 40.04100
H  -4.36100 14.86600 42.03200
H  -4.14800 13.07700 41.87800
H  -4.92000 13.72600 43.28700

