158

Mg 54.62800 24.25500 44.63600
C  51.93200 26.25600 43.53600
C  52.91600 21.68200 43.04000
C  57.41600 22.42400 44.69500
C  56.32300 27.02700 45.64500
N  52.69900 23.95800 43.33500
C  51.75000 24.98200 43.11300
C  50.62400 24.48000 42.19700
C  50.66600 22.93900 42.72500
C  52.16100 22.81800 42.94000
C  49.89800 22.74400 44.01800
C  51.13700 24.70400 40.66700
C  50.14300 25.03200 39.61100
H  50.54800 25.53700 38.30300
N  55.10100 22.31500 43.99500
C  54.29000 21.36800 43.44000
C  54.94200 20.15800 43.38200
C  56.29700 20.33600 43.84100
C  56.28500 21.76300 44.20900
C  54.21700 18.78200 42.99600
C  57.35500 19.25700 44.00300
O  57.13900 18.20000 43.47200
C  58.73100 19.40100 44.71600
N  56.63700 24.67900 44.93400
C  57.61600 23.76900 44.88300
C  58.91500 24.36900 45.46300
C  58.59200 25.91100 45.66200
C  57.08000 25.85300 45.41700
C  59.38400 23.65000 46.78900
C  59.47200 26.89600 44.85800
C  59.01400 27.51400 43.52000
N  54.16900 26.11600 44.88600
C  54.90300 27.17800 45.40200
C  54.03300 28.43200 45.48400
C  52.89600 28.02600 44.69000
C  53.04900 26.70300 44.33900
C  54.36700 29.76300 46.07800
C  51.65400 28.55100 44.13900
O  51.18800 29.66700 44.27300
C  50.88900 27.40700 43.31600
C  50.57500 27.79000 41.98000
O  51.33200 28.09000 41.13900
O  49.19300 27.82300 41.92700
C  48.58100 28.26200 40.60700
H  52.35700 20.82400 42.66100
H  58.37000 21.90400 44.81000
H  56.92300 27.87200 45.98700
H  49.68700 24.95500 42.49000
H  50.09100 22.37600 41.99000
H  50.58800 22.17300 44.63900
H  48.95700 22.22900 43.82700
H  49.78200 23.72700 44.47500
H  51.55700 23.75300 40.33900
H  51.86900 25.51100 40.63200
H  49.36000 25.64800 40.05400
H  49.58700 24.11500 39.41600
H  54.47400 17.92400 43.61800
H  54.43500 18.52100 41.96100
H  53.14300 18.96000 43.05400
H  58.64200 19.77900 45.73400
H  59.38700 20.03300 44.11700
H  59.15400 18.40500 44.84900
H  59.66500 24.26800 44.67900
H  58.59400 26.14600 46.72600
H  58.99200 22.63400 46.75500
H  58.99100 24.12700 47.68700
H  60.47200 23.59300 46.81900
H  60.39200 26.35500 44.63700
H  59.72600 27.76600 45.46400
H  59.11100 28.59800 43.46100
H  57.94900 27.34300 43.36800
H  59.54000 27.19200 42.62200
H  53.85800 30.50400 45.46100
H  55.44200 29.94200 46.09000
H  53.86500 29.99600 47.01700
H  50.06200 27.03400 43.92000
H  48.29800 29.31100 40.68500
H  47.67600 27.66900 40.47300
H  49.21500 28.07600 39.74000
Mg 26.68000 50.14000 26.97000
C  24.74500 51.29100 29.61300
C  29.10700 49.10600 29.16400
C  28.78300 49.29200 24.31100
C  24.35400 51.34600 24.71700
N  26.87100 50.28700 29.16800
C  25.99000 50.78000 30.04000
C  26.43000 50.44000 31.52700
C  27.88900 49.96800 31.33400
C  27.99500 49.77800 29.79700
C  29.01700 50.82900 31.86000
C  25.46500 49.38800 32.18500
C  24.54200 50.10000 33.22400
H  24.40700 49.63400 34.74600
N  28.55100 49.17900 26.76100
C  29.43100 48.83000 27.79000
C  30.71300 48.33700 27.28700
C  30.70400 48.46100 25.87500
C  29.24400 49.02000 25.58900
C  31.74700 47.72900 28.11000
C  31.78800 48.18300 24.94800
O  31.59400 48.08700 23.70200
C  33.16400 48.04600 25.49000
N  26.59000 50.32100 24.77600
C  27.52100 49.83500 23.93000
C  27.02200 49.85700 22.42600
C  25.51600 50.38800 22.59200
C  25.42300 50.60000 24.12000
C  27.91800 50.60900 21.44600
C  24.40100 49.36000 22.14000
C  24.17900 48.08700 22.97600
N  24.93300 51.17900 27.09400
C  24.10100 51.64000 26.11600
C  22.93600 52.20300 26.71800
C  23.11100 52.06100 28.14000
C  24.35500 51.40200 28.30000
C  21.85200 52.78800 25.98700
C  22.53800 52.40100 29.42000
O  21.54800 53.04400 29.68100
C  23.57300 51.86400 30.44900
C  23.86000 52.94300 31.38600
O  24.86000 53.63800 31.34400
O  22.86300 53.17800 32.28300
C  23.23100 54.29500 33.24000
H  29.94600 48.94200 29.84300
H  29.38100 48.94300 23.46700
H  23.62000 51.63100 23.96000
H  26.43000 51.35200 32.12300
H  28.01200 48.98900 31.79600
H  29.82000 50.09200 31.88400
H  29.01700 51.28900 32.84800
H  29.11400 51.62500 31.12100
H  26.11900 48.62000 32.59800
H  24.86100 48.86700 31.44200
H  23.56900 49.92400 32.76600
H  24.64100 51.18500 33.26800
H  31.32000 47.53000 29.09300
H  32.49400 48.51700 28.21100
H  32.33200 46.90000 27.71200
H  33.25100 48.77500 26.29500
H  33.85900 48.08000 24.65000
H  33.13200 47.02200 25.86200
H  26.95100 48.83600 22.05100
H  25.47600 51.33200 22.04800
H  27.39400 51.39100 20.89700
H  28.33500 49.82800 20.81000
H  28.77100 50.97900 22.01500
H  24.63200 49.00900 21.13400
H  23.46600 49.90600 22.01200
H  23.16600 48.17100 23.37000
H  24.74500 47.93500 23.89500
H  24.28000 47.17400 22.38900
H  21.80200 52.45100 24.95200
H  22.02400 53.85900 26.09900
H  20.98300 52.48700 26.57200
H  23.02300 51.14800 31.05900
H  23.51300 55.16800 32.65200
H  24.13300 54.03800 33.79500
H  22.30700 54.54100 33.76400

