158

Mg 53.10200 25.42200 44.48300
C  50.57700 27.78200 43.85800
C  50.80500 22.92000 43.46500
C  55.66300 23.33500 43.67400
C  55.31800 27.88500 44.99800
N  50.94500 25.39300 43.46500
C  50.10400 26.48800 43.54700
C  48.72400 26.06000 43.09000
C  48.70400 24.52900 43.49700
C  50.24700 24.20900 43.49700
C  47.90500 24.29900 44.89300
C  48.29900 26.30200 41.58800
C  49.38300 26.71700 40.53900
H  49.58400 25.89500 39.28400
N  53.20100 23.39400 43.81800
C  52.12300 22.58500 43.51700
C  52.65300 21.28400 43.23600
C  54.06400 21.27100 43.39300
C  54.35000 22.67900 43.63700
C  51.76100 20.10800 42.71600
C  55.08300 20.08600 43.31600
O  54.57800 18.96900 43.23600
C  56.57400 20.20800 43.33500
N  55.21200 25.57200 44.22600
C  56.02100 24.54500 44.15000
C  57.55500 24.97700 44.28300
C  57.44100 26.47500 44.64900
C  55.89500 26.72400 44.55500
C  58.33600 24.13400 45.34600
C  58.19600 27.38100 43.55300
C  58.93200 28.53400 44.17500
N  53.02900 27.44600 44.51800
C  53.98800 28.31900 44.99300
C  53.29900 29.50800 45.45300
C  52.01600 29.41600 44.94100
C  51.88900 28.13900 44.38300
C  53.93100 30.72200 46.01800
C  50.69500 30.11400 44.74200
O  50.47800 31.28100 45.06000
C  49.78700 29.05700 43.97700
C  49.48700 29.53700 42.62300
O  50.30000 29.73400 41.73400
O  48.16700 29.83200 42.55200
C  47.61900 30.51300 41.39100
H  49.99200 22.19400 43.40900
H  56.55000 22.70500 43.58000
H  56.04500 28.65200 45.27200
H  48.09200 26.65000 43.75500
H  48.25600 23.85600 42.76600
H  48.56900 23.91100 45.66700
H  47.18800 23.51300 44.65500
H  47.36300 25.20300 45.16900
H  47.52300 27.06300 41.67200
H  47.86400 25.37800 41.20600
H  50.34000 26.65600 41.05600
H  49.12900 27.74500 40.28300
H  52.16900 19.36200 42.03500
H  50.95200 20.58400 42.16100
H  51.21800 19.52200 43.45700
H  56.98400 19.23600 43.06000
H  57.04000 20.47400 44.28400
H  56.88800 20.93200 42.58300
H  57.98100 24.75100 43.30600
H  57.83400 26.72900 45.63400
H  57.60000 23.67800 46.00800
H  59.01400 24.76900 45.91700
H  58.81000 23.29100 44.84400
H  57.41300 27.79500 42.91700
H  58.88400 26.80300 42.93600
H  59.30700 28.29700 45.17100
H  58.13500 29.25300 44.36400
H  59.76700 28.93600 43.60100
H  53.18900 31.33400 46.52900
H  54.40900 31.27500 45.20900
H  54.57100 30.38200 46.83200
H  48.87100 28.99600 44.56400
H  48.02200 30.07500 40.47900
H  47.88800 31.56900 41.41300
H  46.54300 30.34900 41.45000
Mg 47.24600 16.47400 29.49200
C  45.39800 15.97800 32.48100
C  49.37800 18.41500 31.40500
C  48.88000 17.30800 26.72500
C  44.50200 15.13600 27.64900
N  47.50100 16.97000 31.77000
C  46.63300 16.65000 32.72100
C  47.11500 17.11700 34.15500
C  48.34900 18.03200 33.71800
C  48.41800 17.82800 32.16400
C  48.14200 19.54200 34.11500
C  47.62800 15.97800 34.97700
C  47.03700 15.77600 36.36100
H  47.27200 16.95400 37.32400
N  49.00300 17.43900 29.16900
C  49.66800 18.25400 30.07900
C  50.85500 18.68200 29.47000
C  50.84900 18.32900 28.05800
C  49.53300 17.65600 27.89800
C  51.90400 19.43800 30.22600
C  51.90000 18.56300 26.91900
O  51.68200 18.15300 25.75500
C  53.18300 19.26400 27.16400
N  46.60900 16.48100 27.50200
C  47.59000 16.75200 26.51000
C  47.06600 16.48400 25.07500
C  45.75900 15.66200 25.45900
C  45.62800 15.66700 26.94200
C  46.81900 17.74700 24.24500
C  45.68400 14.22200 24.87100
C  46.35200 13.11400 25.72500
N  45.29800 15.68200 29.91700
C  44.35200 15.09700 29.06600
C  43.33400 14.59800 29.88400
C  43.65400 14.90200 31.18400
C  44.89500 15.55100 31.13800
C  42.07900 13.96200 29.40100
C  43.23600 14.74800 32.54800
O  42.23000 14.29100 33.06200
C  44.35900 15.44300 33.41700
C  43.66200 16.53600 34.18800
O  43.37100 17.65900 33.71900
O  43.63900 16.16100 35.51700
C  43.25500 17.21400 36.51200
H  49.93100 19.13700 32.01000
H  49.43700 17.35400 25.78600
H  43.73900 14.58900 27.09100
H  46.32400 17.53400 34.77800
H  49.30500 17.73600 34.15000
H  49.04300 19.94900 34.57300
H  47.32400 19.72200 34.81300
H  47.90300 19.97000 33.14200
H  48.71600 15.90900 34.99800
H  47.41000 15.01500 34.51600
H  47.23400 14.76700 36.72300
H  45.95200 15.67900 36.32400
H  52.80300 18.82300 30.26700
H  51.64200 19.63200 31.26600
H  52.17800 20.34900 29.69500
H  53.81500 19.22500 26.27600
H  53.57800 18.86800 28.09900
H  52.88400 20.31000 27.23100
H  47.75700 15.82400 24.55000
H  44.92600 16.19600 25.00100
H  45.93600 18.26200 24.62400
H  46.68700 17.55000 23.18100
H  47.69300 18.35600 24.47600
H  46.14100 14.19400 23.88200
H  44.64600 13.95100 24.67800
H  46.70600 13.44900 26.70100
H  47.28900 12.76800 25.28800
H  45.70100 12.24600 25.81900
H  41.88400 14.32800 28.39300
H  41.22800 14.24800 30.01800
H  42.22600 12.88300 29.43200
H  44.68500 14.71300 34.15700
H  43.86400 18.09500 36.30700
H  43.48900 16.86500 37.51700
H  42.18200 17.37100 36.39800

