158

Mg 25.30200 1.29300 29.89800
C  27.59900 0.91300 32.62900
C  22.90400 1.83600 32.12800
C  23.27500 1.49300 27.32400
C  28.08300 0.76900 27.75300
N  25.31200 1.29300 32.13900
C  26.34600 1.42200 32.97700
C  25.83200 1.89600 34.37600
C  24.28200 1.96500 34.20800
C  24.15400 1.71000 32.71700
C  23.58200 0.86200 35.11700
C  26.46000 3.24500 34.90900
C  26.94200 3.19600 36.39100
H  26.29800 4.18900 37.38800
N  23.30200 1.60200 29.71400
C  22.42200 1.77300 30.74700
C  21.08700 1.72900 30.29400
C  21.19200 1.73500 28.89100
C  22.65200 1.64000 28.58300
C  19.87200 1.74700 31.19300
C  20.11100 1.76800 27.83700
O  20.31700 1.69100 26.65500
C  18.68200 1.78100 28.25700
N  25.62200 1.06100 27.92600
C  24.62800 1.25400 26.99100
C  25.11900 1.23100 25.50800
C  26.60800 1.33400 25.76800
C  26.78300 1.00800 27.25200
C  24.60900 0.16200 24.54200
C  27.35700 2.59300 25.24100
C  27.32100 3.79100 26.13500
N  27.31300 0.77600 30.11400
C  28.33400 0.60500 29.11900
C  29.59200 0.39700 29.76900
C  29.31100 0.55400 31.13700
C  27.95800 0.74400 31.30900
C  30.86100 0.06800 29.07800
C  29.99700 0.64100 32.39500
O  31.14300 0.52600 32.68500
C  28.88800 0.99300 33.44000
C  29.10200 0.00900 34.50200
O  29.10500 -1.18200 34.29800
O  29.20000 0.66600 35.66200
C  29.36900 -0.04700 36.91700
H  22.14800 1.99700 32.89900
H  22.61100 1.62500 26.46700
H  28.86600 0.77700 26.99200
H  26.07700 1.14900 35.13100
H  23.94800 2.96100 34.49700
H  24.04900 -0.10800 34.94600
H  22.55600 0.76000 34.76300
H  23.57200 1.19300 36.15500
H  25.75100 4.05200 34.72500
H  27.40100 3.42900 34.38900
H  28.01300 3.39500 36.38800
H  26.73100 2.20700 36.79800
H  19.56500 2.78500 31.32100
H  20.26100 1.38200 32.14400
H  19.14600 0.98500 30.90900
H  18.51300 2.59300 28.96400
H  18.45500 0.75300 28.53800
H  18.03600 1.97900 27.40100
H  24.76200 2.13000 25.00700
H  27.11300 0.42700 25.43500
H  24.23000 -0.62700 25.19100
H  25.41200 -0.39400 24.05700
H  23.82700 0.34000 23.80400
H  26.90700 2.80000 24.27000
H  28.41000 2.35000 25.09600
H  26.85800 3.64300 27.11000
H  26.65100 4.48900 25.63200
H  28.32200 4.21700 26.20200
H  31.04100 0.13000 28.00400
H  30.99000 -0.95900 29.42000
H  31.50300 0.84700 29.48900
H  29.04100 2.01900 33.77400
H  29.43300 -1.12900 36.80300
H  28.59500 -0.01400 37.68500
H  30.30000 0.26700 37.38900
Mg -1.67700 33.91400 27.89500
C  -3.62400 32.10100 30.31700
C  -0.22700 35.73300 30.49600
C  -0.28200 35.90000 25.52600
C  -3.39700 32.05900 25.49700
N  -1.80500 33.84600 30.18100
C  -2.74000 33.11200 30.88700
C  -2.46600 33.25000 32.39900
C  -1.49600 34.50700 32.43200
C  -1.11700 34.75400 30.93900
C  -2.10500 35.76600 33.10400
C  -1.84200 31.95700 33.12400
C  -2.72000 31.36900 34.22400
H  -2.10200 31.33400 35.57400
N  -0.32500 35.48200 27.95100
C  0.09400 36.13100 29.13100
C  1.06100 37.15000 28.74000
C  0.97100 37.20400 27.24000
C  0.11300 36.15300 26.84000
C  1.87400 38.06800 29.66900
C  1.70700 38.21500 26.27300
O  1.50700 38.28100 25.05200
C  2.76000 39.22700 26.71500
N  -1.92000 34.08100 25.86500
C  -1.18300 34.90000 25.06100
C  -1.48100 34.69600 23.57400
C  -2.11600 33.24600 23.71200
C  -2.59100 33.16600 25.09500
C  -2.40800 35.76000 22.96700
C  -1.06100 32.09000 23.40500
C  -1.55900 30.82200 22.68100
N  -3.28900 32.41600 27.88800
C  -3.77700 31.68900 26.77900
C  -4.60100 30.56100 27.24000
C  -4.55000 30.71300 28.65600
C  -3.74000 31.81300 28.99000
C  -5.35300 29.64900 26.38000
C  -5.08800 30.26600 29.89700
O  -5.93100 29.41200 30.17000
C  -4.56700 31.16300 31.03200
C  -5.67100 31.85300 31.83700
O  -6.16100 32.90600 31.53600
O  -5.94300 31.17000 32.96800
C  -6.95200 31.63600 33.92300
H  0.31800 36.33600 31.22600
H  0.23100 36.52200 24.79000
H  -3.89800 31.51800 24.69200
H  -3.43400 33.45700 32.85600
H  -0.74000 34.15600 33.13500
H  -1.93300 36.67400 32.52500
H  -1.78600 35.85600 34.14200
H  -3.17700 35.57000 33.10400
H  -0.83300 32.07700 33.51800
H  -1.60400 31.19700 32.38000
H  -3.10400 30.36700 34.03500
H  -3.54200 32.08200 34.27400
H  2.89600 37.71400 29.80800
H  1.44300 38.04900 30.67000
H  1.89000 39.12400 29.40000
H  2.38000 39.91800 27.46800
H  2.98500 39.90400 25.89100
H  3.62300 38.74400 27.17400
H  -0.60900 34.86700 22.94300
H  -3.02600 33.18900 23.11400
H  -2.77000 36.44000 23.73900
H  -3.22000 35.22800 22.47100
H  -2.00400 36.47700 22.25200
H  -0.53400 31.84800 24.32800
H  -0.33900 32.53800 22.72100
H  -1.45300 29.96700 23.34900
H  -0.97300 30.65500 21.77800
H  -2.63900 30.88200 22.55000
H  -5.09700 28.73000 26.90700
H  -4.89500 29.58600 25.39300
H  -6.40000 29.95400 26.35200
H  -3.96100 30.54800 31.69700
H  -6.64700 32.56700 34.40200
H  -7.24000 30.96900 34.73500
H  -7.85600 31.85800 33.35600

