158

Mg 54.08000 23.89000 44.87700
C  51.82400 26.45600 43.74800
C  51.78000 21.60500 43.75400
C  56.41800 21.73600 45.29700
C  56.22200 26.53800 46.04500
N  52.06700 24.04200 43.69800
C  51.38900 25.18800 43.44100
C  50.05600 24.81900 42.75500
C  49.76900 23.42100 43.33200
C  51.30400 22.95800 43.63200
C  48.86800 23.46200 44.57000
C  50.09400 24.81800 41.21400
C  48.77500 25.27300 40.51200
H  48.31600 24.46300 39.29600
N  54.10900 21.90400 44.44200
C  53.06200 21.13300 44.13000
C  53.43400 19.73800 44.32300
C  54.83200 19.67400 44.66000
C  55.22600 21.16400 44.80600
C  52.51400 18.47800 43.85200
C  55.65800 18.40600 44.90400
O  55.17000 17.31000 44.85900
C  57.14100 18.50400 45.06400
N  56.15200 24.15800 45.40300
C  56.84300 23.03300 45.73100
C  58.22700 23.25300 46.28100
C  58.07500 24.80700 46.62200
C  56.70600 25.25100 45.99900
C  58.72200 22.39300 47.37500
C  59.27400 25.53000 45.95900
C  60.53400 25.64900 46.87700
N  54.05300 26.04700 44.99400
C  54.92800 26.90400 45.53600
C  54.26200 28.21500 45.65400
C  53.03900 28.09500 44.96000
C  52.99400 26.76700 44.49900
C  54.87600 29.44700 46.19900
C  51.82300 28.82500 44.46100
O  51.46800 29.99300 44.62100
C  50.98100 27.72900 43.67000
C  50.80200 28.27100 42.26200
O  51.70300 28.27400 41.41700
O  49.50000 28.69700 42.07900
C  49.10600 29.23300 40.76900
H  51.03400 20.84000 43.52700
H  57.12700 21.04600 45.75700
H  56.73900 27.41500 46.43900
H  49.26100 25.48300 43.09100
H  49.10100 22.85000 42.68800
H  48.06600 22.73600 44.43500
H  48.34300 24.38900 44.79700
H  49.38600 23.06000 45.44100
H  50.26700 23.81500 40.82500
H  50.94900 25.44600 40.96400
H  48.97600 26.30300 40.21800
H  47.96500 25.16200 41.23300
H  52.56900 18.41600 42.76500
H  51.48000 18.69200 44.12400
H  52.64300 17.44200 44.16500
H  57.55600 17.50800 44.91200
H  57.29800 18.88000 46.07500
H  57.41700 19.12400 44.21100
H  58.98300 23.03200 45.52700
H  58.22600 25.05900 47.67200
H  59.44500 21.74600 46.87900
H  57.94300 21.77100 47.81600
H  59.13000 23.05000 48.14400
H  59.01500 26.56700 45.74300
H  59.59500 25.06200 45.02800
H  60.52700 25.38000 47.93400
H  60.81400 26.70200 46.85200
H  61.41900 25.17200 46.45600
H  54.15700 30.26700 46.20500
H  55.69900 29.64800 45.51300
H  55.12100 29.19600 47.23100
H  49.98600 27.74600 44.11400
H  49.76200 29.99900 40.35400
H  48.08000 29.59900 40.77000
H  49.14100 28.41500 40.05000
Mg 29.54500 58.62800 39.60700
C  26.77300 56.96700 38.59100
C  31.51200 55.88700 38.93600
C  32.34500 60.59000 39.64500
C  27.54200 61.57800 39.93400
N  29.20400 56.74900 38.60600
C  27.98400 56.15600 38.33400
C  28.11600 54.76700 37.88100
C  29.60800 54.39000 38.15500
C  30.16600 55.74400 38.71000
C  30.01400 53.27600 39.20600
C  27.82500 54.86800 36.43500
C  26.79900 53.89900 35.80000
H  25.97900 54.48800 34.62500
N  31.66800 58.24900 39.28300
C  32.23400 57.07200 38.98100
C  33.65600 57.30400 39.01000
C  33.90100 58.66600 39.19400
C  32.62300 59.27600 39.32900
C  34.60300 56.14800 38.86700
C  35.27300 59.28000 39.08300
O  36.24400 58.56900 38.93900
C  35.58200 60.74800 39.20500
N  29.87100 60.82600 39.36200
C  31.13200 61.33800 39.71700
C  31.13200 62.78900 40.21800
C  29.61000 63.16100 40.08900
C  28.94900 61.77700 39.75200
C  31.71600 63.08800 41.64600
C  29.37200 64.18700 38.95900
C  28.47100 65.37300 39.23200
N  27.60600 59.17400 39.42000
C  26.90600 60.34000 39.69800
C  25.48200 60.11600 39.57200
C  25.37700 58.76700 39.16000
C  26.69500 58.27000 39.11800
C  24.32100 61.02500 39.97300
C  24.42400 57.64900 38.86700
O  23.20500 57.53400 39.04300
C  25.34700 56.43800 38.43600
C  25.00900 55.30900 39.31800
O  25.15400 55.36300 40.52300
O  24.43100 54.29000 38.62700
C  24.06500 53.12400 39.38200
H  32.04100 54.93500 39.02000
H  33.22700 61.17300 39.92100
H  26.98200 62.49700 40.11800
H  27.43300 54.24300 38.55000
H  30.09600 54.02400 37.25200
H  29.06200 52.88900 39.56900
H  30.71300 53.69800 39.92800
H  30.58900 52.49100 38.71600
H  28.72700 54.61800 35.87500
H  27.68200 55.87000 36.03000
H  26.15300 53.48900 36.57600
H  27.47400 53.12900 35.42500
H  34.14100 55.38400 39.49200
H  35.61800 56.28400 39.24200
H  34.68800 55.73500 37.86300
H  35.71800 61.10500 40.22600
H  34.91000 61.32000 38.56500
H  36.54500 60.87900 38.71000
H  31.68800 63.33000 39.45200
H  29.10400 63.44400 41.01200
H  32.13200 62.16200 42.04300
H  30.96200 63.52500 42.30000
H  32.52700 63.81700 41.65800
H  28.91200 63.73300 38.08100
H  30.24500 64.69200 38.54500
H  29.10500 66.25700 39.30800
H  28.04600 65.34800 40.23500
H  27.58300 65.41700 38.60200
H  23.65100 60.65200 40.74700
H  23.79100 61.23700 39.04400
H  24.78600 61.94100 40.33800
H  25.09100 56.15300 37.41500
H  23.07500 52.79700 39.06500
H  24.09000 53.18700 40.47000
H  24.73900 52.34100 39.03400

