158

Mg 40.97600 7.93400 29.61500
C  42.93000 9.32800 32.19500
C  38.74300 6.70200 31.91200
C  39.26200 6.57800 27.09900
C  43.48700 8.88900 27.43600
N  40.86800 8.12500 31.71300
C  41.73400 8.78200 32.51900
C  41.19700 8.68600 34.04700
C  39.80800 7.98100 33.92700
C  39.79900 7.51900 32.48400
C  39.63500 6.88300 34.94400
C  41.06700 10.12500 34.72800
C  40.33100 10.15700 36.09200
H  41.18100 10.36600 37.40000
N  39.22100 6.85400 29.53700
C  38.48600 6.41300 30.56700
C  37.34200 5.64400 30.09300
C  37.39800 5.67900 28.67300
C  38.68000 6.39600 28.33400
C  36.40100 4.86200 30.94900
C  36.42700 5.30200 27.60400
O  36.68600 5.32600 26.44200
C  34.98500 5.08200 28.07000
N  41.41300 7.66800 27.54100
C  40.40200 7.25500 26.72400
C  40.91500 7.34600 25.26000
C  42.11700 8.32000 25.34900
C  42.30900 8.37300 26.84900
C  41.36100 5.96500 24.65800
C  41.84600 9.82500 24.89600
C  40.55000 10.52400 25.28500
N  42.85500 8.72600 29.78000
C  43.77000 9.06100 28.82500
C  44.93300 9.66000 29.31700
C  44.62800 9.84900 30.64200
C  43.39700 9.22900 30.86600
C  46.05900 10.37400 28.55300
C  45.21100 10.32900 31.90100
O  46.27600 10.88100 32.09000
C  44.14400 9.92200 32.93600
C  44.74900 9.07600 33.99600
O  45.06300 7.87900 33.98000
O  44.92200 9.96900 35.03600
C  45.31400 9.36800 36.34800
H  37.98500 6.27900 32.57500
H  38.70800 6.23500 26.22300
H  44.22800 9.33300 26.76800
H  41.94000 8.03000 34.50000
H  39.04200 8.74800 34.04100
H  40.04200 7.20600 35.90200
H  40.22600 6.02300 34.63200
H  38.60500 6.57600 35.12900
H  40.56600 10.71800 33.96200
H  42.07100 10.51200 34.90200
H  39.78500 9.21700 36.17200
H  39.53200 10.88200 35.93800
H  37.04000 4.52200 31.76400
H  36.10300 3.90900 30.51200
H  35.60600 5.44600 31.41000
H  34.90200 4.12500 28.58600
H  34.36800 4.97200 27.17800
H  34.64800 5.91300 28.68900
H  40.15200 7.73200 24.58400
H  43.00300 8.06600 24.76800
H  41.04100 5.17800 25.34200
H  42.43400 6.02600 24.48200
H  40.83600 5.71100 23.73700
H  41.93300 9.81400 23.81000
H  42.78000 10.27300 25.23400
H  40.17300 11.01000 24.38500
H  40.74900 11.13800 26.16300
H  39.74500 9.84500 25.56400
H  45.71700 11.30800 28.10700
H  46.50300 9.76800 27.76300
H  46.87800 10.46700 29.26600
H  43.73700 10.83100 33.37800
H  46.38500 9.55700 36.41700
H  45.13200 8.29400 36.32900
H  44.75200 9.85600 37.14500
Mg 6.60600 57.27100 41.57500
C  5.14100 54.05000 41.46600
C  9.51200 55.79600 40.49300
C  7.64700 60.39200 40.66700
C  3.46400 58.65500 42.26300
N  7.22100 55.15000 40.95100
C  6.46300 54.06300 41.04200
C  7.25700 52.84500 40.53300
C  8.71000 53.37200 40.69700
C  8.52100 54.86000 40.73800
C  9.48100 52.83400 41.93400
C  6.97400 52.61500 39.01200
C  7.02000 51.09200 38.55100
H  6.08500 50.61500 37.50000
N  8.35200 57.97800 40.71700
C  9.50400 57.21200 40.42600
C  10.49500 58.06500 39.93400
C  9.94600 59.41200 39.86100
C  8.54900 59.28000 40.35000
C  11.89800 57.62800 39.64400
C  10.69000 60.61300 39.45800
O  11.86000 60.50400 39.16100
C  10.06900 61.96500 39.23300
N  5.79900 59.31100 41.57500
C  6.39400 60.40800 41.17500
C  5.58300 61.65300 41.29800
C  4.20900 61.06700 41.77600
C  4.45300 59.56700 41.82700
C  6.27800 62.66000 42.25900
C  2.91400 61.50000 41.05600
C  1.71100 61.72600 41.86400
N  4.63900 56.49500 41.95700
C  3.51700 57.21500 42.20600
C  2.46400 56.21100 42.39600
C  3.08600 54.94300 42.10700
C  4.43100 55.21400 41.79900
C  0.95600 56.41300 42.66100
C  2.89800 53.54000 42.17900
O  1.93200 52.91000 42.53900
C  4.21800 52.86100 41.70100
C  3.95800 52.07800 40.55100
O  3.62100 52.42000 39.43600
O  4.04600 50.78200 40.92300
C  3.29300 49.79600 40.14200
H  10.47700 55.30600 40.35000
H  7.97200 61.36100 40.28300
H  2.48300 59.07600 42.49200
H  7.05900 51.94700 41.11700
H  9.40300 53.20700 39.87200
H  10.42200 52.50200 41.49600
H  8.92300 52.04300 42.43500
H  9.59400 53.69900 42.58700
H  7.82900 53.07100 38.51400
H  6.06200 53.11600 38.68600
H  6.97000 50.42500 39.41100
H  8.03800 50.89200 38.21700
H  12.69300 58.20400 40.11800
H  12.06800 57.74900 38.57400
H  12.13400 56.60100 39.92000
H  9.76500 62.43600 40.16800
H  9.16900 61.87800 38.62500
H  10.71700 62.66400 38.70400
H  5.49700 62.06900 40.29400
H  4.09100 61.31200 42.83200
H  5.48600 63.13600 42.83700
H  6.71300 63.42800 41.61800
H  6.87300 62.13400 43.00500
H  2.68100 60.70000 40.35400
H  3.05600 62.38900 40.44200
H  1.85200 61.42800 42.90300
H  0.92200 61.09100 41.46000
H  1.32900 62.74100 41.75300
H  0.60200 57.18300 41.97600
H  0.88100 56.78600 43.68200
H  0.45000 55.45500 42.53300
H  4.69900 52.27900 42.48700
H  3.82100 48.86600 40.35300
H  3.12100 50.12400 39.11700
H  2.31500 49.65900 40.60400

