158

Mg 53.33000 24.48600 45.56200
C  50.78600 26.51300 44.46300
C  51.64300 21.85600 44.03600
C  55.98200 22.57700 46.18100
C  55.07700 27.24900 46.71600
N  51.54200 24.29600 44.22500
C  50.62700 25.21900 43.88100
C  49.66900 24.73100 42.84100
C  49.63200 23.21600 43.23000
C  51.01300 23.06000 43.88200
C  48.49700 22.86000 44.33100
C  50.28700 25.02700 41.42300
C  49.42900 25.71400 40.25000
H  50.29400 26.40400 39.15300
N  53.76500 22.46800 45.17500
C  52.91900 21.57500 44.55700
C  53.55700 20.24300 44.64500
C  54.79500 20.36200 45.45000
C  54.91700 21.81900 45.54400
C  52.91100 19.02300 44.00100
C  55.60200 19.18000 45.98300
O  55.16200 18.04200 45.99200
C  56.93600 19.46000 46.69400
N  55.36500 24.90300 46.19800
C  56.16800 23.93200 46.55600
C  57.61600 24.35500 46.95500
C  57.30000 25.92300 47.11300
C  55.88400 26.09500 46.61200
C  58.17000 23.67500 48.21800
C  58.35600 26.86200 46.40800
C  59.32900 27.50200 47.23500
N  53.01200 26.46200 45.69300
C  53.71700 27.47100 46.28800
C  52.93700 28.70400 46.36600
C  51.81100 28.37900 45.63400
C  51.87100 26.99500 45.22200
C  53.29700 29.94000 47.01800
C  50.48100 28.88300 45.14600
O  49.92900 29.94600 45.33500
C  49.87800 27.70400 44.29100
C  49.51900 28.27000 42.96600
O  50.26900 28.34700 41.98100
O  48.22800 28.64200 43.04900
C  47.77700 29.28000 41.80500
H  51.02500 21.03500 43.66700
H  56.85600 21.94200 46.33500
H  55.80200 28.00900 47.01300
H  48.63200 25.05400 42.75400
H  49.46900 22.55100 42.38200
H  48.00700 21.94900 43.98600
H  47.96700 23.79300 44.52300
H  48.96700 22.67200 45.29600
H  50.51000 24.07500 40.94100
H  51.30800 25.39700 41.51900
H  48.82900 26.49400 40.71900
H  48.69900 24.98300 39.90300
H  52.36300 19.28600 43.09600
H  52.34900 18.52200 44.78900
H  53.72700 18.35000 43.74000
H  57.34800 18.45500 46.78800
H  56.80000 19.73500 47.74000
H  57.61400 20.02800 46.05800
H  58.30400 24.19800 46.12500
H  57.21700 26.21600 48.15900
H  58.97500 23.08600 47.77800
H  57.38400 23.02200 48.59600
H  58.33800 24.53200 48.87000
H  57.84600 27.68200 45.90300
H  58.85200 26.27800 45.63200
H  59.23700 27.31800 48.30500
H  59.29000 28.56300 46.98800
H  60.31600 27.09800 47.01000
H  54.14000 30.47100 46.57600
H  53.61100 29.66200 48.02400
H  52.41000 30.56900 47.09400
H  48.97300 27.47700 44.85400
H  48.24900 30.26100 41.86000
H  46.69500 29.38600 41.88900
H  47.99700 28.78500 40.86000
Mg 10.48700 47.25900 26.25900
C  8.45000 47.79400 29.04800
C  13.06800 48.83700 27.95500
C  12.38400 46.89600 23.49700
C  7.55100 46.62300 24.30600
N  10.69400 48.28000 28.24700
C  9.79800 48.07700 29.28000
C  10.46200 48.56800 30.60200
C  11.57000 49.46600 30.04600
C  11.85600 48.85000 28.67000
C  11.28700 50.97500 29.96600
C  10.91600 47.45600 31.49600
C  11.09900 47.70500 33.02900
H  10.77000 46.50300 33.98900
N  12.49900 47.65700 25.85900
C  13.38000 48.29900 26.70300
C  14.74800 48.28500 26.04100
C  14.53700 47.65200 24.77500
C  13.09300 47.37700 24.61400
C  15.92600 48.84100 26.68800
C  15.51900 47.16400 23.79400
O  15.28600 46.41900 22.81100
C  16.88300 47.64400 23.93500
N  9.98500 46.94600 24.11900
C  11.01200 46.63600 23.26000
C  10.40400 46.11000 21.95100
C  8.96200 45.82300 22.34000
C  8.79800 46.52900 23.65300
C  10.54000 47.03600 20.70100
C  8.53800 44.35100 22.37300
C  9.26800 43.51700 23.36100
N  8.34800 47.18300 26.59600
C  7.32600 46.95000 25.75200
C  6.08300 47.16400 26.45500
C  6.47800 47.41800 27.84300
C  7.88900 47.47600 27.78500
C  4.59300 47.12600 25.95100
C  6.07500 47.61000 29.19200
O  4.93800 47.68400 29.62800
C  7.35100 47.77600 30.07000
C  7.45400 46.56700 30.92900
O  7.94400 45.47600 30.60000
O  6.94200 46.82200 32.14700
C  6.85400 45.71200 33.13200
H  13.85900 49.31000 28.54000
H  12.96600 46.59700 22.62300
H  6.67000 46.29300 23.75100
H  9.81900 49.29600 31.09700
H  12.54700 49.32600 30.50900
H  10.23100 51.22000 30.07900
H  11.51500 51.46800 29.02100
H  11.69100 51.49800 30.83300
H  11.84700 47.11300 31.04300
H  10.22300 46.62700 31.34900
H  10.39700 48.49800 33.28700
H  12.12300 47.94000 33.32200
H  15.77200 49.28500 27.67100
H  16.33000 49.61600 26.03600
H  16.69100 48.07900 26.83700
H  16.78500 48.72800 23.98400
H  17.52400 47.26600 23.13800
H  17.21800 47.25600 24.89700
H  10.96600 45.19200 21.78300
H  8.18200 46.25100 21.71100
H  10.35700 48.10000 20.84600
H  9.86100 46.70700 19.91400
H  11.55400 47.05200 20.30100
H  8.54900 43.91900 21.37200
H  7.46100 44.33300 22.54000
H  8.75600 43.30300 24.29800
H  10.24300 43.91200 23.64700
H  9.59000 42.62400 22.82500
H  4.42200 48.07000 25.43400
H  3.94900 46.97800 26.81800
H  4.47100 46.23600 25.33300
H  7.27500 48.61100 30.76600
H  7.57100 44.91800 32.92300
H  5.84000 45.32400 33.23300
H  7.12400 45.98300 34.15200

