158

Mg 17.36800 -1.84600 28.39300
C  16.33700 0.21900 30.92200
C  19.62600 -3.35300 30.66400
C  18.94000 -3.49800 25.81700
C  15.48400 -0.08100 26.05400
N  17.83400 -1.71700 30.59400
C  17.14600 -0.89000 31.39100
C  17.63000 -0.97100 32.85000
C  18.78000 -1.99700 32.76300
C  18.77900 -2.40900 31.30900
C  20.11000 -1.59000 33.47400
C  16.46700 -1.39400 33.86700
C  16.14600 -0.40900 34.99700
H  17.36000 0.09500 35.90000
N  19.06100 -3.29600 28.29300
C  19.69200 -3.86200 29.31300
C  20.53400 -4.89800 28.84700
C  20.46100 -4.89000 27.48800
C  19.39500 -3.92100 27.15000
C  21.46700 -5.68300 29.91400
C  21.32500 -5.62200 26.41500
O  21.16000 -5.66600 25.23400
C  22.40800 -6.47700 26.88100
N  17.32200 -1.64300 26.21900
C  17.98500 -2.52800 25.39800
C  17.65700 -2.34200 23.93600
C  16.43900 -1.30000 24.10000
C  16.31400 -1.05800 25.59600
C  18.84500 -1.87200 23.04700
C  15.13300 -1.76000 23.41100
C  13.93200 -2.35700 24.23200
N  16.07900 -0.32900 28.49000
C  15.38500 0.34000 27.45600
C  14.61300 1.43900 28.07600
C  14.94700 1.34200 29.46500
C  15.89100 0.32900 29.64600
C  13.66300 2.49100 27.56400
C  14.63800 1.79300 30.68900
O  13.74900 2.66100 30.92900
C  15.62100 1.20900 31.68300
C  16.52000 2.32400 32.30800
O  17.62600 2.60800 31.89500
O  15.81900 2.85900 33.33900
C  16.56200 3.91100 34.05000
H  20.36900 -3.67100 31.39800
H  19.37600 -4.15400 25.06000
H  14.97500 0.45000 25.24700
H  17.90800 0.03100 33.17500
H  18.44500 -2.90300 33.26700
H  20.14100 -2.31100 34.29000
H  19.96200 -0.60600 33.91800
H  21.06200 -1.57300 32.94300
H  16.69300 -2.30500 34.42100
H  15.65100 -1.54700 33.16000
H  15.35800 -0.68700 35.69800
H  15.80000 0.49100 34.48900
H  21.25400 -5.34800 30.92900
H  22.53800 -5.70400 29.71200
H  21.05000 -6.69000 29.94200
H  22.94400 -6.84100 26.00400
H  22.00000 -7.24800 27.53300
H  23.12500 -5.93500 27.49800
H  17.28100 -3.31800 23.63000
H  16.67700 -0.27700 23.80700
H  18.43800 -1.10000 22.39400
H  19.32900 -2.66500 22.47600
H  19.60200 -1.37900 23.65700
H  15.32600 -2.55100 22.68700
H  14.75700 -0.87800 22.89300
H  14.01900 -2.40700 25.31800
H  13.54700 -3.30900 23.86700
H  13.13200 -1.63900 24.04900
H  12.60300 2.23400 27.56700
H  14.01100 2.74600 26.56300
H  13.77700 3.44900 28.07000
H  14.92700 0.76900 32.39900
H  16.30900 4.02300 35.10500
H  16.62700 4.84200 33.48700
H  17.58200 3.54900 34.17900
Mg 7.05200 52.79500 41.33000
C  6.61700 49.35700 41.15100
C  10.39900 52.39100 40.54400
C  7.26300 56.17900 41.13300
C  3.45200 53.10600 41.74000
N  8.34900 51.07900 40.88300
C  7.96000 49.72900 40.91900
C  9.27600 48.83100 40.96000
C  10.45500 49.84600 40.93000
C  9.65100 51.20400 40.77700
C  11.42900 49.85700 42.13700
C  9.39100 47.73500 39.81600
C  9.50500 48.21700 38.34700
H  8.25900 48.14100 37.38200
N  8.58300 54.17100 40.92100
C  9.89100 53.74400 40.69100
C  10.67700 54.93500 40.49300
C  9.90300 56.06200 40.67000
C  8.50700 55.53700 40.96200
C  12.13300 54.89800 40.10300
C  10.31400 57.45100 40.58400
O  11.43400 57.71400 40.18900
C  9.42100 58.62500 40.83000
N  5.48700 54.48700 41.33600
C  5.93100 55.74500 41.36700
C  4.70400 56.63200 41.62700
C  3.44800 55.69000 41.53400
C  4.15700 54.32700 41.53200
C  4.76400 57.47000 42.91600
C  2.66900 55.93900 40.26000
C  1.14400 56.07500 40.52900
N  5.31300 51.56400 41.35800
C  4.00000 51.76400 41.66000
C  3.36500 50.56100 41.80200
C  4.37300 49.59700 41.70000
C  5.50500 50.27400 41.35300
C  1.93100 50.28500 42.01600
C  4.50500 48.19000 41.87400
O  3.63900 47.30900 42.07800
C  6.00800 47.92900 41.46400
C  5.87300 47.05100 40.24500
O  5.41100 47.44800 39.20100
O  6.16100 45.69600 40.54000
C  5.65300 44.73500 39.55400
H  11.47300 52.30100 40.37200
H  7.27500 57.26600 41.23600
H  2.36900 53.21200 41.82900
H  9.37700 48.24500 41.87300
H  11.00700 50.03200 40.00900
H  11.17300 48.98300 42.73600
H  11.33200 50.72100 42.79400
H  12.44500 49.81100 41.74400
H  8.66300 46.92800 39.90100
H  10.25400 47.10900 40.04500
H  10.34100 47.64500 37.94700
H  9.76600 49.27000 38.45400
H  12.23700 55.48300 39.19000
H  12.62900 53.92900 40.04400
H  12.71100 55.38600 40.88800
H  8.55900 58.69100 40.16600
H  10.00200 59.53900 40.95100
H  9.00400 58.50200 41.83000
H  4.93700 57.34000 40.83200
H  2.79000 55.70500 42.40400
H  5.63900 57.27600 43.53600
H  3.86000 57.49000 43.52500
H  4.88900 58.54600 42.79400
H  2.70000 55.10800 39.55400
H  2.86200 56.93900 39.87100
H  0.71900 55.80200 41.49500
H  0.67700 55.26500 39.96800
H  0.83400 57.07100 40.21300
H  1.53700 50.31300 41.00000
H  1.32300 50.91600 42.66400
H  1.82200 49.27100 42.40200
H  6.52300 47.33900 42.22200
H  5.77400 43.74100 39.98500
H  6.45000 44.65500 38.81500
H  4.76900 45.02300 38.98700

