158

Mg 17.18200 -1.65700 27.84000
C  16.22300 0.57200 30.34900
C  19.07900 -3.25500 30.01600
C  18.63800 -3.21500 25.19800
C  15.61400 0.55900 25.53500
N  17.73900 -1.19600 29.93800
C  17.08200 -0.41600 30.79000
C  17.40800 -0.70900 32.23900
C  18.56300 -1.74300 32.15100
C  18.42200 -2.19500 30.61600
C  20.00200 -1.09700 32.37800
C  16.10500 -1.24600 32.87200
C  15.97400 -0.89600 34.39300
H  17.15900 -0.30200 35.17600
N  18.57900 -3.14600 27.66100
C  19.16700 -3.74000 28.65600
C  19.89100 -4.89400 28.12000
C  19.68500 -4.90700 26.73200
C  18.87500 -3.71200 26.48000
C  20.31400 -5.97200 29.05800
C  20.16200 -5.91100 25.71200
O  19.92100 -5.73700 24.52100
C  20.88100 -7.14400 26.08100
N  17.09300 -1.40100 25.64500
C  17.84700 -2.18200 24.77200
C  17.64200 -1.72400 23.33000
C  16.47900 -0.62600 23.44200
C  16.33200 -0.49400 24.99000
C  18.97100 -1.47200 22.59100
C  15.14400 -0.89600 22.67900
C  13.86300 -1.39000 23.51600
N  15.98200 0.10400 27.93800
C  15.40300 0.85400 26.94700
C  14.63400 1.91500 27.49700
C  14.93800 1.85700 28.86100
C  15.86500 0.83900 29.02600
C  13.78800 2.91400 26.77200
C  14.59100 2.38000 30.14200
O  13.86300 3.30400 30.46800
C  15.43800 1.56900 31.20500
C  16.28800 2.56700 31.89500
O  17.50100 2.76200 31.77700
O  15.54600 3.07000 32.86500
C  16.15500 3.98800 33.85300
H  19.58000 -3.77400 30.83700
H  19.14800 -3.62900 24.32500
H  15.02500 1.18900 24.86500
H  17.70900 0.24900 32.66400
H  18.35800 -2.66200 32.70000
H  19.88100 -0.09600 32.79200
H  20.53100 -0.96500 31.43500
H  20.59300 -1.65900 33.10200
H  16.12300 -2.30400 32.60800
H  15.24100 -0.77700 32.40300
H  15.63800 -1.78900 34.92100
H  15.20300 -0.13400 34.50400
H  21.37700 -6.15600 28.90400
H  19.70500 -6.85500 28.86100
H  20.35200 -5.68000 30.10800
H  21.77700 -6.93600 26.66500
H  21.20200 -7.52400 25.11100
H  20.18600 -7.89900 26.44900
H  17.14400 -2.55300 22.82700
H  16.89400 0.32400 23.10500
H  18.80300 -0.48100 22.16700
H  19.34900 -2.28600 21.97300
H  19.73800 -1.45000 23.36500
H  15.32300 -1.68500 21.94800
H  14.88800 0.02800 22.16100
H  13.28500 -1.97800 22.80400
H  13.22600 -0.53500 23.74400
H  14.17500 -1.94100 24.40300
H  14.25300 3.36100 25.89300
H  13.57400 3.69900 27.49700
H  12.84700 2.47900 26.43300
H  14.72200 1.11200 31.88800
H  17.09700 4.41300 33.50600
H  16.20600 3.51800 34.83500
H  15.55700 4.89600 33.94200
Mg -5.88400 25.80000 26.05400
C  -4.20000 27.08600 28.93200
C  -7.62200 23.76800 28.19100
C  -6.82500 23.89600 23.43500
C  -3.98700 27.73200 24.09800
N  -5.73400 25.26500 28.42900
C  -5.10900 26.07800 29.41500
C  -5.54400 25.63900 30.77500
C  -6.89300 24.84800 30.42100
C  -6.68700 24.47900 28.92900
C  -7.16900 23.58300 31.26000
C  -5.64100 26.70600 31.81300
C  -6.75400 26.51000 32.79900
H  -6.56400 25.55000 34.02000
N  -7.16600 24.12700 25.80600
C  -7.80900 23.44900 26.79400
C  -8.66700 22.43900 26.24200
C  -8.44700 22.46000 24.80200
C  -7.44800 23.51600 24.65200
C  -9.46700 21.45500 27.06300
C  -9.07600 21.63100 23.70300
O  -8.82700 21.71200 22.54300
C  -10.09500 20.61700 24.05900
N  -5.43500 25.76100 24.05300
C  -5.85700 24.88700 23.15300
C  -5.32900 25.20700 21.72500
C  -4.66500 26.58100 21.85500
C  -4.65000 26.67200 23.44400
C  -4.53800 24.00600 21.09300
C  -5.42800 27.75500 21.20000
C  -4.58200 28.84100 20.60000
N  -4.30300 26.96100 26.38400
C  -3.66900 27.76800 25.48400
C  -2.74200 28.68500 26.13900
C  -2.84700 28.35200 27.50400
C  -3.84300 27.35700 27.58600
C  -1.77100 29.69500 25.50300
C  -2.36600 28.68300 28.74200
O  -1.42200 29.42500 29.10500
C  -3.23500 27.90200 29.78400
C  -2.26500 27.00400 30.48600
O  -1.90800 25.97600 30.03200
O  -1.83200 27.63100 31.59100
C  -0.74700 26.98400 32.23700
H  -8.30700 23.22700 28.84800
H  -7.11500 23.29200 22.57300
H  -3.46200 28.51300 23.54500
H  -4.76400 24.90600 30.98300
H  -7.77000 25.49400 30.44900
H  -7.05500 22.77400 30.53900
H  -8.15400 23.62200 31.72500
H  -6.33900 23.47200 31.95800
H  -5.75600 27.72300 31.43700
H  -4.76700 26.65300 32.46200
H  -7.73200 26.27700 32.37800
H  -6.70900 27.53200 33.17200
H  -9.39400 20.42400 26.71800
H  -10.52000 21.70400 27.20000
H  -9.23000 21.36200 28.12200
H  -9.45000 19.81900 24.42600
H  -10.53200 20.25000 23.13000
H  -10.89500 20.88900 24.74700
H  -6.21900 25.29800 21.10200
H  -3.69100 26.43600 21.38700
H  -4.43700 23.07800 21.65600
H  -3.52800 24.29200 20.79900
H  -5.04900 23.62000 20.21200
H  -6.00200 28.25900 21.97700
H  -6.01500 27.42700 20.34200
H  -3.55800 28.47600 20.51600
H  -4.44900 29.71600 21.23500
H  -4.93000 29.20300 19.63300
H  -1.06200 30.07600 26.23900
H  -2.43900 30.50500 25.21100
H  -1.21600 29.30700 24.64800
H  -3.73900 28.65100 30.39500
H  -0.98100 25.92000 32.26500
H  -0.63400 27.32100 33.26700
H  0.22400 27.19900 31.79000

