158

Mg 47.40400 16.57500 28.58300
C  45.32700 15.97100 31.37300
C  49.70000 17.89300 30.82100
C  49.31500 17.30700 25.97000
C  44.83600 15.55800 26.51700
N  47.49700 16.92900 30.82700
C  46.51900 16.56900 31.70100
C  46.89100 16.96000 33.16100
C  48.17700 17.80400 32.95300
C  48.49500 17.51000 31.45800
C  48.03300 19.35400 33.29800
C  47.08600 15.76500 34.19800
C  46.15400 15.69300 35.41100
H  45.59300 16.96900 35.92500
N  49.28900 17.40700 28.44100
C  50.10800 17.78400 29.49000
C  51.39800 18.16300 28.93100
C  51.30200 18.04300 27.51400
C  49.94400 17.49100 27.23400
C  52.52800 18.55000 29.84700
C  52.30100 18.35400 26.46700
O  52.12800 18.11700 25.23200
C  53.72900 18.84900 26.79200
N  47.04700 16.53100 26.59100
C  47.99600 16.99200 25.70400
C  47.50300 16.87100 24.28300
C  46.18500 16.12400 24.43600
C  45.99000 16.02900 25.89700
C  47.38100 18.23900 23.57500
C  46.04400 14.69300 23.75100
C  46.61800 13.45100 24.40900
N  45.57100 15.74800 28.84700
C  44.61800 15.42600 27.91900
C  43.45000 14.87400 28.62300
C  43.78000 14.92000 29.95600
C  45.03800 15.60000 30.02900
C  42.16400 14.30200 28.11500
C  43.24200 14.77800 31.26800
O  42.13900 14.32900 31.51300
C  44.20600 15.44600 32.26200
C  43.39500 16.47200 32.94100
O  43.17500 17.63400 32.56400
O  42.80500 15.88000 33.95500
C  41.68400 16.65300 34.50300
H  50.41500 18.33700 31.51700
H  49.91600 17.44500 25.06900
H  44.00900 15.26800 25.86600
H  46.01300 17.52700 33.47000
H  49.02100 17.46000 33.55200
H  47.09100 19.57400 33.80000
H  48.18300 19.97100 32.41100
H  48.87900 19.60500 33.93800
H  48.13000 15.78700 34.51100
H  47.04500 14.85100 33.60600
H  46.70700 15.26400 36.24700
H  45.38600 14.99400 35.07800
H  52.28500 19.07600 30.77000
H  53.33500 19.11800 29.38300
H  53.00700 17.59500 30.06800
H  53.70500 19.84200 27.24100
H  54.40400 18.84600 25.93600
H  54.02100 18.11600 27.54500
H  48.12400 16.10400 23.82100
H  45.40400 16.77900 24.05000
H  46.39100 18.34600 23.13000
H  48.04700 18.08800 22.72600
H  47.75900 19.09600 24.13200
H  46.56300 14.81200 22.80000
H  44.98400 14.49600 23.59100
H  47.38600 13.71700 25.13500
H  47.13800 12.79400 23.71100
H  45.88100 12.86500 24.95800
H  42.40300 13.32600 27.69400
H  41.74300 14.88200 27.29300
H  41.43200 14.03200 28.87600
H  44.52700 14.61100 32.88500
H  42.05800 17.57900 34.94000
H  41.17500 15.93800 35.14900
H  41.02700 16.84500 33.65500
Mg 17.06600 51.51200 26.78800
C  18.67600 50.14400 29.51900
C  14.64800 52.59900 28.99200
C  15.16000 52.23900 24.27400
C  19.40900 49.94000 24.66000
N  16.77100 51.45200 29.00100
C  17.58500 50.88200 29.96300
C  17.21300 51.22900 31.38100
C  15.81700 51.97300 31.14900
C  15.76400 52.15000 29.61600
C  14.66400 51.06600 31.71600
C  18.11000 52.16000 32.16700
C  17.60900 52.76400 33.55700
H  16.79600 51.86700 34.46700
N  15.17800 52.34300 26.62600
C  14.27200 52.68700 27.61500
C  13.05800 53.22900 27.05300
C  13.33400 53.30000 25.61700
C  14.65400 52.70400 25.43600
C  11.84400 53.75100 27.91400
C  12.45700 53.85000 24.48800
O  12.80900 53.78500 23.30500
C  11.11700 54.50700 24.75200
N  17.28500 51.19000 24.81400
C  16.33900 51.55100 23.95300
C  16.68700 51.22600 22.49800
C  18.09500 50.61400 22.70500
C  18.31200 50.61700 24.16400
C  15.63200 50.36900 21.66300
C  19.12800 51.35500 21.79000
C  19.75800 52.60000 22.20100
N  18.88600 50.41700 27.03600
C  19.71500 49.85900 26.12700
C  20.83100 49.16200 26.78600
C  20.42300 49.24300 28.13500
C  19.23200 49.98500 28.23700
C  21.88300 48.35800 26.08800
C  20.71900 48.79200 29.43600
O  21.68200 48.10600 29.85000
C  19.77900 49.50600 30.43900
C  19.21900 48.54300 31.37100
O  18.34100 47.73000 31.10100
O  19.87200 48.63200 32.59400
C  19.24200 47.79900 33.64500
H  13.98600 53.22300 29.59600
H  14.55000 52.39000 23.38000
H  20.13100 49.33700 24.10600
H  17.10100 50.29800 31.93800
H  15.82400 52.96700 31.59600
H  15.14100 50.33000 32.36300
H  14.12400 50.50700 30.95100
H  14.05400 51.72200 32.33700
H  18.47800 52.87900 31.43500
H  18.99400 51.58400 32.44100
H  17.05000 53.67100 33.32600
H  18.49000 53.07500 34.11800
H  10.88500 53.58500 27.42200
H  11.91600 54.83400 28.00400
H  11.86100 53.23100 28.87200
H  10.43400 53.65700 24.76300
H  10.84400 55.11000 23.88600
H  11.07800 55.11700 25.65400
H  16.79200 52.22700 22.08000
H  18.03600 49.57200 22.39300
H  15.36600 50.91900 20.76000
H  14.74800 50.17200 22.27000
H  16.05200 49.37300 21.52600
H  18.73900 51.46700 20.77800
H  19.90000 50.58600 21.77800
H  20.75400 52.32600 22.54900
H  19.27900 53.05600 23.06700
H  19.88500 53.29200 21.36900
H  21.53100 47.84900 25.19000
H  22.36100 47.56800 26.66700
H  22.61700 49.08600 25.74300
H  20.46100 50.21200 30.91200
H  18.80400 46.84000 33.36800
H  18.46100 48.49500 33.95200
H  20.00100 47.71400 34.42300

