158

Mg -1.84400 17.41700 26.71400
C  -2.26700 15.16300 29.53900
C  -2.51200 19.92500 29.01200
C  -1.65900 19.38700 24.32000
C  -1.77600 14.59600 24.69100
N  -2.56400 17.48400 28.99500
C  -2.54500 16.46500 29.93700
C  -2.75900 17.01500 31.36800
C  -2.96200 18.57000 31.13200
C  -2.68700 18.69900 29.60400
C  -4.37100 19.00400 31.60500
C  -1.54300 16.67200 32.31300
C  -1.52900 17.43800 33.64200
H  -1.44100 16.67800 34.98300
N  -1.94300 19.38100 26.67800
C  -2.19600 20.26500 27.67900
C  -2.06800 21.65100 27.15800
C  -1.85300 21.52400 25.76500
C  -1.82800 20.04700 25.48300
C  -2.22000 22.86900 28.05400
C  -1.63200 22.58700 24.67600
O  -1.57900 22.32400 23.49400
C  -1.48900 23.98600 25.05200
N  -1.54900 17.04800 24.71200
C  -1.56200 18.07900 23.89000
C  -1.20500 17.67300 22.41700
C  -1.01000 16.11700 22.60500
C  -1.43100 15.86100 24.07700
C  -2.31300 18.00900 21.31700
C  0.39500 15.56000 22.27900
C  1.47000 15.38100 23.40900
N  -1.88900 15.37700 26.97600
C  -1.87600 14.33600 26.04500
C  -2.05600 13.04200 26.62300
C  -2.17600 13.34300 27.99100
C  -2.02600 14.75400 28.19100
C  -2.15200 11.68400 26.04600
C  -2.25500 12.73600 29.29500
O  -2.34800 11.54600 29.59400
C  -2.29000 13.83200 30.29700
C  -1.00600 13.64100 31.15200
O  -0.05100 14.31300 30.86900
O  -1.09900 12.73500 32.15900
C  -0.11400 12.81700 33.24100
H  -2.34900 20.74400 29.71500
H  -1.54500 19.98900 23.41600
H  -1.89700 13.71400 24.05800
H  -3.61300 16.54400 31.85500
H  -2.24300 19.17800 31.68100
H  -4.99600 18.12200 31.74000
H  -4.83100 19.69300 30.89700
H  -4.36800 19.63100 32.49700
H  -0.62000 16.98200 31.82100
H  -1.53700 15.60600 32.53900
H  -2.50200 17.92500 33.56700
H  -0.81800 18.26300 33.62800
H  -1.20300 23.14200 28.33500
H  -2.93500 22.63700 28.84300
H  -2.79300 23.60200 27.48600
H  -2.43000 24.40300 25.41200
H  -1.12700 24.48500 24.15400
H  -0.71500 24.13800 25.80500
H  -0.32900 18.11700 21.94500
H  -1.66500 15.59100 21.91100
H  -3.10300 17.26800 21.44200
H  -1.93500 17.90500 20.30000
H  -2.81600 18.97100 21.42200
H  0.76200 16.21100 21.48500
H  0.25200 14.63800 21.71500
H  0.98800 15.22500 24.37400
H  2.29800 16.07900 23.53800
H  1.96800 14.45700 23.11700
H  -1.48900 11.63100 25.18300
H  -3.15800 11.58000 25.63800
H  -1.83500 10.96700 26.80400
H  -3.11700 13.64500 30.98200
H  0.86600 13.23600 33.01200
H  0.10400 11.80400 33.57900
H  -0.51600 13.47100 34.01500
Mg -13.10000 16.13400 41.41700
C  -10.24200 14.57300 40.56400
C  -12.19500 18.85300 39.65900
C  -16.27900 17.42600 41.70400
C  -14.49600 13.01700 42.39200
N  -11.34000 16.69600 40.45900
C  -10.32000 15.93700 40.13300
C  -9.20900 16.65800 39.42800
C  -9.83800 18.14400 39.20000
C  -11.22100 17.93000 39.82000
C  -9.02300 19.26700 39.91700
C  -8.56800 15.83300 38.20900
C  -7.15100 15.53100 38.20800
H  -6.15700 16.13500 37.21800
N  -14.05600 17.84700 40.74400
C  -13.48900 18.86200 40.12300
C  -14.38200 19.98900 39.98700
C  -15.51000 19.65400 40.72600
C  -15.29600 18.24200 41.07300
C  -14.05700 21.32800 39.28600
C  -16.67200 20.66000 41.00000
O  -16.65900 21.83200 40.71600
C  -17.88000 20.27300 41.78900
N  -15.11600 15.33300 42.08700
C  -16.23800 16.08500 42.00600
C  -17.52200 15.21600 42.36900
C  -16.88000 13.87200 42.31600
C  -15.41000 14.05400 42.28000
C  -18.01000 15.63100 43.82700
C  -17.38900 13.13400 41.02600
C  -18.19200 11.83800 41.24400
N  -12.50600 14.13400 41.60000
C  -13.16800 13.01400 42.01900
C  -12.31700 11.87600 41.93400
C  -11.08600 12.46500 41.39800
C  -11.33400 13.83200 41.20800
C  -12.60800 10.47500 42.36800
C  -9.64600 12.22200 40.99900
O  -8.97900 11.21500 40.95500
C  -9.02700 13.57000 40.50000
C  -7.86600 13.87800 41.38400
O  -7.84300 14.68700 42.34200
O  -6.67700 13.19500 41.00900
C  -5.45700 13.60200 41.82100
H  -11.96100 19.83800 39.25000
H  -17.26600 17.88200 41.60800
H  -15.07500 12.10000 42.52400
H  -8.38000 16.81000 40.12000
H  -9.96700 18.30800 38.13000
H  -9.52000 19.51800 40.85400
H  -9.08200 20.20300 39.36200
H  -7.96600 19.06000 40.08700
H  -8.75300 16.52600 37.38800
H  -9.17600 14.98100 37.90700
H  -7.11100 14.45600 38.03200
H  -6.90100 15.54400 39.26800
H  -13.29200 21.16600 38.52700
H  -13.71500 22.09600 39.98000
H  -14.89500 21.83500 38.80800
H  -18.53300 19.61300 41.21800
H  -18.53100 21.09200 42.09400
H  -17.61100 19.79400 42.73100
H  -18.30500 15.34100 41.62100
H  -17.05300 13.33900 43.25000
H  -17.68200 16.67000 43.85100
H  -17.64400 15.09300 44.70100
H  -19.09600 15.67300 43.92000
H  -16.50600 12.84800 40.45500
H  -17.94900 13.85800 40.43500
H  -17.90700 11.13700 40.45900
H  -19.24300 12.12200 41.19900
H  -17.92900 11.43800 42.22400
H  -13.65900 10.36600 42.63700
H  -11.89500 10.22900 43.15600
H  -12.52200 9.90200 41.44500
H  -8.76600 13.32600 39.47100
H  -4.59200 13.60300 41.15800
H  -5.18400 12.94400 42.64600
H  -5.54700 14.53800 42.37300

