158

Mg 1.58100 -1.47400 45.78200
C  4.93400 -0.97500 45.17100
C  0.71300 0.94200 43.49300
C  -1.81400 -2.42700 45.71900
C  2.40200 -4.39200 47.48500
N  2.62900 -0.17800 44.60900
C  4.04700 -0.10900 44.48700
C  4.46500 1.06900 43.58000
C  3.05900 1.79800 43.30600
C  2.06300 0.77100 43.84700
C  2.87700 3.23300 43.86600
C  5.20800 0.62300 42.27100
C  6.44000 1.44600 42.04100
H  6.54800 2.08200 40.63700
N  -0.33300 -0.82000 44.69700
C  -0.37600 0.17700 43.83400
C  -1.74600 0.37800 43.36500
C  -2.50800 -0.56500 44.07700
C  -1.60000 -1.32100 44.90100
C  -2.14000 1.28000 42.36300
C  -4.06200 -0.76200 44.00500
O  -4.69200 -0.10600 43.16400
C  -4.88500 -1.74800 44.87200
N  0.44900 -3.16900 46.44300
C  -0.88600 -3.26300 46.44300
C  -1.38800 -4.48300 47.13000
C  -0.04400 -5.11900 47.63300
C  1.05800 -4.20600 47.15800
C  -2.58900 -4.35800 48.19000
C  0.18100 -6.65800 47.28500
C  -0.10400 -7.65100 48.39800
N  3.26700 -2.41100 46.40300
C  3.43300 -3.55400 47.09400
C  4.85800 -3.86800 47.22900
C  5.46300 -2.89100 46.46600
C  4.45300 -1.98400 46.04800
C  5.55400 -4.96300 48.10000
C  6.71800 -2.36000 45.91600
O  7.83900 -2.77500 46.14700
C  6.44700 -1.05900 45.19500
C  7.09100 0.11600 45.90500
O  7.40300 0.13000 47.06900
O  7.43100 1.07100 45.05600
C  8.18700 2.23700 45.53400
H  0.56100 1.75100 42.77500
H  -2.84400 -2.73500 45.91300
H  2.77000 -5.20800 48.11000
H  5.07500 1.77200 44.14700
H  2.91900 1.89300 42.22900
H  3.82000 3.61800 44.25500
H  2.23500 3.28100 44.74600
H  2.50300 3.90100 43.09000
H  4.70100 0.61500 41.30700
H  5.52800 -0.41400 42.37600
H  7.24700 0.71800 42.13000
H  6.61200 2.22900 42.77900
H  -2.46100 2.16500 42.91200
H  -2.92600 0.77800 41.79900
H  -1.27900 1.57200 41.76100
H  -4.86600 -1.54900 45.94400
H  -4.51500 -2.77200 44.82300
H  -5.89000 -1.61700 44.47100
H  -1.71900 -5.16000 46.34200
H  -0.04300 -4.99800 48.71600
H  -2.26200 -4.73000 49.16100
H  -3.42500 -4.92200 47.77600
H  -2.89100 -3.31600 48.29800
H  1.21100 -6.76500 46.94200
H  -0.57000 -6.96400 46.55700
H  -1.14600 -7.95200 48.29300
H  0.14300 -7.13900 49.32700
H  0.53500 -8.53000 48.30900
H  5.62100 -4.50900 49.08800
H  6.55100 -5.13500 47.69300
H  5.00800 -5.89700 48.23100
H  6.82600 -1.08900 44.17300
H  8.74300 2.65000 44.69300
H  8.83900 2.06900 46.39100
H  7.50300 3.00800 45.88800
Mg 46.99300 25.07200 27.59500
C  47.99500 27.27100 30.21600
C  45.82100 23.02500 30.07000
C  46.47500 22.85200 25.17500
C  48.63600 27.10700 25.38800
N  46.92700 25.17400 29.91700
C  47.31400 26.15700 30.72300
C  47.01700 25.96700 32.20900
C  46.31100 24.58300 32.09100
C  46.33900 24.18300 30.60200
C  47.07600 23.54200 32.92900
C  46.07100 27.13100 32.74800
C  46.43700 27.71300 34.15400
H  45.37700 27.70400 35.31500
N  46.15200 23.23700 27.65200
C  45.72300 22.57700 28.74900
C  45.16000 21.30100 28.32900
C  45.46900 21.17900 26.92700
C  46.10100 22.44600 26.49100
C  44.49300 20.36500 29.24000
C  45.15800 20.08100 25.93800
O  45.45000 20.15200 24.74600
C  44.34000 18.89300 26.42400
N  47.42400 24.95300 25.48800
C  46.99400 24.00500 24.68300
C  47.57500 24.10000 23.26400
C  48.07600 25.68800 23.30400
C  48.04800 26.01200 24.84900
C  48.69000 22.99900 23.15400
C  47.16200 26.74700 22.46700
C  47.88200 27.88700 21.77200
N  48.18700 26.75700 27.71000
C  48.74900 27.52500 26.75300
C  49.22200 28.81300 27.19800
C  48.98100 28.70700 28.59500
C  48.38200 27.43400 28.83000
C  49.75800 29.88700 26.38600
C  49.13100 29.38600 29.83900
O  49.64000 30.49500 30.06200
C  48.48500 28.52900 30.90600
C  49.47300 28.30800 31.99600
O  50.47900 27.61400 31.95100
O  49.08700 29.04800 33.10200
C  49.91600 28.91400 34.28500
H  45.40500 22.44100 30.89400
H  46.31900 22.18700 24.32300
H  49.14200 27.81700 24.73100
H  47.97500 25.92600 32.72700
H  45.29300 24.70900 32.46000
H  46.68300 22.54000 32.75700
H  46.79300 23.80200 33.95000
H  48.13200 23.62100 32.67200
H  45.05500 26.73600 32.75300
H  46.15200 27.87700 31.95700
H  46.67700 28.74900 33.91400
H  47.27200 27.14400 34.56400
H  43.59700 19.92300 28.80300
H  44.08600 20.83800 30.13300
H  45.19600 19.63300 29.63800
H  44.64100 18.61900 27.43500
H  44.75800 18.20900 25.68500
H  43.30100 19.13200 26.20000
H  46.71600 23.92700 22.61600
H  49.08400 25.58600 22.90400
H  48.43900 22.19900 22.45700
H  48.97000 22.52200 24.09300
H  49.61600 23.43900 22.78200
H  46.39900 27.05400 23.18200
H  46.62000 26.20800 21.69000
H  48.00300 28.65000 22.54000
H  47.37000 28.25000 20.88100
H  48.88000 27.58300 21.45700
H  50.44300 29.40600 25.68700
H  50.30900 30.63800 26.95200
H  48.99900 30.31100 25.73000
H  47.76300 29.18200 31.39500
H  50.11100 29.94400 34.58400
H  50.86400 28.38100 34.21200
H  49.38000 28.32800 35.03200

