158

Mg 40.75900 8.37200 28.96800
C  42.73700 9.42400 31.67900
C  38.51300 7.06600 31.16100
C  39.12900 7.26900 26.33200
C  43.37200 9.50300 26.83700
N  40.70100 8.24900 31.13200
C  41.54000 8.78800 32.05600
C  40.99500 8.56800 33.47900
C  39.75200 7.55800 33.25700
C  39.61700 7.65600 31.75700
C  40.06500 6.10200 33.70000
C  40.67500 9.88500 34.19900
C  40.04900 9.77700 35.51100
H  40.84600 10.01900 36.81800
N  39.02800 7.48400 28.78400
C  38.23000 6.97600 29.79500
C  37.06300 6.33900 29.18800
C  37.21200 6.34900 27.79500
C  38.52300 6.97200 27.58400
C  35.90700 5.75300 30.01800
C  36.37200 5.70300 26.76700
O  36.58100 5.76600 25.55900
C  35.07400 5.05600 27.23700
N  41.17900 8.45400 26.91200
C  40.36100 7.89700 26.02700
C  40.98900 7.84000 24.57100
C  42.17300 8.86400 24.74700
C  42.26400 8.96700 26.27500
C  41.42200 6.42500 24.12800
C  42.08200 10.23800 24.09300
C  40.95200 11.26200 24.51200
N  42.75500 9.11100 29.14800
C  43.63100 9.64900 28.18200
C  44.77700 10.18400 28.82800
C  44.46700 10.08100 30.19800
C  43.17100 9.54800 30.37300
C  45.85500 10.78900 28.18200
C  45.03200 10.39900 31.49300
O  46.08500 10.92700 31.77300
C  43.91700 9.99500 32.53900
C  44.54200 8.95900 33.37400
O  44.60300 7.77000 33.07300
O  44.97000 9.44600 34.56500
C  44.77200 8.47800 35.66600
H  37.76900 6.54000 31.76200
H  38.70200 6.70600 25.49900
H  43.99600 10.05900 26.13400
H  41.75200 7.99500 34.01400
H  38.80800 7.82800 33.72900
H  41.10800 6.06700 34.01600
H  39.97600 5.45900 32.82500
H  39.35300 5.74100 34.44200
H  40.25000 10.62300 33.51700
H  41.68900 10.25900 34.34200
H  39.57800 8.79400 35.49600
H  39.16000 10.40100 35.60400
H  34.95000 6.15500 29.68600
H  36.00500 5.78900 31.10200
H  35.84500 4.68100 29.82900
H  34.48800 4.85600 26.34000
H  34.60000 5.91900 27.70400
H  35.09200 4.17700 27.88300
H  40.29400 8.28200 23.85600
H  43.17100 8.50300 24.49600
H  40.66400 6.00900 23.46500
H  41.62700 5.81400 25.00700
H  42.35100 6.53000 23.56700
H  41.80800 9.97600 23.07100
H  43.03700 10.76400 24.09100
H  40.51200 11.71400 23.62300
H  41.41500 12.05800 25.09500
H  40.10500 10.72600 24.94200
H  45.51600 11.53200 27.46000
H  46.68900 10.15600 27.88000
H  46.21100 11.47100 28.95300
H  43.60700 10.85100 33.13900
H  43.70100 8.27400 35.63800
H  45.02000 8.80400 36.67600
H  45.25700 7.51200 35.52600
Mg -10.42000 16.68000 42.95200
C  -7.06200 17.41700 43.39700
C  -11.00400 20.24300 42.45000
C  -13.75100 16.13300 42.39300
C  -9.79400 13.40000 42.84600
N  -9.23000 18.55200 42.84400
C  -7.86200 18.55800 43.11800
C  -7.28500 19.98300 42.82800
C  -8.57700 20.83700 42.90500
C  -9.69800 19.83000 42.72700
C  -8.75900 21.53500 44.26700
C  -6.56800 19.93900 41.44400
C  -5.20500 20.70400 41.50300
H  -4.09700 20.05700 40.70400
N  -12.17000 18.02600 42.46800
C  -12.19800 19.41100 42.42300
C  -13.55700 19.77200 42.19300
C  -14.35700 18.63600 42.03100
C  -13.43100 17.51900 42.26300
C  -13.87300 21.24700 42.06000
C  -15.82500 18.54600 41.65800
O  -16.49000 19.56200 41.69500
C  -16.60700 17.20400 41.33200
N  -11.61400 15.05900 42.64400
C  -12.98200 15.03900 42.62600
C  -13.54500 13.65600 42.66300
C  -12.22900 12.77000 42.47100
C  -11.13800 13.78400 42.64400
C  -14.38000 13.28100 44.02900
C  -12.10300 12.16300 41.02700
C  -11.36300 10.83100 40.99700
N  -8.77600 15.51300 43.07800
C  -8.64400 14.16900 43.12800
C  -7.22600 13.85100 43.38100
C  -6.58900 15.11800 43.50400
C  -7.58000 16.09900 43.25700
C  -6.61500 12.45100 43.49200
C  -5.30400 15.77200 43.66000
O  -4.23400 15.25100 43.78800
C  -5.57000 17.28300 43.58000
C  -5.02600 17.86500 44.83500
O  -5.44400 17.58000 45.93600
O  -4.05600 18.77100 44.58900
C  -3.77200 19.68900 45.68300
H  -11.15200 21.32200 42.37800
H  -14.80400 15.85400 42.31800
H  -9.43200 12.37000 42.82100
H  -6.67000 20.10100 43.72000
H  -8.67000 21.51700 42.05800
H  -9.16600 20.79600 44.95700
H  -9.49600 22.32900 44.14600
H  -7.85200 21.93000 44.72400
H  -7.18200 20.53700 40.77000
H  -6.51600 18.91400 41.07700
H  -4.83200 20.91400 42.50500
H  -5.56200 21.66800 41.14200
H  -14.59700 21.53200 41.29700
H  -13.09700 21.92300 41.70100
H  -14.33800 21.61000 42.97600
H  -17.45400 17.55500 40.74300
H  -16.96300 16.82600 42.29000
H  -16.07500 16.44600 40.75700
H  -14.20800 13.36800 41.84600
H  -12.08300 11.98700 43.21500
H  -14.22000 12.37100 44.60700
H  -15.40600 13.28700 43.66000
H  -14.33200 14.09000 44.75800
H  -11.62100 12.90700 40.39200
H  -13.10400 11.88600 40.69700
H  -12.13400 10.06200 40.96800
H  -10.60500 10.70800 41.77000
H  -10.82100 10.71700 40.05800
H  -7.24500 11.76100 42.93100
H  -6.50300 12.06700 44.50600
H  -5.62200 12.39800 43.04500
H  -5.19500 17.80800 42.70100
H  -4.22100 20.60900 45.30800
H  -2.70500 19.87800 45.80000
H  -4.17600 19.50300 46.67800

