158

Mg 6.61800 53.26000 41.21900
C  5.81800 49.75200 40.69300
C  9.57300 52.66800 39.72900
C  6.97800 56.68600 41.13200
C  3.36200 53.65700 42.38000
N  7.42600 51.48400 40.01900
C  7.04100 50.16200 40.09000
C  8.16000 49.19100 39.50800
C  9.37200 50.18300 39.37900
C  8.71700 51.53400 39.61200
C  10.44100 49.77500 40.38600
C  7.73100 48.56400 38.09700
C  6.85600 49.42200 37.14600
H  6.48900 48.73000 35.78400
N  8.08700 54.53600 40.52100
C  9.29400 54.03600 39.96200
C  10.10900 55.21100 39.76600
C  9.34600 56.41800 40.04200
C  8.02400 55.96000 40.53500
C  11.49800 55.15400 39.21900
C  9.86100 57.82900 40.00200
O  10.97700 58.03500 39.57700
C  9.09800 59.03400 40.41100
N  5.35300 54.92500 41.56900
C  5.68700 56.23300 41.55800
C  4.58000 57.19000 41.99300
C  3.46100 56.22500 42.39000
C  4.07700 54.83200 42.07900
C  5.05100 58.15800 43.09600
C  2.12100 56.38400 41.59900
C  0.82900 56.44800 42.41800
N  4.87500 51.94400 41.59200
C  3.66300 52.28200 42.17200
C  2.88000 51.08000 42.32300
C  3.72800 49.99800 41.81100
C  4.87100 50.63100 41.32600
C  1.44900 50.86600 42.72300
C  3.83400 48.51200 41.65500
O  3.06300 47.57200 41.94400
C  5.19500 48.29600 40.90200
C  5.03700 47.62100 39.61800
O  4.24900 47.94300 38.77900
O  5.67800 46.31100 39.65200
C  5.28600 45.31500 38.64900
H  10.57900 52.54000 39.32400
H  6.96700 57.76400 40.95800
H  2.35800 53.83700 42.76800
H  8.20700 48.34300 40.19100
H  9.86300 50.09800 38.40900
H  10.23400 48.97800 41.10000
H  10.77600 50.65700 40.93200
H  11.29800 49.47200 39.78300
H  7.27300 47.58800 38.25800
H  8.53800 48.46900 37.37000
H  7.45100 50.30900 36.93000
H  5.92500 49.64700 37.66500
H  11.90000 54.14100 39.22700
H  12.18300 55.70700 39.86200
H  11.57600 55.54200 38.20400
H  9.76400 59.89700 40.42500
H  8.85100 58.82300 41.45200
H  8.28600 59.22000 39.70900
H  4.39500 57.75100 41.07700
H  3.27800 56.34700 43.45800
H  5.21400 59.09700 42.56700
H  5.97000 57.69500 43.45700
H  4.34000 58.33100 43.90400
H  2.01700 55.61600 40.83200
H  2.18300 57.31200 41.03000
H  0.05900 55.83800 41.94600
H  0.33700 57.41900 42.37400
H  0.98600 55.98500 43.39200
H  1.31100 51.49500 43.60200
H  1.23000 49.83700 43.00900
H  0.75500 51.23400 41.96700
H  5.76000 47.64900 41.57300
H  5.65400 45.72700 37.70900
H  4.20400 45.21900 38.74300
H  5.88800 44.42500 38.83100
Mg -12.95200 16.97200 41.42900
C  -10.02300 15.30200 40.40600
C  -11.34800 19.95200 40.76200
C  -15.90000 18.27400 41.57500
C  -14.30300 13.58800 41.84800
N  -10.82700 17.56500 40.52100
C  -9.83500 16.67700 40.24500
C  -8.57500 17.52500 39.84800
C  -8.93600 18.97000 40.25800
C  -10.45200 18.84900 40.60400
C  -8.03600 19.59500 41.36800
C  -8.23600 17.33100 38.31800
C  -7.15900 16.34800 37.83400
H  -6.16800 16.76900 36.69300
N  -13.56100 18.97000 41.20900
C  -12.81200 20.04400 40.95400
C  -13.65300 21.25700 40.98600
C  -14.98800 20.78800 41.19400
C  -14.93700 19.26800 41.38800
C  -13.08600 22.62600 40.76600
C  -16.23300 21.71100 41.18100
O  -16.10200 22.89800 40.88300
C  -17.59800 21.23800 41.61600
N  -14.76300 16.08300 41.72500
C  -15.89400 16.88200 41.72500
C  -17.20800 16.05200 41.88500
C  -16.65300 14.54200 42.15100
C  -15.12800 14.73200 41.83500
C  -18.03800 16.54000 43.10400
C  -17.37800 13.48700 41.35200
C  -17.37400 12.01600 41.94000
N  -12.34800 14.86300 41.28600
C  -12.99800 13.66200 41.53600
C  -12.08500 12.58000 41.51900
C  -10.91600 13.13900 40.92700
C  -11.10800 14.51400 40.90300
C  -12.32900 11.10900 41.87500
C  -9.54000 12.88700 40.53600
O  -8.93600 11.85800 40.44700
C  -8.86200 14.32700 40.15900
C  -7.63900 14.53800 41.13400
O  -7.73300 14.79700 42.30600
O  -6.39900 14.34700 40.44500
C  -5.14100 14.56000 41.15900
H  -10.79500 20.88000 40.60200
H  -16.84200 18.82400 41.54500
H  -14.83000 12.63700 41.95200
H  -7.71400 17.26300 40.46400
H  -8.78300 19.60800 39.38800
H  -7.06200 19.86900 40.96100
H  -7.92900 18.93600 42.23000
H  -8.58000 20.45600 41.75600
H  -7.81600 18.29900 38.04400
H  -9.09500 17.13700 37.67600
H  -7.68100 15.51600 37.36200
H  -6.59500 16.10100 38.73300
H  -12.95700 22.86600 39.71100
H  -12.25500 22.95900 41.38800
H  -13.85000 23.26600 41.20700
H  -17.98200 20.55900 40.85400
H  -18.23000 22.12600 41.61500
H  -17.48300 20.69800 42.55600
H  -17.78300 16.18700 40.96900
H  -16.65400 14.19800 43.18500
H  -18.91400 17.08000 42.74400
H  -17.55400 17.25900 43.76500
H  -18.33100 15.73300 43.77500
H  -16.91000 13.44800 40.36800
H  -18.36500 13.94000 41.25000
H  -18.41500 11.69400 41.90800
H  -17.00500 11.90800 42.96000
H  -16.88100 11.41800 41.17300
H  -11.37400 10.59100 41.78900
H  -13.02300 10.47900 41.31800
H  -12.64500 10.97600 42.91000
H  -8.62700 14.43400 39.10000
H  -5.11800 15.59700 41.49400
H  -4.28100 14.43900 40.50100
H  -5.07800 13.80200 41.94000

