158

Mg -1.56700 17.96700 26.39400
C  -2.33400 15.76500 29.12800
C  -2.23800 20.64300 28.49800
C  -1.46200 20.02400 23.67300
C  -1.68500 15.22900 24.26100
N  -2.12500 18.19800 28.59900
C  -2.21000 17.13300 29.47800
C  -2.37900 17.72000 30.92700
C  -2.61300 19.22100 30.68900
C  -2.34200 19.38500 29.18700
C  -4.14600 19.61800 30.98300
C  -1.32100 17.35900 32.01500
C  -1.44000 18.11100 33.33200
H  -0.99900 17.34000 34.60600
N  -1.68400 19.98600 26.10700
C  -1.99100 20.91500 27.10800
C  -2.01900 22.26300 26.51100
C  -1.79500 22.09300 25.08500
C  -1.58300 20.66700 24.90700
C  -2.39500 23.53100 27.25700
C  -1.82000 23.19700 23.93300
O  -1.62200 22.87800 22.75700
C  -2.14000 24.57700 24.25900
N  -1.56200 17.64800 24.29100
C  -1.34200 18.65500 23.37300
C  -1.29200 18.15600 21.92100
C  -1.18100 16.62400 22.18200
C  -1.50200 16.43400 23.65300
C  -2.56400 18.48400 21.06100
C  0.20000 16.05200 21.79100
C  1.51200 16.76000 22.25000
N  -1.97100 15.91800 26.56100
C  -1.92000 14.91200 25.60700
C  -2.28000 13.60500 26.23300
C  -2.47300 13.90000 27.61300
C  -2.27500 15.32600 27.74800
C  -2.33900 12.33200 25.48200
C  -2.69700 13.26900 28.83600
O  -2.81500 12.06300 29.12800
C  -2.51200 14.50200 29.98400
C  -1.25300 14.17800 30.73900
O  -0.19500 14.22600 30.33800
O  -1.66300 13.55400 31.88300
C  -0.67500 12.87800 32.68200
H  -2.45800 21.54200 29.07700
H  -1.32600 20.62600 22.77200
H  -1.70200 14.32100 23.65300
H  -3.26800 17.16800 31.23200
H  -1.94000 19.80200 31.31800
H  -4.75300 18.72600 31.13900
H  -4.56200 20.13600 30.11900
H  -4.18400 20.33000 31.80800
H  -0.37100 17.58400 31.53000
H  -1.40800 16.30100 32.26400
H  -2.50500 18.31100 33.44800
H  -0.90300 19.04300 33.15500
H  -3.35400 23.91300 26.90700
H  -1.64800 24.30600 27.08500
H  -2.48800 23.33900 28.32600
H  -3.19500 24.63100 24.52900
H  -1.87600 25.15500 23.37300
H  -1.47900 24.93400 25.04900
H  -0.38000 18.47300 21.41500
H  -2.01700 16.17100 21.64900
H  -3.29800 17.68300 20.97300
H  -2.27600 18.74400 20.04200
H  -3.05500 19.37100 21.46100
H  0.18300 16.03400 20.70100
H  0.20900 14.99900 22.07400
H  1.53800 17.71200 22.78000
H  2.15900 16.92700 21.38900
H  2.03200 15.99800 22.83100
H  -2.80100 12.54800 24.51800
H  -2.98200 11.69200 26.08700
H  -1.33400 11.91000 25.49700
H  -3.39700 14.46400 30.61900
H  0.13200 12.53300 32.03500
H  -1.15500 11.96900 33.04300
H  -0.29600 13.51200 33.48400
Mg 9.08100 3.76300 28.09700
C  10.55100 2.63300 31.04800
C  7.63700 6.29700 30.06700
C  7.38100 4.86100 25.40200
C  10.60800 1.23200 26.32600
N  8.99100 4.38300 30.36700
C  9.69000 3.75300 31.26800
C  9.48600 4.27300 32.70900
C  8.41900 5.33700 32.39700
C  8.33100 5.33900 30.86400
C  7.05300 5.13300 33.09800
C  10.79300 4.87100 33.32000
C  11.27000 4.34700 34.73400
H  11.81500 5.53200 35.64400
N  7.62300 5.24500 27.79900
C  7.20500 6.22100 28.69500
C  6.31600 7.15500 27.99600
C  6.18200 6.61400 26.69100
C  7.07000 5.51800 26.57600
C  5.52200 8.21500 28.67300
C  5.26100 7.07300 25.55000
O  5.04200 6.41100 24.59200
C  4.38100 8.27700 25.81300
N  8.68100 2.84800 26.19300
C  8.17500 3.67800 25.24500
C  8.65100 3.22500 23.79800
C  9.66600 2.15500 24.10800
C  9.67800 2.02700 25.64300
C  7.47100 2.86800 22.83800
C  11.14400 2.53900 23.57700
C  12.08400 1.33600 23.25900
N  10.21000 2.21300 28.57000
C  10.78900 1.26800 27.74400
C  11.60900 0.36000 28.55100
C  11.55200 0.87500 29.83200
C  10.68600 1.98400 29.85600
C  12.42800 -0.69300 28.03700
C  12.03000 0.63000 31.15700
O  12.83600 -0.27600 31.56000
C  11.40400 1.81500 32.06100
C  10.66900 1.17300 33.23500
O  9.48500 0.93700 33.31500
O  11.59500 0.68000 34.09600
C  11.10200 -0.02500 35.27400
H  7.15300 6.96100 30.78700
H  6.96600 5.15200 24.43500
H  11.19900 0.43000 25.87800
H  9.04100 3.48900 33.32200
H  8.75800 6.34400 32.64100
H  6.69800 6.14500 33.29500
H  7.32300 4.64400 34.03400
H  6.39100 4.57000 32.43900
H  10.75000 5.96000 33.34800
H  11.59200 4.58200 32.63700
H  12.00700 3.57900 34.50200
H  10.54100 3.68600 35.20200
H  4.49800 7.90300 28.88000
H  5.58000 9.10800 28.05100
H  6.03400 8.36000 29.62400
H  3.82100 8.55900 24.92000
H  4.91000 9.22800 25.85800
H  3.75200 8.12400 26.69000
H  9.16600 4.07300 23.34700
H  9.40700 1.15300 23.76500
H  6.53200 3.22900 23.25700
H  7.38900 1.78200 22.79200
H  7.58400 3.25800 21.82600
H  11.68500 3.19100 24.26300
H  11.02500 3.06000 22.62700
H  12.38600 1.46700 22.22000
H  11.67300 0.33700 23.40000
H  12.90200 1.38500 23.97800
H  12.46700 -1.51400 28.75300
H  13.35000 -0.33600 27.57900
H  11.80600 -1.11000 27.24500
H  12.26600 2.29800 32.52100
H  10.68000 -0.90300 34.78500
H  10.29100 0.59400 35.65800
H  11.90100 -0.34600 35.94300

