158

Mg 3.02200 -1.15400 43.58200
C  6.43500 -0.43500 43.30000
C  2.34900 1.83400 42.06800
C  -0.04600 -2.30300 43.09900
C  3.98100 -4.32000 44.93900
N  4.29800 0.45600 42.67200
C  5.65200 0.58200 42.72300
C  6.16400 1.85500 42.14900
C  4.79000 2.61000 41.89300
C  3.71600 1.57600 42.22600
C  4.59300 4.01900 42.60100
C  7.06300 1.71600 40.84800
C  6.56700 0.93000 39.69400
H  6.33700 1.67900 38.41500
N  1.35400 -0.33200 42.81600
C  1.33000 0.91500 42.26000
C  -0.12300 1.17800 41.91200
C  -0.81800 -0.02900 42.12600
C  0.15900 -0.94400 42.70900
C  -0.51400 2.59700 41.45200
C  -2.35200 -0.20200 41.93500
O  -2.95500 0.83200 41.63900
C  -3.12900 -1.47400 42.28600
N  2.15000 -3.04300 43.94500
C  0.81600 -3.26800 43.75100
C  0.37000 -4.63000 44.31200
C  1.68700 -5.16300 44.97700
C  2.67000 -4.13800 44.52600
C  -0.94400 -4.56700 45.16700
C  2.17100 -6.61700 44.59100
C  2.58000 -7.54900 45.71600
N  4.80500 -2.22700 44.11600
C  5.04500 -3.44900 44.66000
C  6.42600 -3.62500 44.90400
C  7.02100 -2.41800 44.41100
C  5.98600 -1.60800 43.94600
C  7.02800 -4.75800 45.63400
C  8.30500 -1.75300 44.30500
O  9.40000 -2.20200 44.64500
C  7.94600 -0.33400 43.63700
C  8.26700 0.69600 44.58800
O  7.96500 0.78800 45.73700
O  9.14000 1.64200 43.98100
C  9.62400 2.76600 44.75800
H  2.09200 2.76900 41.56500
H  -1.03700 -2.70900 42.88400
H  4.28900 -5.23100 45.45600
H  6.70200 2.35500 42.95500
H  4.73300 2.91500 40.84900
H  3.67500 4.07100 43.18600
H  4.55700 4.87400 41.92600
H  5.40900 4.23800 43.28900
H  8.06900 1.38200 41.10200
H  7.15400 2.76200 40.55800
H  5.62600 0.43200 39.92500
H  7.30300 0.12700 39.68200
H  0.13500 2.96400 40.65600
H  -0.42500 3.28500 42.29200
H  -1.53200 2.55900 41.06300
H  -2.83400 -2.26000 41.59200
H  -4.18400 -1.20500 42.33900
H  -2.76500 -1.70900 43.28600
H  0.09100 -5.20400 43.42900
H  1.69700 -4.89800 46.03400
H  -0.93300 -5.21300 46.04500
H  -1.81100 -4.79700 44.54800
H  -1.07700 -3.52900 45.47400
H  3.03800 -6.51500 43.93800
H  1.41300 -7.10900 43.98200
H  3.54700 -7.97400 45.45000
H  1.87700 -8.38200 45.72900
H  2.55300 -6.99300 46.65300
H  7.39500 -5.52800 44.95500
H  6.33500 -5.18100 46.36200
H  7.92500 -4.44800 46.17000
H  8.44800 -0.20600 42.67800
H  10.54000 2.47600 45.27200
H  8.93100 3.05000 45.55000
H  9.69000 3.67400 44.15800
Mg 30.59000 59.67400 39.24500
C  27.76000 58.07000 38.20700
C  32.38500 56.91500 37.85000
C  33.35200 61.57800 39.15900
C  28.68800 62.44500 40.08400
N  30.14600 57.75300 37.93700
C  28.87000 57.31800 37.82900
C  28.85700 55.85100 37.19700
C  30.34300 55.38300 37.59600
C  30.99800 56.77800 37.81600
C  30.35200 54.52500 38.92700
C  28.50500 55.89100 35.62900
C  27.30200 55.08200 35.18000
H  26.37900 55.63800 34.03700
N  32.55800 59.29000 38.67100
C  33.10100 58.09000 38.17000
C  34.54700 58.27100 38.17700
C  34.91500 59.65700 38.39600
C  33.58400 60.22700 38.78000
C  35.46900 57.15000 37.89400
C  36.31700 60.33200 38.18300
O  37.32200 59.71200 37.82600
C  36.46300 61.83800 38.18100
N  30.97200 61.77100 39.42100
C  32.18700 62.31700 39.41700
C  32.18700 63.84100 39.83100
C  30.74700 64.05500 40.30400
C  30.11100 62.65000 39.98000
C  33.28400 64.15500 40.90700
C  30.14300 65.19800 39.50100
C  29.05300 65.92100 40.24200
N  28.60100 60.12700 39.30300
C  27.98500 61.27800 39.70500
C  26.52900 61.03000 39.58300
C  26.43300 59.77200 38.92800
C  27.69300 59.28900 38.82700
C  25.41600 61.89200 40.01500
C  25.46500 58.83100 38.48800
O  24.29700 58.92600 38.41600
C  26.29800 57.64300 37.98600
C  25.81400 56.47700 38.71300
O  26.13000 56.14800 39.85600
O  24.83600 55.86800 38.00300
C  24.00900 54.79300 38.71500
H  33.03000 56.08900 37.54500
H  34.24500 62.20500 39.21600
H  28.09200 63.30300 40.40100
H  28.10400 55.25100 37.70700
H  30.76000 54.89200 36.71700
H  31.22000 53.86800 38.98000
H  29.37400 54.04600 38.98300
H  30.36500 55.20500 39.77900
H  29.33700 55.46100 35.07200
H  28.30700 56.90100 35.26800
H  26.58000 55.01700 35.99400
H  27.71400 54.08600 35.02000
H  35.11700 56.15700 38.17600
H  36.44800 57.32500 38.34000
H  35.65400 57.20600 36.82200
H  37.45500 62.14400 37.84800
H  36.36900 62.36100 39.13300
H  35.81700 62.40900 37.51500
H  32.45100 64.52900 39.02900
H  30.74700 64.26600 41.37400
H  33.70400 63.23400 41.31200
H  32.83500 64.48200 41.84400
H  34.08600 64.81400 40.57200
H  29.73100 64.85400 38.55200
H  30.94000 65.90800 39.27900
H  28.16000 65.75200 39.64100
H  29.31300 66.98000 40.25700
H  28.82500 65.63900 41.27000
H  24.66100 61.38700 40.61700
H  24.82900 62.14000 39.13100
H  25.77300 62.75900 40.57100
H  26.04700 57.60800 36.92600
H  23.75800 55.23900 39.67800
H  24.47300 53.81500 38.84300
H  23.08400 54.66900 38.15100

