158

Mg 53.96100 24.37100 45.18200
C  51.28400 26.50200 44.30500
C  52.08900 21.77200 44.09700
C  56.67600 22.53100 45.46600
C  55.90400 27.22800 45.79400
N  52.01900 24.25900 44.12700
C  51.02900 25.17600 43.93900
C  49.73500 24.51800 43.54300
C  49.95500 23.01900 43.85400
C  51.43000 22.99700 44.11500
C  49.08300 22.38700 45.05900
C  49.41500 24.79700 42.05100
C  47.93500 24.72300 41.56900
H  47.79800 24.76600 40.05000
N  54.24300 22.41700 44.97700
C  53.39500 21.49800 44.50400
C  53.95100 20.13400 44.54200
C  55.29100 20.26300 45.01500
C  55.47900 21.79000 45.14200
C  53.19200 18.86300 44.24200
C  56.34600 19.16700 45.27100
O  56.11000 17.98800 44.99500
C  57.65200 19.47300 45.79400
N  56.03000 24.85600 45.43800
C  56.94600 23.86500 45.70800
C  58.35700 24.37100 45.80800
C  58.08200 25.91800 45.74300
C  56.53000 26.02200 45.71000
C  59.17300 23.94700 47.08100
C  58.85600 26.66500 44.61200
C  58.22600 26.69800 43.24700
N  53.72500 26.41300 45.08900
C  54.54500 27.45000 45.44300
C  53.79600 28.67100 45.34000
C  52.50200 28.29900 45.00200
C  52.55400 26.95200 44.72500
C  54.35800 30.05100 45.68900
C  51.17400 28.89600 44.78500
O  50.70700 30.06000 44.88500
C  50.37000 27.79000 44.16900
C  49.98200 28.20500 42.85500
O  50.77200 28.39400 41.93000
O  48.62800 28.38700 42.83500
C  48.06200 28.66900 41.55000
H  51.48500 20.92300 43.77000
H  57.58100 21.92300 45.53200
H  56.45900 28.16200 45.90600
H  48.97400 24.92100 44.21100
H  49.81100 22.33500 43.01700
H  49.67600 22.15200 45.94300
H  48.68700 21.41000 44.78300
H  48.24000 23.05000 45.25100
H  50.18600 24.17100 41.60200
H  49.75500 25.81700 41.86700
H  47.41200 25.59500 41.96000
H  47.34300 23.87300 41.90800
H  53.74100 17.92700 44.13800
H  52.58800 19.00200 43.34600
H  52.41000 18.78200 44.99800
H  57.99200 18.53100 46.22300
H  57.34100 20.09600 46.63300
H  58.22300 19.96300 45.00600
H  58.78300 24.02400 44.86700
H  58.45200 26.35800 46.66900
H  58.81800 22.96000 47.37700
H  59.06800 24.63200 47.92200
H  60.21800 23.73200 46.86100
H  59.73500 26.05000 44.41800
H  59.26500 27.61000 44.96800
H  58.82500 26.08100 42.57800
H  58.06200 27.69000 42.82500
H  57.21500 26.29900 43.33700
H  54.95000 30.37700 44.83400
H  54.93600 30.01900 46.61300
H  53.49000 30.70100 45.80100
H  49.52500 27.68400 44.85000
H  48.06800 29.71100 41.22900
H  47.00000 28.42600 41.53700
H  48.54800 28.05100 40.79500
Mg 27.34600 49.97200 26.34500
C  25.28300 51.06700 29.01300
C  29.56600 48.84600 28.56100
C  29.36700 49.32600 23.62400
C  25.23200 51.79700 24.17200
N  27.41000 50.05400 28.56100
C  26.44300 50.44500 29.41500
C  26.75500 50.01400 30.85800
C  28.30300 49.56300 30.78200
C  28.46500 49.44400 29.21300
C  29.39400 50.50300 31.50000
C  25.71900 48.93000 31.34000
C  25.26500 48.91400 32.83300
H  26.19000 49.66700 33.79400
N  29.11000 49.14900 26.13800
C  29.93700 48.75100 27.20700
C  31.07700 48.09300 26.68400
C  31.05500 48.25200 25.25200
C  29.83900 49.01100 24.95000
C  32.15500 47.44600 27.53600
C  32.23700 47.90100 24.33200
O  32.12000 48.04600 23.10000
C  33.55700 47.44300 24.86400
N  27.33400 50.57500 24.20600
C  28.22100 50.07400 23.30100
C  27.73600 50.27000 21.88700
C  26.23200 50.80500 22.13800
C  26.25000 51.09900 23.59900
C  28.66000 51.18800 21.05300
C  25.20500 49.80400 21.67900
C  24.24800 50.30900 20.55500
N  25.61900 51.23200 26.53000
C  24.87000 51.93200 25.51300
C  23.75200 52.49400 26.08900
C  23.88900 52.21800 27.48700
C  25.01200 51.44800 27.68500
C  22.59000 53.15100 25.33200
C  23.27100 52.44900 28.75600
O  22.22400 53.05500 29.09300
C  24.17500 51.66200 29.90100
C  24.73300 52.72800 30.78400
O  25.80100 53.27200 30.65200
O  23.80400 53.12500 31.71200
C  24.13400 54.33000 32.43900
H  30.28400 48.56800 29.33500
H  30.03600 49.15800 22.77800
H  24.51500 52.27500 23.50000
H  26.69200 50.91300 31.47200
H  28.38800 48.57200 31.22700
H  29.91500 49.90100 32.24500
H  28.82000 51.25600 32.04000
H  30.05800 50.89000 30.72700
H  26.12000 47.94900 31.08400
H  24.83100 49.01200 30.71400
H  25.31700 47.88900 33.20300
H  24.21800 49.21600 32.86300
H  33.05000 48.06200 27.62400
H  32.39100 46.49600 27.05700
H  31.94700 47.31200 28.59800
H  34.20400 47.31100 23.99600
H  33.55000 46.49800 25.40700
H  33.89600 48.31400 25.42400
H  27.76000 49.28200 21.42800
H  26.17500 51.74900 21.59600
H  29.49200 51.61200 21.61500
H  28.09600 52.05900 20.71900
H  29.05000 50.65700 20.18400
H  24.59200 49.52700 22.53600
H  25.59100 48.81100 21.45000
H  24.25500 49.53200 19.79000
H  24.48900 51.23300 20.03000
H  23.25400 50.47600 20.97100
H  21.70700 53.32800 25.94800
H  22.29200 52.34500 24.66300
H  23.01700 53.98200 24.77100
H  23.72200 50.93600 30.57500
H  24.62800 55.07300 31.81300
H  24.76600 54.06800 33.28800
H  23.28100 54.77900 32.94800

