158

Mg 35.14300 3.15100 30.30100
C  32.91400 3.91700 32.73100
C  37.67500 2.87200 32.80100
C  37.56800 2.65700 27.93700
C  32.77100 3.61900 27.81600
N  35.20400 3.38800 32.48800
C  34.12500 3.72900 33.26400
C  34.53000 3.84100 34.76700
C  36.13100 3.92400 34.64200
C  36.37100 3.35500 33.22100
C  36.64200 5.37500 34.90600
C  34.02600 2.62800 35.50800
C  33.65400 2.85700 36.93500
H  34.29300 4.03800 37.80200
N  37.29500 2.71300 30.39000
C  38.08700 2.56000 31.53400
C  39.35600 2.12700 31.08700
C  39.43800 2.15300 29.71700
C  38.05900 2.51100 29.25800
C  40.31900 1.60700 32.18800
C  40.62700 1.73800 28.76300
O  40.52400 1.89500 27.58200
C  41.89900 1.23500 29.50900
N  35.26800 3.28100 28.20200
C  36.26100 2.88000 27.44900
C  35.93300 2.93500 25.92700
C  34.36400 2.86700 25.92300
C  34.09100 3.25900 27.38800
C  36.63400 4.03800 25.16500
C  33.92900 1.35700 25.82500
C  33.60000 0.94500 24.38100
N  33.24900 3.55400 30.18500
C  32.35200 3.75700 29.10400
C  31.01600 4.15000 29.61100
C  31.14500 4.09000 31.00400
C  32.55100 3.82000 31.34300
C  29.89700 4.42100 28.69900
C  30.42900 4.39300 32.21800
O  29.24300 4.53400 32.42600
C  31.54200 4.30500 33.36900
C  31.50800 5.64300 33.86700
O  31.63700 6.70000 33.25700
O  31.09700 5.71100 35.18200
C  30.85600 7.00600 35.90300
H  38.40100 2.73900 33.60600
H  38.26700 2.48400 27.11500
H  31.99300 3.44000 27.07100
H  34.09600 4.73700 35.21100
H  36.67000 3.27900 35.33600
H  35.77600 6.01400 34.73800
H  37.44200 5.68600 34.23400
H  36.98100 5.54100 35.92900
H  34.67200 1.79600 35.22600
H  33.01200 2.44800 35.15100
H  34.08000 2.04000 37.51700
H  32.56900 2.90700 37.02800
H  41.12700 0.99600 31.78500
H  39.80100 0.98200 32.91600
H  40.85300 2.39900 32.71300
H  42.29100 1.92500 30.25600
H  42.65500 1.19600 28.72500
H  41.66600 0.22400 29.84300
H  36.43400 2.03300 25.57500
H  33.81800 3.46000 25.19000
H  35.92000 4.52200 24.50000
H  37.43000 3.55700 24.59600
H  37.18700 4.78600 25.73400
H  32.96200 1.24900 26.31600
H  34.60600 0.59100 26.20400
H  33.91500 1.76500 23.73500
H  32.56700 0.67500 24.16300
H  34.23200 0.07900 24.18300
H  29.02800 4.61800 29.32700
H  29.73000 3.52000 28.11000
H  30.07900 5.35900 28.17500
H  31.39100 3.59500 34.18200
H  29.86100 7.09800 36.33800
H  31.09100 7.90900 35.34000
H  31.54500 7.07000 36.74600
Mg -6.56900 24.89700 25.90900
C  -5.34100 26.26800 29.05200
C  -8.46400 22.76200 27.75100
C  -7.24500 23.26600 23.05600
C  -4.46100 27.05600 24.28000
N  -6.79700 24.46800 28.15400
C  -6.32900 25.22300 29.18200
C  -6.95500 24.78500 30.52100
C  -7.78000 23.57000 30.16700
C  -7.69800 23.58000 28.62400
C  -7.34400 22.24200 30.88700
C  -7.73400 26.07300 31.17000
C  -7.84500 26.06900 32.70700
H  -7.38000 24.92700 33.71700
N  -7.73900 23.28000 25.43000
C  -8.50400 22.55600 26.33000
C  -9.26400 21.56500 25.65700
C  -8.93500 21.68700 24.24500
C  -7.93100 22.76300 24.18800
C  -10.24600 20.63400 26.29100
C  -9.48000 20.81800 22.95900
O  -9.08700 20.84200 21.82000
C  -10.61500 19.83400 23.24900
N  -5.82000 25.05200 23.95400
C  -6.23700 24.24800 22.93300
C  -5.43000 24.59100 21.69100
C  -4.94300 26.04400 21.97600
C  -5.14400 26.14000 23.50000
C  -4.45600 23.46900 21.37100
C  -5.57900 27.20300 21.15800
C  -4.66500 27.77500 20.06800
N  -5.08500 26.35500 26.52700
C  -4.39600 27.21100 25.71100
C  -3.63200 28.08900 26.54800
C  -3.96000 27.83200 27.86200
C  -4.91800 26.78300 27.79600
C  -2.80500 29.15900 26.05200
C  -3.76900 28.19200 29.22600
O  -3.03100 29.01200 29.72300
C  -4.73600 27.24600 30.12300
C  -3.84900 26.80200 31.24200
O  -3.10500 25.80800 31.27300
O  -3.95400 27.70900 32.29800
C  -3.10400 27.49100 33.52100
H  -9.10000 22.10300 28.34600
H  -7.66900 22.82300 22.15200
H  -3.83100 27.75900 23.73100
H  -6.08900 24.49100 31.11400
H  -8.78700 23.88800 30.43900
H  -6.56100 22.39700 31.62900
H  -7.02100 21.46900 30.18900
H  -8.18400 21.89100 31.48600
H  -8.72600 25.99300 30.72700
H  -7.43100 27.06800 30.84600
H  -8.93000 26.01700 32.79700
H  -7.66400 27.04100 33.16400
H  -10.81500 21.29400 26.94600
H  -9.79800 19.77200 26.78600
H  -10.99700 20.24600 25.60300
H  -10.45600 19.02500 23.96200
H  -10.89700 19.51900 22.24500
H  -11.44900 20.43300 23.61400
H  -6.10200 24.70600 20.84100
H  -3.85300 26.07800 21.97700
H  -4.36200 22.92300 22.31000
H  -3.51900 23.88400 21.00000
H  -4.86800 22.79300 20.62100
H  -5.81200 28.03800 21.81900
H  -6.56100 26.97600 20.74300
H  -5.25700 28.24100 19.28100
H  -4.03800 27.08500 19.50400
H  -4.04500 28.52900 20.55400
H  -2.52300 29.04200 25.00600
H  -1.95000 29.12500 26.72600
H  -3.39200 30.02700 26.35000
H  -5.46200 27.85700 30.65900
H  -2.08200 27.73400 33.23100
H  -3.09900 26.46300 33.88100
H  -3.52300 28.15300 34.27900

