158

Mg 47.93500 25.66400 27.60800
C  48.91900 27.94000 29.91800
C  46.91600 23.48900 30.14800
C  47.29000 23.21100 25.34400
C  49.46000 27.50700 25.18900
N  47.85200 25.73500 29.72700
C  48.27500 26.79000 30.52600
C  47.98300 26.56100 32.04300
C  47.40900 25.10300 32.04100
C  47.38800 24.74800 30.54300
C  48.20400 24.01900 32.83900
C  46.96700 27.61000 32.61100
C  47.47100 28.46300 33.78600
H  46.78400 28.42800 35.14100
N  47.21200 23.62900 27.69400
C  46.83100 22.92200 28.85600
C  46.21500 21.68300 28.49500
C  46.31000 21.68600 27.08600
C  47.01300 22.84300 26.63500
C  45.65100 20.74200 29.41700
C  45.72800 20.54500 26.16500
O  45.84500 20.47500 24.92200
C  45.06600 19.35500 26.80400
N  48.28400 25.31600 25.56700
C  47.81100 24.38000 24.80500
C  48.03000 24.63900 23.22900
C  48.62700 26.10300 23.23900
C  48.78500 26.36900 24.77100
C  48.83500 23.47100 22.60700
C  47.75500 27.29000 22.59000
C  48.47300 28.42200 21.88200
N  49.10000 27.28500 27.51900
C  49.68000 27.93100 26.48400
C  50.42600 29.13000 26.88300
C  50.12800 29.15300 28.24200
C  49.31600 27.99800 28.57600
C  51.19200 30.07500 26.03200
C  50.34500 29.88100 29.42100
O  51.14300 30.83400 29.57400
C  49.48900 29.18200 30.57300
C  50.59500 28.83000 31.49200
O  51.45800 27.97300 31.44600
O  50.46400 29.69500 32.57200
C  51.33700 29.50200 33.75600
H  46.50400 23.03200 31.05000
H  46.91600 22.41100 24.70200
H  49.74800 28.22700 24.42100
H  48.91400 26.62000 32.60600
H  46.40100 25.15100 32.45500
H  47.49200 23.54800 33.51700
H  49.00200 24.51900 33.38700
H  48.72100 23.24900 32.26500
H  45.93800 27.26700 32.72300
H  46.77100 28.37200 31.85700
H  47.42800 29.53100 33.57100
H  48.50500 28.26000 34.06400
H  46.02200 19.71700 29.40800
H  44.56800 20.63800 29.34500
H  45.85300 21.07100 30.43600
H  44.73100 18.70500 25.99600
H  44.27100 19.77100 27.42400
H  45.73600 18.79000 27.45300
H  47.08100 24.85700 22.73800
H  49.66600 26.10400 22.91000
H  48.52500 23.23200 21.59000
H  48.84800 22.66300 23.33900
H  49.76500 23.97800 22.35000
H  47.04800 27.66100 23.33200
H  47.13400 26.74200 21.88100
H  48.20400 29.24000 22.55000
H  47.99700 28.68500 20.93700
H  49.55300 28.28900 21.81700
H  51.80500 30.67100 26.70700
H  50.48200 30.60900 25.40100
H  51.84800 29.58800 25.31000
H  48.83400 29.93300 31.01300
H  50.69900 29.16200 34.57200
H  51.68500 30.47600 34.10300
H  52.19000 28.83500 33.63300
Mg 30.46800 58.19700 41.65500
C  27.61400 56.36700 40.26100
C  32.35100 55.55800 40.56600
C  33.04900 60.17400 41.73400
C  28.23600 60.78300 42.16800
N  30.03400 56.31100 40.39700
C  28.79900 55.69800 40.11500
C  28.99300 54.29100 39.53800
C  30.45500 53.98900 40.10500
C  31.02300 55.36000 40.31600
C  30.42300 53.24400 41.45600
C  28.87300 54.24200 37.96700
C  28.11700 53.02900 37.37800
H  27.13900 53.27500 36.20700
N  32.46100 57.89900 41.31100
C  33.07700 56.74600 40.87700
C  34.51100 56.89000 40.91400
C  34.73900 58.24400 41.20800
C  33.39400 58.88200 41.35900
C  35.41300 55.81000 40.54700
C  36.14400 58.94800 41.23400
O  37.19200 58.31900 41.24500
C  36.20600 60.44200 41.22500
N  30.56600 60.13000 41.89500
C  31.83500 60.73700 42.00800
C  31.69400 62.23500 42.28100
C  30.18400 62.40400 42.66000
C  29.58700 61.00200 42.21300
C  32.70200 62.84400 43.29600
C  29.46500 63.63500 42.04700
C  28.46400 64.44700 42.93300
N  28.32000 58.55400 41.39600
C  27.58000 59.68700 41.62700
C  26.25300 59.48500 41.27500
C  26.17000 58.27800 40.69100
C  27.51300 57.69100 40.87100
C  25.02400 60.40800 41.46100
C  25.34800 57.34900 40.02000
O  24.22600 57.34100 39.59400
C  26.22500 56.11800 39.71500
C  25.68500 54.91400 40.36900
O  26.31300 54.24700 41.21300
O  24.40200 54.63700 40.02300
C  23.84200 53.38200 40.65600
H  33.02600 54.69900 40.57500
H  33.82500 60.93300 41.86000
H  27.60900 61.59400 42.54300
H  28.38000 53.59600 40.11100
H  31.04100 53.32800 39.46600
H  29.41100 53.00200 41.78100
H  30.93000 53.80500 42.24100
H  30.89800 52.27000 41.33300
H  29.88100 54.02400 37.61200
H  28.63000 55.24100 37.60600
H  27.65000 52.51100 38.21500
H  28.80400 52.26400 37.01500
H  35.67600 56.03100 39.51300
H  35.00200 54.80200 40.61100
H  36.33200 55.75600 41.13000
H  37.22000 60.81900 41.09800
H  35.82200 60.73800 42.20100
H  35.59900 60.95700 40.48000
H  31.83700 62.77000 41.34200
H  30.23200 62.41900 43.74900
H  32.33400 63.75200 43.77300
H  33.58200 63.13000 42.71900
H  33.11500 62.16000 44.03700
H  28.79600 63.36900 41.22800
H  30.19300 64.32100 41.61400
H  27.68100 64.77400 42.24800
H  28.98000 65.31500 43.34500
H  28.13100 63.66600 43.61600
H  24.50800 60.21600 42.40200
H  24.30700 60.12900 40.68900
H  25.29500 61.44900 41.28800
H  26.15800 55.95200 38.64000
H  24.65100 52.65400 40.59500
H  23.01500 53.04400 40.03100
H  23.58400 53.59600 41.69300

