158

Mg 17.21700 -2.86700 28.01600
C  16.58700 -0.73900 30.82200
C  18.69100 -4.99300 30.26900
C  18.21500 -4.65500 25.27600
C  16.21100 -0.30300 25.87700
N  17.47300 -2.81200 30.44300
C  17.27800 -1.82000 31.31600
C  17.83500 -2.11500 32.70100
C  18.70100 -3.34000 32.28600
C  18.27200 -3.80300 30.93100
C  20.28000 -3.21800 32.37100
C  16.67700 -2.34400 33.73000
C  16.76000 -1.51100 34.98400
H  18.16600 -1.19600 35.58900
N  18.24500 -4.63000 27.80200
C  18.75100 -5.35000 28.86900
C  19.34300 -6.52300 28.32200
C  19.21900 -6.44600 26.91400
C  18.50800 -5.16700 26.58400
C  19.71600 -7.67400 29.22800
C  19.57200 -7.46000 25.89400
O  19.39400 -7.23600 24.67300
C  20.18100 -8.80800 26.13900
N  16.90000 -2.60000 25.72000
C  17.60100 -3.40000 24.86400
C  17.68500 -2.69600 23.50400
C  16.87500 -1.36900 23.69800
C  16.67500 -1.39700 25.19200
C  19.15300 -2.33400 22.99700
C  15.54200 -1.35800 22.86300
C  14.14700 -1.52900 23.59300
N  16.47500 -0.94500 28.20400
C  15.95800 -0.13500 27.25600
C  15.22300 0.96200 27.95000
C  15.50300 0.74300 29.31000
C  16.27400 -0.38700 29.43200
C  14.36900 1.95800 27.29400
C  15.23900 1.25400 30.60100
O  14.72000 2.31600 30.97500
C  15.97900 0.38700 31.63000
C  16.99100 1.31100 32.24400
O  18.06500 1.57800 31.74200
O  16.46600 1.96100 33.27900
C  17.24200 3.09200 33.86400
H  19.15200 -5.69700 30.96500
H  18.63500 -5.15800 24.40300
H  15.96300 0.53800 25.22700
H  18.52000 -1.32400 33.00500
H  18.36100 -4.22900 32.81700
H  20.75600 -3.62300 31.47800
H  20.62100 -3.75700 33.25500
H  20.61100 -2.19500 32.55100
H  16.67200 -3.40600 33.97400
H  15.80600 -2.06800 33.13700
H  16.10700 -2.04700 35.67300
H  16.25200 -0.58100 34.72800
H  20.80200 -7.75800 29.18000
H  19.28400 -8.62200 28.90600
H  19.50400 -7.47600 30.27800
H  20.48300 -9.31500 25.22200
H  19.34400 -9.24600 26.68300
H  21.12200 -8.82600 26.68900
H  17.17400 -3.35000 22.79700
H  17.37800 -0.45400 23.38600
H  19.10700 -1.73500 22.08800
H  19.72200 -3.25200 22.85000
H  19.65000 -1.72600 23.75300
H  15.59100 -1.93000 21.93600
H  15.49100 -0.29600 22.62600
H  13.44000 -1.70800 22.78300
H  13.91900 -0.57400 24.06600
H  14.06600 -2.33500 24.32200
H  14.33400 1.64900 26.25000
H  14.69500 2.99700 27.35000
H  13.39600 1.84000 27.77100
H  15.31200 0.04400 32.42100
H  17.84800 2.67800 34.67000
H  16.52700 3.70300 34.41500
H  17.74400 3.62200 33.05400
Mg -9.46300 18.13900 42.69700
C  -6.02800 17.29700 42.39500
C  -8.63900 21.43600 42.05900
C  -12.64700 18.64500 42.17000
C  -10.07100 14.54200 43.07400
N  -7.55500 19.14400 42.28600
C  -6.28700 18.67500 42.31300
C  -5.26400 19.82400 42.24900
C  -6.07100 21.08600 42.40000
C  -7.53500 20.58800 42.23300
C  -5.79300 21.95200 43.68400
C  -4.46400 19.70700 40.87700
C  -5.13500 18.99500 39.67400
H  -4.71900 19.42600 38.25200
N  -10.52600 19.85100 42.24500
C  -10.00500 21.13100 42.04100
C  -11.14100 22.00900 41.96300
C  -12.28300 21.23100 41.94800
C  -11.85500 19.80400 42.07900
C  -11.02300 23.48500 41.80300
C  -13.70400 21.82300 41.80500
O  -13.95100 23.05200 41.83600
C  -14.85300 20.89800 41.59800
N  -11.04000 16.79400 42.51200
C  -12.34300 17.35000 42.35900
C  -13.42200 16.25100 42.52600
C  -12.58200 14.91900 42.47000
C  -11.14900 15.43600 42.71000
C  -14.29800 16.47900 43.72400
C  -12.54600 14.11800 41.09900
C  -13.36100 12.78200 41.00800
N  -8.33900 16.28200 42.78900
C  -8.73400 14.93300 42.88700
C  -7.55200 14.17400 42.86800
C  -6.48500 15.02000 42.68100
C  -6.98500 16.29200 42.67400
C  -7.56500 12.74000 42.93400
C  -5.06800 15.02900 42.54500
O  -4.21400 14.13500 42.72800
C  -4.65700 16.60400 42.37000
C  -3.64700 16.95900 43.49300
O  -2.54500 17.41100 43.31400
O  -4.27900 16.85000 44.74600
C  -3.49200 17.30300 45.87000
H  -8.35100 22.48700 41.99900
H  -13.71400 18.85000 42.05900
H  -10.26800 13.48700 43.27300
H  -4.64700 19.63400 43.12800
H  -5.88800 21.77500 41.57600
H  -5.74400 23.00200 43.39800
H  -4.78400 21.64100 43.95300
H  -6.49900 21.68400 44.47000
H  -3.61000 19.08000 41.13600
H  -4.15100 20.72900 40.66300
H  -6.21700 19.08400 39.77000
H  -4.92000 17.92800 39.71600
H  -11.39800 23.86200 40.85100
H  -9.96300 23.73600 41.77500
H  -11.40200 24.15300 42.57700
H  -14.93900 20.27200 42.48700
H  -14.63800 20.41200 40.64700
H  -15.75800 21.49200 41.47400
H  -13.97900 16.39800 41.60100
H  -12.93700 14.25400 43.25800
H  -14.18500 15.66700 44.44300
H  -15.26100 16.40900 43.21900
H  -14.19200 17.39200 44.31000
H  -11.49900 13.81900 41.07900
H  -12.85200 14.65500 40.20100
H  -13.90200 12.83600 40.06300
H  -14.11700 12.68500 41.78700
H  -12.74900 11.89100 40.87600
H  -6.60000 12.34200 42.61800
H  -8.38700 12.44300 42.28400
H  -7.83700 12.47900 43.95600
H  -4.21200 16.56500 41.37600
H  -3.66500 16.66000 46.73300
H  -3.80900 18.33400 46.02800
H  -2.44000 17.16100 45.62300

