158

Mg 52.80000 24.05400 43.82800
C  49.85500 25.80800 43.64200
C  51.08100 21.07400 43.16300
C  55.75600 22.56900 43.27600
C  54.43300 27.15700 44.42000
N  50.78100 23.58700 43.27200
C  49.78000 24.45500 43.35700
C  48.45400 23.70200 43.15900
C  48.80400 22.19100 43.35900
C  50.32400 22.21600 43.24000
C  48.26100 21.54700 44.64800
C  47.78300 23.94800 41.70300
C  48.66300 23.78400 40.50000
H  47.93300 23.41400 39.28400
N  53.37900 22.09400 43.30200
C  52.51500 20.95700 43.24700
C  53.33900 19.73600 43.22400
C  54.71400 20.17900 43.17600
C  54.63900 21.67000 43.24000
C  52.78900 18.37500 43.11400
C  55.87700 19.13100 43.14700
O  55.65300 17.92400 43.08000
C  57.27600 19.61200 43.22000
N  54.80400 24.84000 43.73400
C  55.83200 23.98700 43.56600
C  57.15600 24.73400 43.70500
C  56.75400 26.07700 44.33000
C  55.23800 26.05400 44.13600
C  58.27500 23.88100 44.52100
C  57.45900 27.25700 43.56200
C  58.03700 28.30400 44.51200
N  52.28900 26.14100 44.07100
C  53.05800 27.25800 44.34900
C  52.17200 28.32400 44.63300
C  50.88200 27.77200 44.31000
C  51.03900 26.52400 43.92700
C  52.53100 29.73500 45.14300
C  49.44600 28.08400 44.26700
O  48.76600 29.11400 44.50500
C  48.77100 26.87100 43.73200
C  48.12700 27.21100 42.43900
O  48.79700 27.24600 41.41500
O  46.79500 27.42100 42.55900
C  46.04300 27.98700 41.40300
H  50.59500 20.10100 43.06200
H  56.74400 22.10500 43.23700
H  55.03800 28.00000 44.76200
H  47.79700 23.99500 43.97800
H  48.44300 21.61600 42.50600
H  48.04800 20.50100 44.42500
H  47.27700 21.91700 44.93500
H  48.95300 21.52000 45.49000
H  47.29200 24.91800 41.63500
H  46.92400 23.28700 41.58500
H  49.34200 22.96200 40.72700
H  49.21700 24.71600 40.38900
H  53.26300 17.88100 43.96300
H  53.06200 17.81600 42.21900
H  51.72500 18.36600 43.35100
H  57.52300 20.18100 42.32400
H  57.87100 18.69900 43.20100
H  57.50900 20.24500 44.07600
H  57.60900 24.92900 42.73300
H  57.09500 26.10600 45.36500
H  59.09300 23.45500 43.93900
H  57.78600 23.01100 44.95700
H  58.71000 24.48700 45.31600
H  56.76000 27.82900 42.95000
H  58.38500 26.88400 43.12600
H  58.69800 27.79900 45.21700
H  57.24400 28.85900 45.01200
H  58.64200 28.94600 43.87100
H  52.29800 30.54000 44.44500
H  53.62100 29.73100 45.17700
H  52.06600 29.88600 46.11800
H  48.02800 26.43700 44.40100
H  46.72500 28.11500 40.56300
H  45.60100 28.94900 41.66000
H  45.26600 27.38800 40.92800
Mg 29.67000 59.69600 41.17200
C  26.71800 57.96200 40.30500
C  31.32100 56.90500 39.84600
C  32.43900 61.56100 40.81400
C  27.78100 62.50900 41.86900
N  29.05000 57.72100 40.11400
C  27.80000 57.16400 39.96000
C  27.81100 55.84000 39.16700
C  29.28700 55.45400 39.34800
C  29.96400 56.77500 39.76600
C  29.49500 54.35700 40.44200
C  27.36700 56.16600 37.68700
C  26.34400 55.13100 36.99300
H  26.75400 54.52100 35.61800
N  31.63500 59.26000 40.54000
C  32.12000 58.05600 40.11700
C  33.53400 58.23300 39.95400
C  33.92200 59.52800 40.31800
C  32.62900 60.20300 40.61100
C  34.34500 57.19400 39.38500
C  35.36400 60.07700 40.22800
O  36.35700 59.36500 39.89600
C  35.66000 61.54400 40.40700
N  30.03300 61.71900 41.12600
C  31.30500 62.23500 41.13800
C  31.32000 63.76100 41.31700
C  29.84100 64.01500 41.77800
C  29.16200 62.64600 41.67500
C  32.46400 64.35300 42.18100
C  29.05000 65.05100 40.96500
C  28.40100 66.08000 41.84000
N  27.68600 60.17600 41.20400
C  27.00500 61.36300 41.51600
C  25.58700 61.11900 41.47000
C  25.46300 59.83600 41.01300
C  26.73700 59.27500 40.84000
C  24.60900 62.12400 41.77700
C  24.48100 58.86200 40.56700
O  23.26700 58.89200 40.52300
C  25.26700 57.68800 39.98400
C  24.89600 56.33500 40.52800
O  25.14800 55.82100 41.63200
O  24.06700 55.82200 39.64400
C  23.25500 54.68000 40.13200
H  31.77400 55.94200 39.60500
H  33.25000 62.28100 40.68800
H  27.12800 63.31800 42.20200
H  27.10700 55.11400 39.57600
H  29.82800 55.22600 38.42900
H  29.87000 54.89800 41.31000
H  30.36900 53.79000 40.12200
H  28.61800 53.74800 40.66300
H  28.27100 56.21500 37.08100
H  27.00300 57.19200 37.62700
H  25.35600 55.56700 36.84500
H  26.26400 54.33300 37.73100
H  33.81100 56.66200 38.59800
H  34.73800 56.49800 40.12700
H  35.34000 57.49600 39.05800
H  35.24500 62.33500 39.78300
H  36.73500 61.65600 40.26600
H  35.48200 61.67600 41.47400
H  31.43500 64.07400 40.27900
H  29.77500 64.25800 42.83800
H  33.16300 64.78400 41.46500
H  32.89400 63.55400 42.78500
H  32.12900 65.02400 42.97300
H  28.23100 64.50500 40.49700
H  29.68000 65.66300 40.32000
H  27.32300 65.94300 41.76000
H  28.70400 67.09400 41.58000
H  28.67200 65.93000 42.88500
H  24.66800 62.56700 42.77100
H  23.62100 61.68700 41.63200
H  24.88800 62.78500 40.95600
H  25.17500 57.55100 38.90600
H  22.50700 55.03400 40.84200
H  23.86100 53.94200 40.65700
H  22.71700 54.17200 39.33100

