158

Mg 47.38000 44.79900 43.67100
C  43.84700 45.13500 43.17700
C  47.30700 41.69300 42.28700
C  50.82500 44.62300 43.83100
C  47.53800 48.22700 44.54300
N  45.76200 43.59700 42.71200
C  44.36900 43.89500 42.72900
C  43.60800 42.84600 41.93200
C  44.74200 41.70500 41.80400
C  46.03700 42.36000 42.31900
C  44.32300 40.41300 42.59000
C  43.21200 43.54800 40.58600
C  42.04500 43.04900 39.70100
H  42.33600 41.99100 38.62400
N  48.86500 43.30500 43.28500
C  48.60000 42.13200 42.71800
C  49.79400 41.34400 42.60500
C  50.84900 42.13600 43.20600
C  50.18700 43.44600 43.48200
C  49.81100 39.88000 42.03800
C  52.25700 41.66600 43.48700
O  52.56400 40.51700 43.18400
C  53.20500 42.50000 44.23600
N  48.98500 46.20900 44.06900
C  50.30100 45.91600 44.09700
C  51.17100 47.14400 44.42100
C  50.11700 48.25200 44.76100
C  48.76200 47.54400 44.44500
C  52.20700 46.92400 45.50800
C  50.27900 49.53000 43.96700
C  50.47700 50.87400 44.70400
N  45.99800 46.43300 43.91200
C  46.19700 47.74300 44.22300
C  44.89100 48.40100 44.32000
C  43.98500 47.45000 43.92100
C  44.66200 46.24000 43.65100
C  44.63300 49.90000 44.49100
C  42.55100 47.16300 43.68900
O  41.62900 47.98400 43.83100
C  42.43000 45.69600 43.18900
C  41.44500 44.94400 44.09200
O  40.31200 44.62200 43.75500
O  42.05700 44.68400 45.27800
C  41.20100 44.01500 46.25300
H  47.19700 40.77800 41.70100
H  51.91100 44.50400 43.82400
H  47.50100 49.20600 45.02500
H  42.72000 42.49500 42.45700
H  44.85000 41.31300 40.79200
H  43.80000 39.79500 41.85900
H  43.58300 40.66400 43.35000
H  45.18700 39.87100 42.97300
H  44.02900 43.40000 39.88000
H  43.19700 44.62800 40.73100
H  41.69800 43.99300 39.28100
H  41.30100 42.65600 40.39400
H  50.72900 39.48400 41.60300
H  48.99000 39.64100 41.36200
H  49.69100 39.20700 42.88700
H  53.67800 43.30500 43.67500
H  53.99500 41.80200 44.51200
H  52.77700 42.82000 45.18600
H  51.66100 47.47600 43.50500
H  50.01500 48.42800 45.83200
H  51.80400 46.16400 46.17700
H  52.32700 47.85300 46.06600
H  53.20400 46.66300 45.15400
H  49.30900 49.66500 43.49000
H  50.98700 49.46100 43.14100
H  49.72400 51.58200 44.35800
H  51.47800 51.27100 44.53400
H  50.40400 50.68100 45.77400
H  44.15300 50.27800 43.58800
H  45.56600 50.45800 44.57500
H  44.10300 50.11900 45.41700
H  41.87200 45.71300 42.25300
H  41.40600 44.48800 47.21400
H  41.54700 42.99500 46.42100
H  40.12600 43.97700 46.07500
Mg -8.56100 40.71900 43.11800
C  -7.54300 37.43500 42.40500
C  -5.53700 41.68100 41.46300
C  -9.67500 43.82500 43.05700
C  -11.53100 39.53300 44.34600
N  -6.73300 39.65000 42.17100
C  -6.56600 38.29600 42.00700
C  -5.39200 37.91000 41.12200
C  -4.54700 39.15000 41.12800
C  -5.64200 40.30700 41.56200
C  -3.43200 39.21000 42.14800
C  -5.67600 37.45900 39.64600
C  -4.85500 36.24200 39.13000
H  -3.84900 36.52100 37.95100
N  -7.71200 42.51000 42.39600
C  -6.47800 42.68000 41.80100
C  -6.35000 44.06200 41.48000
C  -7.44300 44.78300 42.05000
C  -8.34000 43.70400 42.56100
C  -5.10300 44.62900 40.82400
C  -7.60300 46.29600 42.16700
O  -6.82600 47.01900 41.56600
C  -8.82400 46.92200 43.00100
N  -10.40400 41.51700 43.52300
C  -10.59000 42.83800 43.47000
C  -11.96700 43.24000 44.05300
C  -12.49800 41.92300 44.62300
C  -11.42500 40.90300 44.12900
C  -11.96600 44.30900 45.24700
C  -13.92800 41.61800 44.16800
C  -14.69700 41.01500 45.31400
N  -9.47300 38.79700 43.32900
C  -10.66800 38.48300 43.94700
C  -10.74100 37.02700 43.99400
C  -9.52000 36.53300 43.38700
C  -8.79700 37.68800 43.05200
C  -11.80000 36.17400 44.52000
C  -8.76100 35.38300 42.94100
O  -9.03800 34.19200 43.05600
C  -7.49600 35.96000 42.22500
C  -6.24400 35.25100 42.60800
O  -5.53400 35.36100 43.64200
O  -6.06000 34.23000 41.70000
C  -4.93000 33.38200 42.11800
H  -4.55200 41.87400 41.03200
H  -10.17300 44.78800 43.19100
H  -12.48800 39.23500 44.78000
H  -4.87700 37.09700 41.63400
H  -4.03600 39.39100 40.19600
H  -3.76300 39.93500 42.89200
H  -2.47700 39.47600 41.69600
H  -3.32800 38.24400 42.64200
H  -5.49200 38.27000 38.94100
H  -6.71700 37.14700 39.56800
H  -5.57100 35.42300 39.05800
H  -4.30400 36.03400 40.04700
H  -5.45000 45.44400 40.18800
H  -4.63600 43.90400 40.15700
H  -4.35800 45.02200 41.51500
H  -8.44500 47.93100 43.16200
H  -8.98100 46.42300 43.95800
H  -9.74400 47.00500 42.42300
H  -12.49800 43.74900 43.24700
H  -12.32000 41.83800 45.69500
H  -11.90500 45.31800 44.83900
H  -11.17700 44.14200 45.98100
H  -12.80900 44.14500 45.91800
H  -13.91400 40.83500 43.41100
H  -14.40800 42.51400 43.77400
H  -14.31100 41.31800 46.28800
H  -14.60500 39.92900 45.29800
H  -15.75100 41.28600 45.26800
H  -12.61900 35.98100 43.82600
H  -12.29000 36.71900 45.32700
H  -11.37300 35.22900 44.85200
H  -7.71400 35.80600 41.16800
H  -4.61100 32.60700 41.42200
H  -5.11500 32.86300 43.05900
H  -4.02900 33.98600 42.22300

