158

Mg 26.18200 -0.90500 29.00500
C  28.29700 -1.13900 31.78900
C  23.55500 -0.37400 31.00900
C  24.16400 -1.25200 26.30500
C  29.01700 -1.55000 27.05100
N  26.04400 -0.80800 31.11800
C  26.96000 -0.81900 32.13200
C  26.47700 -0.34000 33.47600
C  24.95900 -0.24200 33.15100
C  24.77100 -0.52600 31.67200
C  24.06600 -0.99700 34.19700
C  27.17600 0.93200 34.09400
C  27.91800 0.84400 35.42600
H  27.66200 1.77200 36.58700
N  24.20900 -0.80900 28.67100
C  23.25500 -0.57700 29.64700
C  21.94500 -0.66700 29.09700
C  22.07600 -0.90400 27.67700
C  23.50000 -0.99700 27.46900
C  20.67800 -0.61100 29.98000
C  20.89000 -1.00800 26.60300
O  21.06400 -1.31500 25.41700
C  19.39200 -0.90400 27.02600
N  26.54700 -1.53800 26.98000
C  25.53300 -1.52700 26.09800
C  26.14000 -1.40500 24.70800
C  27.70900 -1.41300 24.88900
C  27.79100 -1.43300 26.37600
C  25.65600 -2.50900 23.72500
C  28.49400 -0.22100 24.19700
C  28.68200 1.09200 24.92300
N  28.16700 -1.45500 29.31800
C  29.19000 -1.63300 28.43300
C  30.37700 -1.95500 29.13600
C  30.10400 -1.75500 30.48800
C  28.69000 -1.43900 30.48900
C  31.69700 -2.34500 28.51700
C  30.66300 -1.72800 31.80600
O  31.82000 -1.84200 32.21600
C  29.49400 -1.25900 32.68000
C  29.46500 -2.09200 33.96700
O  28.87400 -3.13900 34.13800
O  30.33400 -1.50100 34.84000
C  30.41500 -2.04900 36.16200
H  22.75000 -0.16800 31.71800
H  23.62700 -1.25300 25.35400
H  29.97200 -1.48600 26.52700
H  26.68700 -1.11000 34.22000
H  24.69100 0.78800 33.38500
H  23.47700 -1.70000 33.60800
H  23.38100 -0.16400 34.35500
H  24.53800 -1.37200 35.10500
H  26.50400 1.77800 34.23600
H  27.95700 1.33900 33.45100
H  28.99000 0.97200 35.27900
H  27.90700 -0.16200 35.84500
H  19.99500 0.18500 29.68000
H  20.84700 -0.49900 31.05100
H  20.20800 -1.58700 29.86400
H  19.15800 -1.69700 27.73600
H  18.77600 -0.99200 26.13100
H  19.17500 0.03100 27.54300
H  25.83900 -0.49600 24.18700
H  28.13000 -2.39900 24.69500
H  25.74100 -3.37900 24.37600
H  26.36800 -2.67300 22.91600
H  24.67000 -2.36800 23.28000
H  27.94000 -0.01500 23.28100
H  29.46500 -0.60900 23.88700
H  28.09000 1.29100 25.81600
H  28.34200 1.80400 24.17100
H  29.75800 1.20300 25.06000
H  32.24900 -1.57200 27.98100
H  31.59900 -3.23500 27.89600
H  32.28600 -2.72800 29.35000
H  29.72200 -0.24400 33.00600
H  30.64600 -3.11000 36.06900
H  29.50200 -1.76400 36.68500
H  31.28000 -1.62100 36.66800
Mg -0.45600 44.03000 26.59100
C  1.83400 43.69500 29.17600
C  -2.98200 43.10900 28.87400
C  -2.68700 44.22700 24.07700
C  2.29400 44.51700 24.38800
N  -0.53500 43.39500 28.70000
C  0.47200 43.63500 29.61700
C  0.05900 43.47600 31.04400
C  -1.46200 43.08200 30.90900
C  -1.69700 43.27300 29.41100
C  -1.87100 41.74600 31.49300
C  0.33600 44.77300 31.90000
C  0.45100 44.57700 33.43600
H  -0.12800 43.33100 34.08200
N  -2.60200 43.70200 26.50400
C  -3.40900 43.29600 27.54500
C  -4.77200 43.13400 27.01200
C  -4.71300 43.57800 25.63200
C  -3.28000 43.88400 25.35900
C  -5.88900 42.69200 27.88100
C  -5.83300 43.57700 24.62600
O  -5.78900 43.98400 23.48900
C  -7.12000 42.85000 24.91900
N  -0.21100 44.32700 24.56600
C  -1.31600 44.41800 23.74100
C  -0.93400 44.77500 22.30100
C  0.64300 45.07200 22.51400
C  0.97900 44.65100 23.89400
C  -1.35400 43.74800 21.19700
C  1.03100 46.57200 22.39500
C  1.12600 47.22100 20.96000
N  1.64400 43.98800 26.71400
C  2.59900 44.19800 25.73400
C  3.90200 44.09300 26.36500
C  3.66100 43.87300 27.72300
C  2.28100 43.82100 27.86700
C  5.17900 44.44400 25.74500
C  4.27000 43.77100 29.00300
O  5.43500 43.85000 29.35500
C  3.14800 43.61300 29.99700
C  3.30600 42.30100 30.54400
O  3.27700 41.22700 29.95900
O  3.40900 42.40900 31.95700
C  3.41200 41.07400 32.54600
H  -3.71500 42.88300 29.65100
H  -3.35600 44.37300 23.22600
H  3.13400 44.68100 23.70900
H  0.46500 42.52500 31.39000
H  -1.98100 43.89500 31.41700
H  -2.37800 41.10500 30.77200
H  -2.54000 42.00300 32.31500
H  -1.01700 41.16400 31.84000
H  -0.49800 45.43300 31.66200
H  1.32300 45.08400 31.55900
H  0.06200 45.44100 33.97400
H  1.47600 44.58600 33.80800
H  -5.53800 42.25800 28.81700
H  -6.57600 41.98400 27.41700
H  -6.48400 43.57300 28.12200
H  -7.60200 43.43900 25.70000
H  -6.82700 41.87400 25.30600
H  -7.70700 42.76100 24.00500
H  -1.45000 45.70400 22.05800
H  1.23600 44.52000 21.78400
H  -0.46000 43.31900 20.74500
H  -2.03600 44.24400 20.50600
H  -1.88300 42.90100 21.63300
H  2.03400 46.76300 22.77700
H  0.31000 47.15800 22.96500
H  0.85400 46.49100 20.19700
H  2.17000 47.49000 20.79600
H  0.48400 48.10000 21.01400
H  5.50100 45.37700 26.20800
H  5.13400 44.61300 24.67000
H  5.86800 43.61800 25.92900
H  3.18800 44.32800 30.81900
H  4.41300 40.80300 32.21000
H  2.62400 40.43200 32.15300
H  3.22700 41.24500 33.60700

