158

Mg -1.92700 16.58300 26.36600
C  -2.18300 14.52500 29.19900
C  -2.31900 19.35000 28.30400
C  -1.81800 18.28400 23.50400
C  -1.82600 13.59700 24.45200
N  -2.17400 16.88400 28.55700
C  -2.27800 15.89400 29.51700
C  -2.69700 16.55600 30.84900
C  -2.46700 18.09400 30.63400
C  -2.30500 18.12000 29.07700
C  -3.67600 19.06300 31.11100
C  -2.17800 15.89400 32.08500
C  -1.93200 16.82700 33.25700
H  -1.45900 16.08700 34.42800
N  -1.91600 18.53000 26.00900
C  -2.16800 19.52500 26.90400
C  -2.20400 20.85700 26.22900
C  -2.02500 20.55300 24.79200
C  -1.93400 19.06200 24.70000
C  -2.48200 22.18700 26.96600
C  -2.03300 21.50500 23.60800
O  -1.84500 21.10100 22.47400
C  -2.32200 22.94900 23.75300
N  -1.99300 16.01400 24.24300
C  -1.89700 16.94600 23.22600
C  -2.02600 16.31200 21.84500
C  -1.84000 14.80600 22.10700
C  -1.88200 14.78900 23.69100
C  -3.24500 16.68200 20.92000
C  -0.50600 14.26400 21.52700
C  0.74100 14.82600 22.24000
N  -2.13000 14.51100 26.67000
C  -1.97700 13.41000 25.77200
C  -2.03600 12.16600 26.51500
C  -2.10800 12.54100 27.83100
C  -2.10200 13.97000 27.91100
C  -1.98300 10.81000 25.97100
C  -2.25500 11.99900 29.15600
O  -2.36300 10.82800 29.54600
C  -2.34000 13.27400 30.06700
C  -1.22600 13.11100 31.11900
O  -0.10800 13.58300 30.87100
O  -1.58100 12.51700 32.26900
C  -0.56900 12.44000 33.36200
H  -2.33800 20.28600 28.86500
H  -1.86900 18.76200 22.52400
H  -1.62300 12.74200 23.80400
H  -3.75900 16.31200 30.83600
H  -1.58200 18.51100 31.11400
H  -4.30800 19.42200 30.30000
H  -3.37600 19.90700 31.73200
H  -4.28600 18.37400 31.69500
H  -1.16500 15.70200 31.73000
H  -2.67000 14.99500 32.45500
H  -2.87600 17.33300 33.46100
H  -1.15000 17.55500 33.04100
H  -3.35000 22.76100 26.64100
H  -1.70200 22.94300 26.86800
H  -2.63700 22.03200 28.03400
H  -2.36300 23.54100 22.83900
H  -1.65700 23.31800 24.53400
H  -3.35000 22.99200 24.11400
H  -1.20300 16.71200 21.25300
H  -2.68900 14.24000 21.72100
H  -4.12400 16.87200 21.53600
H  -3.39600 15.94700 20.12900
H  -3.19000 17.61600 20.36200
H  -0.42600 14.57900 20.48700
H  -0.50400 13.17400 21.52700
H  1.30700 15.37700 21.48900
H  1.29000 14.00000 22.69200
H  0.57200 15.57500 23.01400
H  -1.24500 10.27500 26.56900
H  -1.74200 10.76800 24.90900
H  -2.96200 10.36300 26.14500
H  -3.31100 13.29100 30.56300
H  -1.02900 12.70900 34.31300
H  0.30400 13.02000 33.06500
H  -0.27100 11.39400 33.43000
Mg 26.19500 -7.90500 47.73200
C  27.81700 -5.15600 46.41900
C  23.41900 -7.17200 45.74900
C  24.77100 -10.91000 48.73100
C  29.18900 -8.96900 49.15500
N  25.79600 -6.46500 45.91300
C  26.54200 -5.32800 45.74700
C  25.80500 -4.28000 44.95000
C  24.28300 -4.78300 45.10700
C  24.47200 -6.25100 45.65300
C  23.42800 -3.95200 46.11600
C  26.41600 -4.14400 43.45300
C  26.85100 -2.71700 43.04500
H  26.81200 -2.26500 41.59400
N  24.34300 -8.83900 47.35500
C  23.33600 -8.39200 46.51800
C  22.14100 -9.23600 46.69900
C  22.47200 -10.28400 47.57700
C  23.94000 -10.09700 47.92200
C  20.84000 -9.01400 45.82300
C  21.57100 -11.40900 47.98600
O  20.38700 -11.46800 47.67200
C  22.00900 -12.47800 48.89900
N  26.90800 -9.75100 48.67700
C  26.10800 -10.78100 49.07800
C  26.84800 -11.89300 49.96800
C  28.31000 -11.33800 49.89500
C  28.11300 -9.92700 49.24200
C  26.15600 -12.05400 51.43800
C  29.33800 -12.22600 49.13000
C  30.76700 -12.34500 49.74300
N  28.06900 -7.19100 47.86600
C  29.18800 -7.76700 48.40600
C  30.24200 -6.72400 48.53200
C  29.70000 -5.66500 47.83800
C  28.41100 -6.06300 47.24600
C  31.64500 -6.91200 49.14200
C  29.92800 -4.30800 47.35800
O  30.88600 -3.56200 47.51200
C  28.79100 -4.00200 46.31900
C  28.16900 -2.78800 46.91300
O  27.54600 -2.61800 47.97200
O  28.64100 -1.68800 46.24700
C  28.00000 -0.40900 46.36200
H  22.45200 -6.79200 45.41200
H  24.36000 -11.86800 49.05600
H  30.01100 -9.24000 49.82100
H  25.88900 -3.34000 45.49600
H  23.75500 -4.69800 44.15800
H  23.60600 -4.24600 47.15000
H  22.38400 -4.15100 45.87500
H  23.70000 -2.90700 45.96100
H  25.58700 -4.35500 42.77700
H  27.23700 -4.82200 43.22000
H  27.78900 -2.42800 43.51900
H  26.13200 -2.01500 43.46600
H  21.00600 -9.43600 44.83200
H  20.67400 -7.93800 45.86200
H  20.06900 -9.66100 46.24100
H  22.81100 -13.14100 48.57700
H  21.18700 -13.11300 49.23100
H  22.19600 -11.94800 49.83300
H  26.79600 -12.88100 49.51100
H  28.69700 -11.12200 50.89100
H  25.12000 -11.73200 51.33600
H  26.67900 -11.34300 52.07800
H  26.28300 -13.07700 51.79100
H  29.59900 -11.82500 48.15000
H  28.98100 -13.25000 49.02100
H  30.93700 -11.66200 50.57500
H  31.44000 -12.14900 48.90900
H  30.78300 -13.41500 49.95200
H  31.48200 -7.38600 50.11000
H  32.07800 -5.91200 49.11200
H  32.13500 -7.68800 48.55400
H  29.01800 -3.71200 45.29300
H  28.60900 0.23100 47.00000
H  26.99000 -0.46400 46.76800
H  27.96900 0.23400 45.48200

