158

Mg 35.74600 1.28300 29.70700
C  33.41500 2.51100 32.03800
C  38.18800 1.44400 32.24200
C  38.07800 0.76600 27.44300
C  33.35000 1.53300 27.25500
N  35.80900 1.84600 31.77900
C  34.70200 2.23700 32.59500
C  35.12100 2.44800 34.07900
C  36.67800 2.26400 34.07000
C  36.91000 1.82900 32.55600
C  37.41000 3.56300 34.35700
C  34.30300 1.46300 35.00400
C  33.75600 1.97700 36.32000
H  34.47100 3.16200 36.99000
N  37.75200 1.04700 29.82400
C  38.58100 1.02400 30.94900
C  39.96600 0.62000 30.59500
C  39.94300 0.42900 29.18200
C  38.54600 0.76800 28.75600
C  41.03700 0.21700 31.58900
C  41.06500 -0.03700 28.28000
O  40.94900 0.07300 27.05300
C  42.43500 -0.46700 28.82200
N  35.73100 1.28200 27.58600
C  36.77300 0.95500 26.88500
C  36.51800 0.84500 25.37400
C  34.94900 0.93700 25.37500
C  34.65900 1.24800 26.80500
C  37.32100 1.99700 24.61900
C  34.27200 -0.35600 24.85200
C  33.34500 -0.20500 23.70300
N  33.81800 1.85400 29.55900
C  32.89100 1.82100 28.55000
C  31.58100 2.27300 29.02200
C  31.73400 2.55400 30.41200
C  33.07400 2.24800 30.68000
C  30.31100 2.37300 28.22300
C  31.07700 3.07200 31.61100
O  29.91000 3.44200 31.83400
C  32.16200 3.04300 32.74200
C  32.15400 4.40500 33.32500
O  32.93500 5.28800 33.07700
O  31.18600 4.41100 34.30700
C  31.33000 5.32200 35.42200
H  38.95200 1.58100 33.01000
H  38.77800 0.64400 26.61300
H  32.62500 1.55900 26.43800
H  34.73500 3.45200 34.25800
H  37.08300 1.55900 34.79600
H  36.66700 4.26800 34.72800
H  37.98800 3.93800 33.51100
H  38.11100 3.26700 35.13800
H  34.88000 0.56900 35.24300
H  33.48400 1.09200 34.38800
H  33.58400 1.22400 37.08900
H  32.77400 2.36800 36.05300
H  41.45400 -0.75900 31.33800
H  40.64700 0.04400 32.59200
H  41.87200 0.90800 31.71000
H  42.77000 0.32900 29.48600
H  43.15900 -0.54500 28.01000
H  42.28900 -1.48400 29.18600
H  36.78800 -0.14700 25.01300
H  34.51900 1.71100 24.73900
H  36.59400 2.77200 24.37600
H  37.96600 1.61700 23.82600
H  37.97600 2.44300 25.36700
H  33.58600 -0.74200 25.60600
H  35.01300 -1.12100 24.62100
H  33.45800 -1.15300 23.17700
H  33.58400 0.59000 22.99700
H  32.30100 -0.31700 23.99600
H  29.71200 3.14400 28.70800
H  29.72300 1.46100 28.32800
H  30.50800 2.66300 27.19100
H  31.91100 2.35500 33.54900
H  30.43100 5.93600 35.37300
H  32.23800 5.90100 35.25400
H  31.43900 4.77200 36.35600
Mg 35.60500 49.45200 25.48000
C  35.56400 47.46000 28.33700
C  34.34700 52.07000 27.24200
C  35.32100 51.05300 22.54300
C  36.61200 46.65600 23.66500
N  35.05500 49.68000 27.53000
C  35.22400 48.81900 28.58800
C  34.79700 49.39700 29.91300
C  34.42100 50.90700 29.49500
C  34.59900 50.90900 27.94400
C  32.97900 51.36800 29.98800
C  36.00800 49.37600 30.95200
C  35.68800 48.92100 32.37100
H  34.24400 49.12300 32.85800
N  35.04700 51.34800 24.96400
C  34.57500 52.29800 25.86200
C  34.22200 53.49900 25.13400
C  34.53100 53.21800 23.74500
C  35.00400 51.83800 23.69900
C  33.49000 54.70600 25.87900
C  34.34600 54.17300 22.59800
O  34.50800 53.81000 21.50000
C  34.22900 55.64000 22.81900
N  35.85000 48.92100 23.42900
C  35.66400 49.73100 22.38200
C  36.13000 49.10900 20.96000
C  36.69900 47.77000 21.36600
C  36.41500 47.80500 22.93900
C  34.93500 49.06500 19.94100
C  38.24700 47.50900 20.99700
C  38.60500 46.25000 20.28700
N  35.93200 47.42800 25.86500
C  36.37900 46.46500 25.05300
C  36.52000 45.18400 25.81100
C  36.30300 45.55400 27.12100
C  35.90000 46.94200 27.10700
C  37.01500 43.84000 25.22500
C  36.29000 45.13100 28.48400
O  36.59300 44.03800 28.90800
C  35.70400 46.28400 29.34400
C  34.41600 45.91300 29.99800
O  33.30900 45.98800 29.53400
O  34.66600 45.46700 31.30500
C  33.46200 45.02700 32.08100
H  33.95600 52.85900 27.88900
H  35.44400 51.48600 21.54800
H  36.89700 45.72900 23.16200
H  33.90700 48.85600 30.23600
H  35.17300 51.61800 29.83800
H  32.17200 51.55400 29.27900
H  32.98600 52.16400 30.73200
H  32.59500 50.53100 30.57100
H  36.20000 50.43500 31.12600
H  36.92300 48.89800 30.60200
H  36.49000 49.45800 32.87900
H  36.08700 47.90700 32.35400
H  33.80600 55.67000 25.48000
H  33.68500 54.67700 26.95100
H  32.41800 54.56200 25.73900
H  33.27300 56.06600 23.12200
H  34.48400 56.15900 21.89600
H  35.00300 56.00100 23.49700
H  36.85100 49.87200 20.66600
H  35.97300 47.02700 21.03700
H  35.36100 49.47300 19.02400
H  34.07000 49.64700 20.25900
H  34.62200 48.04100 19.74200
H  38.96400 47.82400 21.75500
H  38.38100 48.14800 20.12500
H  39.30800 45.70000 20.91300
H  39.01100 46.39300 19.28600
H  37.70800 45.63100 20.26200
H  37.52900 43.29900 26.01900
H  37.62600 44.00200 24.33800
H  36.18700 43.27900 24.79100
H  36.40400 46.42000 30.16700
H  33.81300 44.47100 32.95000
H  32.80400 44.39900 31.48000
H  32.92100 45.80800 32.61400

