158

Mg 17.27800 -2.25200 28.28700
C  16.20300 -0.20800 30.83800
C  19.20000 -3.99100 30.40500
C  18.80000 -3.62800 25.64600
C  15.41800 -0.17100 26.00200
N  17.62400 -2.02700 30.37800
C  17.08500 -1.18200 31.25300
C  17.58100 -1.39400 32.71600
C  18.58300 -2.61000 32.47500
C  18.48700 -2.92700 30.98800
C  20.05300 -2.37100 32.90900
C  16.48800 -1.72600 33.76900
C  16.49200 -0.96800 35.07000
H  17.77300 -0.29000 35.60400
N  18.85300 -3.65800 28.09700
C  19.38000 -4.32500 29.09900
C  20.29300 -5.25200 28.58900
C  20.19500 -5.24400 27.18300
C  19.25000 -4.13100 26.86000
C  21.14800 -6.25600 29.40500
C  20.79100 -6.10100 26.07100
O  20.73000 -5.76300 24.88500
C  21.61800 -7.33300 26.44900
N  17.07000 -2.07300 26.13300
C  17.92900 -2.65100 25.26900
C  17.92600 -2.02400 23.84900
C  16.68000 -1.08900 23.98700
C  16.32500 -1.04200 25.49600
C  19.18500 -1.19000 23.33500
C  15.45600 -1.30900 23.00200
C  15.64400 -0.35700 21.75400
N  16.00100 -0.62200 28.37300
C  15.21400 0.02100 27.36000
C  14.48800 1.13100 28.03000
C  14.79500 1.09200 29.41200
C  15.75800 0.03300 29.52500
C  13.55500 1.99700 27.34600
C  14.52900 1.63500 30.76400
O  13.73700 2.51800 31.13100
C  15.52000 0.85800 31.65400
C  16.52400 1.85200 32.14700
O  17.52500 2.17700 31.53800
O  15.99200 2.51800 33.23700
C  16.83100 3.63200 33.63200
H  19.82700 -4.46400 31.16400
H  19.31900 -3.94800 24.74000
H  14.87000 0.42700 25.27000
H  18.11200 -0.50400 33.05200
H  18.19600 -3.50400 32.96400
H  20.65100 -2.30000 32.00100
H  20.25700 -3.20800 33.57800
H  20.18800 -1.51600 33.57100
H  16.48800 -2.79800 33.96600
H  15.49700 -1.59900 33.33400
H  16.18800 -1.53700 35.94900
H  15.78100 -0.15700 34.91000
H  20.69200 -7.19600 29.09400
H  21.03700 -6.14900 30.48400
H  22.18900 -6.23000 29.08300
H  21.05500 -7.93100 27.16500
H  22.44400 -6.89800 27.01100
H  22.07300 -7.82700 25.59000
H  17.65300 -2.88800 23.24300
H  16.95900 -0.07500 23.69900
H  18.96800 -0.18900 22.96300
H  19.55300 -1.69400 22.44100
H  19.92500 -1.22700 24.13400
H  14.51100 -0.99700 23.44600
H  15.32700 -2.33500 22.65700
H  16.54800 0.24800 21.81500
H  14.83100 0.36500 21.67600
H  15.60800 -1.03000 20.89800
H  12.53300 1.71700 27.60300
H  13.53600 1.86100 26.26500
H  13.79400 3.04700 27.51200
H  14.95300 0.41300 32.47200
H  16.62700 4.52500 33.04100
H  17.90000 3.47300 33.77600
H  16.28700 3.77300 34.56500
Mg 43.79400 4.15000 48.47100
C  41.48600 6.79400 47.85200
C  41.02700 1.86900 48.11900
C  45.95600 1.59000 48.35800
C  46.33700 6.47800 48.06100
N  41.62300 4.30300 48.08500
C  40.93500 5.51500 47.81700
C  39.56200 5.27500 47.35900
C  39.28900 3.72900 47.66000
C  40.70300 3.24900 48.03200
C  38.14500 3.43900 48.77000
C  39.35800 5.52100 45.85200
C  38.08700 6.30600 45.40100
H  37.80500 6.57600 43.80700
N  43.48500 1.93000 48.37100
C  42.33100 1.24500 48.25700
C  42.62000 -0.18500 48.23100
C  44.02800 -0.28200 48.25800
C  44.58900 1.06000 48.35800
C  41.60600 -1.26100 48.12200
C  44.71000 -1.63500 48.20800
O  44.11400 -2.68800 47.98700
C  46.21800 -1.70700 48.51700
N  45.87300 3.97300 48.12500
C  46.52200 2.84500 48.23100
C  48.07500 3.09900 48.06900
C  48.14200 4.65000 47.83600
C  46.67700 5.12100 48.11000
C  48.94900 2.54500 49.22200
C  48.71800 4.98300 46.46500
C  50.29600 5.08000 46.46800
N  43.99200 6.23600 48.21700
C  45.07800 7.03900 48.19100
C  44.67200 8.45400 48.11400
C  43.25100 8.37800 47.97500
C  42.89300 7.04600 48.00100
C  45.64500 9.58100 47.97800
C  42.03300 9.15700 47.78600
O  41.88800 10.38100 47.80200
C  40.81300 8.14900 47.75000
C  39.81200 8.44400 48.77400
O  39.67800 7.83000 49.83600
O  39.05000 9.46800 48.32700
C  37.83500 9.89300 48.97400
H  40.16100 1.21700 47.99300
H  46.67100 0.76400 48.37300
H  47.19900 7.13300 47.92000
H  38.76800 5.88400 47.79200
H  39.05300 3.11700 46.78900
H  37.46100 4.27600 48.91300
H  38.60700 3.25400 49.74000
H  37.60700 2.55200 48.43600
H  39.44700 4.63100 45.22900
H  40.18700 6.15200 45.53400
H  38.03900 7.23000 45.97600
H  37.19600 5.75700 45.70600
H  41.81000 -1.82300 47.21000
H  40.61300 -0.81500 48.07800
H  41.56900 -1.92900 48.98200
H  46.77900 -1.24500 47.70500
H  46.49400 -2.76000 48.56900
H  46.34000 -1.23500 49.49200
H  48.22300 2.52700 47.15200
H  48.74400 4.92600 48.70200
H  49.65500 3.26900 49.62800
H  49.47600 1.67900 48.82100
H  48.25900 2.11300 49.94600
H  48.31000 5.95700 46.19300
H  48.26600 4.30400 45.74300
H  50.75600 4.61800 47.34200
H  50.75900 6.06400 46.39900
H  50.74800 4.55400 45.62700
H  45.12300 10.53700 47.99900
H  46.14000 9.63600 47.00800
H  46.41900 9.63900 48.74300
H  40.36700 8.34300 46.77400
H  37.91200 9.94400 50.06100
H  36.92600 9.36000 48.69800
H  37.67600 10.92400 48.65800

