158

Mg 25.89000 0.97400 29.14000
C  27.66400 0.64000 32.06000
C  22.93600 1.31400 30.88200
C  24.24200 1.43400 26.19100
C  28.79800 0.20000 27.37900
N  25.36400 0.79400 31.19900
C  26.32600 0.85400 32.24400
C  25.62000 1.05700 33.62000
C  24.10400 0.88200 33.18100
C  24.09500 1.00300 31.65200
C  23.22800 -0.27600 33.70200
C  25.97900 2.46700 34.17900
C  26.95100 2.40700 35.36200
H  26.49700 3.30200 36.51700
N  23.89900 1.24200 28.61700
C  22.88500 1.41200 29.46500
C  21.70800 1.65600 28.72200
C  22.01100 1.93100 27.39300
C  23.45500 1.52200 27.34600
C  20.43000 1.66700 29.44500
C  21.17200 2.39600 26.22500
O  21.58600 2.62500 25.10300
C  19.74300 2.68300 26.50100
N  26.46000 0.70800 27.08600
C  25.59400 1.16100 26.08200
C  26.33300 1.27500 24.74300
C  27.80600 1.05600 25.16700
C  27.71400 0.59900 26.65900
C  25.78100 0.38300 23.64400
C  28.68100 2.39100 24.92500
C  29.20200 2.50300 23.49400
N  27.82500 0.36900 29.56300
C  28.84600 0.01600 28.76400
C  30.02500 -0.31600 29.53300
C  29.60900 -0.05600 30.88200
C  28.24200 0.34800 30.81400
C  31.33400 -0.72200 29.04600
C  30.03600 0.05000 32.23900
O  31.16700 -0.18000 32.69400
C  28.76300 0.45100 33.12900
C  28.45800 -0.63000 34.07300
O  27.78600 -1.66500 33.85400
O  28.93800 -0.26700 35.24000
C  28.60000 -1.13100 36.41300
H  22.07300 1.64400 31.46400
H  23.81400 1.81200 25.26000
H  29.74700 0.19800 26.83800
H  25.94500 0.24100 34.26400
H  23.58800 1.81900 33.39000
H  23.92300 -0.93500 34.22200
H  22.82800 -0.73600 32.79900
H  22.37100 -0.10500 34.35300
H  25.09800 3.02200 34.50100
H  26.35300 3.10000 33.37500
H  27.89400 2.80100 34.98400
H  27.16600 1.40100 35.72200
H  20.12600 2.68100 29.70400
H  20.48200 0.95400 30.26800
H  19.64700 1.24500 28.81500
H  19.18600 1.80100 26.81700
H  19.23900 3.04700 25.60600
H  19.70400 3.51300 27.20700
H  26.27200 2.30600 24.39400
H  28.31500 0.23000 24.67200
H  24.73500 0.14500 23.83800
H  26.25900 -0.55900 23.37300
H  26.01900 0.99200 22.77200
H  29.57200 2.28600 25.54400
H  28.09500 3.25600 25.23600
H  30.27800 2.33400 23.44400
H  28.93400 3.47800 23.08900
H  28.83700 1.71900 22.83100
H  32.10000 -0.02100 29.37700
H  31.41200 -0.60900 27.96500
H  31.54600 -1.76800 29.26700
H  29.13500 1.33200 33.65100
H  28.70700 -2.18000 36.13700
H  27.65700 -0.93900 36.92400
H  29.32900 -0.87900 37.18300
Mg -12.70900 39.44800 42.31700
C  -11.35400 36.37200 41.33800
C  -10.05700 41.08000 40.53200
C  -14.41600 42.37400 42.31000
C  -15.63700 37.83100 43.36800
N  -11.08500 38.78100 40.87600
C  -10.61700 37.44400 40.77600
C  -9.34200 37.35700 40.02100
C  -8.80500 38.80700 40.03500
C  -10.05100 39.64000 40.48200
C  -7.45400 38.92200 40.88100
C  -9.33400 36.73500 38.59500
C  -8.11200 35.92400 38.20400
H  -7.21700 36.53100 37.11200
N  -12.29600 41.43200 41.61300
C  -11.10700 41.89800 41.00000
C  -11.17100 43.31300 40.82400
C  -12.53300 43.66500 41.06600
C  -13.16900 42.47900 41.69700
C  -10.05000 44.07300 40.30000
C  -13.21300 45.02600 40.80400
O  -12.65800 45.91500 40.29000
C  -14.66400 45.20600 41.06700
N  -14.68600 40.03400 42.94300
C  -15.12200 41.29700 42.88900
C  -16.61700 41.41600 43.35200
C  -16.89700 39.98200 43.85900
C  -15.70600 39.21300 43.29300
C  -16.95700 42.49000 44.34500
C  -18.28500 39.47100 43.29700
C  -19.14100 38.50800 44.19200
N  -13.34800 37.51700 42.57000
C  -14.56300 37.03200 42.95000
C  -14.44200 35.56400 42.90100
C  -13.17400 35.30200 42.28200
C  -12.59100 36.50600 42.03600
C  -15.45300 34.61200 43.38400
C  -12.30200 34.28100 41.84800
O  -12.36400 33.06700 41.90100
C  -11.06300 34.91900 41.21700
C  -9.83600 34.53700 42.03300
O  -9.60500 34.90700 43.15800
O  -9.05000 33.70300 41.30900
C  -7.70800 33.43100 41.78600
H  -9.12600 41.57400 40.24800
H  -15.02400 43.27000 42.44700
H  -16.45300 37.36300 43.92200
H  -8.72000 36.61100 40.51600
H  -8.53900 39.22600 39.06500
H  -6.91100 37.98400 40.76400
H  -7.70400 39.08200 41.93000
H  -6.86100 39.77400 40.55000
H  -9.36400 37.54100 37.86200
H  -10.23900 36.16600 38.38300
H  -8.54400 34.95500 37.95100
H  -7.50400 35.69900 39.08000
H  -10.18000 44.34700 39.25300
H  -9.10900 43.56600 40.51700
H  -10.05100 45.06300 40.75600
H  -15.14700 44.30300 40.69400
H  -15.07500 46.06500 40.53700
H  -14.84600 45.39600 42.12500
H  -17.27000 41.61500 42.50200
H  -16.85700 39.88400 44.94400
H  -17.55000 43.20400 43.77400
H  -16.04900 42.99800 44.67200
H  -17.45500 42.03900 45.20400
H  -18.27800 38.95600 42.33600
H  -18.92300 40.33200 43.09500
H  -20.14400 38.60800 43.77700
H  -19.12000 38.83900 45.23000
H  -18.84900 37.45700 44.18400
H  -16.42000 35.01400 43.08200
H  -15.34800 34.65300 44.46800
H  -15.25500 33.60200 43.02700
H  -11.01400 34.52100 40.20300
H  -7.47100 32.37700 41.64600
H  -7.54300 33.59100 42.85200
H  -7.04500 34.08200 41.21600

