158

Mg -1.32600 34.20900 27.67000
C  -2.94400 32.66100 30.47200
C  0.18700 36.30900 29.65900
C  -0.57700 36.01300 24.87200
C  -3.31700 32.02900 25.68700
N  -1.61000 34.53800 29.81500
C  -2.13600 33.70800 30.73200
C  -1.53900 34.02700 32.19400
C  -0.55400 35.23700 31.88700
C  -0.62400 35.35000 30.29600
C  -0.64800 36.57900 32.68500
C  -0.92000 32.84300 33.00100
C  -1.55800 32.25800 34.24700
H  -0.67400 32.13100 35.46500
N  -0.20700 35.87700 27.28300
C  0.37700 36.60600 28.28200
C  1.23400 37.56200 27.65000
C  1.08900 37.38300 26.27400
C  0.04800 36.39700 26.03500
C  2.15900 38.44600 28.41000
C  1.83300 37.98400 25.17400
O  1.80600 37.60800 24.02800
C  2.59900 39.24800 25.53800
N  -1.83900 34.10000 25.59300
C  -1.55200 35.03700 24.70900
C  -2.15200 34.71800 23.30100
C  -2.70100 33.24100 23.54200
C  -2.62000 33.07300 24.99200
C  -3.16900 35.70900 22.73000
C  -2.03300 32.03200 22.82800
C  -0.53600 31.87500 22.58800
N  -2.58400 32.53700 27.96200
C  -3.31900 31.81100 27.04800
C  -4.18700 30.88200 27.70800
C  -4.01500 31.18200 29.04200
C  -3.15300 32.20700 29.14300
C  -5.05500 29.85800 27.16500
C  -4.43800 30.85000 30.37100
O  -5.21900 30.00000 30.74600
C  -3.70200 31.77700 31.39600
C  -4.64700 32.61400 32.20700
O  -5.27100 33.54500 31.76500
O  -4.53800 32.24500 33.48100
C  -5.38100 33.06200 34.48000
H  0.83300 36.75100 30.42000
H  -0.27200 36.48200 23.93400
H  -3.89800 31.31800 25.09600
H  -2.29500 34.51200 32.81300
H  0.46200 34.87000 32.03000
H  -1.29700 36.42800 33.54800
H  -1.22600 37.20900 32.00900
H  0.26500 37.07800 33.00800
H  0.07300 33.20200 33.27000
H  -0.67700 32.08300 32.25900
H  -2.00700 31.29500 34.00400
H  -2.35800 32.92400 34.57000
H  3.16100 38.07600 28.19100
H  2.05100 38.47400 29.49400
H  2.07700 39.51800 28.23400
H  1.87500 39.91100 26.01200
H  3.10600 39.76800 24.72500
H  3.38000 38.83300 26.17500
H  -1.37300 34.71700 22.53800
H  -3.75000 33.25000 23.24800
H  -3.81600 36.04300 23.54100
H  -3.85000 35.30700 21.98000
H  -2.69300 36.53900 22.20900
H  -2.52700 31.96700 21.85800
H  -2.35900 31.03300 23.11600
H  0.02400 32.62100 23.15200
H  -0.34800 32.06400 21.53100
H  -0.29600 30.85400 22.88400
H  -4.87200 29.66400 26.10800
H  -6.06100 30.24300 27.33300
H  -4.94900 28.92200 27.71300
H  -2.99000 31.20000 31.98500
H  -4.84500 33.20800 35.41700
H  -6.32500 32.57200 34.71700
H  -5.59000 34.06400 34.10400
Mg -9.46300 18.13900 42.69700
C  -6.02800 17.29700 42.39500
C  -8.63900 21.43600 42.05900
C  -12.64700 18.64500 42.17000
C  -10.07100 14.54200 43.07400
N  -7.55500 19.14400 42.28600
C  -6.28700 18.67500 42.31300
C  -5.26400 19.82400 42.24900
C  -6.07100 21.08600 42.40000
C  -7.53500 20.58800 42.23300
C  -5.79300 21.95200 43.68400
C  -4.46400 19.70700 40.87700
C  -5.13500 18.99500 39.67400
H  -4.71900 19.42600 38.25200
N  -10.52600 19.85100 42.24500
C  -10.00500 21.13100 42.04100
C  -11.14100 22.00900 41.96300
C  -12.28300 21.23100 41.94800
C  -11.85500 19.80400 42.07900
C  -11.02300 23.48500 41.80300
C  -13.70400 21.82300 41.80500
O  -13.95100 23.05200 41.83600
C  -14.85300 20.89800 41.59800
N  -11.04000 16.79400 42.51200
C  -12.34300 17.35000 42.35900
C  -13.42200 16.25100 42.52600
C  -12.58200 14.91900 42.47000
C  -11.14900 15.43600 42.71000
C  -14.29800 16.47900 43.72400
C  -12.54600 14.11800 41.09900
C  -13.36100 12.78200 41.00800
N  -8.33900 16.28200 42.78900
C  -8.73400 14.93300 42.88700
C  -7.55200 14.17400 42.86800
C  -6.48500 15.02000 42.68100
C  -6.98500 16.29200 42.67400
C  -7.56500 12.74000 42.93400
C  -5.06800 15.02900 42.54500
O  -4.21400 14.13500 42.72800
C  -4.65700 16.60400 42.37000
C  -3.64700 16.95900 43.49300
O  -2.54500 17.41100 43.31400
O  -4.27900 16.85000 44.74600
C  -3.49200 17.30300 45.87000
H  -8.35100 22.48700 41.99900
H  -13.71400 18.85000 42.05900
H  -10.26800 13.48700 43.27300
H  -4.64700 19.63400 43.12800
H  -5.88800 21.77500 41.57600
H  -5.74400 23.00200 43.39800
H  -4.78400 21.64100 43.95300
H  -6.49900 21.68400 44.47000
H  -3.61000 19.08000 41.13600
H  -4.15100 20.72900 40.66300
H  -6.21700 19.08400 39.77000
H  -4.92000 17.92800 39.71600
H  -11.39800 23.86200 40.85100
H  -9.96300 23.73600 41.77500
H  -11.40200 24.15300 42.57700
H  -14.93900 20.27200 42.48700
H  -14.63800 20.41200 40.64700
H  -15.75800 21.49200 41.47400
H  -13.97900 16.39800 41.60100
H  -12.93700 14.25400 43.25800
H  -14.18500 15.66700 44.44300
H  -15.26100 16.40900 43.21900
H  -14.19200 17.39200 44.31000
H  -11.49900 13.81900 41.07900
H  -12.85200 14.65500 40.20100
H  -13.90200 12.83600 40.06300
H  -14.11700 12.68500 41.78700
H  -12.74900 11.89100 40.87600
H  -6.60000 12.34200 42.61800
H  -8.38700 12.44300 42.28400
H  -7.83700 12.47900 43.95600
H  -4.21200 16.56500 41.37600
H  -3.66500 16.66000 46.73300
H  -3.80900 18.33400 46.02800
H  -2.44000 17.16100 45.62300

