158

Mg 29.52600 57.67900 40.35800
C  26.73900 55.94600 39.25700
C  31.47700 55.12900 39.25300
C  32.12400 59.81100 40.61300
C  27.31000 60.37700 41.15800
N  29.16000 55.73500 39.30600
C  27.92700 55.24000 39.04200
C  28.12700 53.90700 38.30500
C  29.52500 53.47300 38.85100
C  30.11700 54.83900 39.14000
C  29.36100 52.72500 40.21700
C  28.16300 54.17700 36.75000
C  26.94300 53.74400 35.89300
H  26.40900 54.83600 34.91900
N  31.53900 57.55600 39.86600
C  32.17300 56.34100 39.56000
C  33.53600 56.67600 39.50800
C  33.73900 58.04900 39.89600
C  32.43500 58.57500 40.08700
C  34.55900 55.72200 39.01000
C  35.10700 58.66600 39.86800
O  36.11600 57.96200 39.64200
C  35.35900 60.14800 39.92100
N  29.69700 59.84000 40.81100
C  30.88900 60.44000 40.93500
C  30.73800 61.93100 41.12500
C  29.29000 61.94900 41.68000
C  28.70200 60.65500 41.18000
C  31.71700 62.50700 42.25900
C  28.51200 63.21800 41.33200
C  27.56600 63.73100 42.44700
N  27.46100 58.09800 40.31900
C  26.72500 59.23600 40.65000
C  25.29100 58.95900 40.56500
C  25.20700 57.66100 39.95100
C  26.54900 57.18100 39.85000
C  24.12000 59.81700 40.99600
C  24.26200 56.66800 39.39200
O  23.12600 56.67700 39.24500
C  25.25700 55.52500 38.82400
C  24.91700 54.20000 39.34000
O  25.42300 53.74300 40.37800
O  24.24300 53.46300 38.38500
C  23.94500 52.01800 38.75300
H  32.16900 54.30600 39.06400
H  33.03500 60.30300 40.96100
H  26.60200 61.18100 41.36700
H  27.30400 53.20500 38.43900
H  30.07800 52.96100 38.06300
H  28.37500 52.27300 40.31500
H  29.64700 53.32500 41.08100
H  30.11300 51.93700 40.26100
H  29.05900 53.69300 36.36300
H  28.22000 55.24900 36.56100
H  26.16400 53.23000 36.45600
H  27.27700 52.84500 35.37400
H  34.81100 56.17200 38.05000
H  34.18500 54.73300 38.74500
H  35.43500 55.55300 39.63700
H  34.52600 60.76300 39.58200
H  36.30000 60.37700 39.42000
H  35.52600 60.42000 40.96300
H  30.92200 62.51700 40.22500
H  29.25700 61.72100 42.74600
H  32.20800 61.67700 42.76700
H  31.16400 63.08800 42.99600
H  32.46600 63.19200 41.86100
H  27.81900 63.08800 40.50100
H  29.31300 63.93100 41.13500
H  27.45000 63.02600 43.26900
H  26.55600 63.90400 42.07700
H  28.03900 64.56800 42.96100
H  23.97800 60.70700 40.38200
H  24.09000 59.99500 42.07100
H  23.24900 59.17900 40.84700
H  25.10100 55.50900 37.74600
H  22.86700 51.87600 38.82300
H  24.35200 51.58900 39.66900
H  24.18800 51.30600 37.96400
Mg 17.09600 52.03000 26.26700
C  19.09700 50.40600 28.63400
C  14.65000 52.40300 28.69700
C  15.06700 53.52900 24.03900
C  19.25400 51.05500 23.85100
N  17.03900 51.57600 28.48500
C  17.90600 50.92900 29.25600
C  17.35100 50.76000 30.69400
C  15.84800 51.07500 30.47400
C  15.83900 51.77300 29.13700
C  14.90200 49.79900 30.52500
C  18.04500 51.72200 31.69900
C  18.26800 50.98000 32.99900
H  17.25100 51.32300 34.10400
N  15.13900 52.96200 26.36600
C  14.35300 53.04000 27.45100
C  13.09000 53.70400 27.09600
C  13.30700 54.16400 25.78500
C  14.51700 53.50300 25.28900
C  11.95500 53.96700 28.16900
C  12.42000 54.92700 24.93100
O  12.61000 54.93500 23.69800
C  11.23400 55.60500 25.52100
N  16.98600 52.11200 24.24900
C  16.17100 52.87700 23.54500
C  16.50300 52.87600 22.05200
C  17.79700 52.08200 21.99400
C  18.07700 51.73000 23.47000
C  15.33600 52.36400 21.11100
C  18.95900 52.70000 21.11000
C  19.89100 53.78900 21.75500
N  18.86300 50.88000 26.20700
C  19.66800 50.60200 25.13300
C  20.78200 49.75200 25.58400
C  20.66700 49.71700 26.97200
C  19.46000 50.42000 27.28400
C  21.81000 49.13300 24.68200
C  21.29000 49.32400 28.21600
O  22.34500 48.78100 28.47600
C  20.33000 49.76700 29.27300
C  19.95600 48.75400 30.23900
O  19.03100 47.96400 30.20700
O  20.89300 48.81300 31.23500
C  20.67100 47.93800 32.39200
H  13.91500 52.41000 29.50400
H  14.65400 54.18000 23.26600
H  20.03700 50.73500 23.16000
H  17.36900 49.69300 30.91800
H  15.45300 51.80400 31.18100
H  13.88300 50.17800 30.61300
H  15.10900 49.23900 31.43600
H  15.09200 49.13100 29.68500
H  17.34800 52.51700 31.96200
H  18.99100 52.13200 31.34600
H  19.27600 51.20700 33.34500
H  18.25500 49.91100 32.78600
H  11.98200 55.02500 28.42700
H  12.05300 53.28200 29.01100
H  11.05100 53.66000 27.64300
H  10.84900 56.32900 24.80300
H  11.49400 56.20900 26.39000
H  10.45000 54.90800 25.81900
H  16.73900 53.92500 21.87300
H  17.68200 51.08200 21.57500
H  15.71300 51.70900 20.32600
H  14.80900 53.22600 20.70300
H  14.68600 51.74000 21.72500
H  18.49900 53.19000 20.25200
H  19.67600 51.95500 20.76400
H  20.92100 53.48200 21.93600
H  19.62000 54.23400 22.71300
H  19.98100 54.54100 20.97100
H  21.28700 48.88100 23.75900
H  22.24700 48.24700 25.14100
H  22.65300 49.80600 24.52400
H  20.72600 50.52600 29.94800
H  19.78900 48.14200 33.00000
H  21.58800 48.00800 32.97600
H  20.63700 46.94100 31.95300

