158

Mg 0.51600 7.55000 26.26900
C  1.58200 9.40800 29.00000
C  0.85300 4.69000 28.25400
C  0.07200 5.71200 23.54000
C  0.21300 10.44600 24.47600
N  1.00700 7.06700 28.32200
C  1.30400 8.07100 29.29000
C  1.24200 7.42300 30.67100
C  1.39800 5.85400 30.41100
C  1.04100 5.84400 28.87800
C  2.72500 5.14600 30.70100
C  0.01900 7.91700 31.49900
C  0.39200 8.29200 33.00900
H  1.12700 7.26800 33.79100
N  0.32100 5.45000 25.94600
C  0.49800 4.43100 26.90000
C  0.42500 3.16400 26.16200
C  0.12300 3.40500 24.82700
C  0.14000 4.92500 24.70800
C  0.66400 1.84100 26.87100
C  -0.14400 2.45100 23.74600
O  -0.20300 2.80500 22.59200
C  -0.27400 0.95900 23.98200
N  0.42100 8.00500 24.25600
C  0.09300 7.10600 23.32400
C  -0.41700 7.78200 22.01800
C  -0.58400 9.25800 22.45400
C  0.03800 9.26300 23.82600
C  0.58800 7.59100 20.90900
C  -2.05100 9.85800 22.41800
C  -2.89200 9.60000 21.16600
N  0.93200 9.56000 26.62300
C  0.74300 10.62000 25.79300
C  1.12600 11.82100 26.41600
C  1.52700 11.40300 27.71400
C  1.42900 10.02700 27.71400
C  1.18400 13.22800 25.81000
C  2.13000 11.71900 29.03100
O  2.42700 12.79300 29.54500
C  2.03800 10.44700 29.88400
C  3.34300 10.20100 30.56200
O  4.23800 9.40200 30.29000
O  3.34900 10.93100 31.73200
C  4.38700 10.73000 32.72400
H  0.99500 3.77000 28.82500
H  0.09900 5.25200 22.54900
H  0.05100 11.30400 23.82000
H  2.15800 7.65100 31.21700
H  0.56900 5.30800 30.86200
H  2.66000 4.56000 31.61700
H  3.48500 5.89800 30.91600
H  3.15400 4.55200 29.89400
H  -0.62400 7.03700 31.52500
H  -0.59500 8.64600 30.97200
H  -0.60000 8.56400 33.37100
H  0.95000 9.22400 33.09600
H  1.34800 1.22500 26.28700
H  -0.22200 1.24900 27.09700
H  1.30700 2.00300 27.73700
H  -0.38900 0.41900 23.04300
H  -1.20400 0.70800 24.49200
H  0.69800 0.60400 24.32700
H  -1.36800 7.28100 21.83500
H  -0.00300 9.92400 21.81700
H  1.60200 7.52000 21.30400
H  0.57500 8.49100 20.29400
H  0.24700 6.74700 20.31000
H  -1.95700 10.91300 22.67500
H  -2.61300 9.46700 23.26600
H  -2.50600 8.92500 20.40200
H  -2.97200 10.58500 20.70600
H  -3.88800 9.31000 21.49800
H  1.63900 13.89500 26.54200
H  0.16600 13.49600 25.52700
H  1.74100 13.17100 24.87500
H  1.27700 10.68400 30.62800
H  4.22900 9.98500 33.50400
H  4.50300 11.67100 33.26100
H  5.34100 10.39500 32.31600
Mg 40.73900 41.50500 27.41000
C  39.77300 43.71300 29.88400
C  41.80500 39.34000 29.67800
C  41.69000 39.51700 24.81400
C  39.79500 44.05100 25.06300
N  40.51900 41.43100 29.49700
C  40.05300 42.44200 30.38100
C  40.29700 42.07700 31.82900
C  41.13900 40.77900 31.77100
C  41.05700 40.44000 30.22500
C  42.51500 40.85400 32.44300
C  39.05000 42.00900 32.60200
C  39.21100 41.60900 34.08200
H  38.96000 42.75800 35.05200
N  41.63900 39.68600 27.31100
C  41.98700 38.95500 28.34700
C  42.57700 37.72100 27.86700
C  42.55400 37.70100 26.47000
C  41.96500 39.03800 26.14500
C  43.01400 36.56900 28.73000
C  43.17700 36.71000 25.45200
O  43.10800 36.76600 24.22700
C  43.90200 35.55300 25.99400
N  40.71400 41.70400 25.27900
C  41.17900 40.78900 24.42200
C  40.89200 41.18200 22.93200
C  40.08100 42.46600 23.11600
C  40.15500 42.82800 24.58200
C  42.08800 41.37200 22.00800
C  38.60300 42.39900 22.63000
C  37.76600 41.30300 23.34000
N  40.05900 43.46700 27.44500
C  39.75600 44.40100 26.45800
C  39.27700 45.59200 26.96900
C  39.28800 45.36300 28.38100
C  39.78100 44.12100 28.57200
C  39.00300 46.89500 26.24800
C  39.03700 45.96800 29.62800
O  38.56500 47.01000 29.91700
C  39.38000 44.88700 30.70000
C  40.46100 45.46900 31.56800
O  41.51700 45.84300 31.15300
O  40.06000 45.62800 32.94800
C  41.08800 45.98000 33.82400
H  42.05300 38.68600 30.51700
H  42.06700 38.85400 24.03300
H  39.40900 44.78100 24.34900
H  40.85700 42.89800 32.27600
H  40.65900 39.97000 32.32200
H  42.46800 41.67800 33.15500
H  43.29700 40.97500 31.69300
H  42.81000 39.94000 32.95800
H  38.25800 41.48900 32.06400
H  38.75900 43.05800 32.65600
H  40.20500 41.19800 34.26200
H  38.58800 40.75900 34.35900
H  42.65200 35.58100 28.44300
H  42.81200 36.76800 29.78200
H  44.09300 36.42000 28.73300
H  44.73300 35.86600 26.62700
H  44.29800 35.03900 25.11800
H  43.20300 34.86800 26.47400
H  40.32700 40.30800 22.60800
H  40.66100 43.20800 22.56800
H  42.80900 42.06000 22.44900
H  41.73700 41.73300 21.04200
H  42.55800 40.39400 21.90200
H  38.75800 42.08900 21.59600
H  38.05000 43.32800 22.76400
H  37.09900 40.81000 22.63400
H  37.15200 41.84900 24.05600
H  38.42000 40.60400 23.86200
H  38.25900 46.77600 25.45900
H  39.90900 47.37400 25.87700
H  38.54000 47.53200 27.00200
H  38.45300 44.76900 31.26200
H  41.24300 47.04800 33.67100
H  41.94300 45.30800 33.74800
H  40.72000 46.00500 34.85000

