158

Mg 53.76800 23.87300 44.26600
C  50.78800 25.52700 43.44000
C  52.34800 21.05100 43.01100
C  56.76300 22.46600 44.23400
C  55.16800 26.97800 45.17800
N  51.84300 23.50300 43.23800
C  50.73800 24.25800 42.98100
C  49.61300 23.48000 42.33900
C  50.01500 21.94500 42.72900
C  51.57800 22.16000 43.03900
C  49.21800 21.17200 43.87600
C  49.50600 23.83400 40.82000
C  48.05700 24.01700 40.22000
H  47.83800 23.23900 38.88000
N  54.47300 21.99000 43.64900
C  53.71800 20.95400 43.26500
C  54.57000 19.74300 43.04800
C  55.88400 20.10200 43.50800
C  55.80800 21.55500 43.77900
C  54.12700 18.39500 42.35500
C  57.10400 19.25800 43.50600
O  56.98500 18.07700 43.19400
C  58.43500 19.72200 44.13800
N  55.67300 24.68900 44.42000
C  56.80500 23.83600 44.37500
C  58.13900 24.70400 44.42800
C  57.56800 26.02000 45.07400
C  56.07600 25.92100 44.90400
C  59.33800 24.15900 45.19100
C  58.11200 27.42200 44.66800
C  59.10200 28.03000 45.66100
N  53.19800 25.87900 44.32200
C  53.82000 26.98100 44.85700
C  52.73600 27.92300 45.12900
C  51.58200 27.44700 44.53100
C  51.91400 26.21000 44.01400
C  53.02400 29.21300 45.79300
C  50.23000 27.73200 44.35000
O  49.62200 28.73900 44.67000
C  49.64300 26.52100 43.44300
C  49.21100 27.05000 42.12200
O  50.00800 27.43200 41.28700
O  47.86600 27.21000 42.04000
C  47.25700 27.84900 40.84700
H  51.82900 20.14700 42.68500
H  57.78000 22.07000 44.21400
H  55.53200 27.77300 45.83200
H  48.74800 23.89600 42.85500
H  49.91300 21.34100 41.82700
H  48.60000 21.89900 44.40300
H  49.93900 20.74100 44.57100
H  48.60300 20.34800 43.51400
H  49.97700 23.03000 40.25600
H  50.12600 24.70700 40.61400
H  47.85700 25.08500 40.12600
H  47.27000 23.72300 40.91600
H  54.20800 18.50400 41.27400
H  53.11600 18.29200 42.75000
H  54.63000 17.46900 42.63400
H  58.93500 20.35900 43.40800
H  59.00600 18.82700 44.38800
H  58.19600 20.20600 45.08400
H  58.40700 24.86000 43.38300
H  57.63100 26.01300 46.16200
H  59.60300 24.89500 45.95000
H  60.11800 23.92800 44.46600
H  59.12900 23.22700 45.71800
H  57.30000 28.06300 44.32400
H  58.56600 27.29600 43.68500
H  59.99300 28.27200 45.08200
H  59.27500 27.35900 46.50200
H  58.55200 28.90600 46.00500
H  54.07900 29.28800 46.05600
H  52.50800 29.24300 46.75300
H  52.81400 29.96300 45.03100
H  48.78200 26.13900 43.99100
H  46.23100 27.50400 40.97400
H  47.62800 27.39400 39.92800
H  47.27900 28.92300 41.02700
Mg 48.45600 13.81500 27.81700
C  46.65500 14.21500 30.66200
C  50.94100 15.91100 29.14800
C  50.42400 13.37400 24.92000
C  45.92700 12.15800 26.40700
N  48.76200 14.89300 29.70000
C  47.83600 14.89100 30.71400
C  48.39100 15.59600 31.90500
C  49.45800 16.48000 31.23600
C  49.80700 15.64400 29.96500
C  49.03300 17.91100 30.94200
C  48.98100 14.56800 32.99800
C  48.37800 14.88100 34.38300
H  49.37300 14.85500 35.56900
N  50.35700 14.61600 27.14400
C  51.20200 15.45500 27.84700
C  52.43600 15.74900 27.11800
C  52.21400 15.11500 25.84200
C  50.97400 14.33700 25.88300
C  53.57300 16.45300 27.68200
C  53.08300 15.08400 24.60500
O  52.76500 14.78100 23.49000
C  54.53500 15.69600 24.62400
N  48.16900 12.99000 25.84900
C  49.14200 12.80200 24.88200
C  48.58500 12.04800 23.69200
C  47.12700 11.73600 24.21700
C  47.09300 12.28300 25.66400
C  48.72000 12.69700 22.31500
C  46.59000 10.26700 23.96500
C  46.91300 9.25800 25.01400
N  46.60100 13.33900 28.30700
C  45.68000 12.61700 27.65900
C  44.56100 12.34800 28.52700
C  44.89600 12.92900 29.73400
C  46.12500 13.58400 29.56600
C  43.25700 11.67200 28.13700
C  44.39000 13.23800 31.09100
O  43.34000 12.98500 31.71200
C  45.60900 13.94900 31.73500
C  45.04800 15.18300 32.27900
O  44.53200 16.12800 31.63400
O  45.16800 15.21700 33.61700
C  44.55900 16.32500 34.42400
H  51.60300 16.59600 29.68300
H  50.95500 13.23500 23.97500
H  45.08800 11.62000 25.95900
H  47.64300 16.33300 32.19800
H  50.39500 16.40000 31.78700
H  48.73200 18.46400 31.83200
H  48.23200 17.82800 30.20700
H  49.76300 18.48700 30.37300
H  50.06600 14.67500 33.00000
H  48.72200 13.52000 32.84700
H  47.68500 14.06500 34.59200
H  47.90900 15.85900 34.49400
H  53.45000 16.91000 28.66400
H  53.88500 17.33200 27.11700
H  54.42100 15.77100 27.73300
H  55.08300 15.20900 25.43100
H  54.39700 16.77500 24.68900
H  55.06700 15.54000 23.68500
H  49.11600 11.10300 23.57300
H  46.61300 12.46200 23.58800
H  49.27300 12.05700 21.62700
H  49.19000 13.63800 22.60100
H  47.75200 12.96100 21.88800
H  47.09600 9.87300 23.08300
H  45.51100 10.32600 23.82200
H  47.29100 9.69900 25.93700
H  47.71500 8.60900 24.66300
H  46.02900 8.67200 25.26600
H  42.36700 12.16700 28.52500
H  43.31100 10.61400 28.39300
H  43.02600 11.85700 27.08800
H  46.10600 13.41900 32.54700
H  43.48700 16.16700 34.54600
H  44.79300 17.30400 34.00700
H  45.03800 16.24900 35.40000

