158

Mg 0.59300 8.68700 27.08400
C  1.51200 10.72200 29.83200
C  1.34500 5.89200 29.16300
C  0.18400 6.63600 24.41500
C  0.89300 11.47100 24.96000
N  1.59200 8.39200 29.16900
C  1.61400 9.37600 30.14000
C  1.63900 8.73200 31.50400
C  1.89600 7.23800 31.21200
C  1.70400 7.12100 29.73600
C  3.21100 6.56900 31.73100
C  0.25400 8.86800 32.26500
C  0.21700 8.81400 33.81600
H  1.44300 8.19700 34.63100
N  0.58800 6.54100 26.86700
C  0.88200 5.62700 27.85400
C  0.72800 4.33700 27.20100
C  0.27400 4.55200 25.89500
C  0.29100 5.95500 25.68800
C  1.12300 3.12200 27.93900
C  -0.16500 3.53200 24.83100
O  -0.58800 3.82100 23.70500
C  0.09900 2.08200 25.20300
N  0.56700 9.03000 24.90300
C  0.32000 8.06100 24.02200
C  0.39100 8.63600 22.58200
C  0.18000 10.13000 22.89600
C  0.65400 10.24100 24.32100
C  1.70900 8.26800 21.91400
C  -1.32100 10.45100 22.78400
C  -1.75800 11.88700 22.58400
N  0.98900 10.69600 27.25300
C  1.17000 11.74100 26.34100
C  1.53000 12.94000 27.02400
C  1.56500 12.58900 28.42900
C  1.26700 11.22100 28.52300
C  1.74900 14.29700 26.41800
C  1.82500 13.14900 29.70900
O  2.15100 14.28100 30.08600
C  1.66100 11.95600 30.65600
C  2.71400 11.96100 31.67400
O  3.94500 12.13200 31.40900
O  2.27400 11.91600 32.95700
C  3.28200 12.28300 33.99800
H  1.35600 5.06100 29.87100
H  0.04900 6.02400 23.52000
H  0.88200 12.34900 24.31100
H  2.43100 9.20400 32.08500
H  1.10900 6.65400 31.69000
H  3.60800 7.06000 32.62000
H  3.93200 6.61800 30.91500
H  2.94900 5.56500 32.06500
H  -0.43200 8.09600 31.91600
H  -0.26600 9.74300 31.87500
H  -0.63900 8.24400 34.17700
H  0.06300 9.81700 34.21300
H  1.60000 3.38800 28.88200
H  1.74400 2.45000 27.34600
H  0.13900 2.70300 28.14900
H  -0.32000 1.70300 26.13500
H  1.18800 2.05500 25.23600
H  -0.17900 1.46800 24.34600
H  -0.40100 8.13900 22.02200
H  0.82500 10.79700 22.32500
H  1.44700 7.93400 20.91100
H  2.11700 7.43600 22.48800
H  2.32400 9.16600 21.85100
H  -1.94300 10.17300 23.63500
H  -1.68000 9.92000 21.90200
H  -0.88700 12.54200 22.58700
H  -2.34100 12.17700 23.45800
H  -2.49900 12.07900 21.80800
H  1.68700 14.25500 25.33100
H  2.66000 14.72400 26.83800
H  1.00300 14.94900 26.87200
H  0.69600 11.94300 31.16300
H  3.32800 13.37200 34.00900
H  4.30000 11.93100 33.83400
H  3.00600 11.91700 34.98700
Mg -6.46500 25.56600 27.37300
C  -5.14100 27.35500 29.98400
C  -8.07800 23.55200 29.57600
C  -7.66900 24.13900 24.71300
C  -4.23700 27.40500 25.22800
N  -6.38300 25.40500 29.46200
C  -5.93000 26.29500 30.37900
C  -6.39800 25.96500 31.83200
C  -6.85700 24.48000 31.69000
C  -7.14200 24.43000 30.12000
C  -5.82000 23.40000 32.07900
C  -7.33500 26.96900 32.48100
C  -7.23200 27.05600 34.04400
H  -6.75600 25.81300 34.85900
N  -7.81400 24.06100 27.17200
C  -8.43200 23.40900 28.22000
C  -9.32800 22.36300 27.64300
C  -9.24000 22.47000 26.18500
C  -8.28700 23.64900 25.91100
C  -10.24200 21.49700 28.53300
C  -9.93500 21.68400 25.09300
O  -9.60500 21.76600 23.98400
C  -10.90800 20.50900 25.44900
N  -5.89200 25.67000 25.27500
C  -6.68200 25.04100 24.40500
C  -6.21700 25.22100 22.94600
C  -5.18900 26.39400 23.13200
C  -5.10300 26.51000 24.60300
C  -5.54200 23.97700 22.29800
C  -5.65400 27.68100 22.38500
C  -5.29600 27.79900 20.90500
N  -4.92900 27.05600 27.47300
C  -4.11900 27.68300 26.57800
C  -3.34500 28.73000 27.22700
C  -3.69300 28.61800 28.58800
C  -4.66400 27.64200 28.68400
C  -2.42300 29.70200 26.47800
C  -3.55300 29.18100 29.85600
O  -2.83900 30.09700 30.23900
C  -4.42800 28.37600 30.83800
C  -3.49000 27.60700 31.73200
O  -2.72000 26.70100 31.45100
O  -3.66300 28.21600 33.00300
C  -2.83300 27.63300 34.01600
H  -8.49000 22.82600 30.27900
H  -7.95400 23.65900 23.77400
H  -3.49500 27.77900 24.51900
H  -5.55500 25.92900 32.52300
H  -7.73600 24.27800 32.30300
H  -6.36400 22.70300 32.71600
H  -5.03800 23.90100 32.65100
H  -5.43000 22.91500 31.18500
H  -8.37200 26.69600 32.28100
H  -6.98700 27.96300 32.20000
H  -8.22200 27.44600 34.27800
H  -6.56400 27.89900 34.22300
H  -11.30600 21.73400 28.53300
H  -10.01700 21.57300 29.59700
H  -10.14000 20.43400 28.31800
H  -10.21700 19.73900 25.79200
H  -11.41800 20.05600 24.59900
H  -11.58000 20.81100 26.25300
H  -7.08200 25.54300 22.36700
H  -4.20500 26.12000 22.75200
H  -4.45700 24.01400 22.39400
H  -5.80500 23.86900 21.24600
H  -5.84000 23.00500 22.69100
H  -5.37400 28.58200 22.93100
H  -6.73800 27.58900 22.32300
H  -4.88600 26.85400 20.55000
H  -4.64900 28.66600 20.77400
H  -6.19100 28.12200 20.37400
H  -2.52500 30.64500 27.01500
H  -2.82000 29.89800 25.48200
H  -1.40500 29.32400 26.38500
H  -4.95600 29.09900 31.46000
H  -2.78200 28.32500 34.85700
H  -1.77300 27.56200 33.77100
H  -3.27700 26.65200 34.18200

