158

Mg 40.74700 8.27300 29.02600
C  41.95900 9.77500 31.94300
C  38.55500 6.46200 31.09800
C  39.46900 6.64600 26.33100
C  43.26900 9.70300 27.18400
N  40.23700 8.28200 31.22300
C  40.84200 9.03800 32.17300
C  40.22200 8.76000 33.57800
C  39.27400 7.50300 33.31200
C  39.37700 7.34900 31.74500
C  39.60800 6.18000 33.90000
C  39.66400 10.07600 34.26700
C  39.76100 10.23400 35.82900
H  40.45200 11.38400 36.48500
N  39.17000 6.82100 28.73600
C  38.46100 6.22700 29.70900
C  37.47300 5.30800 29.12100
C  37.58800 5.47200 27.74200
C  38.74900 6.33400 27.50100
C  36.57800 4.31700 29.84900
C  36.75000 5.11800 26.58400
O  37.08500 5.31000 25.40400
C  35.44300 4.56500 26.84200
N  41.22500 8.10800 27.07700
C  40.62900 7.31900 26.11300
C  41.32600 7.50500 24.77600
C  42.33800 8.63600 25.07200
C  42.30300 8.82300 26.56700
C  42.09300 6.25500 24.20100
C  42.14900 9.97000 24.31100
C  41.17900 10.98100 24.91600
N  42.42300 9.33800 29.43500
C  43.33400 9.98000 28.56300
C  44.31000 10.74500 29.36700
C  43.84000 10.69200 30.70600
C  42.68700 9.85700 30.66200
C  45.43600 11.49900 28.76200
C  44.09200 11.06400 32.07700
O  44.97400 11.73600 32.61100
C  42.91800 10.45500 32.87900
C  43.35500 9.52100 33.94000
O  43.88600 8.41600 33.71600
O  43.10000 9.94700 35.20200
C  43.58800 8.96900 36.20800
H  37.90000 5.86300 31.73500
H  39.14800 6.08000 25.45400
H  44.07700 10.06700 26.54500
H  41.06400 8.40700 34.17300
H  38.25600 7.72200 33.63200
H  38.70700 5.87900 34.43500
H  40.41400 6.37500 34.60800
H  40.03800 5.45100 33.21400
H  38.59300 10.12300 34.06900
H  40.14100 10.96800 33.86100
H  40.24900 9.30400 36.11900
H  38.76000 10.14800 36.25200
H  36.74100 4.03900 30.89000
H  36.61700 3.37500 29.30200
H  35.54900 4.66400 29.75200
H  35.57900 3.60900 27.34900
H  34.74700 4.35200 26.03000
H  34.87100 5.17900 27.53700
H  40.59300 7.78500 24.01900
H  43.31400 8.21600 24.83000
H  41.74100 5.36400 24.72000
H  43.17400 6.30900 24.06700
H  41.68800 6.16600 23.19200
H  41.77000 9.78400 23.30600
H  43.17700 10.32800 24.25900
H  41.66900 11.77600 25.47800
H  40.57000 10.62800 25.74800
H  40.55200 11.40500 24.13200
H  45.63000 12.46900 29.22000
H  45.29000 11.81100 27.72800
H  46.31300 10.85700 28.84400
H  42.38100 11.27000 33.36500
H  44.65900 8.85300 36.04000
H  43.13000 8.00100 36.00300
H  43.26900 9.40900 37.15200
Mg 52.38900 23.45300 44.69100
C  49.44400 25.29600 43.83400
C  50.59700 20.57100 43.78900
C  55.26900 21.72100 44.54700
C  53.97200 26.32800 45.29800
N  50.27400 23.02200 43.88800
C  49.25800 23.93000 43.59400
C  47.94700 23.18200 43.34200
C  48.31000 21.76900 43.75400
C  49.83600 21.71100 43.82200
C  47.45000 21.39700 45.00900
C  47.51500 23.22600 41.86400
C  48.41000 22.68300 40.83200
H  48.62100 23.52700 39.56900
N  52.84000 21.41800 44.26000
C  51.98800 20.41500 44.00400
C  52.75100 19.14100 43.98100
C  54.11300 19.45900 44.08000
C  54.11200 20.94500 44.32300
C  52.14900 17.79900 43.65500
C  55.27300 18.40600 43.99800
O  55.03700 17.25700 43.82300
C  56.63900 18.69800 44.26000
N  54.41600 24.02600 44.85200
C  55.40900 23.13500 44.76300
C  56.75000 23.92200 44.76400
C  56.30600 25.37300 45.18800
C  54.78400 25.25100 45.14700
C  57.87200 23.33600 45.66100
C  56.98600 26.51800 44.37200
C  57.84700 27.48600 45.12100
N  51.93700 25.44000 44.71100
C  52.67200 26.52200 45.14500
C  51.81400 27.64400 45.24200
C  50.55900 27.26100 44.72200
C  50.71200 25.89300 44.33100
C  52.18100 28.99900 45.76700
C  49.26300 27.70300 44.39200
O  48.76800 28.84200 44.49300
C  48.51500 26.48500 43.76100
C  48.18600 26.87000 42.35100
O  48.94200 26.90900 41.42800
O  46.84200 27.13400 42.23000
C  46.38100 27.58400 40.90700
H  50.11500 19.59400 43.87200
H  56.17700 21.12600 44.66500
H  54.42100 27.28900 45.55900
H  47.17500 23.55100 44.01700
H  47.94800 21.13300 42.94700
H  47.85000 20.51100 45.50300
H  46.48700 21.16600 44.55200
H  47.32600 22.19200 45.74500
H  47.22200 24.25400 41.64800
H  46.56900 22.69600 41.74900
H  48.03900 21.72300 40.47100
H  49.39800 22.57400 41.27800
H  52.72500 17.44700 42.79900
H  51.08200 17.86600 43.44200
H  52.30700 17.09000 44.46700
H  57.17200 17.78300 44.00300
H  56.87900 18.96000 45.29100
H  56.92300 19.51100 43.59200
H  57.06900 23.87900 43.72300
H  56.58600 25.60200 46.21600
H  57.69000 22.32100 46.01400
H  57.93800 24.03600 46.49300
H  58.77400 23.32500 45.04900
H  56.29700 27.18200 43.85000
H  57.65700 25.93400 43.74200
H  58.74400 27.02700 45.53600
H  57.29700 27.98500 45.91800
H  58.10800 28.27900 44.42000
H  51.81600 29.72200 45.03800
H  53.25200 29.20200 45.79600
H  51.83100 29.08300 46.79600
H  47.61100 26.27400 44.33200
H  46.83700 26.93600 40.15900
H  46.65200 28.61700 40.68900
H  45.30600 27.41500 40.97900

