158

Mg -2.66600 34.87500 26.90100
C  -4.32700 33.14200 29.52900
C  -1.81200 37.30000 29.02700
C  -1.20100 36.39000 24.24800
C  -4.26900 32.66900 24.64700
N  -3.09400 35.25800 29.07500
C  -3.67200 34.30500 29.94900
C  -3.33700 34.77400 31.34000
C  -2.74600 36.20200 31.21100
C  -2.51700 36.31900 29.69100
C  -3.73300 37.39300 31.60700
C  -2.47400 33.76200 32.07900
C  -3.27400 33.06400 33.26800
H  -2.28100 32.99000 34.59100
N  -1.57400 36.57200 26.66400
C  -1.36000 37.48200 27.70600
C  -0.50900 38.53800 27.17100
C  -0.41100 38.36500 25.74100
C  -1.13900 37.05100 25.50600
C  0.14400 39.63100 28.00800
C  0.21000 39.27000 24.67700
O  0.11500 39.01100 23.50000
C  1.00000 40.46000 25.02500
N  -2.81100 34.63200 24.77400
C  -2.02100 35.32100 23.87700
C  -2.09900 34.73900 22.47800
C  -2.84800 33.36400 22.73800
C  -3.37100 33.55100 24.16200
C  -2.77400 35.76600 21.53000
C  -2.13800 31.96200 22.73000
C  -0.93900 31.65800 23.66200
N  -3.97300 33.21100 27.01300
C  -4.57900 32.47700 26.02900
C  -5.22100 31.38600 26.55400
C  -5.26700 31.56100 27.93700
C  -4.46000 32.75000 28.15700
C  -5.98400 30.33800 25.69700
C  -5.67000 31.13600 29.29800
O  -6.34700 30.21900 29.72600
C  -5.02800 32.10700 30.34200
C  -6.11700 32.66500 31.19300
O  -6.75000 33.71600 30.98400
O  -6.26300 31.89900 32.37200
C  -7.41700 32.29200 33.22600
H  -1.30700 38.01400 29.68000
H  -0.53600 36.73100 23.45200
H  -4.60700 31.87800 23.97500
H  -4.32300 35.01100 31.74000
H  -1.81900 36.37700 31.75800
H  -4.14600 37.91500 30.74400
H  -3.20000 38.16300 32.16400
H  -4.47700 37.08200 32.34100
H  -1.61000 34.28100 32.49500
H  -2.16200 32.92600 31.45300
H  -3.57100 32.07900 32.90900
H  -4.17500 33.65300 33.43500
H  0.11100 39.36800 29.06500
H  -0.39400 40.54700 27.76700
H  1.20800 39.70700 27.78300
H  1.79100 40.01800 25.63000
H  0.27500 40.97100 25.65900
H  1.41300 40.94900 24.14300
H  -1.07400 34.59600 22.13900
H  -3.71700 33.22600 22.09400
H  -2.82700 36.77100 21.94800
H  -3.80600 35.47600 21.33500
H  -2.21300 35.87400 20.60100
H  -1.70400 31.76200 21.75000
H  -2.85800 31.14500 22.77100
H  -1.35800 30.87600 24.29600
H  -0.68800 32.59100 24.16600
H  -0.07700 31.22700 23.15300
H  -5.54400 30.20400 24.70900
H  -7.03600 30.61700 25.63500
H  -5.92900 29.36300 26.18100
H  -4.27700 31.61800 30.96100
H  -8.25800 32.68400 32.65300
H  -7.15400 33.17800 33.80400
H  -7.64600 31.50600 33.94500
Mg -5.84800 25.32900 26.44300
C  -4.80200 26.72500 29.66300
C  -7.68200 22.97500 28.27600
C  -6.52400 23.98500 23.57100
C  -3.52400 27.54600 25.10300
N  -6.18800 24.96200 28.66500
C  -5.72200 25.67200 29.80200
C  -6.29800 25.10000 31.04900
C  -6.92400 23.70500 30.54400
C  -6.93100 23.91400 29.07100
C  -6.09800 22.43500 30.99300
C  -7.03900 26.02100 31.96200
C  -6.91500 25.88800 33.54800
H  -6.19900 24.60100 34.05500
N  -6.88500 23.75400 26.00000
C  -7.70300 22.95000 26.87100
C  -8.46400 22.05600 26.07000
C  -8.22100 22.34600 24.74700
C  -7.17900 23.39800 24.68600
C  -9.30700 20.94700 26.71000
C  -8.79800 21.73200 23.49000
O  -8.43800 22.07300 22.38400
C  -9.87200 20.72900 23.59800
N  -5.10600 25.70400 24.66900
C  -5.60900 25.06600 23.58800
C  -5.00000 25.61600 22.24200
C  -4.04900 26.73700 22.83100
C  -4.16200 26.62300 24.31600
C  -4.21800 24.63400 21.34000
C  -4.17200 28.19300 22.20200
C  -3.24100 28.45600 20.99100
N  -4.49600 26.93200 27.18100
C  -3.65700 27.71200 26.46200
C  -2.92000 28.69200 27.32600
C  -3.39000 28.30900 28.58900
C  -4.29000 27.26400 28.49000
C  -2.04400 29.78600 26.88400
C  -3.31900 28.72200 29.99200
O  -2.83100 29.67200 30.55800
C  -4.24800 27.70000 30.70600
C  -3.48700 26.89000 31.64000
O  -2.81300 25.92700 31.35800
O  -3.58300 27.44600 32.93500
C  -2.75500 26.94400 33.95400
H  -8.24800 22.31700 28.93900
H  -6.75000 23.53300 22.60300
H  -2.77300 28.17500 24.62100
H  -5.34700 24.85400 31.52200
H  -7.90800 23.56000 30.98900
H  -5.19800 22.71900 31.53800
H  -5.67400 21.95000 30.11400
H  -6.83800 21.85700 31.54500
H  -8.11500 25.86300 31.88300
H  -6.87900 27.03800 31.60300
H  -7.93100 26.05000 33.90800
H  -6.40900 26.77400 33.93100
H  -10.34500 20.89900 26.37800
H  -9.44700 21.16000 27.76900
H  -8.80400 20.00000 26.51300
H  -9.36000 19.79900 23.84300
H  -10.34300 20.55800 22.63000
H  -10.65500 21.12300 24.24600
H  -5.73400 26.11500 21.60900
H  -3.06200 26.34300 22.59200
H  -3.78300 23.79100 21.87700
H  -3.41000 25.19100 20.86600
H  -4.84400 24.26500 20.52700
H  -3.97300 28.95100 22.96100
H  -5.22200 28.36400 21.96700
H  -2.41000 29.12200 21.22600
H  -3.65600 28.89800 20.08500
H  -2.81500 27.47600 20.77500
H  -1.08500 29.53800 26.42700
H  -1.87000 30.37200 27.78600
H  -2.56200 30.45400 26.19600
H  -5.08800 28.10100 31.27300
H  -3.33000 26.25300 34.57100
H  -2.45300 27.75300 34.61900
H  -1.89000 26.40900 33.56300

