158

Mg -2.36100 16.33900 26.86400
C  -2.96600 14.15800 29.45900
C  -2.35100 18.89500 29.07300
C  -2.05000 18.40400 24.21000
C  -2.76200 13.60700 24.58700
N  -2.57900 16.43800 29.04100
C  -2.69700 15.39200 29.91700
C  -2.62700 15.94800 31.37400
C  -2.83600 17.51600 31.18100
C  -2.59800 17.67800 29.66200
C  -4.15500 18.07600 31.61200
C  -1.35700 15.53000 32.11000
C  -0.88400 16.22400 33.39100
H  -0.50300 15.43100 34.58400
N  -2.20200 18.47800 26.70800
C  -2.24200 19.30300 27.73800
C  -1.96500 20.69200 27.22700
C  -1.70900 20.59400 25.86100
C  -1.99000 19.10200 25.52400
C  -1.99700 21.93100 28.10600
C  -1.31700 21.54500 24.79400
O  -1.23500 21.22200 23.62400
C  -0.85300 22.88800 25.18100
N  -2.52700 16.04800 24.71000
C  -2.21800 17.07200 23.81300
C  -2.25400 16.62900 22.38000
C  -2.29200 15.09400 22.56300
C  -2.55600 14.89000 24.03200
C  -3.43500 17.08600 21.49700
C  -1.16600 14.32000 21.87400
C  0.32300 14.43800 22.39400
N  -2.79100 14.31900 26.98600
C  -2.84500 13.36200 25.99500
C  -2.98000 12.06100 26.57000
C  -3.07500 12.30800 27.95000
C  -2.92800 13.73300 28.13100
C  -3.18000 10.77000 25.87800
C  -3.21800 11.63700 29.22300
O  -3.27300 10.44000 29.49300
C  -3.16700 12.90300 30.31000
C  -2.09500 12.42300 31.21800
O  -0.92700 12.72900 31.12300
O  -2.69800 11.66400 32.16800
C  -1.82400 11.24100 33.27100
H  -2.45300 19.69400 29.81100
H  -1.96500 19.04300 23.32900
H  -2.64300 12.78100 23.88200
H  -3.42600 15.54200 31.99400
H  -2.02100 18.17000 31.49300
H  -4.91000 17.29900 31.49100
H  -4.36000 19.03200 31.13000
H  -4.09200 18.32000 32.67200
H  -0.54800 15.40100 31.39100
H  -1.60100 14.52700 32.46100
H  -1.71800 16.77900 33.82100
H  -0.16600 16.96700 33.04300
H  -0.93900 22.18900 28.15900
H  -2.49300 21.70600 29.05000
H  -2.56700 22.65600 27.52500
H  -1.48600 23.53200 25.79100
H  -0.56700 23.52500 24.34500
H  0.04600 22.64900 25.74900
H  -1.38400 17.10400 21.92800
H  -3.14400 14.64800 22.05000
H  -4.27700 16.39400 21.47200
H  -3.22600 17.64200 20.58300
H  -3.83500 17.90600 22.09400
H  -1.03100 14.60000 20.82900
H  -1.48100 13.27900 21.94200
H  0.47600 15.41400 22.85400
H  0.81100 14.46800 21.42000
H  0.74700 13.64900 23.01500
H  -3.15400 10.92900 24.80000
H  -4.12300 10.49600 26.35100
H  -2.55000 10.03800 26.38400
H  -4.07000 12.97800 30.91600
H  -1.42100 10.25600 33.03500
H  -2.49700 11.15100 34.12400
H  -1.05700 11.98100 33.50000
Mg 36.69400 49.86400 24.79500
C  36.90700 47.80300 27.63600
C  35.60600 52.35800 26.86900
C  36.13800 51.73900 22.09100
C  37.82100 47.33800 22.81900
N  36.06000 49.98600 27.02000
C  36.34600 49.07300 27.98500
C  35.99300 49.66300 29.42200
C  35.72300 51.13800 29.07300
C  35.75600 51.16200 27.59300
C  34.33600 51.60700 29.61600
C  37.04800 49.45800 30.51700
C  37.04400 50.42200 31.71200
H  35.67500 50.46500 32.49400
N  36.05100 51.82700 24.51600
C  35.65200 52.65600 25.52000
C  35.24200 53.91000 24.86500
C  35.46600 53.81000 23.47700
C  35.92900 52.43200 23.33000
C  34.73300 55.03400 25.77800
C  35.18800 54.85600 22.35900
O  35.20100 54.51700 21.16800
C  34.94300 56.28300 22.75300
N  37.01000 49.61100 22.71200
C  36.63100 50.50500 21.77300
C  36.96000 50.03700 20.35600
C  37.57000 48.62500 20.62900
C  37.53400 48.52000 22.15800
C  35.68100 50.07700 19.51400
C  38.92500 48.28100 19.90400
C  40.20700 48.12900 20.80900
N  37.28500 47.93000 25.11800
C  37.71500 46.97300 24.19100
C  38.07500 45.72100 24.93400
C  37.76900 46.03700 26.26100
C  37.26600 47.38400 26.31500
C  38.36500 44.50400 24.31600
C  37.65100 45.38400 27.54400
O  37.89200 44.30900 27.99000
C  37.07500 46.53600 28.47100
C  35.77600 46.17000 29.05200
O  34.69900 46.20500 28.48300
O  36.04100 45.88900 30.36800
C  34.86100 45.80200 31.29300
H  35.21400 53.16600 27.49100
H  35.87700 52.33100 21.21200
H  38.30100 46.64600 22.12300
H  35.04500 49.16600 29.62800
H  36.45100 51.85800 29.44900
H  34.53000 52.35200 30.38800
H  33.87400 50.82600 30.22100
H  33.68200 51.94700 28.81400
H  37.96400 49.52400 29.92900
H  37.03000 48.45800 30.95100
H  37.12800 51.45800 31.38500
H  37.83800 50.19500 32.42300
H  33.97800 54.66700 26.47300
H  34.26000 55.86400 25.25200
H  35.49900 55.59300 26.31400
H  33.90800 56.38400 23.07900
H  35.17100 57.02700 21.99100
H  35.61000 56.51300 23.58400
H  37.72700 50.68700 19.93600
H  36.89100 47.83400 20.31300
H  36.02400 49.99300 18.48300
H  34.94500 50.82300 19.81300
H  35.15800 49.12400 19.59800
H  39.20400 49.03200 19.16500
H  38.75800 47.29300 19.47300
H  40.76700 47.25800 20.46700
H  39.97400 48.10900 21.87400
H  40.83700 48.99500 20.60700
H  37.71100 43.73200 24.72200
H  39.41900 44.22400 24.30700
H  38.21400 44.55600 23.23800
H  37.77500 46.75500 29.27800
H  33.86100 45.63300 30.89300
H  34.69200 46.71800 31.85900
H  35.14400 45.04500 32.02400

