158

Mg 35.94500 49.47800 25.17100
C  36.39200 47.78400 28.30900
C  34.15600 51.79400 26.86600
C  35.20400 50.73600 22.22000
C  37.39400 46.72000 23.58500
N  35.24400 49.66900 27.31300
C  35.73700 48.98600 28.42200
C  35.42100 49.71700 29.70500
C  34.59200 50.97400 29.23600
C  34.67200 50.82000 27.72300
C  33.08600 50.98000 29.83500
C  36.73000 50.10200 30.39900
C  36.80400 49.84600 31.90600
H  35.52300 49.95400 32.78400
N  34.77100 50.96400 24.60700
C  34.11400 51.92400 25.48200
C  33.40300 52.88300 24.73400
C  33.67700 52.57100 23.35700
C  34.60500 51.40200 23.33900
C  32.35800 53.75200 25.32000
C  33.08400 53.14700 22.07600
O  33.43000 52.74000 20.94500
C  32.25000 54.42900 22.09600
N  36.14600 48.72100 23.18300
C  35.91500 49.48800 22.18000
C  36.38500 48.94500 20.82300
C  37.34500 47.78000 21.27000
C  36.89900 47.69300 22.74600
C  35.11800 48.50400 19.98700
C  38.81100 48.10700 20.96500
C  39.61300 47.07100 20.15000
N  36.61200 47.57900 25.74500
C  37.21900 46.60400 24.93500
C  37.70400 45.52800 25.78400
C  37.34500 45.92900 27.12500
C  36.72400 47.23400 27.02300
C  38.32000 44.24100 25.30700
C  37.50700 45.58400 28.52300
O  37.97900 44.61400 29.07600
C  36.87900 46.76000 29.29300
C  35.74200 46.19000 30.18000
O  34.62800 45.92100 29.82400
O  36.17900 46.07500 31.46500
C  35.06300 45.82400 32.39000
H  33.79700 52.63100 27.46900
H  35.01500 51.11800 21.21500
H  37.92200 45.87300 23.14300
H  34.74400 49.09200 30.28700
H  35.00900 51.95800 29.44600
H  32.43600 50.25100 29.35200
H  32.64200 51.97400 29.79000
H  33.12700 50.65000 30.87300
H  37.00400 51.15500 30.34100
H  37.58200 49.54700 30.00700
H  37.43900 50.66000 32.25700
H  37.22700 48.87700 32.17000
H  32.33800 54.73500 24.85100
H  32.59000 53.91300 26.37300
H  31.38100 53.30800 25.13000
H  32.71100 55.21100 22.70000
H  31.23700 54.19500 22.42400
H  32.14000 54.81200 21.08200
H  36.90900 49.62500 20.15200
H  37.09400 46.85800 20.74600
H  34.20600 48.63300 20.57000
H  35.15500 47.48600 19.59800
H  35.12600 49.02900 19.03300
H  39.35900 48.22900 21.90000
H  38.84200 49.12800 20.58300
H  39.06600 46.12800 20.17300
H  40.63600 46.95800 20.50800
H  39.57100 47.41200 19.11600
H  38.67600 44.31300 24.27900
H  37.55000 43.47200 25.35800
H  39.12200 43.95600 25.98800
H  37.55900 47.27300 29.97300
H  34.47300 44.94800 32.12100
H  34.27100 46.56000 32.25200
H  35.27200 45.63200 33.44300
Mg 6.00000 53.22400 41.27200
C  4.20800 50.24400 41.45900
C  8.54100 51.47400 39.76100
C  7.54800 56.21800 40.76000
C  3.27300 54.78500 42.47700
N  6.25800 51.10500 40.60100
C  5.41400 50.06400 40.76700
C  5.86800 48.90800 39.89500
C  7.35900 49.17700 39.70900
C  7.42200 50.68200 40.06200
C  8.27800 48.25100 40.51400
C  5.07000 48.99300 38.55300
C  4.88000 47.70500 37.75600
H  5.64300 47.52300 36.50600
N  7.73900 53.75700 40.43700
C  8.66900 52.89200 39.86000
C  9.78200 53.61500 39.32600
C  9.62600 54.94100 39.77200
C  8.28100 55.01100 40.38400
C  10.87600 52.95600 38.49100
C  10.55900 56.08600 39.51600
O  11.49300 56.06000 38.75300
C  10.44700 57.43400 40.20200
N  5.47100 55.22400 41.54800
C  6.24800 56.29000 41.32400
C  5.52500 57.60300 41.50200
C  4.23200 57.13600 42.12700
C  4.28000 55.61500 41.98000
C  6.27500 58.63000 42.31500
C  2.91600 57.80200 41.50600
C  1.92400 58.44800 42.47300
N  4.05400 52.67500 41.83900
C  3.13000 53.41000 42.45500
C  2.06700 52.56300 43.00500
C  2.40300 51.27400 42.66700
C  3.63500 51.47700 41.91700
C  0.92000 53.02400 43.86100
C  2.10100 49.84500 42.70100
O  1.11200 49.31200 43.12300
C  3.30600 49.09200 42.08800
C  2.93100 47.95500 41.19400
O  2.25900 48.08300 40.17000
O  3.54400 46.77600 41.61900
C  3.53300 45.62500 40.71200
H  9.43300 51.04500 39.29900
H  7.92700 57.22000 40.54700
H  2.45500 55.37000 42.90100
H  5.57700 47.99600 40.41600
H  7.69200 49.00700 38.68600
H  7.71300 47.48400 41.04500
H  9.01300 48.79100 41.11100
H  8.80600 47.64100 39.78100
H  5.53800 49.65300 37.82300
H  4.04700 49.36700 38.59500
H  3.81700 47.64800 37.52000
H  5.00500 46.78300 38.32400
H  11.05800 53.69500 37.71000
H  10.63900 52.02400 37.97900
H  11.82400 52.88700 39.02400
H  11.40400 57.94100 40.32700
H  10.02100 57.24300 41.18700
H  9.95500 58.21500 39.62400
H  5.39200 58.04800 40.51600
H  4.12400 57.32600 43.19500
H  6.62400 59.46800 41.71000
H  7.15800 58.17800 42.76600
H  5.65400 58.94700 43.15200
H  2.40400 56.98200 41.00400
H  3.08500 58.54200 40.72400
H  2.35100 58.61300 43.46300
H  1.05900 57.78700 42.51200
H  1.65800 59.37100 41.95700
H  1.11200 53.95500 44.39400
H  0.62800 52.22600 44.54400
H  0.05300 53.25300 43.24000
H  3.92700 48.58800 42.82900
H  4.55300 45.23900 40.71600
H  3.20700 45.79200 39.68500
H  2.83100 44.87100 41.06700

