158

Mg 48.00700 25.39400 28.15700
C  48.62600 27.73700 30.66000
C  47.12300 23.12500 30.41800
C  47.48100 23.35900 25.53500
C  49.58400 27.66300 25.98200
N  47.81100 25.46800 30.33400
C  48.00100 26.53400 31.18100
C  47.71800 26.06000 32.61400
C  47.43000 24.51700 32.50900
C  47.53700 24.29600 30.98100
C  48.39800 23.55400 33.37300
C  46.64700 26.91600 33.39300
C  47.12500 27.28000 34.83200
H  45.99800 27.60500 35.77300
N  47.32500 23.49400 28.03000
C  46.98000 22.69900 29.07900
C  46.47900 21.45800 28.55500
C  46.49600 21.52300 27.11600
C  47.15100 22.79400 26.78100
C  46.02300 20.33900 29.38200
C  45.99800 20.48600 26.04500
O  46.23900 20.58700 24.84300
C  45.03800 19.29000 26.40800
N  48.50700 25.43000 26.11000
C  48.18300 24.48700 25.20800
C  48.41300 24.89400 23.70800
C  48.99500 26.34900 23.88500
C  48.95800 26.53500 25.37300
C  49.34100 23.93000 22.88500
C  48.26700 27.44900 23.07100
C  49.11900 28.67600 22.67100
N  49.00000 27.30000 28.24000
C  49.73400 28.07200 27.29800
C  50.11900 29.34500 27.88900
C  49.76400 29.27800 29.19700
C  49.10000 28.05600 29.35200
C  50.83900 30.45500 27.14000
C  49.83600 29.99100 30.48500
O  50.27400 31.03500 30.88700
C  49.04100 29.00700 31.48400
C  50.07600 28.50300 32.47300
O  50.89500 27.64600 32.26000
O  50.11100 29.31900 33.63000
C  50.91300 28.71600 34.69600
H  47.03000 22.22500 31.02900
H  47.19700 22.86000 24.60600
H  50.09200 28.28300 25.24000
H  48.65900 26.16600 33.15500
H  46.39600 24.28400 32.76500
H  48.71700 23.97000 34.32900
H  49.29600 23.39400 32.77600
H  47.84000 22.62500 33.49000
H  45.66400 26.44800 33.33300
H  46.48500 27.86200 32.87700
H  47.67900 28.21700 34.79300
H  47.69600 26.51000 35.35200
H  46.40300 20.34900 30.40300
H  46.40100 19.41200 28.95100
H  44.93300 20.36500 29.39000
H  44.37600 19.65100 27.19500
H  45.70500 18.49500 26.74400
H  44.51000 18.93900 25.52100
H  47.45400 24.90600 23.18900
H  50.03700 26.38500 23.56700
H  49.71000 23.09200 23.47400
H  50.13200 24.46800 22.36200
H  48.72000 23.49800 22.10000
H  47.30100 27.77700 23.45500
H  47.90000 26.98600 22.15500
H  49.03700 28.77800 21.58900
H  50.17200 28.59800 22.94200
H  48.74200 29.51900 23.25100
H  51.41700 30.08600 26.29300
H  51.56100 30.86700 27.84500
H  50.20600 31.24800 26.74300
H  48.23600 29.61400 31.89700
H  50.38700 27.87000 35.13900
H  51.21700 29.45100 35.44100
H  51.86800 28.31800 34.35400
Mg 48.97900 35.88300 27.43500
C  47.06100 33.99400 29.99900
C  49.08100 38.41500 29.65200
C  50.22400 37.66400 25.01700
C  48.50500 33.23100 25.24200
N  48.00600 36.18200 29.52700
C  47.44700 35.28800 30.42600
C  47.49900 35.93800 31.83400
C  47.68500 37.45900 31.60300
C  48.29900 37.36200 30.15600
C  46.39600 38.34100 31.54400
C  48.60300 35.23100 32.73100
C  48.25600 34.80100 34.16500
H  46.99400 35.38300 34.82400
N  49.72600 37.69900 27.44600
C  49.79100 38.57500 28.48000
C  50.59600 39.74600 28.11300
C  50.86000 39.56600 26.71800
C  50.21700 38.27800 26.30700
C  51.02000 40.77000 29.09300
C  51.62600 40.48800 25.82400
O  51.69100 40.28300 24.61600
C  52.28500 41.72100 26.46500
N  49.31400 35.47600 25.37300
C  49.92200 36.34000 24.59300
C  50.17200 35.81200 23.17900
C  49.96800 34.27500 23.42800
C  49.26400 34.25900 24.74800
C  49.26100 36.54200 22.15300
C  51.26500 33.39400 23.53800
C  51.20100 32.09100 22.80100
N  48.05800 33.96800 27.56500
C  47.83100 33.09800 26.51100
C  47.03600 31.98900 27.01900
C  46.78600 32.36400 28.30600
C  47.36600 33.53000 28.66700
C  46.54100 30.71700 26.30600
C  45.99700 31.88400 29.47100
O  45.30600 30.95200 29.69100
C  46.08600 33.12000 30.51200
C  46.24400 32.58300 31.88800
O  47.24100 32.05100 32.37400
O  45.06700 32.75600 32.44100
C  44.71200 32.15000 33.70200
H  49.03000 39.21700 30.39100
H  50.65200 38.33900 24.27200
H  48.39500 32.40800 24.53300
H  46.53100 35.84900 32.32500
H  48.36600 37.95200 32.29700
H  46.02400 38.38200 32.56800
H  45.58200 37.91500 30.95700
H  46.56100 39.36700 31.21600
H  49.44600 35.90400 32.88700
H  49.11100 34.41500 32.21700
H  49.01800 35.10800 34.88100
H  48.24700 33.72500 34.34300
H  50.80500 40.45300 30.11300
H  50.66800 41.75800 28.79800
H  52.10900 40.79400 29.12900
H  51.49000 42.42400 26.71100
H  52.78200 42.27600 25.66900
H  53.07600 41.38100 27.13300
H  51.18700 36.11800 22.92500
H  49.20800 33.95000 22.71700
H  49.60500 37.48500 21.72700
H  48.40800 36.81900 22.77300
H  49.05300 35.87600 21.31600
H  51.45600 33.25100 24.60200
H  52.15000 33.86200 23.10500
H  51.10500 31.22900 23.46200
H  52.05200 31.98500 22.12800
H  50.24700 31.98600 22.28600
H  47.31900 30.05800 25.92100
H  46.00800 31.10700 25.43900
H  45.83200 30.11100 26.87000
H  45.13800 33.63500 30.35700
H  45.47600 32.26300 34.47100
H  44.72900 31.07300 33.53700
H  43.77300 32.49900 34.13400

