158

Mg 10.33100 47.45500 25.65800
C  8.30700 47.65000 28.58100
C  12.79600 48.96700 27.61500
C  12.23400 47.61200 23.00300
C  7.51500 46.68200 23.86000
N  10.46600 48.20900 27.88500
C  9.58900 48.05500 28.92900
C  10.13600 48.59200 30.25100
C  11.44000 49.32400 29.75000
C  11.60900 48.82000 28.33500
C  11.47100 50.88000 29.90300
C  10.40900 47.47800 31.32200
C  9.60700 47.57700 32.61300
H  9.81100 46.39100 33.58100
N  12.23000 48.14700 25.29800
C  13.10400 48.68700 26.24900
C  14.44600 48.79700 25.68400
C  14.30100 48.39800 24.32500
C  12.87100 48.13500 24.12000
C  15.62800 49.28900 26.53100
C  15.34500 48.17900 23.23300
O  15.00300 47.74600 22.11100
C  16.77900 48.59000 23.57300
N  9.89000 47.19000 23.61200
C  10.89600 47.20200 22.75100
C  10.42500 46.56700 21.40300
C  9.01100 46.13800 21.73900
C  8.74600 46.64900 23.13900
C  10.59300 47.62000 20.22700
C  8.79700 44.67500 21.49700
C  9.40800 43.70200 22.47500
N  8.31700 47.16200 26.07700
C  7.26200 46.92000 25.26700
C  6.02100 46.73300 25.99100
C  6.38600 46.86500 27.26400
C  7.75500 47.28000 27.26200
C  4.60300 46.52300 25.38800
C  5.95200 46.84100 28.63900
O  4.88300 46.54900 29.11000
C  7.12900 47.30400 29.54100
C  7.39400 46.09700 30.39000
O  8.25700 45.32900 30.22800
O  6.50200 46.22100 31.46000
C  6.48000 45.20100 32.41000
H  13.57300 49.43300 28.22500
H  12.74000 47.42600 22.05400
H  6.59600 46.29900 23.41000
H  9.50500 49.38100 30.66000
H  12.32000 48.97300 30.28900
H  10.64600 51.26700 30.50200
H  11.41200 51.34800 28.92000
H  12.38900 51.27100 30.34300
H  11.48500 47.54000 31.48500
H  10.22600 46.49100 30.89800
H  8.57600 47.83600 32.37300
H  9.95400 48.46200 33.14700
H  16.13100 50.08800 25.98600
H  16.37800 48.58900 26.89800
H  15.38400 49.77000 27.47800
H  17.01600 48.13100 24.53300
H  16.83100 49.66500 23.74700
H  17.35700 48.15900 22.75500
H  11.17000 45.78500 21.25300
H  8.44200 46.68300 20.98600
H  9.67000 47.76800 19.66700
H  11.17400 47.21800 19.39700
H  11.10200 48.52800 20.55000
H  9.07600 44.41300 20.47600
H  7.74200 44.42000 21.59900
H  9.88800 44.17300 23.33300
H  10.04500 43.09400 21.83300
H  8.57900 43.07400 22.80100
H  4.49600 47.08200 24.45800
H  3.95000 46.93400 26.15700
H  4.43900 45.44800 25.31000
H  6.95000 48.15500 30.19700
H  5.61200 44.54300 32.40800
H  6.66000 45.43400 33.45900
H  7.24000 44.44200 32.22100
Mg -1.40000 34.17900 26.53400
C  -3.13100 32.54600 29.02300
C  -0.05500 36.27800 28.70700
C  0.00100 35.78700 23.94900
C  -3.11500 32.12800 24.14400
N  -1.77100 34.46500 28.61000
C  -2.38200 33.62800 29.46100
C  -2.01000 34.06900 30.91100
C  -1.26400 35.35500 30.69600
C  -0.95700 35.37600 29.23700
C  -2.14100 36.60900 30.92300
C  -1.37500 32.82200 31.72900
C  -2.06400 32.24800 32.94400
H  -1.37300 32.30700 34.25700
N  0.01300 35.65600 26.36000
C  0.44300 36.38100 27.41500
C  1.31500 37.40900 26.95700
C  1.32200 37.36800 25.49200
C  0.40300 36.19200 25.19800
C  2.06100 38.44500 27.85800
C  2.05400 38.21900 24.40000
O  2.06800 37.86400 23.18800
C  2.84000 39.35800 24.85500
N  -1.59100 33.95600 24.28400
C  -0.73500 34.68200 23.52200
C  -0.83100 34.23400 22.07200
C  -1.96400 33.22100 22.01000
C  -2.22000 33.09200 23.58400
C  -0.99400 35.40300 21.00800
C  -1.73900 31.88000 21.23300
C  -0.81000 30.91500 21.95400
N  -2.87000 32.60000 26.51600
C  -3.46400 31.94700 25.50500
C  -4.35800 31.00800 26.06500
C  -4.18600 31.16800 27.43700
C  -3.32000 32.18500 27.68400
C  -5.27200 30.08700 25.26900
C  -4.66700 30.59700 28.72200
O  -5.49200 29.69400 28.88800
C  -3.91200 31.48500 29.78400
C  -5.03700 31.94000 30.60600
O  -5.61800 33.02500 30.50400
O  -5.21800 31.05300 31.60300
C  -6.23200 31.42400 32.61500
H  0.53700 36.86200 29.41500
H  0.29600 36.37300 23.07600
H  -3.73600 31.63900 23.39100
H  -2.99300 34.34100 31.29500
H  -0.39100 35.36200 31.34900
H  -2.01400 36.93700 31.95400
H  -3.21300 36.52200 30.74600
H  -2.00800 37.47900 30.28000
H  -0.36300 33.08100 32.04200
H  -1.24600 32.02300 30.99800
H  -2.04600 31.18300 32.71200
H  -3.07700 32.63200 33.06400
H  3.11900 38.24000 27.69900
H  1.83200 38.45500 28.92400
H  1.71300 39.43700 27.57100
H  2.23800 40.00300 25.49600
H  3.27700 39.92500 24.03300
H  3.63600 39.01000 25.51300
H  0.14400 33.84100 21.78100
H  -2.82300 33.69900 21.53900
H  -1.38700 36.33500 21.41500
H  -1.70400 35.12300 20.23000
H  -0.06100 35.65300 20.50200
H  -1.28900 32.12000 20.27000
H  -2.70000 31.39400 21.06200
H  -1.19200 29.89400 21.94300
H  -0.77800 31.25000 22.99100
H  0.16300 30.82500 21.47100
H  -4.67100 29.18200 25.35600
H  -5.28400 30.34400 24.21000
H  -6.25700 30.09600 25.73500
H  -3.39400 30.81300 30.46800
H  -5.94500 32.25400 33.26200
H  -6.42100 30.52900 33.20700
H  -7.16500 31.63300 32.09300

