158

Mg 41.10100 8.82700 29.67600
C  42.81500 10.61600 32.08500
C  38.88600 7.79400 32.01600
C  39.85000 7.05300 27.23500
C  43.81600 9.64400 27.41000
N  40.94700 9.22500 31.83700
C  41.64400 10.08700 32.59700
C  41.12800 10.24600 34.01300
C  39.91900 9.21600 33.91500
C  39.82100 8.72900 32.45900
C  39.99400 8.00800 34.86500
C  40.74900 11.70600 34.46300
C  41.53200 12.18500 35.72600
H  40.76000 12.77400 36.84300
N  39.55400 7.66900 29.62300
C  38.75400 7.37900 30.70000
C  37.68900 6.56500 30.22500
C  37.83100 6.39800 28.79500
C  39.13800 7.02900 28.47400
C  36.56100 5.93200 31.13600
C  36.93600 5.71600 27.80200
O  37.25000 5.73500 26.57800
C  35.63800 5.01900 28.17800
N  41.81900 8.35900 27.62900
C  41.02300 7.61400 26.80400
C  41.40400 7.79000 25.35000
C  42.84100 8.42300 25.46900
C  42.86100 8.84100 26.94200
C  41.28000 6.55300 24.33300
C  43.09600 9.66400 24.60100
C  42.61700 11.07200 24.97700
N  42.89900 9.86000 29.70600
C  43.87700 10.09200 28.73500
C  44.90000 10.99000 29.35900
C  44.57900 11.17600 30.66200
C  43.34500 10.46400 30.82900
C  46.02700 11.45800 28.62000
C  44.98300 11.78800 31.89700
O  45.93800 12.54300 32.20700
C  43.86400 11.48800 32.86300
C  44.34400 10.69400 34.03000
O  44.57900 9.49200 33.97300
O  44.69500 11.52200 35.09200
C  45.31300 10.85900 36.23300
H  37.98000 7.66900 32.61300
H  39.28500 6.68500 26.37600
H  44.72400 9.78900 26.82100
H  41.97400 9.87300 34.59100
H  39.02700 9.75500 34.23700
H  40.93200 8.04900 35.41900
H  39.75300 7.00800 34.50500
H  39.29800 8.05600 35.70300
H  39.71000 11.76800 34.78700
H  40.92500 12.27900 33.55300
H  42.23800 12.97100 35.45800
H  42.00300 11.28600 36.12400
H  36.79300 5.96600 32.20000
H  36.51500 4.87900 30.85600
H  35.62000 6.46400 30.99500
H  35.16000 4.54100 27.32300
H  34.97000 5.76900 28.60000
H  35.74600 4.20900 28.90000
H  40.81200 8.57100 24.87300
H  43.65000 7.70000 25.36400
H  40.34500 6.67600 23.78700
H  41.10100 5.63400 24.89200
H  42.20800 6.45400 23.77000
H  42.65600 9.40300 23.63800
H  44.16900 9.75800 24.43700
H  43.38500 11.69200 25.43900
H  41.79100 10.92100 25.67200
H  42.23900 11.57300 24.08500
H  45.66200 12.24200 27.95600
H  46.44300 10.59200 28.10600
H  46.72200 11.84000 29.36800
H  43.45300 12.46300 33.12700
H  45.97500 10.07500 35.86500
H  44.59800 10.43300 36.93700
H  45.96700 11.57700 36.72900
Mg 47.63300 16.00000 28.80700
C  45.41600 15.69600 31.39900
C  49.75800 17.66900 31.02300
C  49.59700 16.92900 26.23800
C  45.27100 14.65500 26.66100
N  47.53400 16.65200 30.84900
C  46.59700 16.21900 31.82600
C  47.00200 16.66000 33.24300
C  48.22600 17.62900 33.02400
C  48.52100 17.30800 31.54600
C  48.00400 19.11000 33.24700
C  47.29000 15.48100 34.23100
C  46.89200 15.67400 35.65000
H  46.51500 17.11300 36.06500
N  49.48800 17.09900 28.65900
C  50.18100 17.69800 29.65500
C  51.50000 18.09300 29.21400
C  51.50500 17.83300 27.76000
C  50.18800 17.25500 27.45400
C  52.57700 18.77400 30.04900
C  52.58800 18.12500 26.81700
O  52.43900 17.75500 25.69400
C  53.80800 18.86600 27.07200
N  47.43300 15.73700 26.75800
C  48.40200 16.20900 25.87700
C  47.86500 16.14200 24.44900
C  46.64100 15.20000 24.56100
C  46.42300 15.19000 26.06600
C  47.63900 17.55600 23.82400
C  46.83500 13.79600 23.92000
C  45.93300 13.52100 22.71100
N  45.74800 15.35100 28.91100
C  44.90700 14.80000 28.01100
C  43.70900 14.37400 28.64100
C  43.79400 14.75500 29.95400
C  45.05200 15.38600 30.05100
C  42.59900 13.62900 27.94400
C  43.12700 14.70600 31.27500
O  42.13500 14.10700 31.65900
C  44.18400 15.38900 32.21800
C  43.53800 16.56000 32.77000
O  43.27300 17.58600 32.15600
O  43.00100 16.27400 33.96700
C  42.12700 17.28200 34.58400
H  50.39200 18.04900 31.82700
H  50.13300 17.26400 25.34800
H  44.57300 14.27300 25.91300
H  46.16300 17.24800 33.61500
H  49.11800 17.24100 33.51600
H  46.98200 19.26300 33.59300
H  48.04600 19.54700 32.24900
H  48.69300 19.54500 33.97100
H  48.37500 15.41600 34.15100
H  46.90700 14.57800 33.75600
H  47.63400 15.27500 36.34100
H  46.06300 14.98900 35.83000
H  52.22600 18.76100 31.08000
H  52.73400 19.79200 29.69100
H  53.48900 18.18700 29.93700
H  53.70400 19.56500 27.90200
H  54.13500 19.29000 26.12300
H  54.57300 18.11600 27.27400
H  48.69700 15.76700 23.85200
H  45.82300 15.76400 24.11400
H  47.90200 18.28400 24.59100
H  46.59300 17.65900 23.53500
H  48.23200 17.72600 22.92500
H  46.63100 13.09700 24.73100
H  47.88600 13.59000 23.71700
H  46.54000 13.12300 21.89800
H  45.43000 14.42000 22.35600
H  45.09500 12.85000 22.90000
H  42.78500 12.56700 27.78400
H  42.43300 14.19600 27.02800
H  41.64800 13.66500 28.47500
H  44.51900 14.83300 33.09300
H  41.50900 17.91600 33.94800
H  42.71500 17.95600 35.20700
H  41.41100 16.86400 35.29200

