158

Mg 5.38800 54.10600 40.63900
C  5.64600 50.69900 40.09500
C  8.40800 54.41700 38.80200
C  4.92700 57.51300 40.40900
C  2.18600 53.75200 41.86400
N  6.75600 52.70600 39.52800
C  6.69100 51.33300 39.52400
C  7.74600 50.81000 38.57300
C  8.82000 51.87900 38.85100
C  7.92400 53.08600 38.94200
C  9.76500 51.76900 40.04400
C  7.10200 50.76500 37.17900
C  7.53300 51.80200 36.05300
H  6.38100 52.29500 35.26700
N  6.55700 55.78700 39.79900
C  7.75200 55.67700 39.14200
C  8.24300 57.00700 38.84100
C  7.26500 57.92500 39.44600
C  6.13700 57.11200 39.86600
C  9.57000 57.28100 38.15500
C  7.50100 59.34800 39.63600
O  8.53800 59.82600 39.21700
C  6.62500 60.23300 40.34700
N  3.74200 55.43600 40.85500
C  3.79900 56.74200 40.82100
C  2.56100 57.40000 41.39700
C  1.59200 56.23100 41.55700
C  2.52700 55.02900 41.34800
C  2.94700 58.32300 42.72900
C  0.27100 56.35500 40.77100
C  -0.93300 56.73300 41.62100
N  4.07200 52.62200 40.89000
C  2.90500 52.57100 41.59200
C  2.51600 51.13200 41.85300
C  3.55400 50.37000 41.29900
C  4.44600 51.32300 40.76200
C  1.39800 50.59900 42.68800
C  4.10000 49.05200 41.00300
O  3.70800 47.91500 41.33600
C  5.39500 49.22100 40.22100
C  5.18400 48.52200 38.90100
O  4.25800 48.66100 38.13000
O  6.21600 47.59400 38.66000
C  5.97800 46.61600 37.50900
H  9.43700 54.47800 38.44100
H  4.78400 58.58900 40.53200
H  1.17600 53.65900 42.27000
H  8.12100 49.82000 38.83500
H  9.44700 52.05200 37.97600
H  10.79400 51.58400 39.73700
H  9.37800 50.93500 40.63100
H  9.81700 52.66900 40.65600
H  6.03300 50.73800 37.39000
H  7.37000 49.78000 36.79700
H  8.23600 51.38200 35.33400
H  7.89700 52.68800 36.57300
H  9.50600 56.78600 37.18600
H  10.36600 56.80200 38.72600
H  9.79600 58.32600 37.94400
H  7.16500 61.14900 40.58400
H  6.23800 59.76100 41.25000
H  5.78700 60.37000 39.66300
H  2.17100 58.10000 40.65800
H  1.40100 56.22100 42.63000
H  3.20200 59.29400 42.30600
H  3.83900 58.06600 43.30000
H  2.09200 58.48700 43.38500
H  0.07400 55.53600 40.07900
H  0.31700 57.22700 40.11900
H  -1.71700 56.00600 41.41200
H  -1.27700 57.69800 41.25000
H  -0.77200 56.89400 42.68700
H  0.72300 49.87300 42.23500
H  0.81500 51.48100 42.95400
H  1.80100 50.19900 43.61900
H  6.19300 48.77700 40.81700
H  5.94200 47.19100 36.58300
H  4.98300 46.24200 37.74900
H  6.66800 45.78900 37.33900
Mg 17.03700 53.10500 25.79900
C  19.06300 52.39300 28.70700
C  14.47800 53.90500 27.95800
C  15.30700 53.95800 23.12500
C  19.72400 51.90700 23.85600
N  16.84600 53.11900 28.08900
C  17.74200 52.80900 29.10100
C  17.14600 52.72800 30.45500
C  15.57800 53.04300 30.17400
C  15.60300 53.36700 28.64200
C  14.64400 51.90300 30.53800
C  17.83400 53.69600 31.54300
C  17.63300 53.13900 32.95500
H  16.80000 53.76200 34.09500
N  15.12700 53.82000 25.62900
C  14.24700 54.10100 26.61600
C  13.06000 54.68600 26.01000
C  13.31200 54.72500 24.57800
C  14.60800 54.11200 24.38300
C  11.79400 54.90400 26.83300
C  12.37600 55.14200 23.49100
O  12.66100 55.23900 22.27300
C  10.89700 55.50300 23.95000
N  17.48500 53.01700 23.79600
C  16.60400 53.33900 22.89300
C  17.18700 53.08500 21.48500
C  18.55400 52.28400 21.71000
C  18.59300 52.39800 23.23100
C  16.19300 52.28300 20.58400
C  19.77500 53.03900 21.02700
C  20.17300 54.44200 21.52200
N  18.98500 52.35700 26.18100
C  19.93200 51.94000 25.26600
C  21.16500 51.47700 26.01300
C  20.86200 51.72000 27.35600
C  19.54600 52.24900 27.37700
C  22.38900 50.92000 25.45300
C  21.33000 51.53400 28.70000
O  22.45200 51.08000 28.98700
C  20.21100 51.92100 29.63600
C  19.97000 50.78800 30.53000
O  19.85100 49.62900 30.11200
O  20.05000 51.17800 31.84400
C  20.00200 50.16900 32.91800
H  13.62800 54.10900 28.61300
H  14.82100 54.31800 22.21600
H  20.55800 51.55800 23.24500
H  17.20800 51.68500 30.76400
H  15.19200 53.98100 30.57300
H  14.48600 51.26100 29.67200
H  13.72200 52.27000 30.98900
H  15.15700 51.29400 31.28200
H  17.46200 54.72000 31.55800
H  18.86900 53.73600 31.20200
H  18.64300 53.16600 33.36400
H  17.41600 52.07400 33.03700
H  11.48700 55.94300 26.70800
H  11.87500 54.93300 27.91900
H  10.92100 54.32400 26.53600
H  10.86100 56.40800 24.55600
H  10.42900 54.67300 24.48000
H  10.26500 55.61500 23.07000
H  17.27700 53.91800 20.78800
H  18.39400 51.29300 21.28600
H  16.09700 51.23500 20.86800
H  16.67200 52.31500 19.60600
H  15.17600 52.66300 20.67800
H  19.55700 53.12500 19.96300
H  20.66600 52.41000 21.04000
H  21.13300 54.34100 22.02900
H  19.44000 54.77600 22.25600
H  20.20700 55.17800 20.71900
H  23.19200 51.15600 26.15100
H  22.67300 51.34300 24.48900
H  22.11000 49.88500 25.25500
H  20.66800 52.71500 30.22600
H  19.19600 49.43800 32.85100
H  19.74400 50.65800 33.85700
H  20.94100 49.62500 33.02100

