158

Mg 54.35700 24.05300 44.78000
C  51.93200 26.50400 43.34600
C  52.57000 21.61500 43.16600
C  57.02100 22.06100 44.95900
C  56.18900 26.77800 45.87800
N  52.55400 24.20300 43.29900
C  51.69900 25.21000 42.97600
C  50.56300 24.78800 42.06400
C  50.62500 23.22600 42.31600
C  52.05300 22.91000 42.92300
C  49.53700 22.84300 43.36300
C  50.73900 25.21900 40.62200
C  52.13600 25.69000 40.12500
H  52.95800 24.64700 39.41000
N  54.62800 22.05400 44.41300
C  53.78000 21.20900 43.80900
C  54.27200 19.86500 43.99400
C  55.65200 19.97300 44.37800
C  55.83900 21.38400 44.57400
C  53.42700 18.68500 43.64500
C  56.69800 18.82600 44.58900
O  56.32600 17.66400 44.55900
C  58.11700 19.11700 45.01900
N  56.46700 24.47600 45.01600
C  57.27500 23.44800 45.18800
C  58.57900 23.85600 45.86100
C  58.31200 25.34900 46.33200
C  56.89900 25.57800 45.72600
C  59.19400 22.92700 47.02300
C  59.35200 26.36500 45.69600
C  59.58300 27.66200 46.43300
N  54.18500 26.19400 44.63600
C  54.94500 27.10500 45.28200
C  54.24800 28.37800 45.29900
C  53.08700 28.16900 44.51900
C  53.10100 26.88300 44.04900
C  54.71500 29.52200 45.97600
C  51.86100 28.86100 44.08300
O  51.42100 30.00600 44.22500
C  51.09000 27.78600 43.24100
C  50.76700 28.31200 41.85400
O  51.61700 28.65900 41.02800
O  49.40700 28.36300 41.73600
C  49.09200 28.85000 40.36900
H  51.85700 20.87400 42.79900
H  57.90600 21.42700 45.04500
H  56.72500 27.59200 46.36800
H  49.74800 25.32000 42.55500
H  50.46100 22.63500 41.41500
H  48.61000 22.86400 42.78900
H  49.54000 23.52100 44.21600
H  49.76000 21.84700 43.74500
H  50.08500 26.06900 40.43000
H  50.42000 24.38900 39.99100
H  52.77900 26.20000 40.84200
H  51.97100 26.60800 39.56100
H  53.58800 18.20300 42.68000
H  52.46500 19.14900 43.43100
H  53.31800 18.05600 44.52800
H  58.52900 18.11600 45.15100
H  58.10900 19.58300 46.00500
H  58.66200 19.71600 44.29000
H  59.19900 23.74300 44.97200
H  58.24500 25.40800 47.41800
H  58.42200 22.17800 47.19600
H  59.43900 23.47700 47.93200
H  60.11400 22.45000 46.68500
H  59.00300 26.57700 44.68600
H  60.27800 25.80000 45.58900
H  60.64000 27.80300 46.66100
H  59.00000 27.57100 47.35000
H  59.30500 28.54200 45.85200
H  55.01600 30.27400 45.24600
H  55.48200 29.25300 46.70300
H  53.81900 29.90900 46.46000
H  50.19900 27.54600 43.82000
H  49.14900 29.93800 40.42000
H  48.05600 28.69200 40.06800
H  49.77700 28.32400 39.70500
Mg -6.07600 24.89400 25.08500
C  -4.53700 26.15000 28.11700
C  -7.53500 22.48100 27.10600
C  -6.83600 23.31600 22.33900
C  -3.83900 27.10100 23.35600
N  -5.95400 24.37800 27.30900
C  -5.33900 25.05600 28.32300
C  -5.83900 24.62400 29.64000
C  -6.55800 23.20100 29.32800
C  -6.57600 23.26100 27.77900
C  -5.83700 21.95600 29.89900
C  -6.82000 25.69000 30.26300
C  -6.62500 25.96800 31.73600
H  -5.86900 24.92100 32.58500
N  -7.24700 23.30000 24.78600
C  -7.81500 22.49600 25.70600
C  -8.69500 21.56400 25.01400
C  -8.45400 21.73100 23.63400
C  -7.46000 22.83600 23.51900
C  -9.48100 20.57200 25.79300
C  -8.97100 20.87500 22.41100
O  -8.68700 21.10600 21.24500
C  -10.00600 19.77800 22.59700
N  -5.43700 25.16900 23.14100
C  -5.96200 24.39600 22.10700
C  -5.50700 24.80400 20.74200
C  -4.58500 26.04200 21.02100
C  -4.59100 26.14800 22.61300
C  -4.73100 23.66500 19.99700
C  -5.02300 27.37000 20.28200
C  -4.01400 27.97400 19.37200
N  -4.50300 26.37000 25.52000
C  -3.76700 27.19500 24.70500
C  -2.89100 28.01900 25.47200
C  -3.16300 27.64500 26.81200
C  -4.19900 26.69500 26.78400
C  -1.82200 28.96500 24.83900
C  -2.79400 27.89900 28.22100
O  -1.97200 28.62300 28.69000
C  -3.75600 26.97900 29.06700
C  -2.91200 26.32800 30.09800
O  -2.27200 25.31700 29.88000
O  -2.84800 27.13300 31.23100
C  -1.87500 26.75900 32.28100
H  -8.12900 21.81900 27.74000
H  -7.13400 22.66100 21.51700
H  -3.35300 27.85200 22.73000
H  -4.92800 24.44600 30.21200
H  -7.60500 23.19600 29.62800
H  -4.99900 22.17700 30.56000
H  -5.51100 21.41900 29.00800
H  -6.59400 21.35300 30.40200
H  -7.83200 25.30200 30.14800
H  -6.97900 26.60300 29.69000
H  -7.49100 26.16400 32.36800
H  -6.03800 26.87600 31.87000
H  -8.87100 19.68500 25.96500
H  -10.37100 20.22200 25.27000
H  -9.88300 21.05600 26.68300
H  -9.70600 19.00200 23.30200
H  -10.21700 19.37900 21.60500
H  -10.91600 20.27900 22.92600
H  -6.42400 25.06500 20.21400
H  -3.54900 25.81900 20.76500
H  -3.95700 23.98800 19.30000
H  -5.49100 23.03100 19.53900
H  -4.17100 22.96900 20.62000
H  -5.21300 28.08400 21.08400
H  -5.92700 27.21800 19.69100
H  -3.93500 29.04300 19.56800
H  -4.36500 27.87100 18.34500
H  -3.03500 27.50100 19.44400
H  -2.07200 30.02300 24.92100
H  -1.61800 28.67700 23.80800
H  -0.83400 28.76200 25.25200
H  -4.50400 27.60700 29.55100
H  -0.85300 27.01400 32.00000
H  -1.85200 25.67100 32.35500
H  -2.25400 27.14800 33.22500

