158

Mg 46.93100 16.98800 28.21700
C  45.02200 16.31500 31.16100
C  49.10600 18.76900 30.09800
C  48.42000 17.95200 25.36100
C  44.30900 15.44300 26.36600
N  47.00900 17.44200 30.40800
C  46.19300 17.02500 31.42600
C  46.77500 17.45300 32.81000
C  48.01400 18.42700 32.42700
C  48.03800 18.25500 30.88800
C  47.77800 19.89100 32.90100
C  47.27600 16.21900 33.64400
C  46.61900 16.00300 35.01800
H  46.33200 17.17900 35.89500
N  48.56800 18.09000 27.80000
C  49.38900 18.66900 28.70600
C  50.57600 19.19300 28.04800
C  50.36000 19.03800 26.63700
C  49.05900 18.33800 26.51600
C  51.82200 19.75900 28.77000
C  51.24600 19.47600 25.50800
O  50.94200 19.24300 24.32300
C  52.42000 20.41200 25.74400
N  46.38500 16.79100 26.14900
C  47.19400 17.33200 25.16300
C  46.59100 17.05600 23.77900
C  45.31100 16.19000 24.11900
C  45.36600 16.04000 25.64300
C  46.36400 18.20700 22.87000
C  45.08600 14.94200 23.29600
C  45.99600 13.64900 23.54700
N  45.02600 15.84800 28.64900
C  44.08500 15.40000 27.75200
C  42.91700 14.95400 28.54400
C  43.30300 15.26300 29.87200
C  44.56200 15.82600 29.85900
C  41.57100 14.44600 28.16400
C  42.80200 15.31000 31.26500
O  41.66100 15.02200 31.73300
C  43.91900 16.00400 32.12800
C  43.36600 17.13600 32.98600
O  43.53600 18.29600 32.71300
O  42.52300 16.67000 33.97000
C  41.70000 17.73400 34.62600
H  49.83200 19.32500 30.69500
H  48.91400 18.21500 24.42300
H  43.43800 15.21900 25.74600
H  45.99100 18.03500 33.29500
H  48.97200 18.00200 32.72600
H  47.01200 20.06000 33.65800
H  47.30700 20.39200 32.05600
H  48.72100 20.41400 33.06100
H  48.35600 16.14600 33.77300
H  47.09200 15.30800 33.07400
H  47.06900 15.19800 35.59900
H  45.59600 15.64800 34.90000
H  52.74500 19.41500 28.30300
H  51.89400 19.50700 29.82800
H  51.73300 20.84300 28.69300
H  52.19300 21.22800 26.43000
H  52.74400 20.77800 24.77000
H  53.23900 19.79600 26.11500
H  47.21500 16.27100 23.35200
H  44.56800 16.92100 23.80000
H  46.01200 18.93000 23.60600
H  45.52400 18.22000 22.17600
H  47.16300 18.56500 22.22100
H  44.94400 15.28800 22.27300
H  44.08800 14.53900 23.46900
H  46.40000 13.24700 22.61800
H  45.41100 12.91500 24.10100
H  46.77700 13.95700 24.24100
H  41.23800 14.89700 27.22900
H  40.90600 14.79900 28.95200
H  41.53100 13.35700 28.13000
H  44.23900 15.19700 32.78700
H  42.33100 18.53500 35.01100
H  41.31100 17.22300 35.50600
H  40.92400 18.11900 33.96400
Mg 1.04400 42.17700 25.44000
C  3.06800 42.16500 28.34200
C  -1.59800 41.21100 27.39000
C  -0.70200 41.53100 22.54500
C  3.84600 42.95300 23.63800
N  0.80000 41.60400 27.64700
C  1.66900 41.97600 28.63100
C  1.06000 42.00200 30.05600
C  -0.35800 41.45500 29.67200
C  -0.42600 41.43200 28.17400
C  -0.66500 40.01100 30.21100
C  0.91800 43.38900 30.74000
C  1.29700 43.44000 32.27400
H  0.72600 42.24100 33.04200
N  -0.87500 41.53300 25.01600
C  -1.81400 41.24300 25.95900
C  -3.03800 40.96100 25.31500
C  -2.82300 40.99800 23.86800
C  -1.39800 41.37300 23.74200
C  -4.34600 40.60600 26.03900
C  -3.67600 40.62600 22.70300
O  -3.37900 40.69700 21.54400
C  -5.08700 40.31300 22.92700
N  1.49000 42.21900 23.37300
C  0.63300 41.88700 22.35600
C  1.33200 41.99100 21.00600
C  2.74300 42.69200 21.43400
C  2.71900 42.64600 22.92000
C  1.50700 40.65500 20.21600
C  2.91100 44.16500 20.98700
C  4.07000 44.55200 20.11200
N  3.07700 42.49800 25.83400
C  4.10200 42.86700 24.98000
C  5.31900 42.96400 25.68600
C  5.04900 42.61600 27.08000
C  3.65500 42.35000 27.09100
C  6.71500 43.20600 25.11600
C  5.52000 42.41700 28.42500
O  6.64400 42.49800 28.89600
C  4.23500 42.29800 29.34400
C  4.37700 41.19500 30.30000
O  4.03200 40.05900 30.01700
O  4.67000 41.64600 31.53000
C  4.50800 40.68200 32.63400
H  -2.44800 41.25000 28.07400
H  -1.15400 41.23900 21.59500
H  4.64300 43.30700 22.98100
H  1.43300 41.25800 30.76100
H  -1.15500 42.11400 30.01700
H  -1.64500 39.96000 30.68600
H  0.07500 39.70300 30.95100
H  -0.74400 39.37300 29.33200
H  -0.09800 43.78400 30.75100
H  1.62500 44.13900 30.38500
H  0.83200 44.32700 32.70400
H  2.38000 43.56500 32.29900
H  -5.07500 41.41100 25.94600
H  -4.29000 40.53600 27.12600
H  -4.77000 39.67800 25.65600
H  -5.31400 39.38600 23.45300
H  -5.64900 40.38000 21.99600
H  -5.56600 41.14700 23.44000
H  0.66600 42.61400 20.40900
H  3.59000 42.03900 21.22200
H  0.81700 39.95900 20.69200
H  2.45900 40.12400 20.21300
H  1.25900 40.81600 19.16700
H  2.99700 44.85800 21.82300
H  2.04500 44.47600 20.40200
H  4.47400 45.45800 20.56300
H  3.84700 44.70800 19.05600
H  4.81600 43.75900 20.15300
H  6.62500 43.94300 24.31900
H  7.19800 42.31900 24.70400
H  7.40800 43.40300 25.93500
H  4.21700 43.28500 29.80500
H  5.49600 40.31800 32.91400
H  3.79700 39.86900 32.48500
H  4.14200 41.12900 33.55800

