158

Mg -1.58000 17.30300 27.07600
C  -2.11300 15.22600 29.90700
C  -2.24800 19.95500 29.04200
C  -1.61100 19.08700 24.27000
C  -1.54700 14.26800 25.03600
N  -2.00600 17.51000 29.30900
C  -2.18900 16.57900 30.30900
C  -2.55000 17.23600 31.60800
C  -2.84100 18.72000 31.26200
C  -2.33300 18.77100 29.76900
C  -4.30300 19.12200 31.41300
C  -1.44100 16.92400 32.69100
C  -1.96400 16.36500 33.97800
H  -0.95400 16.08100 35.09900
N  -1.88500 19.20800 26.70900
C  -2.06000 20.23500 27.65400
C  -2.06800 21.50300 27.01300
C  -1.85800 21.25000 25.66100
C  -1.74000 19.82300 25.49600
C  -2.41200 22.79400 27.73700
C  -1.58000 22.28100 24.52400
O  -1.40300 21.91800 23.33700
C  -1.47600 23.88400 24.72400
N  -1.42000 16.69600 24.91200
C  -1.46500 17.71500 24.01700
C  -1.50900 17.07400 22.56000
C  -1.11800 15.58200 22.79500
C  -1.46400 15.46700 24.30200
C  -2.90000 17.27600 21.81600
C  0.33600 15.18300 22.52700
C  1.48500 16.24400 22.62300
N  -1.76400 15.23800 27.31500
C  -1.63000 14.13600 26.45900
C  -1.95700 12.94000 27.11500
C  -1.98700 13.27300 28.48600
C  -1.92500 14.67400 28.57400
C  -1.87800 11.59500 26.50700
C  -2.08500 12.72300 29.77600
O  -2.16400 11.52400 30.13200
C  -2.09200 13.91900 30.70200
C  -0.80800 13.69400 31.44300
O  0.30700 13.92700 31.00400
O  -1.01100 13.20500 32.73500
C  0.23700 13.17800 33.51100
H  -2.48000 20.83000 29.65400
H  -1.73000 19.60800 23.31700
H  -1.50000 13.29100 24.55000
H  -3.49800 16.80800 31.93200
H  -2.31700 19.37900 31.95300
H  -5.04100 18.45600 31.85800
H  -4.81000 19.21700 30.45300
H  -4.22600 19.99100 32.06700
H  -0.92500 17.86900 32.85700
H  -0.68300 16.30000 32.21800
H  -2.61400 15.50200 33.83400
H  -2.56100 17.18200 34.38100
H  -2.52100 22.66600 28.81400
H  -3.31500 23.23400 27.31400
H  -1.51200 23.38600 27.57600
H  -0.44800 24.17400 24.94200
H  -2.10900 24.28200 25.51600
H  -1.73200 24.27100 23.73800
H  -0.82400 17.64800 21.93700
H  -1.63400 15.05700 21.99100
H  -3.21500 16.38500 21.27300
H  -2.73400 18.00500 21.02300
H  -3.70500 17.74100 22.38600
H  0.31400 14.87300 21.48200
H  0.62400 14.34900 23.16700
H  1.00300 17.17200 22.93300
H  1.73300 16.51800 21.59800
H  2.35100 15.87400 23.17300
H  -0.84200 11.59200 26.16900
H  -2.55300 11.40900 25.67200
H  -2.12000 10.85600 27.27100
H  -2.91500 13.97000 31.41400
H  0.88100 14.02100 33.25900
H  0.81900 12.26100 33.41800
H  -0.10200 13.13600 34.54600
Mg 8.47400 3.29600 27.24400
C  9.97400 1.93200 30.03400
C  6.58100 5.37300 29.21600
C  7.37600 4.85300 24.51800
C  10.03200 0.87700 25.18400
N  8.06400 3.34200 29.46100
C  8.97200 2.90300 30.38400
C  8.69900 3.47600 31.79500
C  7.46800 4.42600 31.48700
C  7.36500 4.42300 29.95900
C  6.12800 3.97800 32.16000
C  9.94000 4.20400 32.47000
C  9.74400 4.79800 33.79300
H  10.74300 4.24200 34.93800
N  7.11700 4.92900 26.92100
C  6.49500 5.68600 27.86400
C  5.68100 6.67700 27.22400
C  6.09500 6.68200 25.81500
C  6.95300 5.46800 25.69400
C  4.78000 7.59600 27.97300
C  5.65700 7.59000 24.59800
O  5.92600 7.33700 23.44100
C  4.70300 8.74700 24.96400
N  8.49400 2.78700 25.14500
C  7.94800 3.62500 24.21100
C  7.92900 2.97600 22.75000
C  8.75000 1.65900 22.97400
C  9.13000 1.76800 24.52400
C  6.44900 2.81000 22.26500
C  10.07400 1.65500 22.26300
C  10.36300 0.42900 21.31700
N  9.67800 1.72600 27.50400
C  10.27000 0.83400 26.59300
C  11.25100 0.00100 27.24200
C  11.23300 0.44800 28.61900
C  10.21100 1.45300 28.68900
C  12.10000 -1.03000 26.56000
C  11.82300 0.30800 29.97200
O  12.67800 -0.50400 30.41300
C  11.00100 1.25000 30.89700
C  10.36000 0.45700 32.03300
O  9.57300 -0.41300 31.86800
O  10.91600 0.77900 33.29500
C  10.49600 0.00200 34.46600
H  6.09100 6.03500 29.93300
H  7.14900 5.34700 23.57100
H  10.60600 0.20500 24.54100
H  8.53400 2.54500 32.33700
H  7.65700 5.45600 31.78800
H  6.42900 3.30500 32.96200
H  5.53100 3.50800 31.37800
H  5.56100 4.86400 32.44500
H  10.42600 4.95000 31.84100
H  10.69600 3.41900 32.50800
H  8.73400 4.66200 34.18200
H  10.02800 5.84400 33.67800
H  5.14300 8.62400 27.99200
H  4.41500 7.23900 28.93600
H  3.87000 7.75800 27.39600
H  3.72300 8.45300 25.34200
H  4.47600 9.30700 24.05700
H  5.23800 9.38300 25.66800
H  8.43400 3.59500 22.00900
H  8.18400 0.74200 22.81300
H  6.47200 1.96700 21.57400
H  5.98900 3.68100 21.79600
H  5.94000 2.50700 23.18000
H  10.89600 1.89400 22.93700
H  10.17600 2.53600 21.62900
H  10.34000 0.64300 20.24800
H  9.65600 -0.35000 21.60300
H  11.32500 -0.01300 21.57800
H  12.90700 -0.72000 25.89600
H  11.45900 -1.74300 26.04200
H  12.56500 -1.68500 27.29800
H  11.78200 1.82200 31.39800
H  9.62900 -0.64400 34.32300
H  10.24800 0.71700 35.25000
H  11.35700 -0.53600 34.86200

