158

Mg -1.13000 17.41800 26.16800
C  -1.78900 14.86600 28.61800
C  -2.03800 19.70300 28.60500
C  -1.32900 19.81600 23.69400
C  -1.41900 14.97400 23.64200
N  -1.84200 17.19700 28.32600
C  -1.80100 16.09700 29.20100
C  -1.70700 16.44500 30.62300
C  -2.03200 17.95700 30.56100
C  -1.95000 18.32900 29.06400
C  -3.39400 18.28700 31.24500
C  -0.49400 16.04400 31.44800
C  -0.00600 16.89200 32.61400
H  0.25200 16.22900 33.95300
N  -1.37500 19.42600 26.20200
C  -1.71100 20.18100 27.26400
C  -1.93600 21.56400 26.91700
C  -1.83200 21.63000 25.50900
C  -1.41000 20.25800 25.05900
C  -2.31800 22.74800 27.86100
C  -2.16500 22.72500 24.58400
O  -2.15300 22.58300 23.38100
C  -2.28400 24.14500 25.15700
N  -1.21200 17.40300 23.96400
C  -1.23000 18.49100 23.18800
C  -1.17200 18.09900 21.70200
C  -1.57700 16.67900 21.76100
C  -1.36600 16.27300 23.20800
C  -2.07600 18.94100 20.73800
C  -0.71600 15.91500 20.78600
C  -1.43900 15.12800 19.65200
N  -1.45600 15.36600 26.07400
C  -1.47100 14.53000 25.00500
C  -1.61900 13.13500 25.46600
C  -1.64800 13.22700 26.87800
C  -1.63800 14.63000 27.20200
C  -1.80600 11.99900 24.67100
C  -1.80300 12.42400 28.06400
O  -1.85200 11.24700 28.25900
C  -1.97300 13.42200 29.22500
C  -0.76000 13.16600 30.08300
O  0.32000 13.61500 29.87200
O  -0.98900 12.28000 31.11700
C  -0.07000 12.20300 32.24600
H  -2.13400 20.43800 29.40700
H  -1.20200 20.56800 22.91200
H  -1.48400 14.23200 22.84300
H  -2.54400 15.97700 31.14100
H  -1.25800 18.63800 30.91500
H  -3.99400 19.02400 30.70900
H  -3.34000 18.57400 32.29500
H  -4.14600 17.50000 31.29800
H  0.33100 15.94300 30.74300
H  -0.72900 15.04100 31.80500
H  -0.76200 17.66600 32.74700
H  0.95400 17.36500 32.40500
H  -1.54900 23.48400 28.09900
H  -2.61200 22.32700 28.82300
H  -3.19500 23.29600 27.51700
H  -3.23500 24.26000 25.67700
H  -2.24900 24.89800 24.36900
H  -1.46000 24.37700 25.83200
H  -0.10300 18.18500 21.50900
H  -2.60400 16.44800 21.47700
H  -2.74300 19.56700 21.33100
H  -2.61700 18.21900 20.12600
H  -1.44800 19.61400 20.15300
H  -0.21000 15.07600 21.26400
H  0.01800 16.58400 20.33600
H  -1.21300 14.06300 19.67900
H  -1.08700 15.52000 18.69800
H  -2.51400 15.31100 19.63700
H  -2.15000 11.29500 25.42900
H  -0.92100 11.45400 24.34000
H  -2.50400 12.24000 23.86900
H  -2.92400 13.31900 29.74900
H  0.08900 11.12700 32.31300
H  -0.68900 12.57700 33.06200
H  0.85200 12.76700 32.10400
Mg 23.92600 -6.59900 45.75400
C  26.32900 -4.09600 45.26900
C  21.59900 -4.59800 44.15200
C  21.86400 -9.23300 45.86900
C  26.59500 -8.61100 46.95800
N  23.97800 -4.63600 44.84900
C  25.08000 -3.89600 44.68500
C  24.67400 -2.63200 43.82900
C  23.11600 -2.59900 43.95300
C  22.85700 -4.01600 44.42600
C  22.49800 -1.54700 44.90100
C  25.24500 -2.73300 42.38200
C  25.50500 -1.37600 41.75500
H  24.65200 -1.04900 40.50800
N  21.96600 -6.86600 45.10800
C  21.20300 -5.89200 44.44800
C  19.90700 -6.47700 44.21500
C  19.98900 -7.86100 44.63600
C  21.27900 -8.01700 45.23100
C  18.85300 -5.71500 43.33700
C  18.92800 -8.89600 44.53600
O  18.05000 -8.67400 43.77000
C  19.00000 -10.26300 45.13600
N  24.17400 -8.54500 46.31700
C  23.19800 -9.46300 46.34500
C  23.70300 -10.84800 46.95400
C  25.16100 -10.60600 46.88900
C  25.34300 -9.14000 46.66400
C  23.09900 -11.23400 48.34800
C  25.88400 -11.42100 45.78000
C  26.97700 -12.41100 46.08900
N  26.05400 -6.42200 46.15800
C  26.96400 -7.31600 46.67300
C  28.21500 -6.66500 46.91100
C  28.02300 -5.38100 46.25800
C  26.70500 -5.30900 45.79800
C  29.46100 -7.25800 47.42500
C  28.63400 -4.08400 45.95100
O  29.72700 -3.64400 46.15600
C  27.50800 -3.25900 45.10800
C  27.27300 -1.84200 45.63700
O  27.07700 -1.59500 46.82300
O  27.34700 -0.96600 44.65800
C  27.61100 0.41000 45.00700
H  20.80900 -3.96700 43.73900
H  21.27600 -10.15200 45.81500
H  27.31600 -9.36000 47.29200
H  24.90700 -1.67400 44.29400
H  22.60400 -2.49800 42.99600
H  23.24900 -0.91400 45.37300
H  21.90400 -1.95500 45.71900
H  21.82100 -0.96500 44.27600
H  24.43200 -3.17700 41.80700
H  26.14700 -3.33600 42.27400
H  26.56700 -1.27400 41.53100
H  25.35700 -0.53700 42.43500
H  19.12500 -5.24500 42.39200
H  18.53300 -4.84400 43.91000
H  17.90700 -6.20800 43.11300
H  18.00500 -10.70800 45.10600
H  19.19500 -10.02000 46.18000
H  19.73200 -10.91000 44.65200
H  23.36600 -11.56600 46.20600
H  25.54800 -10.82400 47.88400
H  22.08200 -11.56300 48.12900
H  23.09900 -10.32300 48.94600
H  23.58500 -12.00900 48.94000
H  26.43800 -10.72200 45.15300
H  25.19300 -12.02200 45.18900
H  26.65500 -13.44400 45.95900
H  27.55100 -12.21800 46.99500
H  27.60200 -12.25900 45.20800
H  29.39000 -7.73300 48.40300
H  30.28100 -6.54100 47.38000
H  29.79000 -7.92800 46.63100
H  27.85400 -3.22600 44.07400
H  27.95000 1.05600 44.19700
H  28.27100 0.49600 45.87000
H  26.66100 0.90700 45.20300

