158

Mg 1.90900 -2.91200 44.70000
C  5.13000 -1.76300 43.93000
C  0.75400 -0.54100 42.38200
C  -1.28600 -4.19900 44.96000
C  3.15500 -5.53100 46.44800
N  2.91400 -1.36300 43.23200
C  4.21300 -1.13100 43.15100
C  4.48600 0.01100 42.15000
C  3.05400 0.62900 42.04800
C  2.17500 -0.53100 42.52800
C  2.72300 1.83600 42.93700
C  5.19900 -0.54300 40.90700
C  6.53100 0.12400 40.56600
H  6.64200 1.07600 39.34100
N  -0.04300 -2.38700 43.83800
C  -0.25800 -1.35200 42.91400
C  -1.70800 -1.21400 42.70200
C  -2.30400 -2.26300 43.47300
C  -1.21300 -2.99700 44.21600
C  -2.32700 -0.11700 41.87200
C  -3.85700 -2.49600 43.56700
O  -4.65000 -1.78700 42.99800
C  -4.38700 -3.64900 44.21400
N  1.09100 -4.68300 45.43600
C  -0.31300 -4.95400 45.52800
C  -0.53400 -6.31000 46.23500
C  0.92300 -6.67300 46.77500
C  1.79100 -5.55200 46.14900
C  -1.76800 -6.32500 47.21600
C  1.37600 -8.13800 46.38300
C  2.04600 -9.00300 47.44000
N  3.76300 -3.54100 45.14200
C  4.12300 -4.60800 45.94300
C  5.61800 -4.63600 46.04900
C  6.04100 -3.50600 45.28500
C  4.89000 -2.79400 44.80000
C  6.47500 -5.71600 46.61400
C  7.18400 -2.71400 44.88100
O  8.38100 -2.85300 45.13400
C  6.62600 -1.55400 43.96700
C  6.92700 -0.28800 44.57200
O  6.26400 0.24200 45.46500
O  8.00700 0.26400 43.93000
C  8.33400 1.66400 44.30700
H  0.38400 0.38100 41.92700
H  -2.21700 -4.75800 45.07300
H  3.52300 -6.39400 47.00500
H  5.14800 0.70100 42.67300
H  2.85900 0.79300 40.98800
H  3.64800 2.38500 43.10700
H  2.19300 1.46000 43.81200
H  2.11600 2.51700 42.33900
H  4.48100 -0.43400 40.09500
H  5.53800 -1.56500 41.07400
H  7.23200 -0.68000 40.33900
H  6.83500 0.66800 41.46100
H  -1.68900 0.76500 41.92400
H  -3.31500 0.22700 42.18100
H  -2.43000 -0.56800 40.88500
H  -4.25500 -3.63100 45.29500
H  -3.83000 -4.51400 43.85300
H  -5.43300 -3.79800 43.94400
H  -0.72100 -7.00900 45.42000
H  0.98000 -6.40300 47.82900
H  -1.44300 -6.30000 48.25600
H  -2.42000 -7.16900 46.99300
H  -2.41800 -5.49200 46.94600
H  2.20000 -8.02700 45.67800
H  0.58800 -8.69600 45.87700
H  1.77700 -10.05900 47.44100
H  1.83400 -8.63600 48.44500
H  3.12400 -8.88900 47.33100
H  6.34400 -5.65300 47.69400
H  7.50300 -5.58800 46.27400
H  6.26100 -6.70500 46.21000
H  6.96700 -1.65000 42.93600
H  7.51000 2.37700 44.26600
H  9.15800 2.13300 43.76900
H  8.72300 1.71000 45.32400
Mg 6.56000 53.02200 42.21600
C  6.37100 49.53000 41.74500
C  9.82800 52.95100 41.05100
C  6.51600 56.46300 42.16300
C  3.23100 52.94300 43.21400
N  7.95700 51.42000 41.48800
C  7.66100 50.07500 41.34000
C  8.92900 49.37300 40.84100
C  10.11300 50.43200 41.04000
C  9.30600 51.68800 41.33200
C  11.12700 50.04400 42.14900
C  8.88900 48.79500 39.37700
C  8.69100 49.77300 38.21700
H  7.76800 49.40700 37.07400
N  7.95000 54.54500 41.65900
C  9.26400 54.24300 41.22700
C  9.88000 55.51600 41.02500
C  8.89000 56.47000 41.13200
C  7.73500 55.84600 41.72800
C  11.34600 55.60500 40.55600
C  9.08300 57.92500 40.72000
O  10.19900 58.39900 40.38200
C  8.03200 58.96000 40.74100
N  5.08000 54.47300 42.58300
C  5.31400 55.80500 42.58600
C  3.99400 56.51700 42.81400
C  3.06700 55.44700 43.35900
C  3.80300 54.19000 42.95700
C  4.09000 57.68800 43.89200
C  1.65600 55.58600 42.63700
C  0.52300 56.12900 43.52700
N  5.08400 51.55400 42.43600
C  3.80400 51.69700 42.90500
C  3.24600 50.42900 43.18800
C  4.19000 49.57900 42.55700
C  5.29000 50.29500 42.19900
C  1.86900 50.13000 43.82800
C  4.32100 48.16400 42.23400
O  3.55200 47.22800 42.34300
C  5.92200 48.10500 41.67900
C  5.82800 47.58600 40.22400
O  5.39700 48.23300 39.26300
O  6.31300 46.24900 40.21900
C  6.49000 45.53400 38.98600
H  10.87600 52.88000 40.75100
H  6.51200 57.53700 42.36100
H  2.18700 52.84900 43.52300
H  9.10300 48.55300 41.53800
H  10.60900 50.56400 40.07900
H  11.12800 50.85100 42.88000
H  12.11300 50.01200 41.68400
H  10.92100 49.16800 42.76400
H  8.30400 47.87800 39.32100
H  9.91200 48.51100 39.12600
H  9.62100 50.16100 37.80100
H  8.25500 50.66300 38.67100
H  11.82200 56.52300 40.90000
H  11.22100 55.49000 39.47900
H  11.85100 54.69400 40.87900
H  7.07500 58.49300 40.50900
H  8.27100 59.83100 40.13000
H  7.83000 59.29300 41.75900
H  3.75800 56.98500 41.85800
H  2.98500 55.52800 44.44300
H  4.99000 57.65200 44.50700
H  3.21900 57.74000 44.54500
H  4.24300 58.68900 43.48800
H  1.34100 54.60300 42.28700
H  1.72500 56.25900 41.78300
H  0.78700 56.22900 44.58000
H  -0.41300 55.57500 43.59000
H  0.34700 57.17800 43.28900
H  1.60000 49.13900 43.46200
H  1.10300 50.77700 43.40100
H  1.96900 50.20400 44.91100
H  6.51600 47.43800 42.30400
H  7.47500 45.07100 38.94600
H  6.30200 46.14200 38.10100
H  5.71400 44.77100 39.05800

