158

Mg 40.36000 10.69600 30.28600
C  42.29400 12.08900 32.80700
C  38.29300 9.35400 32.71000
C  38.90000 8.94400 27.84500
C  43.19800 11.05300 28.10900
N  40.27900 10.72100 32.48700
C  41.10700 11.50400 33.31700
C  40.56500 11.39500 34.77200
C  39.26700 10.52100 34.68300
C  39.31900 10.08400 33.22200
C  39.19700 9.24900 35.60800
C  40.26400 12.80200 35.32800
C  40.61200 12.92900 36.83700
H  39.61700 13.83700 37.71400
N  38.76100 9.44200 30.31600
C  37.96800 9.05500 31.34600
C  36.84100 8.35500 30.86100
C  37.02300 8.17200 29.44700
C  38.27300 8.89700 29.09400
C  35.79300 7.82300 31.82300
C  36.17300 7.28500 28.46300
O  36.54300 7.02800 27.33500
C  35.01900 6.58400 28.95600
N  41.01700 10.07500 28.29100
C  40.15300 9.36100 27.43900
C  40.59600 9.24400 26.01400
C  41.97000 10.05800 26.08400
C  42.06400 10.41900 27.56400
C  40.73900 7.74800 25.44000
C  42.07400 11.27500 25.11100
C  41.90600 12.69100 25.74300
N  42.23800 11.64100 30.29000
C  43.30600 11.55100 29.41800
C  44.43500 12.28500 29.96300
C  44.06000 12.49800 31.33200
C  42.76000 12.07100 31.47800
C  45.79500 12.44400 29.34900
C  44.53300 13.04800 32.55600
O  45.46800 13.70200 32.96100
C  43.40800 12.68300 33.62800
C  44.00400 11.70500 34.58500
O  44.33100 10.54400 34.49100
O  44.13700 12.41900 35.79400
C  44.69500 11.69600 36.96700
H  37.66200 8.94400 33.50100
H  38.44400 8.44100 26.99000
H  44.09200 11.06300 27.48100
H  41.26800 10.82900 35.38400
H  38.33100 11.04700 34.87000
H  38.23500 8.76100 35.76000
H  39.51500 9.65500 36.56800
H  39.82300 8.38100 35.40200
H  39.18100 12.90000 35.39600
H  40.50800 13.58900 34.61400
H  41.55500 13.47000 36.91500
H  40.71500 11.95800 37.32200
H  35.96400 6.74700 31.77800
H  34.73700 7.96500 31.59200
H  36.03700 8.07600 32.85500
H  35.55600 5.96000 29.67100
H  34.57100 5.98100 28.16500
H  34.38100 7.39000 29.31800
H  39.93900 9.73600 25.29600
H  42.82300 9.44600 25.79100
H  41.73100 7.32300 25.59300
H  40.47700 7.70900 24.38200
H  40.08900 7.03800 25.95100
H  41.35500 11.06200 24.32000
H  43.04400 11.19200 24.62100
H  42.13300 12.76600 26.80600
H  40.86300 12.96700 25.58900
H  42.55600 13.42600 25.26800
H  46.07400 11.63400 28.67600
H  46.49600 12.56600 30.17400
H  45.79500 13.25100 28.61600
H  43.11500 13.57600 34.18100
H  43.96400 11.14800 37.56200
H  45.22600 12.44500 37.55400
H  45.32600 10.87100 36.63800
Mg 46.52100 17.12300 28.86600
C  44.88600 16.87100 31.89400
C  48.99800 19.03900 30.50700
C  47.96600 17.64400 25.77600
C  44.06100 15.46200 27.35300
N  47.02900 17.73600 31.08700
C  46.12000 17.46800 32.09100
C  46.59200 18.09100 33.40200
C  47.82900 18.99400 32.97300
C  47.95700 18.59400 31.41400
C  47.69900 20.57500 33.07400
C  46.90500 17.07100 34.53600
C  46.33400 17.40900 35.95000
H  46.49000 18.85300 36.41700
N  48.22900 18.12200 28.22500
C  49.14400 18.77600 29.06700
C  50.14800 19.37600 28.17200
C  49.94500 18.94300 26.83900
C  48.69700 18.13400 26.91800
C  51.23600 20.21900 28.73700
C  50.79100 19.24600 25.61100
O  50.53400 18.83000 24.51400
C  52.05000 20.07200 25.76100
N  46.10300 16.50400 26.95900
C  46.77800 16.91900 25.82500
C  45.98200 16.62000 24.53400
C  44.99300 15.53400 25.04000
C  45.09400 15.77400 26.58100
C  45.28900 17.96700 24.13500
C  45.31000 14.10100 24.49800
C  44.94100 13.86800 23.00600
N  44.83100 16.24200 29.50600
C  43.83700 15.72600 28.70500
C  42.69800 15.42100 29.48200
C  43.09800 15.79500 30.73500
C  44.36300 16.33000 30.68100
C  41.35200 14.83200 29.01400
C  42.60200 15.91600 32.12900
O  41.52100 15.60500 32.60900
C  43.75000 16.62600 32.95500
C  43.19500 17.82900 33.63200
O  43.38200 19.00600 33.33900
O  42.45200 17.44200 34.72400
C  41.83200 18.59700 35.49100
H  49.74800 19.63000 31.03500
H  48.36100 17.80200 24.77100
H  43.25400 14.88900 26.89200
H  45.80300 18.79200 33.67400
H  48.74300 18.78300 33.52900
H  46.81500 20.84600 33.65000
H  47.59000 20.96500 32.06100
H  48.59900 20.96800 33.54800
H  47.96500 16.89600 34.72100
H  46.38900 16.16500 34.21600
H  46.90700 16.79700 36.64600
H  45.28100 17.14600 36.04300
H  50.84400 20.57200 29.69100
H  51.52800 21.07600 28.13100
H  52.16600 19.69900 28.96900
H  52.74600 19.78000 24.97400
H  52.39100 19.79200 26.75700
H  51.90100 21.14500 25.64600
H  46.69500 16.35200 23.75500
H  43.95900 15.74600 24.77000
H  45.94800 18.66500 23.61800
H  44.83000 18.41300 25.01700
H  44.42500 17.78500 23.49700
H  44.83600 13.36500 25.14700
H  46.37400 14.05400 24.73100
H  44.02600 14.42000 22.79100
H  44.73100 12.80200 22.92000
H  45.77800 14.11400 22.35200
H  41.35000 13.74200 29.03200
H  41.23800 15.22300 28.00300
H  40.55600 15.24400 29.63400
H  43.99600 15.88500 33.71600
H  41.92800 18.41200 36.56100
H  40.77500 18.83600 35.37800
H  42.21300 19.59800 35.28600

