158

Mg 17.06300 52.51400 25.73600
C  19.02500 50.78000 28.15500
C  14.86600 53.17800 28.36400
C  15.18400 53.81300 23.39500
C  19.10200 50.93300 23.31600
N  17.06300 52.12100 28.05000
C  17.95000 51.44100 28.77400
C  17.60600 51.53400 30.26000
C  16.11100 51.93900 30.25300
C  16.02200 52.48100 28.81900
C  15.01200 50.87200 30.61400
C  18.53900 52.46100 30.93800
C  18.90200 52.23600 32.44500
H  17.75300 51.78100 33.34500
N  15.30000 53.50300 25.85800
C  14.51800 53.60500 26.98100
C  13.43200 54.52400 26.58800
C  13.46900 54.75600 25.17100
C  14.70300 54.09400 24.73100
C  12.41000 54.97900 27.60700
C  12.42000 55.41100 24.20700
O  12.67000 55.60600 22.99900
C  11.13600 55.86400 24.73500
N  17.16800 52.36300 23.65900
C  16.28700 53.06800 22.90800
C  16.41800 52.79000 21.45600
C  17.84800 52.10800 21.43600
C  18.03200 51.73000 22.86200
C  15.27900 51.98300 20.68800
C  19.05200 52.92000 20.81100
C  20.06600 53.51300 21.77900
N  18.73800 51.24400 25.71100
C  19.44700 50.74400 24.66400
C  20.61400 50.01500 25.13000
C  20.44900 49.92500 26.49900
C  19.32800 50.72700 26.84300
C  21.60500 49.32400 24.26800
C  21.05900 49.39900 27.73100
O  21.94500 48.59000 27.91300
C  20.16600 50.07400 28.89100
C  19.74900 49.03400 29.86700
O  18.84600 48.25000 29.60500
O  20.40000 49.21800 31.05000
C  20.00400 48.27100 32.05400
H  14.14500 53.34500 29.16800
H  14.48300 54.11200 22.61200
H  19.80900 50.55800 22.57200
H  17.60700 50.49100 30.57900
H  16.02800 52.77400 30.94800
H  15.42100 49.87600 30.78100
H  14.31400 50.94300 29.77900
H  14.53100 51.20400 31.53400
H  18.05800 53.43200 30.81300
H  19.48600 52.43400 30.40000
H  19.19200 53.22000 32.81200
H  19.71600 51.51500 32.51900
H  12.66600 54.90100 28.66300
H  11.50200 54.39000 27.48000
H  12.15300 56.01900 27.40500
H  10.36100 55.94800 23.97300
H  11.29300 56.82500 25.22400
H  10.68500 55.21500 25.48500
H  16.39200 53.80200 21.05100
H  17.85200 51.19200 20.84500
H  14.54300 51.84400 21.48000
H  15.78000 51.10000 20.29100
H  14.99600 52.58200 19.82300
H  18.56000 53.60500 20.12100
H  19.60900 52.20200 20.20900
H  19.84500 53.45300 22.84500
H  20.02100 54.58500 21.58800
H  21.07300 53.14100 21.59100
H  22.39600 48.81900 24.82300
H  22.04500 50.15600 23.71900
H  21.08300 48.63500 23.60300
H  20.71400 50.79900 29.49300
H  20.18900 47.27000 31.66500
H  18.98800 48.41900 32.41900
H  20.68000 48.47700 32.88400
Mg -12.68500 15.94800 42.45400
C  -9.71200 14.08200 42.34500
C  -11.04600 18.36400 40.53100
C  -15.57900 17.50000 42.15000
C  -14.27200 13.01400 43.60000
N  -10.64800 16.19400 41.53000
C  -9.60100 15.26200 41.67700
C  -8.31700 15.78200 40.91700
C  -8.74000 17.26800 40.59200
C  -10.26100 17.31700 40.88100
C  -7.96600 18.38900 41.34500
C  -7.87200 14.93900 39.72800
C  -6.39800 15.29500 39.35100
H  -6.08300 15.76100 37.91400
N  -13.21500 17.77800 41.62000
C  -12.38900 18.60700 40.90400
C  -13.12700 19.75600 40.37600
C  -14.44300 19.56400 40.95900
C  -14.48900 18.24600 41.63200
C  -12.46800 20.99500 39.59400
C  -15.58500 20.54100 40.79500
O  -15.40500 21.61200 40.19800
C  -16.87100 20.29100 41.39600
N  -14.74000 15.27400 42.64300
C  -15.71400 16.15600 42.60400
C  -17.06800 15.57800 42.93300
C  -16.64600 14.13600 43.57000
C  -15.11700 14.10400 43.25000
C  -17.93800 16.47100 43.93400
C  -17.55400 13.00700 42.92400
C  -18.96800 12.95100 43.49500
N  -12.16300 14.02900 42.89800
C  -12.85000 12.94600 43.41800
C  -11.99600 11.82100 43.71600
C  -10.72100 12.25100 43.36000
C  -10.88000 13.56800 42.83600
C  -12.24700 10.47000 44.08200
C  -9.32200 11.83500 43.31200
O  -8.83600 10.78300 43.65700
C  -8.65800 13.02700 42.60200
C  -7.48200 13.54300 43.39500
O  -7.35600 13.93600 44.53700
O  -6.43700 13.48100 42.52800
C  -5.22600 14.19600 42.97000
H  -10.40500 19.14700 40.12000
H  -16.53500 18.01400 42.03300
H  -14.71900 12.08800 43.96900
H  -7.55400 15.81900 41.69500
H  -8.63400 17.51400 39.53600
H  -8.54400 18.50400 42.26200
H  -8.05100 19.29700 40.74800
H  -6.98400 18.06600 41.69000
H  -8.54100 15.06800 38.87700
H  -7.90000 13.86600 39.91800
H  -5.73900 14.48600 39.66700
H  -6.10500 16.19600 39.89000
H  -11.67100 21.31300 40.26700
H  -13.15700 21.82100 39.41800
H  -11.99700 20.59900 38.69400
H  -16.95700 20.21500 42.48000
H  -17.43300 19.49700 40.90400
H  -17.40100 21.21200 41.15600
H  -17.69400 15.45600 42.04900
H  -16.73800 14.22700 44.65300
H  -18.94700 16.61100 43.54500
H  -17.41800 17.40600 44.14000
H  -18.16700 15.88300 44.82300
H  -17.03400 12.05000 42.88000
H  -17.69100 13.25500 41.87100
H  -19.07400 13.62500 44.34500
H  -19.23900 11.90100 43.59900
H  -19.68800 13.16700 42.70600
H  -11.30700 10.11700 44.50500
H  -12.56000 9.76800 43.30900
H  -12.94600 10.38500 44.91400
H  -8.27000 12.67800 41.64500
H  -4.39000 13.91900 42.32700
H  -5.11800 13.91600 44.01800
H  -5.42100 15.25300 42.78700

