158

Mg 41.18900 6.81900 29.50400
C  42.91300 8.44000 32.29000
C  38.92300 5.68400 31.76900
C  39.75100 5.53800 26.92200
C  43.86700 7.91200 27.50100
N  40.99900 7.06800 31.83300
C  41.78500 7.70600 32.72300
C  41.22100 7.48000 34.19200
C  40.05400 6.47500 33.94100
C  39.99100 6.35200 32.42400
C  40.21300 5.02600 34.50100
C  40.78400 8.83600 34.76900
C  40.56700 8.90700 36.23100
H  41.18600 10.07600 37.07200
N  39.48800 5.84700 29.34900
C  38.63200 5.50900 30.41300
C  37.48900 4.84500 29.84800
C  37.64600 4.90600 28.44200
C  39.02200 5.44100 28.17000
C  36.41100 4.29500 30.69700
C  36.55200 4.49100 27.36700
O  36.72900 4.53100 26.15400
C  35.14700 4.22100 27.74900
N  41.73400 6.73700 27.48300
C  40.92200 6.17000 26.57100
C  41.54200 6.20300 25.16900
C  42.73600 7.09100 25.38300
C  42.82400 7.25500 26.88600
C  41.88800 4.73900 24.55300
C  42.69300 8.51400 24.66400
C  41.73800 9.65500 25.18000
N  43.12300 7.82900 29.80500
C  44.02100 8.25800 28.85400
C  45.15900 8.97600 29.51400
C  44.71400 9.07800 30.83000
C  43.47300 8.37900 30.99400
C  46.50100 9.42500 28.88600
C  45.14200 9.55400 32.15100
O  46.15400 10.18600 32.48000
C  43.94700 9.19500 33.12100
C  44.48300 8.43500 34.29300
O  45.26100 7.51300 34.14900
O  43.89200 8.81600 35.52000
C  44.25900 7.99800 36.67100
H  38.16200 5.41000 32.50300
H  39.19100 5.15900 26.06400
H  44.53800 8.19100 26.68600
H  41.99400 7.12700 34.87400
H  39.18500 6.92400 34.42200
H  39.89500 4.18200 33.88900
H  39.59300 4.92700 35.39200
H  41.24000 4.84200 34.81600
H  39.82600 9.12800 34.34100
H  41.41800 9.62900 34.37300
H  40.92200 8.04500 36.79700
H  39.48000 8.93200 36.30900
H  35.54500 4.93500 30.53300
H  36.67400 4.42100 31.74700
H  36.17900 3.23500 30.58600
H  34.60900 5.12200 28.04500
H  35.41400 3.43900 28.46100
H  34.65900 3.82600 26.85900
H  40.76200 6.71800 24.60900
H  43.65300 6.58100 25.08600
H  41.57600 4.66600 23.51200
H  41.32800 3.93800 25.03500
H  42.94800 4.53300 24.70500
H  42.56400 8.46200 23.58300
H  43.73800 8.82100 24.60900
H  42.35700 10.39200 25.69200
H  41.00500 9.29100 25.90100
H  41.16300 10.10000 24.36800
H  46.86500 8.53500 28.37300
H  47.14100 9.58000 29.75500
H  46.46900 10.32700 28.27500
H  43.54900 10.11800 33.54100
H  43.79500 7.04300 36.42700
H  43.73000 8.40500 37.53200
H  45.34400 7.97600 36.77700
Mg -4.94000 25.57100 25.81300
C  -3.21900 27.11700 28.46100
C  -5.93000 23.10600 28.24900
C  -6.40800 23.90000 23.31800
C  -3.36300 27.58400 23.56400
N  -4.61600 25.22400 28.02300
C  -4.00600 26.07700 28.86400
C  -4.41900 25.68700 30.32700
C  -4.74100 24.15100 30.14900
C  -5.07500 24.15700 28.74300
C  -3.57100 23.15600 30.63200
C  -5.55500 26.66700 30.84000
C  -5.37600 26.97500 32.34200
H  -4.85200 25.88000 33.29300
N  -6.17600 23.92000 25.86100
C  -6.45500 23.03500 26.90700
C  -7.40900 22.06000 26.36900
C  -7.68900 22.38000 24.95400
C  -6.70800 23.41900 24.61400
C  -8.12400 21.07500 27.23100
C  -8.69700 21.63700 23.99000
O  -8.76500 21.89700 22.80000
C  -9.50600 20.49300 24.48900
N  -4.64700 25.54500 23.72400
C  -5.45400 24.82600 22.93800
C  -5.21400 25.09900 21.44700
C  -4.36300 26.38100 21.58700
C  -4.01800 26.47800 23.01600
C  -4.70000 23.88800 20.43900
C  -5.00700 27.64500 20.87400
C  -4.00900 28.44900 20.02500
N  -3.60500 27.07200 25.93500
C  -3.16500 27.87800 24.91000
C  -2.37400 28.98700 25.54500
C  -2.33400 28.72300 26.91700
C  -3.06500 27.50500 27.07600
C  -1.62900 30.01900 24.78500
C  -1.89700 29.14500 28.23600
O  -1.23800 30.07500 28.60100
C  -2.56600 28.15800 29.26400
C  -1.44500 27.76400 30.15300
O  -0.28200 27.62100 29.82000
O  -1.94700 27.82000 31.42200
C  -1.07000 27.68900 32.59000
H  -6.29000 22.37400 28.97400
H  -7.11400 23.39100 22.65900
H  -2.90700 28.10500 22.72000
H  -3.49400 25.80800 30.89200
H  -5.62900 23.97400 30.75600
H  -2.60300 23.65700 30.64800
H  -3.56900 22.36600 29.88100
H  -3.83100 22.74400 31.60700
H  -6.50600 26.15200 30.70400
H  -5.55200 27.62900 30.32700
H  -6.40300 27.19200 32.63700
H  -4.78500 27.88800 32.40500
H  -9.19800 21.11300 27.05100
H  -8.08200 21.37500 28.27800
H  -7.76100 20.06700 27.03100
H  -10.33000 20.62300 25.19100
H  -8.71500 19.83800 24.85500
H  -9.83900 19.86300 23.66400
H  -6.19700 25.38300 21.07200
H  -3.40300 26.27700 21.08000
H  -5.45400 23.68900 19.67700
H  -4.39400 23.04300 21.05600
H  -3.81300 24.21700 19.89700
H  -5.37700 28.30800 21.65600
H  -5.87800 27.38900 20.27000
H  -3.91000 29.43200 20.48300
H  -4.22600 28.55600 18.96200
H  -2.97700 28.09900 19.98000
H  -2.19800 30.28000 23.89200
H  -0.61800 29.65300 24.60600
H  -1.51000 30.92800 25.37400
H  -3.21400 28.81200 29.84800
H  0.01900 27.65700 32.57300
H  -1.38500 26.87700 33.24400
H  -1.21700 28.65700 33.06900

