158

Mg 53.34600 23.68500 44.63600
C  50.67700 25.91700 43.80700
C  51.62000 21.21700 42.99100
C  56.05500 21.89400 44.83300
C  54.90900 26.36100 46.20000
N  51.51500 23.68100 43.44200
C  50.60500 24.66900 43.26300
C  49.63500 24.25900 42.18400
C  49.61100 22.66000 42.41400
C  51.03200 22.47100 42.97000
C  48.56900 22.09700 43.34400
C  50.17000 24.67500 40.73300
C  49.11900 25.30600 39.84900
H  49.54900 26.17300 38.65500
N  53.76500 21.77100 44.00500
C  52.90600 20.85400 43.45700
C  53.51800 19.55800 43.49000
C  54.83300 19.79700 43.94000
C  54.91100 21.18000 44.35000
C  52.72800 18.29600 43.04700
C  55.91700 18.74700 44.10700
O  55.77100 17.56200 43.69100
C  57.23900 19.00100 44.74100
N  55.35600 24.16700 45.20900
C  56.26800 23.21200 45.24900
C  57.55500 23.74200 45.85600
C  57.19800 25.17300 46.26300
C  55.70600 25.30900 45.84700
C  58.03600 22.92200 47.03300
C  58.15900 26.23000 45.55100
C  57.90800 26.59500 44.10100
N  52.97100 25.71700 44.92300
C  53.62600 26.57800 45.76100
C  52.87200 27.73900 46.00000
C  51.70000 27.55700 45.28400
C  51.79600 26.31500 44.59600
C  53.23500 28.99100 46.83500
C  50.57900 28.21600 44.84700
O  50.21300 29.36500 45.13700
C  49.81300 27.21400 43.81400
C  49.50800 27.85200 42.51100
O  50.24300 27.83000 41.52300
O  48.21300 28.38000 42.53300
C  47.63700 29.12400 41.40400
H  50.92600 20.43700 42.67200
H  56.92300 21.24500 44.96900
H  55.29100 27.19900 46.78800
H  48.59200 24.54000 42.33200
H  49.43300 22.13900 41.47300
H  49.03200 22.12800 44.33000
H  48.43800 21.04300 43.09800
H  47.58000 22.55500 43.32000
H  50.41600 23.72000 40.27000
H  51.05800 25.30500 40.78000
H  48.54700 26.02500 40.43400
H  48.33500 24.59400 39.59300
H  52.71300 18.19800 41.96200
H  51.72200 18.40000 43.45500
H  53.32600 17.49300 43.47800
H  57.90900 18.14700 44.64700
H  57.15900 19.34300 45.77300
H  57.83900 19.73200 44.19700
H  58.25700 23.64100 45.02800
H  57.27300 25.28600 47.34500
H  59.09800 22.71100 46.90400
H  57.39300 22.04400 47.08600
H  57.85900 23.42000 47.98600
H  59.18400 25.89500 45.71300
H  58.17900 27.16400 46.11200
H  57.79800 27.67900 44.10000
H  57.03100 26.13300 43.64800
H  58.69700 26.29400 43.41200
H  52.34300 29.39600 47.31200
H  53.55500 29.80000 46.17800
H  53.95900 28.76400 47.61700
H  48.93000 26.97900 44.40900
H  46.57000 29.22300 41.60500
H  47.81600 28.56500 40.48500
H  48.08900 30.11500 41.45000
Mg 7.25500 53.54200 40.82300
C  6.73100 50.11000 40.51100
C  10.60100 53.09100 40.16600
C  7.64700 56.88200 40.37200
C  3.83300 54.03400 41.16500
N  8.45800 51.74300 40.27700
C  8.07100 50.46700 40.22800
C  9.33000 49.53200 40.16900
C  10.56900 50.52000 40.18500
C  9.84000 51.93100 40.19400
C  11.53400 50.45100 41.33600
C  9.35000 48.57200 38.89400
C  9.22000 49.17100 37.47800
H  8.17300 48.62300 36.58100
N  8.89200 54.83700 40.24600
C  10.18000 54.46500 40.14800
C  10.99000 55.61500 39.79600
C  10.17100 56.75600 39.93400
C  8.88300 56.21100 40.23700
C  12.47600 55.46900 39.50100
C  10.59900 58.18500 39.73400
O  11.72400 58.42100 39.34300
C  9.69000 59.35100 39.91100
N  5.92200 55.17500 40.75200
C  6.38700 56.43100 40.61100
C  5.24700 57.47600 40.87200
C  4.00900 56.53700 40.87600
C  4.60000 55.14500 40.86100
C  5.48600 58.16600 42.22200
C  3.00700 56.86100 39.73000
C  1.49400 56.73600 40.06700
N  5.60100 52.37900 40.91100
C  4.30900 52.70000 41.22000
C  3.57100 51.47000 41.44400
C  4.49700 50.49900 41.24000
C  5.71900 51.05800 40.82800
C  2.14400 51.30700 41.93900
C  4.64300 49.07100 41.27800
O  3.85400 48.20200 41.60500
C  6.14700 48.76600 40.88200
C  6.13500 47.77100 39.79700
O  5.52900 47.99700 38.73500
O  6.65700 46.56100 40.15500
C  6.58500 45.51300 39.07300
H  11.67300 52.89100 40.12100
H  7.65800 57.97100 40.44100
H  2.75900 54.21600 41.24400
H  9.53300 48.78100 40.93400
H  11.14200 50.35100 39.27400
H  12.55300 50.18700 41.05500
H  11.19700 49.74000 42.09100
H  11.53100 51.38700 41.89600
H  8.45500 47.98500 39.10200
H  10.20000 47.89100 38.95300
H  10.09200 49.25700 36.82900
H  9.02600 50.24100 37.55700
H  13.14900 55.89700 40.24400
H  12.69300 55.99400 38.57100
H  12.86300 54.45200 39.42800
H  8.89600 59.37700 39.16400
H  10.24200 60.29000 39.89100
H  9.23700 59.36400 40.90200
H  5.25000 58.21300 40.06800
H  3.53800 56.67800 41.84900
H  4.65700 58.80900 42.51700
H  6.46100 58.64700 42.14600
H  5.59300 57.34500 42.93100
H  3.26200 56.05300 39.04400
H  3.17400 57.83900 39.28000
H  1.03400 57.70000 39.85000
H  1.28400 56.22500 41.00600
H  1.01800 56.05500 39.36000
H  2.00900 52.19700 42.55300
H  2.03300 50.43400 42.58300
H  1.39100 51.32100 41.15100
H  6.58700 48.34600 41.78600
H  7.11200 44.63600 39.44800
H  6.93000 45.92100 38.12200
H  5.53200 45.23800 39.01900

