158

Mg 16.33300 -1.75500 28.65600
C  15.65400 0.15400 31.59000
C  18.58100 -3.53600 30.59400
C  17.46200 -3.43800 25.92600
C  14.57500 0.47300 26.81100
N  17.00700 -1.72400 30.87700
C  16.51000 -0.88400 31.89300
C  17.02300 -1.40200 33.23500
C  18.20000 -2.37700 32.82400
C  17.95600 -2.56000 31.32700
C  19.70500 -1.80700 33.04900
C  16.01400 -2.14100 34.17700
C  15.84100 -1.61200 35.60800
H  17.02800 -0.84200 36.24100
N  17.76700 -3.28300 28.30400
C  18.44500 -3.95900 29.28500
C  19.17100 -5.04300 28.67100
C  19.06600 -4.89000 27.28800
C  18.03500 -3.84500 27.10700
C  20.18000 -6.01900 29.40000
C  19.71000 -5.69300 26.09900
O  19.46500 -5.47600 24.92600
C  20.64400 -6.87300 26.42400
N  15.97300 -1.55800 26.62900
C  16.50800 -2.39700 25.70200
C  16.40100 -1.75600 24.33700
C  15.27000 -0.57000 24.52300
C  15.25300 -0.52700 26.08100
C  17.71500 -1.15100 23.93100
C  13.86500 -0.88800 23.82900
C  13.69700 -0.10900 22.51700
N  15.21700 -0.11200 29.05400
C  14.60500 0.72800 28.18500
C  13.81100 1.70500 28.89400
C  14.21500 1.56900 30.23500
C  15.05500 0.43000 30.29900
C  12.93400 2.79300 28.29700
C  14.04900 2.08200 31.59100
O  13.42600 3.07600 32.00100
C  14.96300 1.19100 32.56600
C  15.82400 2.19400 33.22800
O  16.62400 2.85100 32.57900
O  15.38000 2.43300 34.51700
C  15.86100 3.76800 35.04300
H  19.28700 -4.14700 31.16000
H  17.88800 -3.96100 25.06700
H  14.08100 1.19200 26.15300
H  17.43800 -0.55900 33.78800
H  18.04700 -3.34200 33.30800
H  20.35600 -2.05700 32.21100
H  20.16700 -2.25900 33.92700
H  19.66200 -0.74000 33.26300
H  16.37800 -3.15900 34.31800
H  15.04000 -2.14700 33.68900
H  15.70900 -2.45500 36.28700
H  15.04600 -0.86700 35.59000
H  20.13600 -7.08900 29.19800
H  20.16100 -5.78800 30.46500
H  21.20100 -5.74800 29.12800
H  21.55900 -6.62800 26.96200
H  20.91100 -7.30300 25.45900
H  20.00800 -7.50000 27.05000
H  16.06500 -2.51100 23.62500
H  15.74200 0.36800 24.22800
H  18.16800 -0.57200 24.73500
H  17.57700 -0.43600 23.12100
H  18.27000 -2.04500 23.64600
H  13.11900 -0.55800 24.55200
H  13.70500 -1.95800 23.69600
H  14.57600 0.34100 22.05600
H  13.13100 0.79000 22.75900
H  13.22400 -0.65600 21.70100
H  13.34400 3.11500 27.34000
H  12.83000 3.56900 29.05600
H  11.97300 2.33800 28.05500
H  14.40900 0.61800 33.31000
H  15.68500 3.71400 36.11700
H  15.38400 4.56400 34.47100
H  16.94900 3.81900 35.01900
Mg -5.36100 25.56000 26.31100
C  -3.58900 26.36900 29.00900
C  -7.44000 23.39500 28.43500
C  -6.38800 23.67800 23.62400
C  -3.15100 27.25400 24.20700
N  -5.56300 25.05000 28.47700
C  -4.78200 25.63900 29.39000
C  -5.38500 25.47800 30.83400
C  -6.27200 24.19400 30.55200
C  -6.45400 24.16000 29.05100
C  -5.76000 22.85400 31.06100
C  -6.13200 26.73100 31.37400
C  -6.17800 27.00000 32.90300
H  -5.72800 25.97400 33.88800
N  -7.02500 24.09200 26.00200
C  -7.67500 23.39400 26.98700
C  -8.49400 22.34500 26.31000
C  -8.16500 22.38000 24.91400
C  -7.14300 23.42000 24.77600
C  -9.42100 21.34800 26.99900
C  -8.80500 21.55600 23.78500
O  -8.53000 21.76100 22.54400
C  -9.94900 20.57300 24.06500
N  -4.82700 25.50100 24.18700
C  -5.33200 24.54600 23.32700
C  -4.80500 24.73600 21.88900
C  -4.01600 26.04600 22.06100
C  -4.04500 26.34600 23.55000
C  -3.99600 23.64000 21.26300
C  -4.42600 27.28700 21.20800
C  -3.28600 27.96800 20.48300
N  -3.72000 26.69400 26.55900
C  -2.90500 27.33700 25.61200
C  -1.88600 28.08700 26.33800
C  -2.09000 27.75800 27.75500
C  -3.15500 26.79200 27.74300
C  -1.05900 29.23700 25.77300
C  -1.63800 28.01600 29.09300
O  -0.78700 28.76800 29.51200
C  -2.61000 27.08200 29.98300
C  -1.90600 26.15100 30.90800
O  -1.17600 25.18600 30.61800
O  -1.83900 26.66400 32.17000
C  -1.16300 25.96300 33.23800
H  -8.12400 22.79700 29.04000
H  -6.68900 23.21500 22.68200
H  -2.50000 27.81400 23.53200
H  -4.57600 25.21100 31.51300
H  -7.22000 24.44100 31.03000
H  -4.92600 22.93100 31.75800
H  -5.38300 22.39600 30.14600
H  -6.60700 22.38000 31.55800
H  -7.15900 26.75500 31.00800
H  -5.65700 27.65800 31.05300
H  -7.22400 27.21200 33.12600
H  -5.76100 27.99100 33.08300
H  -10.46000 21.66000 26.89400
H  -9.21800 21.26300 28.06700
H  -9.31200 20.33200 26.62000
H  -9.40500 19.74800 24.52500
H  -10.47300 20.13500 23.21600
H  -10.71100 20.84900 24.79400
H  -5.71700 24.91300 21.32000
H  -2.97400 25.87900 21.78700
H  -2.96000 23.89300 21.03600
H  -4.60000 23.26000 20.43900
H  -4.01000 22.79900 21.95700
H  -4.79200 28.08900 21.84800
H  -5.26000 27.10200 20.53100
H  -2.29500 27.51400 20.46400
H  -3.05600 28.95500 20.88300
H  -3.63100 27.97400 19.44900
H  -1.36700 29.50000 24.76100
H  -0.01100 28.95700 25.66600
H  -1.16100 30.13800 26.37900
H  -3.20000 27.73900 30.62100
H  -0.08200 26.09400 33.18600
H  -1.39500 24.89800 33.23200
H  -1.43200 26.24500 34.25500

