158

Mg 17.06900 52.79300 26.43400
C  18.67300 51.10000 29.10700
C  14.48100 53.67500 28.56700
C  15.50900 54.29800 23.83800
C  19.41300 51.44400 24.36200
N  16.54200 52.25500 28.55200
C  17.36300 51.63900 29.48300
C  16.93200 51.90800 30.92600
C  15.45900 52.45900 30.63500
C  15.47500 52.91000 29.18700
C  14.32700 51.44100 30.96500
C  17.83700 52.96500 31.66600
C  18.31500 52.60200 33.06500
H  17.43800 53.13500 34.27400
N  15.24300 53.93400 26.23500
C  14.35300 54.18500 27.25300
C  13.30100 54.92700 26.69600
C  13.53000 55.11000 25.29600
C  14.80200 54.40200 25.03400
C  12.09200 55.50100 27.50200
C  12.81300 56.02600 24.33200
O  13.19400 56.03000 23.20300
C  11.68000 56.88500 24.71400
N  17.36000 52.82100 24.32300
C  16.64500 53.55500 23.42500
C  17.22200 53.45400 21.98000
C  18.42100 52.52900 22.23700
C  18.41400 52.28000 23.74600
C  16.16000 53.01800 21.01200
C  19.85700 53.15900 21.76000
C  20.10400 53.20400 20.21600
N  18.76900 51.56200 26.61200
C  19.59100 51.08700 25.68100
C  20.65800 50.33400 26.24100
C  20.45500 50.42700 27.64400
C  19.22700 51.12600 27.79300
C  21.81300 49.76400 25.46800
C  20.92700 50.12100 28.96900
O  21.95900 49.59400 29.42300
C  19.75300 50.44400 29.95000
C  19.11200 49.22800 30.58800
O  18.17500 48.51800 30.20600
O  19.66800 49.19900 31.81100
C  19.22600 48.16800 32.71600
H  13.68400 53.92200 29.27100
H  15.03400 54.76800 22.97400
H  20.00200 51.07900 23.51900
H  16.79000 51.04800 31.58000
H  15.22900 53.33100 31.24800
H  14.38100 50.58400 30.29400
H  13.30800 51.82600 30.93500
H  14.54800 51.16200 31.99500
H  17.43300 53.96200 31.84000
H  18.71900 52.98500 31.02500
H  19.38000 52.82000 33.14100
H  18.37900 51.51900 33.17400
H  12.11000 56.58100 27.35700
H  12.19400 55.28600 28.56500
H  11.18800 55.04500 27.10000
H  12.07300 57.55100 25.48200
H  10.85500 56.22500 24.98300
H  11.38700 57.52500 23.88100
H  17.65000 54.42900 21.74300
H  18.28200 51.60600 21.67400
H  16.06400 51.93600 21.10400
H  16.38100 53.35700 20.00000
H  15.14600 53.37200 21.19600
H  20.61100 52.55900 22.27000
H  19.87200 54.20100 22.07900
H  20.40700 54.21900 19.96000
H  19.19300 52.83800 19.74100
H  20.94300 52.54900 19.98400
H  22.21500 50.67800 25.03000
H  21.41300 49.06200 24.73600
H  22.65300 49.40500 26.06200
H  20.07700 51.13300 30.73100
H  18.16000 48.08300 32.50100
H  19.35500 48.69900 33.65900
H  19.86700 47.28700 32.70600
Mg 0.42200 44.20200 25.30800
C  2.66400 43.89900 27.93500
C  -2.04400 42.90800 27.34300
C  -1.72700 44.11300 22.68200
C  3.02700 44.92500 23.21300
N  0.37900 43.48900 27.48400
C  1.38000 43.52300 28.34600
C  0.85800 43.29600 29.82300
C  -0.68000 42.87700 29.57900
C  -0.80300 43.09700 28.03200
C  -1.06100 41.43000 30.01500
C  0.89800 44.58700 30.68500
C  1.46000 44.40100 32.09500
H  1.30500 43.03000 32.81700
N  -1.60400 43.68100 25.08600
C  -2.44100 43.15200 26.03100
C  -3.75800 42.89700 25.45600
C  -3.66700 43.32000 24.09000
C  -2.30500 43.75300 23.87800
C  -4.89100 42.44800 26.35200
C  -4.76600 43.30700 23.02400
O  -4.67300 43.76700 21.87200
C  -6.13100 42.67100 23.33700
N  0.62900 44.36600 23.20700
C  -0.46000 44.48200 22.36800
C  0.00900 44.83500 20.91300
C  1.53300 45.09500 21.09800
C  1.77500 44.82800 22.59800
C  -0.45300 43.79400 19.90100
C  2.06500 46.43100 20.54500
C  1.76900 47.77600 21.38300
N  2.48700 44.39800 25.51900
C  3.43500 44.67600 24.52900
C  4.78000 44.60000 25.15800
C  4.48100 44.54600 26.52300
C  3.09600 44.23800 26.64000
C  6.08300 44.75100 24.48600
C  5.04900 44.26800 27.74400
O  6.25700 44.13200 28.00500
C  3.88700 44.05700 28.77200
C  4.26500 42.83800 29.47200
O  3.96000 41.68100 29.10300
O  4.75100 43.08900 30.65200
C  5.24700 41.93100 31.45000
H  -2.75000 42.30100 27.91400
H  -2.42300 44.20800 21.84600
H  3.79100 45.19600 22.48200
H  1.29500 42.41700 30.29700
H  -1.43700 43.56400 29.95900
H  -1.44900 41.39700 31.03300
H  -0.12500 40.88400 30.13100
H  -1.78700 40.83500 29.46100
H  -0.10900 44.97300 30.84000
H  1.57700 45.22800 30.12300
H  1.05100 45.26700 32.61700
H  2.53000 44.54700 31.94800
H  -5.02000 41.36600 26.32700
H  -5.84800 42.86200 26.03600
H  -4.83600 42.83300 27.37000
H  -6.06200 41.73300 23.88800
H  -6.73300 42.55600 22.43600
H  -6.58100 43.39600 24.01600
H  -0.30300 45.83100 20.59600
H  2.11600 44.35200 20.55400
H  0.29100 43.03900 19.64900
H  -0.70300 44.28400 18.96000
H  -1.38600 43.30000 20.17200
H  1.67900 46.65600 19.55100
H  3.14900 46.35200 20.47000
H  1.32200 47.57600 22.35700
H  1.04000 48.35300 20.81500
H  2.72000 48.30000 21.47600
H  6.87600 44.89300 25.22000
H  6.00800 45.51000 23.70800
H  6.21700 43.74200 24.09600
H  3.85600 44.84700 29.52200
H  5.93500 41.41200 30.78300
H  4.44500 41.30400 31.83700
H  5.78200 42.32100 32.31600

