158

Mg 5.82700 54.44600 40.34400
C  4.65800 51.10700 40.24000
C  9.00300 53.40000 40.12700
C  6.60500 57.77100 40.17900
C  2.34300 55.38300 40.47600
N  6.77800 52.44600 40.04000
C  6.06700 51.19800 40.07000
C  7.10300 50.06400 39.97500
C  8.55700 50.79300 40.21700
C  8.12500 52.28500 40.26600
C  9.37900 50.36700 41.43000
C  7.09200 49.29700 38.58400
C  7.35700 50.09200 37.34300
H  6.38500 49.94800 36.14500
N  7.51300 55.45700 39.91900
C  8.78200 54.77600 39.96100
C  9.81700 55.82000 39.83400
C  9.22400 57.06700 39.91100
C  7.72200 56.80700 40.00100
C  11.31700 55.61000 39.80800
C  9.89200 58.40800 39.84200
O  11.06500 58.57000 39.85600
C  9.12300 59.63800 39.85200
N  4.56700 56.30900 39.98300
C  5.21100 57.52100 40.23700
C  4.14700 58.67000 40.32600
C  2.78200 57.90500 40.19400
C  3.23400 56.38300 40.19700
C  4.32500 59.64800 41.53200
C  1.89600 58.35000 39.01700
C  0.43200 58.90900 39.28900
N  3.91200 53.53800 40.47500
C  2.62200 54.03700 40.52900
C  1.63800 53.01600 40.76700
C  2.42800 51.82700 40.72200
C  3.76100 52.21300 40.45900
C  0.27700 53.33000 41.09200
C  2.37900 50.41000 40.80900
O  1.41500 49.61800 40.96000
C  3.80100 49.86100 40.48500
C  3.62100 49.09200 39.21800
O  3.37100 49.54700 38.12600
O  4.00800 47.78600 39.55300
C  3.91800 46.76000 38.55300
H  10.05900 53.18300 39.95300
H  6.78900 58.82800 40.38000
H  1.34700 55.72000 40.77100
H  6.99600 49.33600 40.77900
H  9.22400 50.64100 39.36900
H  9.39700 51.22300 42.10500
H  10.41400 50.18700 41.13900
H  9.06800 49.42800 41.88700
H  6.08800 48.88200 38.50000
H  7.72000 48.40600 38.59700
H  8.37400 49.82900 37.05200
H  7.29400 51.15200 37.58600
H  11.71100 55.71600 40.81900
H  11.92900 56.09400 39.04700
H  11.42900 54.54400 39.61000
H  9.72800 60.54300 39.81100
H  8.41500 59.78500 40.66700
H  8.45000 59.65000 38.99500
H  4.18900 59.30700 39.44300
H  2.13200 58.00800 41.06300
H  3.36900 59.89900 41.99200
H  4.67200 60.64200 41.25300
H  5.01600 59.16600 42.22500
H  1.81900 57.55300 38.27700
H  2.41400 59.14300 38.47900
H  0.37600 59.93700 38.93100
H  0.27600 58.80400 40.36200
H  -0.33300 58.31600 38.78600
H  -0.42900 52.50000 41.05900
H  -0.07300 54.03100 40.33400
H  0.12500 53.75100 42.08600
H  4.12600 49.24400 41.32300
H  3.85600 47.22700 37.57000
H  3.01600 46.15800 38.66600
H  4.77200 46.08200 38.54500
Mg 10.05400 48.53400 25.81000
C  8.14700 49.03700 28.65500
C  12.72400 50.01600 27.44200
C  11.86900 47.98600 23.09800
C  7.16000 47.87300 23.98100
N  10.44300 49.25200 27.91100
C  9.50000 49.34000 28.91300
C  10.05900 49.93300 30.15500
C  11.34400 50.71100 29.55800
C  11.50600 50.02300 28.17800
C  11.44800 52.26100 29.51200
C  10.26100 48.89000 31.27900
C  9.51900 49.19900 32.57600
H  9.33300 48.09500 33.58000
N  12.05700 48.83400 25.38600
C  12.97800 49.43200 26.19800
C  14.23200 49.15800 25.58800
C  14.05600 48.51000 24.28600
C  12.62200 48.39900 24.18100
C  15.49500 49.40700 26.29500
C  15.10800 48.04600 23.31800
O  14.85500 47.53200 22.29100
C  16.56200 48.17500 23.62100
N  9.50600 48.10200 23.78300
C  10.46600 47.83300 22.88600
C  9.89600 47.23400 21.55300
C  8.35500 47.17500 21.83900
C  8.29900 47.75700 23.24800
C  10.33800 48.07500 20.25200
C  7.80400 45.76100 21.67100
C  7.94300 44.80600 22.88500
N  8.11500 48.33600 26.18200
C  7.02200 48.13900 25.33200
C  5.81300 48.29800 26.06100
C  6.20900 48.64800 27.36100
C  7.64400 48.64400 27.36900
C  4.44900 48.35200 25.54200
C  5.70700 48.87600 28.78300
O  4.53400 48.85000 29.18800
C  6.97000 49.06800 29.68100
C  7.01900 47.96000 30.54900
O  7.72100 46.93400 30.44100
O  6.18900 48.05700 31.62000
C  6.07100 46.94900 32.60500
H  13.49500 50.54900 28.00300
H  12.56000 47.82400 22.26800
H  6.24500 47.68300 23.41600
H  9.45400 50.74200 30.56400
H  12.18900 50.30300 30.11200
H  10.47900 52.72600 29.69100
H  11.68500 52.77100 28.57900
H  12.15700 52.71200 30.20700
H  11.32000 48.92200 31.53500
H  9.99700 47.93200 30.83100
H  8.48800 49.49900 32.38900
H  10.00300 50.02900 33.09100
H  15.36000 49.38900 27.37700
H  15.97600 50.35700 26.06300
H  16.29000 48.67000 26.17800
H  16.88100 49.20100 23.80700
H  17.09500 47.84700 22.72800
H  16.65500 47.51900 24.48600
H  10.28500 46.22100 21.44500
H  7.76800 47.84300 21.20900
H  10.98800 48.79300 20.75100
H  9.46500 48.61900 19.89100
H  10.85500 47.57800 19.43000
H  8.36100 45.28000 20.86800
H  6.73800 45.74700 21.44200
H  8.64100 45.18300 23.63300
H  8.23600 43.82600 22.50800
H  6.96200 44.83700 23.35900
H  4.03100 47.36000 25.37200
H  4.35300 48.93200 24.62500
H  3.82200 48.77500 26.32800
H  6.94900 49.99800 30.24800
H  5.04500 46.59000 32.52500
H  6.25000 47.33900 33.60600
H  6.70100 46.10000 32.34000

