158

Mg 24.35100 -4.61400 45.98600
C  26.43600 -2.38800 44.48400
C  21.84100 -3.73700 43.66300
C  22.47300 -7.24800 46.96500
C  27.01300 -5.80800 47.94300
N  24.17600 -3.24800 44.20100
C  25.13500 -2.30200 43.96200
C  24.64700 -1.29600 42.92800
C  23.10200 -1.57300 42.78700
C  23.01700 -2.92200 43.60000
C  22.22200 -0.51700 43.45900
C  25.42300 -1.36300 41.54000
C  25.51000 -0.03000 40.82700
H  24.69900 0.01600 39.55200
N  22.33000 -5.31500 45.47600
C  21.48400 -4.82000 44.56600
C  20.23000 -5.47400 44.66400
C  20.40700 -6.61200 45.42700
C  21.85900 -6.44100 45.97800
C  19.00700 -5.07700 43.96900
C  19.44900 -7.74800 45.67500
O  18.31100 -7.67600 45.28400
C  19.82300 -9.03300 46.32800
N  24.74700 -6.43800 47.12100
C  23.77500 -7.24100 47.47100
C  24.30300 -8.39500 48.29600
C  25.59400 -7.78100 48.87000
C  25.91300 -6.62600 47.88800
C  23.37600 -8.96100 49.39800
C  26.76100 -8.85400 48.94700
C  27.77300 -9.05100 50.09500
N  26.28800 -4.24400 46.22300
C  27.23500 -4.71300 47.10200
C  28.45300 -3.93000 46.96900
C  28.18100 -3.05800 45.90600
C  26.87300 -3.26600 45.48400
C  29.59800 -4.03900 47.88600
C  28.80000 -1.92200 45.16600
O  29.90000 -1.31600 45.19800
C  27.65100 -1.48400 44.20300
C  27.40200 -0.06300 44.54000
O  27.23000 0.35700 45.68100
O  27.67900 0.71300 43.46500
C  27.82700 2.10800 43.79900
H  20.93900 -3.37400 43.16600
H  21.89500 -8.05500 47.42000
H  27.73700 -6.14000 48.69000
H  24.75900 -0.33300 43.42500
H  22.74600 -1.79000 41.78100
H  22.75500 0.33600 43.87800
H  21.71700 -0.90900 44.34300
H  21.44900 -0.10300 42.81200
H  24.88500 -2.11500 40.96400
H  26.36100 -1.87300 41.76100
H  26.57800 0.13500 40.68300
H  25.12600 0.76500 41.46500
H  19.02500 -5.68400 43.06400
H  18.88700 -4.03500 43.67100
H  18.06600 -5.46800 44.35600
H  19.78600 -8.93200 47.41300
H  20.84300 -9.31700 46.06700
H  19.02000 -9.72300 46.06900
H  24.57700 -9.26900 47.70600
H  25.33200 -7.27600 49.80000
H  22.41400 -8.45000 49.36700
H  23.72400 -8.78200 50.41500
H  23.35400 -10.03800 49.22700
H  27.39100 -8.77700 48.06100
H  26.25200 -9.81400 48.85600
H  27.64900 -10.10300 50.35100
H  27.63000 -8.23500 50.80400
H  28.81100 -8.88700 49.80400
H  29.35100 -4.46300 48.86000
H  29.85000 -3.06200 48.29600
H  30.51200 -4.36600 47.39100
H  28.01200 -1.50500 43.17500
H  27.71900 2.74900 42.92400
H  28.71500 2.38700 44.36600
H  26.97600 2.39600 44.41700
Mg 44.78900 4.84000 47.06400
C  42.84500 7.72300 46.96700
C  41.84400 3.00600 46.28800
C  46.61300 1.98500 46.51400
C  47.69500 6.75300 47.21900
N  42.61600 5.36900 46.50000
C  42.03700 6.59700 46.57900
C  40.51100 6.52800 46.61000
C  40.19600 5.02900 46.28100
C  41.63700 4.45000 46.29500
C  39.28600 4.27700 47.32100
C  39.75000 7.58100 45.66400
C  40.40000 8.11300 44.38800
H  40.07200 7.37500 43.07700
N  44.30600 2.76000 46.52700
C  43.05100 2.19500 46.29000
C  43.19100 0.80100 46.13500
C  44.58000 0.48500 46.19500
C  45.26500 1.73900 46.39800
C  42.03100 -0.18500 45.83700
C  45.19400 -0.87700 46.09100
O  44.39000 -1.78300 45.92700
C  46.69000 -1.16300 45.85100
N  46.83500 4.48600 46.61400
C  47.31000 3.20400 46.63600
C  48.84900 3.12700 46.92600
C  49.17600 4.67300 47.22000
C  47.84100 5.36800 47.00400
C  49.27700 2.10500 48.06400
C  50.32000 5.29500 46.36900
C  51.31500 6.17700 47.08500
N  45.24000 6.84000 47.13200
C  46.47400 7.47200 47.15200
C  46.22900 8.90500 47.39900
C  44.82200 8.98200 47.38300
C  44.31200 7.73600 47.18100
C  47.21900 9.98600 47.70300
C  43.71500 9.94600 47.48500
O  43.81100 11.15200 47.73100
C  42.37100 9.15400 47.26900
C  41.52700 9.16600 48.50500
O  41.37400 8.22900 49.28000
O  40.64900 10.21000 48.41800
C  39.58100 10.26900 49.48400
H  40.96400 2.41700 46.02400
H  47.34600 1.17600 46.50600
H  48.57700 7.34200 47.47700
H  40.32900 6.70600 47.67000
H  39.82800 4.70500 45.30800
H  39.95500 3.70500 47.96400
H  38.62500 3.66200 46.71000
H  38.68700 5.00200 47.87100
H  39.49400 8.36300 46.37800
H  38.81300 7.05000 45.49900
H  41.48600 8.02300 44.40400
H  40.33900 9.19500 44.26800
H  42.27200 -0.83300 44.99500
H  41.08900 0.31300 45.60400
H  41.86900 -0.80700 46.71700
H  46.91400 -2.14600 45.43600
H  47.21200 -1.09300 46.80500
H  47.17100 -0.45900 45.17200
H  49.40500 2.81900 46.04100
H  49.40100 4.69400 48.28600
H  48.41400 1.53400 48.40800
H  49.73100 2.70400 48.85300
H  50.03000 1.38200 47.75100
H  49.92400 5.80000 45.48800
H  50.85500 4.41700 46.00700
H  52.30200 5.72000 47.01000
H  51.10800 6.27100 48.15100
H  51.33100 7.19200 46.68800
H  48.02800 9.71500 48.38100
H  46.80400 10.90600 48.11400
H  47.77300 10.20100 46.79000
H  41.72900 9.62300 46.52300
H  39.60700 11.25800 49.94200
H  39.53500 9.49700 50.25200
H  38.72200 10.32800 48.81600

