158

Mg 24.32300 -5.37100 45.74600
C  26.60900 -3.20900 44.14200
C  21.80400 -4.09900 43.68800
C  22.38200 -8.02800 46.29900
C  26.86800 -6.76600 47.59800
N  24.28300 -3.94300 44.10200
C  25.28700 -3.12200 43.64100
C  24.77800 -2.30900 42.41400
C  23.25100 -2.40700 42.57000
C  23.07800 -3.51800 43.54300
C  22.48000 -1.03800 43.00800
C  25.23200 -2.81600 41.01200
C  26.25700 -1.90800 40.28300
H  26.06200 -1.60500 38.80500
N  22.27800 -5.92100 45.16600
C  21.40400 -5.23000 44.37100
C  20.18200 -5.91000 44.28200
C  20.34200 -7.11100 44.99300
C  21.72200 -7.01100 45.53800
C  18.99200 -5.29500 43.47800
C  19.23100 -8.02800 45.29000
O  18.12100 -7.69100 44.92200
C  19.35100 -9.30600 46.04900
N  24.69700 -7.24500 46.56800
C  23.71800 -8.21300 46.71500
C  24.18300 -9.44200 47.51900
C  25.59300 -8.92300 48.08500
C  25.74000 -7.58700 47.36700
C  23.27200 -9.94300 48.70100
C  26.80000 -9.87700 47.99300
C  27.65300 -10.13700 49.26000
N  26.38800 -5.06100 45.93900
C  27.30700 -5.66800 46.77500
C  28.59300 -5.04000 46.54200
C  28.40900 -4.08900 45.56600
C  27.03600 -4.13800 45.25200
C  29.90700 -5.29000 47.35600
C  28.98900 -3.15000 44.69400
O  30.14400 -2.76400 44.80200
C  27.86700 -2.45000 43.71600
C  27.74800 -0.98200 43.91900
O  26.95300 -0.38600 44.62200
O  28.57400 -0.34900 43.06600
C  28.71400 1.09400 43.25900
H  21.01700 -3.65300 43.07600
H  21.80300 -8.94300 46.44200
H  27.71700 -7.09900 48.19900
H  25.14700 -1.30600 42.62800
H  22.68700 -2.68700 41.68000
H  23.13600 -0.17200 42.91300
H  22.09900 -1.20400 44.01500
H  21.67300 -1.04700 42.27500
H  24.38300 -2.92000 40.33700
H  25.67800 -3.77600 41.27300
H  27.29300 -2.21500 40.42900
H  26.22500 -1.01600 40.90800
H  18.48700 -6.01900 42.84000
H  19.20900 -4.36600 42.95000
H  18.28400 -5.05000 44.27000
H  18.38700 -9.80900 46.11400
H  19.64900 -9.01300 47.05600
H  20.17900 -9.78600 45.52700
H  24.37400 -10.29100 46.86100
H  25.46500 -8.64400 49.13100
H  23.83600 -9.98600 49.63300
H  22.94000 -10.96000 48.49200
H  22.42000 -9.29600 48.90700
H  27.32100 -9.59800 47.07700
H  26.51000 -10.90700 47.78400
H  27.48100 -11.17500 49.54700
H  27.28700 -9.44900 50.02200
H  28.72900 -10.00700 49.14900
H  30.78700 -5.34400 46.71500
H  29.82600 -6.20300 47.94600
H  30.06200 -4.38700 47.94600
H  28.21400 -2.67300 42.70700
H  28.37400 1.55600 44.18700
H  28.25300 1.63500 42.43200
H  29.77400 1.33800 43.19500
Mg -10.16900 17.63100 40.72700
C  -6.62200 17.23900 40.54400
C  -9.72400 20.99200 39.83100
C  -13.43900 17.88900 40.05000
C  -10.35200 14.12000 40.65800
N  -8.38600 18.85700 40.11600
C  -7.03600 18.53200 40.24900
C  -6.19100 19.74200 39.90600
C  -7.14900 20.89900 40.09900
C  -8.49500 20.25800 40.02200
C  -6.83300 21.91800 41.27200
C  -5.87300 19.59500 38.36200
C  -4.45400 19.52200 37.91100
H  -4.23500 18.57900 36.79300
N  -11.42700 19.23500 40.10400
C  -10.99900 20.53400 39.81800
C  -12.14100 21.28700 39.52400
C  -13.26500 20.43100 39.91100
C  -12.74500 19.11500 40.07600
C  -12.24700 22.80900 39.13100
C  -14.76200 20.93000 39.94500
O  -15.03500 22.10700 39.69000
C  -15.96600 20.09300 40.40400
N  -11.57200 16.17800 40.10400
C  -12.92800 16.56800 40.04500
C  -13.85600 15.40300 40.06700
C  -12.89800 14.17900 40.12300
C  -11.50400 14.83200 40.29900
C  -14.97000 15.52500 41.14800
C  -12.98700 13.13900 39.00200
C  -13.58300 11.80400 39.42500
N  -8.85300 16.01200 40.90100
C  -9.04200 14.64300 40.82900
C  -7.80600 13.94800 40.91700
C  -6.79500 14.93000 40.84400
C  -7.50800 16.17700 40.79900
C  -7.52100 12.50500 40.99100
C  -5.40400 15.16000 40.62700
O  -4.42500 14.40600 40.53200
C  -5.26100 16.68900 40.63400
C  -4.37200 17.12900 41.68300
O  -3.49300 17.96300 41.56600
O  -4.61600 16.48000 42.84100
C  -3.54300 16.62300 43.88200
H  -9.55600 22.07000 39.76700
H  -14.52200 17.94400 39.92200
H  -10.49900 13.03900 40.71300
H  -5.26700 19.70100 40.48300
H  -7.19700 21.51000 39.19700
H  -6.36200 22.82800 40.90200
H  -6.17300 21.37800 41.95100
H  -7.74300 22.10000 41.84300
H  -6.29700 20.38700 37.74400
H  -6.28100 18.69700 37.89800
H  -3.83400 19.06600 38.68200
H  -4.07000 20.50200 37.62600
H  -11.35900 23.11900 38.58200
H  -12.42100 23.34700 40.06300
H  -13.01500 23.09600 38.41300
H  -16.43600 19.49800 39.62100
H  -16.66700 20.64700 41.02900
H  -15.64300 19.31400 41.09500
H  -14.35800 15.40500 39.09900
H  -13.01700 13.71300 41.10100
H  -14.80700 16.41200 41.76000
H  -14.78500 14.78400 41.92600
H  -15.98000 15.51500 40.73800
H  -11.98900 12.97100 38.59700
H  -13.70500 13.44700 38.24200
H  -13.74900 11.70100 40.49700
H  -12.92400 11.06800 38.96300
H  -14.58100 11.79500 38.98700
H  -6.73100 12.26100 40.28100
H  -8.35700 11.88200 40.67400
H  -7.29200 12.15300 41.99700
H  -4.67400 16.84100 39.72800
H  -3.78400 15.85000 44.61200
H  -3.55000 17.62400 44.31300
H  -2.59400 16.46200 43.37000

