158

Mg -2.75600 17.18000 25.79400
C  -2.99500 14.94800 28.52200
C  -2.98500 19.75600 28.03500
C  -2.53700 19.32900 23.13900
C  -2.98100 14.53500 23.61200
N  -3.00200 17.30300 28.04000
C  -2.97400 16.26100 28.90200
C  -3.08300 16.85500 30.30900
C  -3.17800 18.40800 30.12400
C  -3.02400 18.56200 28.63200
C  -4.50800 19.03800 30.77500
C  -1.92800 16.40500 31.23200
C  -1.62500 17.17300 32.51700
H  -1.08100 16.37900 33.70800
N  -2.76600 19.24100 25.58600
C  -2.81700 20.15200 26.65400
C  -2.74000 21.53100 26.08400
C  -2.55400 21.37500 24.67000
C  -2.65700 19.96300 24.42700
C  -2.94500 22.73900 26.98400
C  -2.21000 22.40000 23.60400
O  -1.75500 22.19100 22.44000
C  -2.29000 23.85300 24.02000
N  -3.01900 17.01100 23.68400
C  -2.83900 18.01900 22.78700
C  -2.92600 17.48500 21.31200
C  -3.01500 15.88300 21.50300
C  -2.99300 15.78100 23.03600
C  -3.98600 18.07200 20.37400
C  -2.06200 14.98000 20.68100
C  -2.61100 14.36800 19.35100
N  -3.03200 15.21200 25.94100
C  -2.96600 14.25400 24.99100
C  -2.94200 12.88200 25.57200
C  -2.94500 13.15700 26.95100
C  -3.01900 14.56500 27.14600
C  -2.88100 11.53200 24.87900
C  -3.02800 12.48300 28.26500
O  -3.13600 11.28700 28.50000
C  -3.14500 13.61000 29.28700
C  -2.09400 13.36200 30.22700
O  -0.89200 13.71900 30.11900
O  -2.50300 12.58300 31.25200
C  -1.52000 11.94700 32.10600
H  -3.09300 20.57400 28.75000
H  -2.40800 19.94600 22.24700
H  -3.08600 13.78200 22.82800
H  -3.89700 16.34800 30.82700
H  -2.33200 18.89900 30.60600
H  -4.56000 19.53700 31.74300
H  -5.30200 18.29400 30.83900
H  -4.85700 19.89700 30.20100
H  -1.02200 16.65200 30.67900
H  -2.09500 15.38000 31.56300
H  -2.47900 17.70100 32.94100
H  -0.71900 17.76500 32.38800
H  -3.29800 22.49200 27.98500
H  -3.67900 23.44300 26.59300
H  -2.01600 23.27100 27.18900
H  -3.32800 24.07400 24.27100
H  -1.78400 24.50400 23.30700
H  -1.74300 23.83600 24.96300
H  -1.97500 17.62300 20.79800
H  -4.00700 15.60900 21.14400
H  -4.92600 17.52000 20.40800
H  -3.57000 17.87800 19.38600
H  -4.29100 19.11500 20.46300
H  -1.71300 14.15400 21.30100
H  -1.10700 15.45100 20.44700
H  -3.51300 14.97100 19.24700
H  -2.78200 13.31400 19.57400
H  -1.93700 14.42100 18.49600
H  -2.43300 11.50900 23.88600
H  -3.86400 11.07200 24.97800
H  -2.24300 10.85700 25.44900
H  -4.11700 13.46900 29.76100
H  -2.11700 11.47600 32.88700
H  -0.78700 12.66700 32.47000
H  -0.91300 11.14700 31.68200
Mg 24.07400 -4.97000 45.66400
C  26.20500 -2.52400 44.25600
C  21.62700 -3.87500 43.60900
C  22.45100 -8.01000 46.17200
C  26.89400 -6.28500 47.29300
N  23.94000 -3.32300 44.20600
C  24.88900 -2.48400 43.79300
C  24.40400 -1.52900 42.62600
C  22.76900 -1.77800 42.79500
C  22.74400 -3.04500 43.61900
C  22.12400 -0.61300 43.59000
C  24.96700 -2.04100 41.26100
C  25.10300 -0.94400 40.18100
H  24.73700 -1.23900 38.69900
N  22.25700 -5.79900 45.03200
C  21.35600 -5.15400 44.21800
C  20.14100 -5.99500 44.14000
C  20.35000 -7.10300 45.01500
C  21.76300 -7.02000 45.47600
C  19.07600 -5.63000 43.30500
C  19.23200 -8.06200 45.37900
O  18.12000 -7.90300 44.90200
C  19.35900 -9.08300 46.41000
N  24.60600 -7.00400 46.46400
C  23.72000 -7.95300 46.70000
C  24.43400 -9.11600 47.45900
C  25.88200 -8.54400 47.78500
C  25.80900 -7.15500 47.19200
C  23.52800 -9.66100 48.61400
C  27.12000 -9.38000 47.31200
C  27.92700 -9.90600 48.49400
N  26.12500 -4.46100 45.88700
C  27.06200 -5.09600 46.63900
C  28.21900 -4.27600 46.62300
C  28.02400 -3.26500 45.61200
C  26.69700 -3.44600 45.19100
C  29.53900 -4.42100 47.50800
C  28.52300 -2.12500 44.92000
O  29.56400 -1.50600 45.06400
C  27.38100 -1.70400 43.82700
C  27.23800 -0.23600 43.82100
O  26.96300 0.53000 44.73600
O  27.41500 0.17900 42.54900
C  27.16300 1.64600 42.43300
H  20.70500 -3.46100 43.19300
H  22.05500 -9.02700 46.21800
H  27.72200 -6.70200 47.86900
H  24.62700 -0.46200 42.66100
H  22.24300 -1.99500 41.86600
H  21.41300 -0.11800 42.92900
H  22.83200 0.04000 44.10100
H  21.56500 -1.03000 44.42800
H  24.36500 -2.81700 40.78800
H  25.91400 -2.57000 41.37100
H  26.16300 -0.72200 40.29800
H  24.58500 -0.04500 40.51500
H  19.40400 -5.74000 42.27200
H  18.87300 -4.56100 43.36500
H  18.19300 -6.26900 43.26600
H  18.36300 -9.40100 46.72100
H  19.90300 -8.68900 47.26900
H  19.94700 -9.87600 45.94800
H  24.67200 -10.01200 46.88600
H  25.98100 -8.55800 48.87100
H  23.97900 -9.41400 49.57500
H  23.36300 -10.73800 48.59800
H  22.52600 -9.25200 48.48000
H  27.80500 -8.78900 46.70400
H  26.82500 -10.23500 46.70500
H  27.49300 -10.84700 48.83300
H  27.95200 -9.18700 49.31200
H  28.91800 -10.20000 48.14900
H  30.39700 -4.47600 46.83800
H  29.47300 -5.32200 48.11800
H  29.77400 -3.59800 48.18200
H  27.74400 -2.08200 42.87100
H  27.29200 2.25100 43.33000
H  26.19800 1.73700 41.93300
H  27.98000 1.97600 41.79100

