158

Mg 23.90700 -5.62400 45.47300
C  26.32700 -3.45900 44.06100
C  21.63500 -4.31600 43.19900
C  21.86300 -8.22200 46.15300
C  26.40600 -7.10400 47.27100
N  24.02000 -4.09800 43.81100
C  25.11000 -3.41500 43.36100
C  24.69700 -2.59200 42.06000
C  23.15200 -2.81600 41.95200
C  22.89000 -3.76200 43.07300
C  22.27600 -1.53800 41.88100
C  25.60800 -2.93100 40.85000
C  26.62100 -1.81100 40.40900
H  26.44400 -1.27000 38.99900
N  21.98300 -6.07500 44.91600
C  21.18200 -5.37800 44.00600
C  19.93300 -6.10400 43.83700
C  20.03600 -7.27500 44.58500
C  21.32000 -7.24600 45.31300
C  18.82100 -5.56900 42.93700
C  18.92900 -8.30400 44.66700
O  17.89900 -8.07600 44.01000
C  18.96500 -9.46200 45.61700
N  24.04600 -7.35200 46.80400
C  23.14700 -8.25600 46.78000
C  23.70400 -9.54100 47.35900
C  25.06100 -9.08700 47.95700
C  25.18000 -7.79600 47.25200
C  22.86300 -10.40400 48.45300
C  26.26700 -10.08900 47.77500
C  27.20900 -10.12200 48.95200
N  25.90500 -5.23400 45.85400
C  26.80800 -5.95700 46.57400
C  28.14500 -5.27700 46.45900
C  27.97700 -4.27000 45.50200
C  26.58900 -4.30600 45.13700
C  29.26200 -5.74600 47.23800
C  28.62000 -3.13500 44.91200
O  29.69600 -2.57500 45.07800
C  27.61700 -2.67100 43.74900
C  27.44400 -1.16100 43.97700
O  26.62600 -0.63300 44.72800
O  28.23000 -0.45300 43.10200
C  28.25000 0.99900 43.09700
H  20.98700 -4.06500 42.35700
H  21.29900 -9.15600 46.20700
H  27.22500 -7.59600 47.79900
H  24.87500 -1.56500 42.37900
H  23.04500 -3.31000 40.98700
H  22.08000 -1.13000 42.87300
H  21.38200 -1.56900 41.25800
H  22.83200 -0.68700 41.48800
H  25.04500 -3.07200 39.92700
H  26.06500 -3.91900 40.90200
H  27.63900 -2.17600 40.54800
H  26.53200 -0.90900 41.01400
H  18.86100 -5.86200 41.88800
H  18.79300 -4.48600 43.05900
H  17.79100 -5.74700 43.24500
H  19.29200 -9.12400 46.60100
H  19.67200 -10.07700 45.06000
H  18.01000 -9.98300 45.68200
H  23.92200 -10.19400 46.51500
H  24.95200 -8.97500 49.03500
H  21.80200 -10.22200 48.27900
H  23.08100 -10.11100 49.48000
H  23.12300 -11.45400 48.32500
H  26.77500 -9.74900 46.87200
H  25.79900 -11.04300 47.53500
H  27.12500 -11.13200 49.35400
H  26.97600 -9.36100 49.69600
H  28.22100 -9.96600 48.57600
H  30.07700 -5.10300 46.90600
H  29.36900 -6.81500 47.05600
H  29.00000 -5.61700 48.28800
H  28.00500 -3.02000 42.79200
H  27.77300 1.43000 43.97700
H  27.61000 1.20700 42.23900
H  29.27900 1.33800 42.97600
Mg 17.34700 -1.09000 27.76300
C  16.04000 1.01100 30.33300
C  18.96600 -2.81900 30.14800
C  19.05300 -2.61800 25.33000
C  15.99800 1.05100 25.40800
N  17.50400 -0.83400 29.91500
C  16.97900 0.08900 30.78200
C  17.42800 -0.21300 32.27200
C  18.51300 -1.29600 32.07800
C  18.28200 -1.68600 30.62800
C  19.98500 -0.98900 32.40700
C  16.35900 -0.62400 33.20100
C  16.41200 -0.07400 34.66800
H  17.73600 0.50100 35.28800
N  18.61900 -2.72600 27.76200
C  19.05300 -3.31600 28.85100
C  19.72100 -4.51200 28.44000
C  19.85600 -4.53100 26.99600
C  19.21000 -3.24400 26.64700
C  20.26100 -5.41100 29.45300
C  20.53100 -5.45900 25.97700
O  20.56800 -5.24800 24.76400
C  21.25400 -6.76200 26.46000
N  17.45400 -0.86000 25.68500
C  18.25600 -1.58200 24.88400
C  18.07000 -1.24300 23.39000
C  16.83400 -0.19600 23.45300
C  16.72400 -0.05100 24.92800
C  19.32900 -0.69400 22.71200
C  15.52800 -0.50300 22.65700
C  14.48200 -1.57600 23.16500
N  16.21100 0.72700 27.81700
C  15.69500 1.38300 26.78100
C  14.83400 2.45000 27.26400
C  14.87000 2.24800 28.65400
C  15.76700 1.24100 28.93400
C  14.02400 3.41600 26.54700
C  14.41100 2.79400 29.87200
O  13.62900 3.71500 30.13900
C  15.21800 2.02900 31.03400
C  15.97400 3.05700 31.74600
O  16.76500 3.84300 31.18000
O  15.60000 3.11300 33.07900
C  16.36300 3.99300 33.96200
H  19.50500 -3.40500 30.89600
H  19.58800 -3.14400 24.53700
H  15.71000 1.69700 24.57700
H  17.85800 0.70600 32.67000
H  18.22300 -2.10000 32.75500
H  20.54200 -0.82900 31.48400
H  20.48700 -1.88100 32.78100
H  20.14300 -0.21000 33.15200
H  16.21000 -1.69500 33.34100
H  15.40000 -0.22500 32.87000
H  16.10100 -0.95000 35.23700
H  15.61900 0.65100 34.85500
H  21.20300 -5.06100 29.87500
H  20.41100 -6.36000 28.93800
H  19.59700 -5.50300 30.31300
H  20.55900 -7.58000 26.64800
H  21.74300 -6.59600 27.41900
H  21.97700 -7.14000 25.73600
H  17.72300 -2.17800 22.95200
H  17.22200 0.75300 23.08300
H  19.16700 0.30400 22.30500
H  19.68800 -1.30500 21.88400
H  20.11300 -0.70400 23.46900
H  15.69500 -0.89900 21.65500
H  15.13000 0.49200 22.45900
H  13.68300 -0.98200 23.60700
H  14.83800 -2.31100 23.88800
H  14.02900 -2.04500 22.29100
H  13.82000 3.02900 25.54900
H  14.52800 4.37900 26.46800
H  13.06800 3.54400 27.05500
H  14.37400 1.62000 31.59000
H  17.30000 4.38800 33.56800
H  16.57400 3.66300 34.97900
H  15.78400 4.89700 34.14700

