158

Mg -0.27200 7.26400 27.17600
C  0.69100 9.75900 29.57200
C  -0.11600 4.94400 29.53800
C  -1.07000 5.30600 24.75700
C  0.44200 9.91000 24.65600
N  0.22400 7.40200 29.29500
C  0.44600 8.48200 30.04700
C  0.39800 8.10700 31.53000
C  0.32600 6.51500 31.52700
C  0.14100 6.24100 30.06200
C  1.63200 5.81500 32.07800
C  -0.90200 8.67000 32.22500
C  -0.81200 8.69700 33.75400
H  0.54400 8.42600 34.47600
N  -0.58300 5.35500 27.21200
C  -0.43500 4.47100 28.26500
C  -0.60500 3.11400 27.79300
C  -0.79700 3.22600 26.35500
C  -0.82700 4.68300 26.01100
C  -0.48500 1.86700 28.62900
C  -0.98300 2.10200 25.37000
O  -1.01600 2.26800 24.17400
C  -1.03700 0.67100 25.80800
N  -0.26100 7.56300 25.03000
C  -0.89100 6.59000 24.30000
C  -1.19300 7.07000 22.82000
C  -0.79100 8.61100 22.93500
C  -0.15300 8.71600 24.27600
C  -0.42500 6.34000 21.66400
C  -2.07000 9.48100 22.93400
C  -2.22700 10.45600 21.82700
N  0.44800 9.40600 27.06400
C  0.78700 10.21200 26.00100
C  1.34000 11.42700 26.49900
C  1.28200 11.35600 27.85900
C  0.72800 10.14500 28.15400
C  1.85800 12.63300 25.69700
C  1.64300 11.97400 29.09900
O  2.25100 13.06400 29.19500
C  1.21300 11.01200 30.23600
C  2.46700 10.84600 31.04500
O  3.44500 10.15100 30.70400
O  2.46100 11.62900 32.14800
C  3.72500 11.73100 32.89100
H  0.00100 4.17500 30.30300
H  -1.52100 4.79500 23.90400
H  0.60900 10.68100 23.90200
H  1.32500 8.43900 31.99700
H  -0.45800 6.06500 32.13700
H  1.34200 4.97800 32.71300
H  2.15200 6.58900 32.64300
H  2.18200 5.40100 31.23200
H  -1.79200 8.19300 31.81600
H  -0.95800 9.73100 31.98000
H  -1.55900 8.02000 34.16800
H  -1.08500 9.71900 34.01500
H  0.42800 1.31500 28.40600
H  -1.45900 1.38300 28.70500
H  -0.34000 2.08500 29.68700
H  -1.19600 0.03800 24.93500
H  -1.82100 0.39800 26.51400
H  -0.02000 0.40200 26.09300
H  -2.24800 6.91700 22.58900
H  -0.11900 8.93100 22.13900
H  -0.11700 7.04400 20.89000
H  -0.99500 5.62500 21.07100
H  0.47900 5.86400 22.04300
H  -2.09300 10.05200 23.86200
H  -3.05200 9.01000 22.96400
H  -1.52500 11.28500 21.91700
H  -3.23200 10.87700 21.80800
H  -1.99300 10.05000 20.84300
H  2.52300 12.26400 24.91600
H  2.42700 13.28700 26.35800
H  1.16800 13.21100 25.08100
H  0.37200 11.43900 30.78200
H  3.65400 12.34600 33.78800
H  4.55600 12.18200 32.34800
H  3.93200 10.69600 33.16400
Mg 44.83900 4.30200 46.35400
C  43.06200 7.25700 46.27000
C  41.90000 2.55100 45.72600
C  46.69500 1.53000 45.76900
C  47.86600 6.15300 46.52900
N  42.78500 4.84900 45.84900
C  42.24700 6.17000 45.83600
C  40.73100 6.13500 45.74200
C  40.32300 4.61800 45.76000
C  41.71300 3.98200 45.78900
C  39.31100 4.17500 46.89800
C  40.19900 6.80300 44.39800
C  40.93400 6.60800 43.06600
H  40.08700 6.46900 41.78300
N  44.34800 2.31700 45.79000
C  43.09700 1.76700 45.71900
C  43.19100 0.36200 45.54700
C  44.55600 0.02800 45.62600
C  45.29700 1.32800 45.72200
C  41.96100 -0.53200 45.35300
C  45.12000 -1.38700 45.65200
O  44.32100 -2.29100 45.65800
C  46.52900 -1.80800 45.84500
N  46.91600 3.89300 46.00500
C  47.46600 2.66400 45.88200
C  49.00700 2.62100 46.10000
C  49.25400 4.06600 46.52800
C  47.91800 4.76800 46.25600
C  49.60900 1.59200 47.08300
C  50.49600 4.71700 45.87400
C  51.60300 4.97500 46.90700
N  45.41700 6.36800 46.62000
C  46.65500 6.94400 46.63800
C  46.42900 8.38000 46.70900
C  45.01100 8.55000 46.69500
C  44.46200 7.28100 46.51500
C  47.52600 9.35800 46.70900
C  43.99200 9.51800 46.76800
O  44.01200 10.72900 47.00500
C  42.61600 8.73600 46.49100
C  41.74000 8.91200 47.67300
O  41.65000 8.09800 48.56900
O  40.82100 9.94200 47.52600
C  39.68900 9.98600 48.45400
H  40.97300 1.98400 45.62300
H  47.38400 0.68300 45.79000
H  48.82700 6.63200 46.72900
H  40.31800 6.73900 46.55000
H  39.83600 4.42700 44.80300
H  39.54600 3.25800 47.43700
H  38.40400 3.97100 46.32900
H  39.20800 5.01800 47.58100
H  40.26700 7.87200 44.60200
H  39.13300 6.60000 44.29800
H  41.55000 5.72600 43.24400
H  41.59400 7.47300 43.00800
H  42.10800 -1.08100 44.42300
H  40.95400 -0.12200 45.26800
H  42.05000 -1.40200 46.00200
H  47.17600 -1.49100 45.02600
H  46.59100 -2.89200 45.75600
H  46.77400 -1.31600 46.78600
H  49.53100 2.53800 45.14900
H  49.26800 3.99600 47.61600
H  50.13700 0.83200 46.50700
H  48.82600 1.13900 47.69100
H  50.38200 2.01200 47.72800
H  50.34600 5.66100 45.35100
H  50.93300 4.05100 45.13000
H  52.58700 4.79000 46.47500
H  51.41900 4.47000 47.85600
H  51.50600 6.02500 47.18100
H  48.30700 9.27600 47.46600
H  47.17600 10.36400 46.94100
H  47.99800 9.38400 45.72700
H  42.02500 9.22700 45.71800
H  40.01900 10.05200 49.49000
H  39.17700 9.02400 48.42200
H  38.96700 10.75900 48.19200

