158

Mg 49.28900 35.55800 27.96900
C  47.07200 34.35700 30.32200
C  49.75100 38.42600 30.11600
C  51.12800 37.22300 25.62400
C  48.70900 32.99200 25.76800
N  48.50400 36.29100 30.01400
C  47.62600 35.53800 30.76200
C  47.36900 36.30900 32.07600
C  48.13400 37.72200 31.86600
C  48.81900 37.48200 30.51300
C  47.12600 38.87200 31.72100
C  47.72500 35.61900 33.39000
C  49.02500 34.76500 33.54100
H  50.28100 35.40700 34.10700
N  50.21300 37.57000 27.81600
C  50.34300 38.49800 28.80400
C  51.12300 39.65900 28.30800
C  51.49000 39.35100 26.94200
C  50.91600 37.99700 26.72200
C  51.36600 40.92700 29.22300
C  52.25600 40.16600 25.95700
O  52.64000 39.75100 24.86900
C  52.79700 41.48600 26.43700
N  49.86400 35.13700 26.00000
C  50.72700 35.89100 25.30500
C  51.21500 35.08400 24.07600
C  50.45200 33.72700 24.17600
C  49.60600 33.93800 25.36000
C  51.02500 35.84400 22.66200
C  51.36700 32.48700 24.16200
C  50.87500 31.40900 23.12400
N  48.18300 33.95700 28.02900
C  48.02800 33.00500 27.02800
C  46.85400 32.16200 27.51700
C  46.50000 32.59100 28.85100
C  47.33300 33.68600 29.05600
C  46.20500 31.01000 26.77500
C  45.58100 32.41000 29.88000
O  44.61800 31.62100 29.95600
C  45.85800 33.55600 30.93300
C  46.30500 32.76900 32.10100
O  47.36000 32.18400 32.21900
O  45.35300 32.83300 33.05400
C  45.59800 32.11300 34.29600
H  50.00100 39.26900 30.76400
H  51.80700 37.56500 24.84000
H  48.45300 32.13900 25.13700
H  46.29700 36.47400 31.97000
H  48.93200 37.97300 32.56400
H  46.82500 39.25200 32.69700
H  46.24200 38.72200 31.10100
H  47.65600 39.68000 31.21700
H  46.83100 35.02100 33.56700
H  47.85700 36.42200 34.11500
H  49.21100 34.39400 32.53300
H  48.76800 33.93700 34.20200
H  52.37700 41.03000 29.61600
H  50.65500 40.93600 30.05000
H  51.16100 41.81900 28.63200
H  52.15600 42.33700 26.66700
H  53.43400 41.90000 25.65500
H  53.44200 41.19700 27.26700
H  52.27400 34.84900 24.18200
H  49.86600 33.78000 23.25800
H  50.44700 36.76600 22.72000
H  50.64700 35.13300 21.92800
H  52.02800 36.05500 22.29200
H  51.29800 31.93500 25.09900
H  52.43500 32.69900 24.10800
H  51.78700 31.13600 22.59200
H  49.96600 31.66900 22.58200
H  50.61500 30.47000 23.61400
H  45.50400 30.48100 27.42100
H  46.97500 30.29000 26.49900
H  45.61800 31.25700 25.89000
H  44.88300 34.01100 31.10900
H  45.67000 31.03600 34.14500
H  44.81700 32.43800 34.98400
H  46.59200 32.29500 34.70400
Mg 37.52300 50.22400 25.24700
C  38.03500 48.22400 28.18400
C  35.94400 52.52700 27.32200
C  37.08500 51.97100 22.62300
C  38.65100 47.43700 23.33000
N  37.05900 50.33400 27.51500
C  37.58700 49.51400 28.48400
C  37.29000 49.99500 29.88200
C  36.57400 51.35700 29.57600
C  36.51300 51.39400 28.05800
C  35.26000 51.56700 30.37300
C  38.53300 50.19700 30.77900
C  38.43700 49.54500 32.21500
H  37.15700 50.00000 33.02000
N  36.60700 51.97100 24.89700
C  36.01400 52.78800 25.87100
C  35.46800 53.94000 25.22500
C  35.68500 53.74900 23.82800
C  36.43500 52.49700 23.71600
C  34.78000 55.02900 26.03000
C  35.10100 54.61200 22.73600
O  35.32100 54.36900 21.56000
C  34.11000 55.76400 22.96600
N  37.77000 49.71300 23.32500
C  37.63500 50.69700 22.35700
C  38.16400 50.25700 20.93600
C  38.98400 48.99800 21.30000
C  38.35300 48.68300 22.73800
C  36.92500 50.04000 19.92700
C  40.55700 49.19500 21.32300
C  41.25900 48.30300 20.25400
N  38.17400 48.26200 25.62800
C  38.55200 47.24700 24.73800
C  38.83500 46.02500 25.49500
C  38.70500 46.39800 26.85600
C  38.29900 47.77500 26.84800
C  39.27500 44.76400 24.90800
C  38.80700 45.95700 28.22400
O  39.17300 44.87700 28.60300
C  38.40300 47.15100 29.08400
C  37.22600 46.54500 29.62300
O  36.19800 46.29200 28.99100
O  37.43300 46.32700 30.93800
C  36.38300 45.74800 31.65000
H  35.58800 53.27300 28.03500
H  36.98400 52.63100 21.75900
H  39.13600 46.70400 22.68300
H  36.71400 49.29200 30.48400
H  37.17900 52.21600 29.86700
H  34.80800 50.66500 30.78700
H  34.53900 52.14600 29.79600
H  35.64000 52.11700 31.23300
H  38.89800 51.21700 30.89600
H  39.39900 49.77700 30.26700
H  39.31900 49.85600 32.77400
H  38.57300 48.46600 32.14300
H  34.64900 54.85100 27.09800
H  33.76200 55.03000 25.64100
H  35.31300 55.97700 25.95000
H  33.16700 55.38000 23.35600
H  33.80800 56.26500 22.04600
H  34.48600 56.48000 23.69600
H  38.74900 51.07200 20.51100
H  38.75000 48.11700 20.70300
H  36.03200 50.41000 20.43200
H  36.82500 48.97400 19.71800
H  36.98600 50.50200 18.94200
H  40.94500 49.05400 22.33200
H  40.80200 50.23100 21.08900
H  41.95700 49.00400 19.79900
H  40.68500 47.78700 19.48400
H  41.85900 47.53300 20.74000
H  40.04100 44.19200 25.43100
H  39.48300 44.85000 23.84100
H  38.46400 44.06800 25.12200
H  39.09700 47.45700 29.86700
H  35.69900 45.20600 30.99700
H  35.74900 46.50800 32.10800
H  36.78100 44.97900 32.31200

