158

Mg 35.28400 49.15200 24.92200
C  35.77100 47.24700 27.85700
C  34.79600 51.86200 26.85200
C  34.80600 50.81600 22.11000
C  36.21500 46.29700 23.09800
N  35.05500 49.44100 27.10000
C  35.45400 48.59500 28.09200
C  35.38800 49.30500 29.44800
C  35.26000 50.82300 29.10100
C  35.06300 50.72000 27.58200
C  34.00600 51.54300 29.75600
C  36.64300 48.94900 30.33000
C  36.38300 48.35100 31.75000
H  34.94900 48.41300 32.32900
N  34.86100 51.04900 24.57700
C  34.64900 52.04100 25.45200
C  34.49000 53.33400 24.82000
C  34.38400 53.01700 23.42900
C  34.72100 51.57200 23.30600
C  34.41600 54.60800 25.66900
C  34.10600 53.92200 22.30400
O  34.26000 53.59800 21.17400
C  33.74700 55.39300 22.40500
N  35.21900 48.53800 22.87500
C  35.15800 49.46200 21.87800
C  35.64900 48.91800 20.51300
C  36.49500 47.63000 20.98500
C  35.99800 47.48700 22.44300
C  34.32400 48.53000 19.68800
C  38.09000 47.67800 20.90500
C  38.84200 46.39700 20.35000
N  35.77400 47.18900 25.30900
C  36.14500 46.16100 24.44900
C  36.70600 45.01500 25.16400
C  36.50400 45.35000 26.56800
C  35.95400 46.67300 26.58400
C  37.23100 43.80200 24.50600
C  36.60700 44.85800 27.88600
O  37.07300 43.79600 28.37100
C  36.17500 46.10100 28.81900
C  35.08900 45.56800 29.67200
O  33.91200 45.51200 29.35700
O  35.59000 44.83200 30.76100
C  34.50700 44.25400 31.57000
H  34.63600 52.80800 27.37300
H  34.42700 51.30700 21.21100
H  36.55000 45.41000 22.55500
H  34.43200 48.90300 29.78200
H  36.22200 51.31000 29.26000
H  34.28800 52.47800 30.24000
H  33.56200 50.90900 30.52300
H  33.33400 51.93200 28.99100
H  37.09000 49.90500 30.60600
H  37.39500 48.36400 29.80100
H  37.02300 48.79100 32.51500
H  36.88700 47.38600 31.80400
H  34.25700 55.48600 25.04200
H  35.40800 54.77200 26.08800
H  33.66900 54.40500 26.43700
H  32.89600 55.55600 23.06800
H  33.43500 55.68400 21.40200
H  34.65400 55.91500 22.71000
H  36.39100 49.62200 20.13700
H  36.37500 46.71200 20.40900
H  33.53800 49.16600 20.09500
H  34.06300 47.48500 19.85900
H  34.52600 48.77800 18.64700
H  38.47700 47.94400 21.88900
H  38.25000 48.49300 20.19900
H  39.91900 46.55400 20.28800
H  38.57800 46.12000 19.32900
H  38.61000 45.46100 20.85800
H  37.94300 44.17900 23.77100
H  36.30500 43.34200 24.16100
H  37.75600 43.28400 25.30800
H  37.04500 46.22500 29.46400
H  33.95900 43.48000 31.03200
H  33.90300 45.02500 32.04600
H  35.15300 43.63800 32.19500
Mg 26.05800 50.40000 27.29600
C  24.03300 51.43300 29.91200
C  28.66600 49.79300 29.61700
C  28.09200 49.75600 24.83700
C  23.68900 51.72400 25.07900
N  26.23200 50.41900 29.46500
C  25.22500 50.89400 30.35600
C  25.63600 50.53000 31.81100
C  27.19100 50.23500 31.67900
C  27.39300 50.12700 30.17200
C  28.17700 51.25900 32.20200
C  24.83600 49.34400 32.35800
C  24.55100 49.14000 33.84600
H  25.17000 50.09500 34.91600
N  28.09000 49.70300 27.21800
C  28.97300 49.53300 28.26800
C  30.24500 49.13800 27.68900
C  30.09600 49.08200 26.30100
C  28.69600 49.47000 26.06400
C  31.46500 48.93900 28.58000
C  31.12500 48.86300 25.20200
O  30.79900 48.76800 24.02300
C  32.60900 48.74500 25.49700
N  25.97800 50.81000 25.19900
C  26.90000 50.36000 24.35000
C  26.34000 50.22600 22.92800
C  24.84700 50.64500 23.08300
C  24.82700 51.07000 24.56900
C  27.12200 51.05900 21.80600
C  23.74000 49.58100 22.79900
C  22.44400 50.14000 22.09700
N  24.34000 51.53000 27.38500
C  23.49000 52.04900 26.43700
C  22.32000 52.65400 27.08200
C  22.49700 52.37500 28.44000
C  23.72900 51.76300 28.56200
C  21.17000 53.26800 26.39500
C  21.86700 52.48400 29.71600
O  20.76900 52.90200 30.11800
C  22.89400 51.89300 30.73800
C  23.30200 52.91700 31.75300
O  24.23000 53.67500 31.62500
O  22.62900 52.74200 32.95100
C  23.04900 53.55400 34.10900
H  29.47000 49.80400 30.35600
H  28.67500 49.46000 23.96300
H  22.83500 51.71800 24.39800
H  25.41200 51.45700 32.33700
H  27.52000 49.32300 32.17700
H  28.88100 50.76800 32.87400
H  27.62600 52.04100 32.72500
H  28.68700 51.67200 31.33200
H  25.38100 48.46700 32.00800
H  23.93200 49.21700 31.76200
H  25.15500 48.25100 34.03000
H  23.52800 48.84300 34.07700
H  31.50600 49.82600 29.21200
H  32.42800 48.94300 28.07000
H  31.37400 47.95900 29.04800
H  33.15000 48.60100 24.56100
H  32.76400 47.98600 26.26400
H  32.96700 49.72300 25.81700
H  26.31400 49.16700 22.67100
H  24.65100 51.56800 22.53600
H  27.77100 51.65500 22.44900
H  26.51400 51.79600 21.28100
H  27.70700 50.41900 21.14600
H  23.45000 49.09300 23.73000
H  24.18700 48.89900 22.07600
H  22.40000 49.75100 21.08000
H  22.57400 51.21800 22.00000
H  21.54000 49.91000 22.66000
H  21.21200 52.92400 25.36100
H  21.33400 54.33900 26.51000
H  20.21100 53.08100 26.87800
H  22.47100 51.01200 31.22200
H  23.28700 54.59700 33.90100
H  23.95700 53.05100 34.44200
H  22.26300 53.46400 34.85900

