158

Mg 43.96400 5.11900 47.06700
C  42.04100 8.08200 46.78200
C  41.02200 3.38700 46.56100
C  45.88700 2.39100 46.56100
C  46.90100 7.06700 46.74800
N  41.77200 5.65800 46.77400
C  41.25200 6.90700 46.63500
C  39.75000 6.81500 46.42200
C  39.43100 5.36100 46.83900
C  40.81000 4.74300 46.72100
C  38.79000 5.09700 48.23900
C  39.42700 7.09300 44.93200
C  38.75900 8.42200 44.58300
H  39.29600 9.30100 43.41400
N  43.49100 3.17300 46.77200
C  42.27900 2.63000 46.61700
C  42.38600 1.18400 46.40700
C  43.73300 0.88100 46.68300
C  44.51000 2.19300 46.58800
C  41.28000 0.29900 46.16100
C  44.30100 -0.53100 47.11800
O  43.61600 -1.53800 47.13500
C  45.70800 -0.58000 47.36900
N  46.11500 4.81400 46.52900
C  46.63300 3.52700 46.49800
C  48.21400 3.58000 46.44500
C  48.50000 5.11700 46.45400
C  47.06600 5.67800 46.55800
C  48.92300 2.89500 47.60700
C  49.36200 5.57700 45.24900
C  50.61300 6.33800 45.50400
N  44.49000 7.19400 46.84700
C  45.71400 7.83800 46.86900
C  45.46700 9.28100 46.92300
C  44.02100 9.44800 46.99400
C  43.49800 8.13000 46.90800
C  46.52200 10.37900 46.77300
C  42.91100 10.38200 47.03500
O  42.83500 11.59400 47.14800
C  41.63600 9.54100 46.76200
C  40.71800 9.84200 47.90900
O  40.79400 9.51700 49.12100
O  39.94100 10.78500 47.49800
C  39.09300 11.38300 48.51900
H  40.19000 2.71000 46.35300
H  46.48300 1.48400 46.43900
H  47.88700 7.53600 46.76900
H  39.17200 7.48000 47.06400
H  38.79200 4.85000 46.12000
H  39.36500 4.52900 48.97000
H  37.83700 4.61500 48.02300
H  38.74800 6.10200 48.66000
H  38.84100 6.29300 44.48000
H  40.37800 7.14200 44.40200
H  38.71000 9.05700 45.46800
H  37.74700 8.06600 44.39200
H  40.56900 0.48200 46.96700
H  41.54300 -0.75700 46.09200
H  40.75300 0.63300 45.26700
H  46.26600 -0.65800 46.43600
H  45.98000 -1.46500 47.94400
H  45.99500 0.27700 47.97800
H  48.43000 3.17100 45.45800
H  48.92000 5.44600 47.40400
H  49.31100 1.90300 47.37800
H  48.34600 2.84800 48.53100
H  49.81400 3.47200 47.85500
H  48.74100 6.28100 44.69500
H  49.67800 4.70700 44.67300
H  51.41500 6.08700 44.81100
H  50.89400 6.20700 46.54900
H  50.40600 7.39400 45.32900
H  46.17600 11.28800 46.28000
H  47.33900 9.90200 46.23200
H  46.95200 10.48000 47.76900
H  41.28700 9.96700 45.82200
H  38.83800 12.41500 48.27700
H  39.71200 11.46900 49.41200
H  38.21400 10.76200 48.68900
Mg 49.87700 35.33900 27.32800
C  47.75800 34.11300 29.70000
C  49.98400 38.47000 29.10200
C  51.62200 36.69900 24.79700
C  48.88100 32.77500 25.17100
N  49.10400 36.10500 29.23200
C  48.33300 35.35600 30.07300
C  48.25700 36.10800 31.46500
C  48.55800 37.58200 31.11500
C  49.30900 37.39900 29.77200
C  47.34800 38.55900 31.13400
C  49.27700 35.44500 32.49600
C  48.65600 34.92300 33.76800
H  49.10000 35.74400 35.04400
N  50.87400 37.26500 27.08700
C  50.79300 38.32000 27.89500
C  51.52700 39.45700 27.23500
C  52.14800 38.91900 26.05500
C  51.56800 37.56700 25.91800
C  51.64600 40.85100 27.88900
C  53.13400 39.57600 25.13400
O  53.65800 38.90200 24.24000
C  53.50300 40.94500 25.43400
N  49.97900 34.96000 25.13700
C  50.94200 35.59600 24.42400
C  51.26300 34.85100 23.10400
C  50.47900 33.49400 23.29000
C  49.73100 33.75800 24.64700
C  50.95700 35.68700 21.88100
C  51.27000 32.19200 23.45300
C  51.76900 31.65000 22.01800
N  48.69900 33.62100 27.40500
C  48.32000 32.75200 26.44800
C  47.28700 31.82400 26.99300
C  47.04200 32.31000 28.27300
C  47.94900 33.43900 28.49600
C  46.72700 30.67200 26.17600
C  46.25700 32.15000 29.50500
O  45.47400 31.29400 29.90800
C  46.66200 33.41200 30.42100
C  46.99700 32.79400 31.72200
O  48.07400 32.21700 31.97200
O  45.88500 32.93300 32.51400
C  45.93000 32.28200 33.84100
H  50.05000 39.46900 29.53800
H  52.26000 37.01500 23.96900
H  48.69200 31.81300 24.69000
H  47.26400 35.91500 31.87200
H  49.27100 38.07100 31.78000
H  46.39400 38.09300 31.38200
H  47.13400 38.96200 30.14400
H  47.61300 39.34500 31.84000
H  50.01500 36.20400 32.75600
H  49.74300 34.61300 31.96800
H  49.10000 33.93400 33.88200
H  47.57400 34.79100 33.77600
H  52.49800 40.93900 28.56400
H  50.72700 40.99600 28.45700
H  51.58700 41.58300 27.08300
H  54.43700 40.94900 24.87300
H  53.79300 40.92400 26.48400
H  52.65500 41.53000 25.07500
H  52.32500 34.71900 23.31400
H  49.79000 33.22500 22.48900
H  51.79200 35.99300 21.25000
H  50.32000 36.55100 22.07500
H  50.41100 34.99500 21.24000
H  50.71100 31.42300 23.98500
H  52.06000 32.29700 24.19700
H  51.34600 30.66200 21.83700
H  52.85700 31.58500 21.98900
H  51.38600 32.30300 21.23400
H  46.08500 31.08600 25.39900
H  46.08200 30.00100 26.74500
H  47.54000 30.01900 25.85900
H  45.79300 34.06100 30.52500
H  45.65500 33.07400 34.53800
H  46.92100 31.93700 34.13600
H  45.20400 31.49100 33.65000

