158

Mg 34.71500 3.38400 29.72800
C  32.47100 4.35200 32.26700
C  37.22000 3.44000 32.22200
C  36.99700 2.81900 27.35800
C  32.29300 3.77300 27.37800
N  34.81100 3.72400 32.04900
C  33.76100 4.06000 32.84900
C  34.14600 4.26100 34.30500
C  35.72500 4.28700 34.20200
C  36.00600 3.83100 32.72200
C  36.31100 5.70700 34.61800
C  33.63400 3.14400 35.26000
C  33.36600 3.76500 36.64000
H  34.27400 4.93900 37.21400
N  36.80000 3.03500 29.82100
C  37.62300 2.99800 30.93300
C  38.94900 2.46900 30.50900
C  38.87000 2.32800 29.08200
C  37.54300 2.78100 28.68900
C  40.02300 2.19900 31.51300
C  39.90000 1.75500 28.18900
O  39.70600 1.46100 26.99000
C  41.17000 1.26300 28.74800
N  34.61500 3.25700 27.69900
C  35.71000 3.05600 26.88300
C  35.30600 2.99700 25.37200
C  33.74800 3.12200 25.39200
C  33.50900 3.37800 26.93600
C  35.91300 4.14900 24.56000
C  33.04200 1.74800 25.00200
C  31.77500 1.97500 24.25500
N  32.86600 3.92300 29.74900
C  31.97400 4.02800 28.75000
C  30.69300 4.29000 29.20400
C  30.81900 4.55600 30.53200
C  32.16700 4.23900 30.88700
C  29.40100 4.42200 28.33600
C  30.13600 5.00800 31.66800
O  28.95000 5.33000 31.80200
C  31.14700 4.76200 32.87900
C  31.18200 6.05800 33.70200
O  31.62200 7.10700 33.29200
O  30.74600 5.88900 35.01700
C  31.00900 6.96200 35.88100
H  38.03900 3.56800 32.93300
H  37.60500 2.53100 26.49800
H  31.57700 3.94200 26.57100
H  33.76000 5.26500 34.48400
H  36.23800 3.50800 34.76700
H  36.60100 6.21000 33.69500
H  37.14700 5.38000 35.23600
H  35.60500 6.32300 35.17500
H  34.43300 2.41500 35.39300
H  32.71100 2.68500 34.90600
H  33.30700 2.99700 37.41100
H  32.32900 4.08200 36.52400
H  40.98000 2.53800 31.11700
H  40.22400 1.15300 31.74700
H  39.79400 2.81600 32.38100
H  41.71900 0.80100 27.92700
H  41.02500 0.62900 29.62300
H  41.80100 2.12000 28.98200
H  35.65500 2.06600 24.92600
H  33.26200 3.87000 24.76700
H  36.14000 4.90400 25.31200
H  35.16000 4.53900 23.87500
H  36.84500 3.89100 24.05800
H  32.78000 1.23700 25.92800
H  33.77400 1.12500 24.48700
H  31.83400 1.40600 23.32700
H  31.57800 3.02000 24.01500
H  30.95300 1.51700 24.80500
H  28.60400 3.96400 28.92200
H  29.32000 3.98800 27.33900
H  29.16600 5.48500 28.27800
H  30.78200 3.98700 33.55400
H  30.83100 6.56000 36.87900
H  30.20900 7.65600 35.62100
H  32.01900 7.36100 35.79000
Mg 17.45700 52.34300 26.29600
C  19.67800 51.13100 28.80600
C  15.06500 52.81400 28.68200
C  15.35900 53.43900 23.83300
C  19.75900 51.16600 23.84900
N  17.37900 51.89300 28.44700
C  18.41700 51.52100 29.31200
C  17.95400 51.60000 30.77700
C  16.43600 51.92600 30.63000
C  16.27100 52.25400 29.15200
C  15.49100 50.73800 31.11000
C  18.73800 52.64100 31.51300
C  18.86100 52.43100 33.02100
H  17.97000 51.39500 33.72300
N  15.53100 53.10600 26.24800
C  14.67400 53.16200 27.38000
C  13.40100 53.63500 27.01700
C  13.46700 53.84700 25.59500
C  14.82000 53.49300 25.12600
C  12.11400 53.79900 27.92500
C  12.40200 54.37000 24.65800
O  12.52800 54.42300 23.45500
C  11.16000 54.92600 25.22200
N  17.57700 52.31000 24.19900
C  16.58400 52.95400 23.38400
C  16.99500 52.79800 21.92300
C  18.31500 51.93000 21.94100
C  18.53800 51.77100 23.44900
C  15.94700 52.04400 20.97900
C  19.45100 52.64200 21.11200
C  20.23200 53.80600 21.80000
N  19.38600 51.40200 26.26000
C  20.20300 51.04000 25.18400
C  21.42300 50.47900 25.72400
C  21.21700 50.52800 27.12800
C  20.02100 51.01300 27.38300
C  22.65000 49.86600 24.96700
C  21.88200 50.14800 28.39100
O  23.02800 49.69300 28.62900
C  20.93500 50.59900 29.53500
C  20.61300 49.39600 30.35800
O  19.71900 48.62700 30.07400
O  21.37200 49.38000 31.48500
C  20.76300 48.44200 32.46000
H  14.30200 52.87700 29.46100
H  14.68200 53.69500 23.01600
H  20.48900 50.74300 23.15600
H  18.06100 50.65400 31.30700
H  16.20900 52.77900 31.26900
H  14.80900 51.09900 31.87900
H  16.05400 49.87900 31.47500
H  14.97400 50.26200 30.27600
H  18.20500 53.59100 31.46500
H  19.71800 52.86500 31.09300
H  18.74100 53.32200 33.63600
H  19.85300 52.04300 33.25300
H  11.72100 54.79700 28.12000
H  12.27000 53.36100 28.91100
H  11.36300 53.05500 27.66000
H  11.27300 55.59000 26.07900
H  10.58600 54.11100 25.66400
H  10.63500 55.47900 24.44300
H  17.13100 53.80500 21.53000
H  18.16000 50.92900 21.53800
H  14.98900 51.99600 21.49600
H  16.33100 51.06800 20.68000
H  15.84300 52.61100 20.05400
H  18.98100 53.08800 20.23500
H  20.09100 51.88200 20.66300
H  19.60300 54.26800 22.56200
H  20.50700 54.57500 21.07900
H  21.13200 53.40000 22.26100
H  23.52200 50.45400 25.25500
H  22.38600 49.89500 23.91000
H  22.73000 48.86400 25.38800
H  21.45700 51.21700 30.26500
H  21.16300 48.75900 33.42300
H  21.03000 47.40200 32.27100
H  19.67400 48.47600 32.50800

