158

Mg 25.45100 1.82600 29.44500
C  27.56500 1.90200 32.29400
C  22.74800 1.79400 31.66700
C  23.52500 1.86000 26.86300
C  28.23500 1.06800 27.50700
N  25.19800 1.94200 31.70600
C  26.19500 2.11900 32.65700
C  25.58600 2.49000 34.03100
C  24.03800 2.28700 33.80400
C  23.97900 2.01200 32.27500
C  23.36400 1.08700 34.61600
C  26.06000 3.79900 34.66300
C  26.48500 3.66500 36.20800
H  25.74000 4.61600 37.21700
N  23.41500 1.84800 29.28500
C  22.46800 1.79800 30.27000
C  21.13400 1.72200 29.69100
C  21.33900 1.79700 28.28100
C  22.79200 1.84100 28.08800
C  19.86900 1.60800 30.41300
C  20.27400 1.81900 27.19000
O  20.59700 1.86700 26.02900
C  18.77300 1.85600 27.50900
N  25.84600 1.42100 27.47600
C  24.82500 1.53800 26.53500
C  25.44800 1.59200 25.12600
C  26.98800 1.33400 25.31800
C  27.03300 1.29700 26.84300
C  24.70200 0.54400 24.16400
C  27.80800 2.53300 24.72000
C  29.18700 2.20600 24.21200
N  27.43700 1.50200 29.79200
C  28.48900 1.17900 28.90200
C  29.70000 1.12300 29.57600
C  29.39700 1.39900 30.88500
C  28.02400 1.57800 31.01000
C  31.07800 0.64500 29.04400
C  30.02000 1.54600 32.18300
O  31.19600 1.47500 32.51800
C  28.89700 2.01200 33.17300
C  28.88000 1.09900 34.34700
O  28.18300 0.15100 34.57400
O  29.69600 1.75500 35.23100
C  29.93000 1.16200 36.60500
H  21.94000 1.96400 32.38200
H  22.81300 2.07800 26.06500
H  29.16000 0.85500 26.96700
H  26.00000 1.73900 34.70400
H  23.57200 3.22700 34.09600
H  22.39300 0.84500 34.18400
H  23.25300 1.51000 35.61500
H  24.00300 0.20500 34.57300
H  25.18300 4.44400 34.71000
H  26.87700 4.19500 34.06100
H  27.56300 3.77200 36.09200
H  26.23700 2.65500 36.53700
H  19.06000 2.27800 30.12200
H  20.10500 1.93200 31.42600
H  19.55100 0.57400 30.27600
H  18.28200 1.67600 26.55300
H  18.49900 2.83400 27.90700
H  18.63600 0.98500 28.14900
H  25.40100 2.61600 24.75600
H  27.34500 0.37000 24.95400
H  23.95200 0.99100 23.51200
H  24.16200 -0.19800 24.75300
H  25.49700 0.11000 23.55700
H  27.80000 3.20500 25.57800
H  27.34600 3.01400 23.85800
H  29.81900 3.00900 24.59200
H  29.20600 2.10800 23.12700
H  29.61900 1.25400 24.52300
H  30.99900 -0.14600 28.29900
H  31.59500 0.17300 29.87900
H  31.64500 1.49400 28.66000
H  29.05900 3.03800 33.50300
H  29.01000 1.00600 37.16700
H  30.67200 1.76000 37.13400
H  30.30200 0.13800 36.59800
Mg 37.12200 49.17100 24.98200
C  37.53700 47.27000 27.97200
C  35.81500 51.67000 26.89400
C  36.20500 50.74000 22.18500
C  38.29900 46.36800 23.20000
N  36.51700 49.33000 27.13000
C  36.95100 48.54200 28.18800
C  36.68200 49.15800 29.58500
C  36.04600 50.59600 29.15800
C  36.14000 50.51900 27.63100
C  34.61500 50.83500 29.64900
C  37.99500 49.41700 30.40400
C  37.87400 49.67400 31.95400
H  36.53600 49.63600 32.64400
N  36.13500 51.04700 24.56200
C  35.83000 51.95500 25.52500
C  35.29800 53.10300 24.83100
C  35.30600 52.83900 23.43000
C  35.89500 51.49000 23.33400
C  34.87000 54.35100 25.57600
C  34.87300 53.76600 22.24400
O  34.92900 53.38800 21.06900
C  34.51500 55.17900 22.43300
N  37.18300 48.65900 23.02600
C  36.74400 49.42600 22.01900
C  36.96900 48.84000 20.62300
C  37.69200 47.50100 20.97200
C  37.75300 47.49800 22.46200
C  35.70700 48.71600 19.75300
C  39.16800 47.41500 20.36900
C  40.11300 48.47200 20.89500
N  37.75300 47.20000 25.44000
C  38.22600 46.22300 24.58500
C  38.69800 45.10500 25.41000
C  38.32800 45.46200 26.70100
C  37.78000 46.74600 26.69700
C  39.24800 43.82100 25.01000
C  38.38000 45.03800 28.10600
O  38.73200 43.99000 28.61500
C  37.63000 46.14800 28.97300
C  36.24700 45.68300 29.35300
O  35.36300 45.26500 28.62600
O  36.15400 45.80400 30.71700
C  34.86500 45.46800 31.34700
H  35.40400 52.46200 27.52400
H  35.95400 51.27300 21.26500
H  38.83300 45.54200 22.72400
H  35.97600 48.58400 30.18500
H  36.73200 51.33300 29.57500
H  34.21300 49.99100 30.21000
H  34.05200 51.08100 28.74900
H  34.64700 51.76500 30.21700
H  38.58800 50.23000 29.98500
H  38.50300 48.47700 30.19200
H  38.27800 50.68000 32.06600
H  38.51100 48.93400 32.43900
H  35.63700 55.10400 25.39700
H  35.00100 54.20600 26.64800
H  33.87100 54.64800 25.25500
H  34.37900 55.67200 21.47100
H  35.35100 55.71600 22.88200
H  33.67200 55.07700 23.11600
H  37.71200 49.36400 20.02100
H  37.32600 46.51400 20.68900
H  35.21700 47.78800 20.05000
H  35.81600 48.64400 18.67100
H  34.97000 49.48200 19.99300
H  39.08100 47.52000 19.28800
H  39.61500 46.43500 20.54000
H  40.99600 48.02100 21.34800
H  39.72400 49.05300 21.73000
H  40.41000 49.17700 20.11800
H  39.40100 43.71100 23.93600
H  38.70500 42.91100 25.26800
H  40.23000 43.73100 25.47400
H  38.28000 46.43300 29.80000
H  34.99400 44.42400 31.63200
H  33.91800 45.49400 30.80700
H  34.81100 46.03900 32.27400

