158

Mg 55.41600 24.42800 45.35700
C  52.63900 26.38600 44.67400
C  53.62300 21.61400 44.50400
C  58.28500 22.66400 45.40500
C  57.10300 27.41300 46.24100
N  53.39100 24.03300 44.55400
C  52.42100 25.00100 44.41200
C  51.15600 24.35500 43.96100
C  51.32400 22.80400 44.25900
C  52.87100 22.77100 44.45200
C  50.73500 22.25500 45.64600
C  50.56900 24.64400 42.50400
C  49.00700 24.59900 42.29400
H  48.45500 24.12200 40.86800
N  55.97000 22.39800 44.92200
C  55.04600 21.37600 44.68200
C  55.75700 20.21700 44.33500
C  57.14600 20.43900 44.64600
C  57.22200 21.87100 45.01600
C  55.02100 19.06700 43.74400
C  58.17500 19.41300 44.69000
O  57.93100 18.23000 44.37400
C  59.58900 19.76000 45.11000
N  57.35800 24.89600 45.67700
C  58.38200 23.98400 45.73500
C  59.66900 24.65000 46.21800
C  59.31200 26.15700 46.24800
C  57.85700 26.20300 45.96000
C  60.27300 24.09700 47.51600
C  60.14200 27.11400 45.26200
C  61.38700 27.67200 45.82400
N  54.95600 26.48900 45.57500
C  55.71900 27.59000 45.92400
C  54.89400 28.81900 45.94000
C  53.67400 28.36600 45.41900
C  53.79600 26.98500 45.19500
C  55.37100 30.11600 46.52600
C  52.33700 28.82800 45.03700
O  51.74800 29.88200 45.16800
C  51.65100 27.54700 44.45800
C  51.45200 27.75800 43.01400
O  52.28600 27.70300 42.08400
O  50.12600 27.95000 42.78600
C  49.88500 28.92100 41.71000
H  53.04000 20.69900 44.38400
H  59.23000 22.13600 45.55400
H  57.56600 28.36500 46.50700
H  50.40400 24.78100 44.62600
H  50.86100 22.18000 43.49500
H  50.08400 23.04300 46.02700
H  51.47800 22.00300 46.40300
H  50.11600 21.37700 45.46400
H  50.88100 23.75100 41.96300
H  50.83700 25.52400 41.91900
H  48.73700 25.64700 42.42600
H  48.59100 23.98600 43.09400
H  54.47300 18.41400 44.42400
H  55.63000 18.38700 43.14900
H  54.27000 19.44300 43.04900
H  59.95600 20.39500 44.30300
H  60.24000 18.88600 45.07400
H  59.53000 20.16600 46.11900
H  60.30700 24.42800 45.36300
H  59.43300 26.49600 47.27700
H  59.91200 23.06900 47.48000
H  59.89000 24.62100 48.39200
H  61.35400 24.19200 47.41200
H  59.39500 27.84400 44.94900
H  60.47000 26.42800 44.48000
H  61.54400 27.32300 46.84500
H  61.35200 28.76100 45.78200
H  62.28300 27.33700 45.30200
H  56.28000 30.45000 46.02500
H  55.47700 29.91100 47.59100
H  54.57700 30.86300 46.52400
H  50.76000 27.29400 45.03300
H  50.59500 29.74200 41.80100
H  48.90600 29.39900 41.74900
H  49.95300 28.45700 40.72600
Mg 6.39500 54.40100 40.54500
C  5.92200 50.93300 40.26500
C  9.66500 53.98000 39.63300
C  6.66100 57.79200 40.19900
C  2.90200 54.77200 40.79100
N  7.61300 52.57800 39.96600
C  7.23500 51.28200 39.89300
C  8.41100 50.43100 39.48700
C  9.64200 51.39700 39.46800
C  8.95800 52.73600 39.75500
C  10.85100 51.05100 40.44600
C  8.34500 49.82900 38.03800
C  7.95100 50.81500 36.86000
H  6.71700 50.32600 36.00800
N  7.92400 55.71300 39.99700
C  9.18200 55.31000 39.72600
C  10.04400 56.48300 39.59400
C  9.20700 57.60400 39.70400
C  7.83400 57.06800 39.97500
C  11.53300 56.42000 39.44100
C  9.71500 59.00700 39.55700
O  10.79400 59.13300 39.08400
C  8.84600 60.24100 39.64100
N  4.93800 56.09600 40.48100
C  5.27700 57.41300 40.38400
C  4.13400 58.29800 40.72300
C  2.89400 57.37100 40.54800
C  3.59600 56.00000 40.69400
C  4.27600 59.02000 42.12500
C  2.13800 57.59300 39.24800
C  1.34100 58.89700 39.22000
N  4.72400 53.16000 40.59000
C  3.38300 53.44100 40.72600
C  2.62500 52.24100 40.81800
C  3.63700 51.20700 40.75900
C  4.87800 51.85200 40.49200
C  1.09000 52.10300 41.02400
C  3.84700 49.81700 40.90500
O  3.09600 48.88100 41.16000
C  5.27300 49.58200 40.41000
C  5.29600 48.68000 39.24900
O  5.01500 48.95700 38.10600
O  5.76700 47.45200 39.66600
C  5.53800 46.28400 38.80300
H  10.71400 53.76200 39.41900
H  6.76600 58.87800 40.22500
H  1.84000 54.87900 41.02500
H  8.43100 49.75900 40.34500
H  10.12200 51.36900 38.49000
H  11.78900 50.92900 39.90400
H  10.71800 50.15000 41.04600
H  10.93100 51.82700 41.20800
H  7.64100 48.99700 38.03000
H  9.35000 49.43800 37.88100
H  8.81600 50.79600 36.19700
H  7.63800 51.78000 37.25900
H  12.03100 57.28300 39.88200
H  11.62700 56.34700 38.35700
H  11.86900 55.54800 40.00200
H  8.14400 60.12400 38.81500
H  9.48300 61.11700 39.51900
H  8.34500 60.41000 40.59400
H  4.07400 59.10000 39.98800
H  2.15800 57.33000 41.35100
H  3.35700 58.74000 42.64000
H  4.44100 60.08000 41.93100
H  5.16500 58.54600 42.54000
H  1.43300 56.77400 39.10600
H  2.91500 57.49200 38.49000
H  0.27900 58.74000 39.03300
H  1.76200 59.41100 38.35600
H  1.47200 59.48000 40.13200
H  0.56200 51.97700 40.07800
H  0.68100 52.93700 41.59400
H  0.90400 51.22800 41.64600
H  5.82300 49.05900 41.19300
H  6.53400 45.86500 38.66000
H  5.10400 46.45800 37.81900
H  4.95400 45.47300 39.23800

