158

Mg 44.61000 2.69700 47.22800
C  42.29500 5.25500 46.82300
C  41.93800 0.51300 47.00800
C  46.81100 0.07900 47.23900
C  47.10300 4.96000 46.34400
N  42.34100 2.86000 46.85800
C  41.66800 4.02400 46.76500
C  40.25500 3.89400 46.51900
C  40.05400 2.36900 46.85700
C  41.51000 1.83700 46.93100
C  39.15500 2.05900 48.13300
C  39.85800 4.31200 45.06500
C  38.56700 5.20600 44.88000
H  37.96900 5.22200 43.49000
N  44.42600 0.58700 47.20200
C  43.22300 -0.07100 47.09300
C  43.50800 -1.52600 47.24300
C  44.90500 -1.73400 47.23100
C  45.47000 -0.37300 47.31900
C  42.42500 -2.48800 47.11100
C  45.63600 -3.02300 47.22000
O  45.06600 -4.13100 47.22800
C  47.03000 -2.97100 47.52300
N  46.55300 2.50900 46.83800
C  47.27300 1.34000 46.94500
C  48.84700 1.63200 46.88900
C  48.84200 3.10400 46.28900
C  47.39200 3.57400 46.44200
C  49.50000 1.37300 48.27000
C  49.47700 3.32200 44.93000
C  50.84300 3.97300 44.86300
N  44.79400 4.71900 46.90600
C  45.86100 5.45900 46.53800
C  45.43600 6.77000 46.40400
C  44.02500 6.82400 46.55400
C  43.71900 5.49400 46.87000
C  46.25300 7.96500 45.93900
C  42.80200 7.63300 46.52900
O  42.59500 8.81100 46.22300
C  41.64900 6.65000 46.87300
C  41.06400 6.86300 48.15100
O  41.51200 6.50100 49.20500
O  39.77600 7.25800 48.00300
C  38.99700 7.55700 49.22200
H  41.05500 -0.12800 46.99500
H  47.66800 -0.59100 47.33700
H  47.85400 5.69900 46.05700
H  39.76800 4.53100 47.25600
H  39.52000 1.90400 46.02800
H  38.57400 2.89400 48.52500
H  39.82400 1.79200 48.95100
H  38.60700 1.15000 47.88700
H  39.79200 3.39500 44.47900
H  40.66300 4.91800 44.65000
H  38.74700 6.20800 45.27100
H  37.83700 4.87500 45.61900
H  41.86000 -2.41700 46.18100
H  41.71000 -2.20800 47.88500
H  42.80200 -3.50700 47.19200
H  47.27400 -2.34900 48.38400
H  47.46300 -2.56200 46.61000
H  47.32400 -3.99800 47.73600
H  49.27000 0.79800 46.33000
H  49.28700 3.81200 46.98800
H  50.14900 0.50100 48.35000
H  48.69100 1.20900 48.98200
H  50.07800 2.24700 48.56900
H  48.79100 3.83900 44.26000
H  49.52200 2.32100 44.49900
H  51.68500 3.44600 44.41300
H  51.11700 4.18300 45.89700
H  50.92300 4.94400 44.37500
H  45.70400 8.89300 46.09900
H  46.50600 7.81800 44.88800
H  47.19400 7.98800 46.48900
H  40.94100 6.74100 46.04900
H  39.21100 8.59600 49.47300
H  39.28200 6.88300 50.03000
H  37.92900 7.48000 49.02200
Mg -9.40900 18.68500 42.49800
C  -6.03900 17.99600 42.58100
C  -8.70500 22.05000 41.84200
C  -12.59100 19.31700 42.38900
C  -9.98600 15.20800 42.48300
N  -7.58100 19.79300 41.97100
C  -6.30200 19.26300 42.20100
C  -5.24400 20.36700 42.13100
C  -6.13700 21.69700 42.11700
C  -7.55600 21.15800 41.98700
C  -5.99800 22.58100 43.34100
C  -4.15100 20.26800 40.98200
C  -4.42000 19.55000 39.67600
H  -3.98600 20.19300 38.33200
N  -10.53700 20.40700 42.02700
C  -10.04700 21.66400 41.84300
C  -11.13100 22.57800 41.62500
C  -12.30600 21.81400 41.86400
C  -11.86900 20.50200 42.10500
C  -10.99300 24.04600 41.26700
C  -13.70300 22.34900 41.74800
O  -14.00900 23.50000 41.35000
C  -14.86100 21.44800 41.88300
N  -11.07400 17.41400 42.24600
C  -12.29200 17.90800 42.48000
C  -13.33700 16.86100 42.82600
C  -12.50000 15.48800 42.79000
C  -11.09200 16.05900 42.43200
C  -13.95400 17.21600 44.23400
C  -12.98400 14.43400 41.80500
C  -13.72800 13.25900 42.49400
N  -8.25800 16.93500 42.49100
C  -8.64700 15.62800 42.65900
C  -7.49100 14.83000 42.91200
C  -6.44800 15.73000 42.92500
C  -6.97100 16.98300 42.64700
C  -7.45800 13.35300 43.23700
C  -5.02300 15.84400 43.15600
O  -4.17100 15.00800 43.34000
C  -4.65300 17.34900 42.95400
C  -4.11900 17.90800 44.22700
O  -2.98200 18.32800 44.36000
O  -5.12000 18.06600 45.13400
C  -4.71900 18.74900 46.33700
H  -8.59200 23.13500 41.80300
H  -13.66500 19.48900 42.49000
H  -10.26300 14.15900 42.60700
H  -4.71200 20.34200 43.08200
H  -5.78200 22.34100 41.31200
H  -6.89300 22.86000 43.89600
H  -5.43000 23.47700 43.08800
H  -5.32300 22.17100 44.09200
H  -3.21800 19.87500 41.38400
H  -3.72300 21.24700 40.76500
H  -5.49400 19.38200 39.59100
H  -3.84700 18.62500 39.73200
H  -10.23800 24.54000 41.87800
H  -11.84500 24.72600 41.23100
H  -10.60800 24.11900 40.25000
H  -14.99400 21.11700 42.91300
H  -14.80400 20.67000 41.12200
H  -15.77500 22.02800 41.74900
H  -14.09600 16.83800 42.04400
H  -12.44600 15.09400 43.80400
H  -14.77700 17.90300 44.03500
H  -13.24000 17.68800 44.90900
H  -14.42800 16.32400 44.64200
H  -12.04700 14.06000 41.39200
H  -13.61000 14.68100 40.94700
H  -13.15000 12.34000 42.58800
H  -14.66200 13.05100 41.97200
H  -13.88000 13.40900 43.56200
H  -6.46900 13.09900 42.85600
H  -8.32300 12.82000 42.84200
H  -7.41100 13.21500 44.31700
H  -3.81600 17.65300 42.32500
H  -5.60000 18.89900 46.96000
H  -4.26000 19.71200 46.11700
H  -3.93000 18.20000 46.85200

