158

Mg 30.73800 58.62800 40.42800
C  27.89500 56.75400 39.21200
C  32.80700 56.09300 39.19400
C  33.24200 60.65800 40.75800
C  28.31900 61.28700 40.92800
N  30.31200 56.66900 39.18500
C  29.10900 56.13700 38.92900
C  29.34000 54.75700 38.28900
C  30.86400 54.38800 38.58200
C  31.42600 55.77400 38.99500
C  31.03700 53.25700 39.63600
C  28.91200 54.87300 36.72300
C  28.04900 53.73900 36.19800
H  27.11400 54.07600 35.04900
N  32.74700 58.36600 40.09300
C  33.46200 57.32200 39.57100
C  34.83100 57.59500 39.55400
C  35.06600 58.96700 39.80500
C  33.66800 59.45100 40.24500
C  35.85000 56.55600 39.26300
C  36.36600 59.82900 39.66800
O  37.40600 59.33800 39.25400
C  36.37800 61.18900 40.29800
N  30.77400 60.72200 40.83500
C  32.01500 61.31000 40.91300
C  31.88000 62.83300 41.16200
C  30.32400 62.94200 41.42500
C  29.71700 61.59100 41.02900
C  32.77500 63.42700 42.30500
C  29.67100 64.12800 40.65100
C  28.51200 64.82700 41.30900
N  28.55500 59.00900 40.25000
C  27.75600 60.07500 40.50600
C  26.35800 59.76700 40.19700
C  26.37400 58.46600 39.77200
C  27.73100 58.06200 39.72800
C  25.28100 60.81300 40.24100
C  25.52400 57.38700 39.27100
O  24.29700 57.23900 39.12200
C  26.51200 56.18300 38.90800
C  26.22600 55.03900 39.76100
O  26.60300 55.06000 40.98500
O  25.54500 54.06100 39.09800
C  24.97000 52.93800 39.86400
H  33.53000 55.34400 38.86400
H  33.93200 61.48200 40.95000
H  27.55700 62.00400 41.24000
H  28.61500 54.08800 38.75200
H  31.35700 54.10500 37.65200
H  30.41600 52.39000 39.41300
H  30.93000 53.70000 40.62700
H  32.03100 52.81700 39.55200
H  29.84000 54.90300 36.15100
H  28.41700 55.81500 36.48600
H  27.34300 53.32500 36.91800
H  28.63600 52.88900 35.84900
H  35.52700 56.13700 38.30900
H  35.77500 55.80200 40.04600
H  36.79800 57.07200 39.11000
H  35.97100 61.12600 41.30700
H  35.87300 61.94800 39.70000
H  37.43900 61.43900 40.31200
H  32.23300 63.23500 40.21300
H  30.10600 63.16000 42.47000
H  33.42800 62.59800 42.58000
H  32.16800 63.71200 43.16400
H  33.35500 64.25200 41.89300
H  29.37000 63.77000 39.66600
H  30.42200 64.87200 40.38400
H  27.63300 64.61200 40.70100
H  28.63600 65.90900 41.32600
H  28.41400 64.47100 42.33400
H  24.36200 60.27100 40.01700
H  25.48600 61.61500 39.53200
H  25.33300 61.26900 41.22900
H  26.38600 56.04400 37.83400
H  24.71300 53.28200 40.86600
H  25.71100 52.13900 39.82000
H  23.98700 52.62900 39.50700
Mg 36.98400 50.18400 25.71300
C  37.32600 47.87500 28.42200
C  35.82800 52.52100 27.70400
C  36.27400 51.91500 22.89800
C  37.87800 47.40500 23.62900
N  36.53900 50.15900 27.81900
C  36.81500 49.13900 28.77200
C  36.79600 49.73400 30.15900
C  36.05900 51.09500 29.90400
C  36.15200 51.29600 28.35100
C  34.58400 51.15000 30.41800
C  38.12800 49.89800 30.96400
C  38.21400 50.29300 32.41400
H  36.83000 50.27500 33.19300
N  36.20100 52.01300 25.34500
C  35.72200 52.87100 26.32800
C  35.37400 54.13000 25.65700
C  35.48500 53.89600 24.23900
C  36.07600 52.59200 24.08200
C  35.00000 55.36000 26.39600
C  35.15900 54.83900 23.06800
O  35.27400 54.46100 21.90500
C  34.48800 56.22900 23.27500
N  37.03900 49.69500 23.60500
C  36.67600 50.60200 22.62700
C  36.74600 50.03400 21.18400
C  37.43200 48.65500 21.40900
C  37.55700 48.60700 22.94600
C  35.31200 49.86600 20.73300
C  38.71500 48.27500 20.63000
C  40.09200 48.42600 21.37600
N  37.56100 48.09300 25.91100
C  37.90100 47.11700 25.00800
C  38.29000 45.88000 25.73000
C  38.11100 46.15300 27.01100
C  37.56500 47.44700 27.07700
C  38.94700 44.66200 25.02200
C  38.12800 45.52900 28.35700
O  38.38500 44.46300 28.81400
C  37.74700 46.71600 29.35500
C  36.61300 46.26700 30.23500
O  35.46900 46.02500 29.86000
O  36.97400 46.37400 31.54200
C  35.93300 46.08000 32.53000
H  35.65200 53.30500 28.44400
H  36.19900 52.42000 21.93300
H  38.33900 46.65800 22.98000
H  36.17900 49.06000 30.75400
H  36.48000 51.89200 30.51800
H  34.59600 51.63400 31.39500
H  34.08000 50.19000 30.53300
H  33.94600 51.80300 29.82400
H  38.71800 50.59200 30.36500
H  38.56300 48.91100 30.80900
H  38.71400 51.25300 32.54700
H  38.76500 49.47500 32.87800
H  35.57500 56.14300 25.90300
H  35.24500 55.15100 27.43800
H  33.95000 55.64600 26.33200
H  34.89500 56.70300 24.16900
H  33.40900 56.09000 23.34900
H  34.75800 56.90000 22.45900
H  37.36500 50.63900 20.52200
H  36.72000 47.86900 21.15700
H  35.08600 50.58400 19.94500
H  34.58500 50.02000 21.53100
H  35.18400 48.89800 20.24900
H  38.74300 48.93900 19.76600
H  38.70000 47.26000 20.23400
H  40.54700 47.43800 21.45200
H  40.26900 48.85900 22.36000
H  40.59300 49.13700 20.71900
H  39.38400 44.99600 24.08100
H  38.18900 43.88800 24.90800
H  39.71800 44.26500 25.68200
H  38.61000 47.04500 29.93400
H  34.90400 46.19900 32.18900
H  36.02700 46.69500 33.42600
H  35.96900 45.05100 32.88900

