158

Mg -2.23500 16.36500 26.60500
C  -2.52900 13.76900 29.08300
C  -2.80400 18.65600 28.91200
C  -2.71100 18.58400 24.14800
C  -2.50600 13.66000 24.27200
N  -2.64200 16.16100 28.75400
C  -2.69800 15.10600 29.60500
C  -2.96500 15.55300 31.08200
C  -3.00200 17.11700 30.99300
C  -2.84600 17.38000 29.42900
C  -4.28000 17.85800 31.58800
C  -2.01500 14.90000 32.17700
C  -1.56500 15.76800 33.33300
H  -0.75400 15.16100 34.49300
N  -2.47000 18.34300 26.51900
C  -2.64500 19.14200 27.61200
C  -2.70000 20.56100 27.16600
C  -2.62600 20.57600 25.76000
C  -2.57500 19.11300 25.37600
C  -2.85400 21.66600 28.09800
C  -2.44600 21.76000 24.77800
O  -2.25300 21.60400 23.59800
C  -2.48300 23.13500 25.34200
N  -2.70700 16.12200 24.56100
C  -2.85700 17.23800 23.74000
C  -3.20100 16.87700 22.28900
C  -2.95900 15.29400 22.29900
C  -2.73500 14.99000 23.80400
C  -4.62800 17.43100 21.91200
C  -1.97200 14.75300 21.28600
C  -0.51100 15.13000 21.49200
N  -2.28400 14.13500 26.61400
C  -2.38600 13.24100 25.59900
C  -2.38200 11.89400 26.13200
C  -2.41200 12.05200 27.52600
C  -2.44300 13.46900 27.74300
C  -2.70400 10.66900 25.37500
C  -2.57900 11.35800 28.73700
O  -2.71400 10.15900 28.96100
C  -2.74500 12.44000 29.76500
C  -1.84400 12.04800 30.95500
O  -0.58600 12.06300 30.99200
O  -2.69300 11.65500 31.91900
C  -2.07600 11.22600 33.25800
H  -2.79600 19.43400 29.67800
H  -2.93200 19.34500 23.39700
H  -2.58100 12.93700 23.45700
H  -3.95300 15.15400 31.31300
H  -2.14200 17.58300 31.47500
H  -5.01100 17.14400 31.96800
H  -4.76600 18.54000 30.89000
H  -4.00500 18.46100 32.45300
H  -1.14800 14.40100 31.74400
H  -2.63400 14.15900 32.68300
H  -2.43300 16.20900 33.82200
H  -0.91800 16.53100 32.90000
H  -3.83500 22.02300 27.78600
H  -1.99500 22.28000 27.82600
H  -2.71700 21.40100 29.14700
H  -3.38200 23.34100 25.92200
H  -2.54900 23.83100 24.50500
H  -1.63900 23.15300 26.03100
H  -2.52900 17.31500 21.55000
H  -3.90600 14.80700 22.06700
H  -5.05900 17.68900 22.88000
H  -5.22600 16.62200 21.49200
H  -4.60300 18.30200 21.25700
H  -2.33100 15.19000 20.35400
H  -2.04100 13.66600 21.31600
H  -0.17300 15.75500 20.66600
H  -0.01000 14.18400 21.69800
H  -0.45900 15.70600 22.41600
H  -3.24100 10.83000 24.44000
H  -3.32100 10.08500 26.05700
H  -1.75800 10.19000 25.12400
H  -3.79700 12.41500 30.04800
H  -2.01100 10.13900 33.29300
H  -2.73200 11.57200 34.05700
H  -1.13000 11.74000 33.43000
Mg 47.43200 45.09700 42.93800
C  44.01600 44.61600 42.52500
C  47.99700 41.83900 42.23000
C  50.70600 45.82000 42.77600
C  46.79400 48.62700 43.33800
N  46.12500 43.41900 42.46300
C  44.76300 43.40600 42.42800
C  44.16900 42.06800 42.23100
C  45.44000 41.19200 42.32700
C  46.61600 42.15400 42.26300
C  45.50700 40.29400 43.51000
C  43.32900 41.79100 41.00200
C  43.67800 42.49200 39.66900
H  43.54200 41.71000 38.39400
N  49.13100 44.02100 42.64100
C  49.11400 42.62700 42.33500
C  50.48800 42.16400 42.33300
C  51.35700 43.29800 42.45700
C  50.47100 44.48100 42.68900
C  50.79700 40.71600 42.48000
C  52.87100 43.28600 42.35700
O  53.53600 42.25700 42.07600
C  53.65400 44.55700 42.53600
N  48.54300 46.94700 43.05400
C  49.91000 46.96400 43.00900
C  50.55800 48.43300 43.00100
C  49.32700 49.28300 43.36100
C  48.12400 48.24200 43.26200
C  51.77800 48.64200 44.02900
C  49.02000 50.46200 42.43700
C  48.33900 51.70300 43.17400
N  45.82500 46.38500 42.90000
C  45.72900 47.74600 43.11300
C  44.34400 48.13600 43.04600
C  43.63500 46.90700 42.89400
C  44.57100 45.92600 42.76900
C  43.60100 49.45900 43.21800
C  42.33000 46.40300 42.77800
O  41.25600 46.99100 42.76900
C  42.49100 44.90400 42.53300
C  41.75000 44.29300 43.67500
O  40.71800 43.55200 43.50100
O  42.25700 44.64400 44.89500
C  41.64100 43.96000 46.06900
H  48.11000 40.75500 42.16300
H  51.77900 45.97300 42.63900
H  46.67400 49.68300 43.58700
H  43.54300 41.93400 43.11300
H  45.46500 40.49100 41.49300
H  45.53600 39.22000 43.32500
H  44.64400 40.45600 44.15500
H  46.39500 40.49400 44.11000
H  42.29500 42.06400 41.21400
H  43.20900 40.72000 40.84400
H  44.71500 42.82200 39.72200
H  43.11000 43.41600 39.55500
H  51.86500 40.55800 42.63400
H  50.64400 40.19200 41.53700
H  50.17700 40.26000 43.25100
H  53.72500 45.13200 41.61200
H  54.65400 44.24100 42.83200
H  53.27900 45.13400 43.38100
H  50.98300 48.66800 42.02600
H  49.37200 49.71900 44.35900
H  51.83000 47.97200 44.88700
H  51.80200 49.66000 44.41700
H  52.77700 48.55100 43.60300
H  48.44000 50.14400 41.57100
H  49.96100 50.91100 42.11700
H  48.63400 52.68200 42.79600
H  48.65800 51.77300 44.21400
H  47.25300 51.65500 43.09300
H  42.79200 49.55000 42.49400
H  44.29200 50.23500 42.88800
H  43.44500 49.59300 44.28900
H  41.98200 44.63600 41.60800
H  41.58200 42.88700 45.88600
H  40.64500 44.26400 46.38900
H  42.24700 44.07600 46.96800

