158

Mg 49.00300 45.90000 43.59900
C  45.93500 46.49900 42.00800
C  49.23900 43.06300 41.57900
C  52.52000 45.78400 44.09600
C  49.01200 49.23400 44.68100
N  47.62700 44.81400 42.03700
C  46.40800 45.24800 41.59100
C  45.98500 44.26600 40.46500
C  46.87200 43.05000 40.70800
C  48.03900 43.64900 41.41500
C  46.24600 41.87900 41.53300
C  46.19300 44.89600 39.04600
C  44.96900 44.90200 38.14000
H  44.95600 44.24000 36.74800
N  50.58200 44.55300 43.01600
C  50.45500 43.45700 42.28200
C  51.70100 42.80200 42.11000
C  52.69100 43.54200 42.74500
C  51.97900 44.67200 43.38700
C  51.83800 41.43800 41.46100
C  54.15900 43.24500 42.73000
O  54.52900 42.21000 42.11100
C  55.16500 44.14300 43.35500
N  50.57400 47.27600 44.25300
C  51.81800 46.94200 44.53400
C  52.58700 48.11000 45.14200
C  51.42800 49.15200 45.40500
C  50.21800 48.55400 44.66400
C  53.52600 47.85200 46.32900
C  51.83000 50.60800 44.87400
C  51.13900 51.80900 45.54800
N  47.74100 47.41000 43.53100
C  47.82900 48.68800 44.13200
C  46.58100 49.40600 43.89200
C  45.82300 48.59700 42.99600
C  46.57600 47.36400 42.84900
C  46.25200 50.79900 44.41700
C  44.60600 48.49300 42.21800
O  43.70400 49.25400 42.12100
C  44.75600 47.19900 41.43300
C  43.46900 46.37200 41.70600
O  43.23400 45.75700 42.74000
O  42.58400 46.38200 40.58500
C  41.39200 45.45500 40.74500
H  49.38900 42.10300 41.08000
H  53.59200 45.78900 44.30300
H  49.05900 50.21400 45.16100
H  44.91800 44.09600 40.60900
H  47.11700 42.63500 39.73000
H  45.22200 42.07900 41.84800
H  46.79900 41.78300 42.46700
H  46.07400 40.94800 40.99400
H  46.89200 44.27400 38.48600
H  46.51100 45.92200 39.23100
H  44.81600 45.96600 37.96100
H  44.06000 44.59700 38.65900
H  51.91700 41.65800 40.39600
H  50.94700 40.81200 41.50300
H  52.69100 40.89000 41.86000
H  55.07300 44.14100 44.44100
H  54.91500 45.14500 43.00400
H  56.18400 43.78500 43.21100
H  53.17500 48.42200 44.27900
H  51.30700 49.35300 46.46900
H  53.19200 48.36600 47.23100
H  54.55800 48.16000 46.16000
H  53.48100 46.78000 46.52000
H  51.63200 50.62800 43.80200
H  52.90500 50.72000 45.01100
H  50.63200 52.31100 44.72400
H  51.85200 52.35900 46.16200
H  50.36400 51.42600 46.21100
H  46.18200 51.53000 43.61100
H  47.03500 51.26300 45.01500
H  45.20400 50.81300 44.71700
H  44.82700 47.45700 40.37600
H  40.82700 45.92800 41.54800
H  41.67900 44.44300 41.03000
H  40.90400 45.53100 39.77300
Mg 16.87000 51.86300 25.08700
C  18.61700 50.50100 27.80000
C  14.28900 52.72800 27.14100
C  15.15800 52.84300 22.31400
C  19.35600 50.42000 22.95100
N  16.54900 51.62500 27.20400
C  17.44800 51.13900 28.14900
C  16.90700 51.49000 29.60500
C  15.43100 51.92100 29.35000
C  15.43300 52.17100 27.82000
C  14.34900 50.87100 29.63600
C  17.73400 52.60500 30.27900
C  17.42800 52.85400 31.83200
H  16.41000 52.06400 32.52700
N  14.89500 52.69900 24.77200
C  14.04800 53.00300 25.78600
C  12.91200 53.65700 25.22100
C  13.05800 53.64600 23.74900
C  14.48300 53.08400 23.53800
C  11.70500 54.10100 26.08300
C  12.15200 54.22000 22.70700
O  12.34700 54.21700 21.48300
C  10.79600 54.86100 23.21000
N  17.18800 51.65400 22.97900
C  16.35500 52.25400 22.07100
C  16.86900 52.19800 20.57900
C  18.27400 51.33400 20.82400
C  18.32800 51.11800 22.32500
C  15.92200 51.36900 19.67800
C  19.63200 51.97400 20.38500
C  19.73400 52.30600 18.92500
N  18.65400 50.75400 25.28200
C  19.48400 50.20800 24.34000
C  20.58300 49.55400 25.00900
C  20.24300 49.60100 26.35200
C  19.02500 50.32700 26.44200
C  21.82800 48.91600 24.38900
C  20.64600 49.27500 27.64900
O  21.59300 48.60800 28.03700
C  19.71900 49.96400 28.63800
C  19.28500 48.97100 29.62700
O  18.38900 48.16000 29.55800
O  20.00100 49.24700 30.78500
C  19.65600 48.60700 32.06000
H  13.44600 53.01300 27.77300
H  14.72200 53.34300 21.44700
H  20.19200 49.99900 22.38900
H  16.98800 50.57100 30.18600
H  15.23500 52.84200 29.90000
H  13.35700 51.27200 29.84200
H  14.60300 50.21000 30.46500
H  14.24800 50.19900 28.78400
H  17.59000 53.51800 29.70100
H  18.78400 52.31800 30.22500
H  17.24400 53.92400 31.93200
H  18.39600 52.55500 32.23300
H  11.39400 55.14200 25.99600
H  11.99500 54.03700 27.13200
H  10.84700 53.43700 25.97100
H  10.27200 54.20100 23.90100
H  10.29400 54.98300 22.25000
H  10.94300 55.79700 23.74800
H  17.07300 53.16800 20.12700
H  18.18500 50.38300 20.29800
H  15.92300 50.33400 20.02100
H  16.28300 51.37300 18.64900
H  14.90100 51.74100 19.76300
H  20.48000 51.31700 20.58100
H  19.68700 52.96400 20.83700
H  20.00400 53.35600 18.80700
H  18.87700 52.00900 18.32100
H  20.58900 51.71400 18.60100
H  22.62900 49.64700 24.27700
H  21.66300 48.46000 23.41300
H  22.17600 48.11300 25.03800
H  20.23800 50.83100 29.04700
H  19.75800 47.53200 31.91500
H  18.65800 48.84000 32.43300
H  20.31400 48.76400 32.91500

