158

Mg 54.95600 24.36300 44.17300
C  52.27000 26.27100 43.22300
C  53.37700 21.50100 43.27900
C  58.05700 22.68600 44.13900
C  56.90700 27.38000 44.50400
N  53.06200 24.00600 43.25400
C  52.03900 24.90800 43.01000
C  50.75800 24.18600 42.53200
C  51.11300 22.74000 43.08900
C  52.61700 22.71400 43.22800
C  50.34000 22.54700 44.44000
C  50.63200 24.12600 41.00600
C  49.24200 24.01500 40.44600
H  49.04100 23.73100 38.94300
N  55.58800 22.32600 43.79900
C  54.75500 21.30400 43.45700
C  55.44300 20.09900 43.51900
C  56.82100 20.40500 43.80300
C  56.86100 21.87800 43.96500
C  54.73700 18.86700 43.09000
C  57.86400 19.37500 43.90100
O  57.53800 18.23900 43.69500
C  59.27800 19.65200 44.35900
N  57.15900 24.92800 44.17900
C  58.16200 24.04600 44.23200
C  59.53300 24.71500 44.44900
C  59.21900 26.21000 44.57800
C  57.61600 26.17400 44.35000
C  60.38700 24.12800 45.55600
C  59.97800 27.05300 43.54100
C  60.69100 28.23800 44.10100
N  54.66200 26.45500 43.92000
C  55.48700 27.54100 44.23800
C  54.61500 28.68200 44.42000
C  53.31900 28.22400 43.98900
C  53.49000 26.86700 43.67000
C  54.98800 30.02900 44.90900
C  51.93700 28.63100 43.94400
O  51.36300 29.60600 44.30200
C  51.17200 27.39400 43.34400
C  50.69300 27.86700 42.03100
O  51.46000 28.27600 41.12100
O  49.32500 27.79000 41.84300
C  48.70200 28.24700 40.58200
H  52.85200 20.55200 43.40700
H  58.96600 22.08100 44.12600
H  57.50100 28.25000 44.79300
H  49.83900 24.62500 42.92000
H  50.77700 21.97800 42.38600
H  51.02200 22.24800 45.23500
H  49.63900 21.74100 44.22200
H  49.84200 23.44600 44.80200
H  51.16500 23.21700 40.72800
H  51.18900 24.93000 40.52400
H  48.73000 24.97600 40.48500
H  48.70200 23.30300 41.07100
H  54.34700 19.04700 42.08800
H  53.83500 18.82400 43.70100
H  55.25100 17.91700 43.23100
H  59.83400 20.23500 43.62500
H  59.74700 18.73600 44.72000
H  59.29600 20.18300 45.31100
H  60.09500 24.54800 43.53000
H  59.46300 26.61700 45.55900
H  60.60400 24.89400 46.30100
H  61.24600 23.57800 45.17300
H  59.67000 23.42500 45.98000
H  59.30400 27.42000 42.76800
H  60.78400 26.58300 42.97700
H  61.65800 28.34900 43.60900
H  60.86700 28.18600 45.17500
H  60.11400 29.15200 43.95700
H  55.57700 29.88100 45.81400
H  54.13400 30.69600 45.01900
H  55.58000 30.49700 44.12200
H  50.33900 27.12000 43.99100
H  48.76100 27.53100 39.76200
H  49.34900 29.08100 40.30900
H  47.66300 28.57500 40.58100
Mg -4.98500 26.02000 25.68500
C  -3.89200 27.28800 28.78700
C  -7.14000 24.04100 27.69600
C  -5.83800 24.38000 22.92100
C  -2.69400 27.99200 23.94800
N  -5.26700 25.58400 28.03800
C  -4.75900 26.30400 29.00800
C  -5.49000 26.01700 30.37500
C  -6.28400 24.73200 30.02400
C  -6.32300 24.82000 28.50100
C  -5.56600 23.44900 30.51700
C  -6.48500 27.15100 30.77900
C  -6.46300 27.40400 32.27800
H  -6.52300 26.12700 33.26900
N  -6.29600 24.40500 25.34300
C  -7.10800 23.77000 26.27500
C  -8.05100 22.86700 25.57800
C  -7.60900 22.90200 24.17100
C  -6.51900 23.91200 24.08600
C  -9.07700 21.96400 26.23600
C  -8.14200 22.13100 22.94800
O  -7.51700 22.12100 21.87000
C  -9.32200 21.23900 23.03900
N  -4.25100 26.01200 23.72800
C  -4.84200 25.31300 22.78500
C  -4.20400 25.73000 21.38700
C  -3.42100 27.06600 21.72500
C  -3.44000 27.05700 23.21700
C  -3.27800 24.57500 20.77200
C  -4.10400 28.31700 20.99400
C  -3.25500 29.21700 20.10300
N  -3.46300 27.29300 26.21700
C  -2.65800 28.09000 25.37600
C  -1.91000 28.98100 26.26800
C  -2.37300 28.66800 27.56500
C  -3.36700 27.67700 27.53400
C  -0.74700 29.82500 25.92000
C  -2.15900 29.01500 28.93800
O  -1.48000 29.89500 29.50500
C  -3.19600 28.15600 29.75200
C  -2.54800 27.35100 30.88100
O  -1.56400 26.63300 30.79900
O  -3.15100 27.50400 32.11600
C  -2.45500 26.85000 33.20600
H  -7.88000 23.41200 28.19700
H  -6.11500 23.78800 22.04500
H  -2.14100 28.72500 23.35700
H  -4.73500 25.69000 31.09000
H  -7.30300 24.73500 30.41100
H  -5.19400 22.76500 29.75500
H  -6.21300 22.99400 31.26700
H  -4.63200 23.64100 31.04400
H  -7.54200 27.04100 30.53900
H  -6.13300 28.10100 30.37700
H  -7.34300 28.02900 32.43000
H  -5.53500 27.90100 32.56200
H  -9.98200 21.88600 25.63500
H  -9.30400 22.41900 27.20100
H  -8.70700 20.99000 26.55600
H  -9.34800 20.52700 22.21400
H  -10.13000 21.95900 23.16500
H  -9.39600 20.56500 23.89200
H  -5.03500 25.96300 20.72100
H  -2.38800 26.92900 21.40600
H  -3.26800 23.73000 21.45900
H  -2.32700 24.92000 20.36500
H  -3.90600 24.22100 19.95400
H  -4.65700 28.94200 21.69500
H  -4.87400 28.01800 20.28200
H  -3.09000 30.26900 20.33500
H  -3.64700 29.23000 19.08600
H  -2.32400 28.67700 19.92800
H  -1.15000 30.82500 25.76100
H  -0.26600 29.56700 24.97600
H  0.04500 29.81300 26.66900
H  -3.91900 28.83500 30.20400
H  -1.46600 27.28000 33.35900
H  -2.33300 25.76800 33.15900
H  -2.97100 26.98500 34.15700

