158

Mg 35.66700 0.62500 29.68500
C  33.35700 1.86700 32.17400
C  38.14000 0.72600 32.06000
C  37.94500 -0.01600 27.30400
C  33.22300 1.36000 27.27200
N  35.69300 1.29900 31.82900
C  34.62800 1.53100 32.69900
C  35.12800 1.68200 34.10400
C  36.70400 1.46400 34.02200
C  36.87600 1.15900 32.57500
C  37.60400 2.57000 34.56000
C  34.33000 0.89000 35.23700
C  34.02000 1.65000 36.46700
H  35.15500 2.52200 36.93500
N  37.71700 0.50700 29.65800
C  38.58400 0.42300 30.75900
C  39.91900 -0.03600 30.38700
C  39.90100 -0.27200 28.99100
C  38.49500 0.03900 28.56500
C  41.02500 -0.16400 31.46200
C  41.08900 -0.66000 27.99400
O  40.86800 -0.70200 26.77200
C  42.46200 -0.75700 28.59500
N  35.59600 0.69900 27.60400
C  36.70300 0.39900 26.82200
C  36.36700 0.61700 25.30900
C  34.82700 0.97000 25.39400
C  34.49400 0.95500 26.85200
C  37.31200 1.56700 24.50700
C  33.82300 0.31600 24.42100
C  33.25200 -1.03700 24.88900
N  33.75500 1.33900 29.65700
C  32.81600 1.55300 28.57700
C  31.53000 1.93500 29.08200
C  31.69500 2.06700 30.47300
C  33.00700 1.76300 30.77600
C  30.35000 2.31400 28.19600
C  31.06300 2.40000 31.71900
O  29.90800 2.71800 31.97800
C  32.03100 2.21600 32.95000
C  32.14700 3.42200 33.79200
O  33.03100 4.21400 33.64800
O  31.27500 3.42800 34.91100
C  31.51500 4.73800 35.67900
H  38.74400 0.51200 32.94400
H  38.68900 -0.31000 26.56100
H  32.37300 1.58700 26.62500
H  35.00000 2.73800 34.34100
H  36.86300 0.54800 34.59300
H  37.25700 3.26200 35.32800
H  38.25700 3.06800 33.84300
H  38.18600 1.88700 35.17900
H  34.94000 0.05300 35.57500
H  33.41600 0.52100 34.77100
H  33.74800 1.00200 37.30000
H  33.18700 2.31800 36.24700
H  41.67600 0.69500 31.62300
H  41.67700 -1.00400 31.22100
H  40.58000 -0.37300 32.43500
H  42.44400 -1.66500 29.19800
H  42.76000 0.13500 29.14600
H  43.17200 -0.88800 27.77800
H  36.55600 -0.34800 24.83900
H  34.82700 1.99900 25.03600
H  38.08400 1.83400 25.22900
H  36.80700 2.41700 24.04800
H  37.80500 1.04300 23.68800
H  34.30200 0.13300 23.45900
H  33.01800 1.03100 24.24900
H  33.54800 -1.67400 24.05600
H  32.17600 -1.00900 25.06300
H  33.76100 -1.30800 25.81400
H  30.65900 2.65700 27.20800
H  29.79800 3.00700 28.83100
H  29.75600 1.43800 27.93700
H  31.60400 1.34000 33.43700
H  31.33000 5.63300 35.08500
H  32.56100 4.64300 35.97000
H  30.89300 4.67200 36.57200
Mg -2.01900 34.13800 26.35800
C  -3.31100 32.49300 29.21100
C  -0.78100 36.55200 28.42600
C  -1.43400 36.10700 23.55700
C  -4.02900 32.01700 24.36700
N  -1.94200 34.43700 28.67100
C  -2.50200 33.60200 29.59700
C  -2.14900 34.11300 31.01400
C  -1.46900 35.47400 30.66700
C  -1.34200 35.42300 29.15200
C  -1.99500 36.75700 31.29900
C  -1.26700 32.98100 31.66800
C  -1.89500 32.38100 32.89600
H  -1.17700 32.54300 34.18700
N  -1.11600 36.00200 26.06800
C  -0.65700 36.83300 27.03700
C  -0.08100 38.00200 26.46200
C  -0.14800 37.89800 25.05400
C  -0.89700 36.59800 24.81800
C  0.62500 39.08600 27.30300
C  0.35700 38.83100 23.94500
O  0.14800 38.60400 22.75500
C  1.10300 40.06100 24.24600
N  -2.65800 34.04900 24.27700
C  -2.25300 34.96100 23.34500
C  -2.85200 34.58900 21.94800
C  -3.65300 33.29000 22.22600
C  -3.41800 33.07900 23.72000
C  -3.75200 35.67000 21.31400
C  -3.13900 32.15200 21.30500
C  -2.17400 31.13500 21.84000
N  -3.27000 32.50000 26.64600
C  -3.98300 31.68800 25.78500
C  -4.55100 30.61900 26.50600
C  -4.37300 30.92500 27.84600
C  -3.62100 32.10300 27.87300
C  -5.29100 29.45300 25.99500
C  -4.83100 30.58600 29.19900
O  -5.55700 29.73300 29.65900
C  -4.03500 31.53600 30.13500
C  -5.07000 32.29700 30.97600
O  -5.72500 33.25700 30.66900
O  -5.19000 31.51600 32.10100
C  -5.87500 32.21000 33.17700
H  -0.33700 37.36100 29.00800
H  -1.30700 36.60200 22.59300
H  -4.58900 31.31700 23.74300
H  -3.08500 34.25300 31.55600
H  -0.44800 35.40100 31.04200
H  -2.90900 36.51000 31.84000
H  -2.34200 37.43900 30.52200
H  -1.27100 37.25200 31.94500
H  -0.25300 33.33500 31.85600
H  -1.25000 32.10600 31.01900
H  -1.94100 31.29500 32.81500
H  -2.92300 32.70000 33.06900
H  1.69400 38.92300 27.16200
H  0.29000 39.16400 28.33800
H  0.41400 39.98100 26.71800
H  1.55700 40.43000 23.32600
H  1.95300 39.88300 24.90400
H  0.45600 40.84600 24.63600
H  -1.94600 34.38700 21.37700
H  -4.73500 33.40200 22.17100
H  -3.09200 36.12500 20.57400
H  -3.96400 36.44900 22.04600
H  -4.62900 35.20500 20.86500
H  -2.66600 32.72900 20.51000
H  -4.00100 31.65600 20.85800
H  -2.58300 30.12900 21.94000
H  -1.85700 31.36600 22.85700
H  -1.19900 31.05700 21.36000
H  -4.79000 28.52200 25.73100
H  -5.85300 29.87300 25.16000
H  -6.06800 29.12900 26.68800
H  -3.44300 30.94200 30.83100
H  -6.74400 32.74500 32.79300
H  -5.23700 32.81400 33.82100
H  -6.29300 31.42200 33.80500

