158

Mg 25.62500 0.61900 29.01200
C  27.72800 0.31500 31.98600
C  22.94900 1.00800 31.06600
C  23.84600 0.88300 26.26000
C  28.47500 -0.23300 27.11800
N  25.41000 0.60500 31.24400
C  26.38700 0.60400 32.27100
C  25.62200 0.89600 33.65800
C  24.09400 1.12600 33.30700
C  24.17500 0.85600 31.80200
C  23.05200 0.23300 34.03000
C  26.21900 2.14400 34.37100
C  25.57400 2.47100 35.80100
H  26.68400 2.50200 36.95200
N  23.67000 0.88900 28.70100
C  22.70800 0.95100 29.63900
C  21.45500 1.17900 28.98000
C  21.69300 1.18000 27.62500
C  23.13700 0.93500 27.44700
C  20.16000 1.28400 29.79300
C  20.71000 1.59800 26.43200
O  21.06100 1.58900 25.27100
C  19.22900 1.94300 26.65200
N  26.10000 0.41300 27.03800
C  25.21300 0.64600 26.03000
C  25.76500 0.64000 24.63600
C  27.22200 0.23000 24.90400
C  27.28400 0.08000 26.43500
C  24.97600 -0.18200 23.59800
C  28.25900 1.19800 24.26300
C  28.96700 0.81300 22.92800
N  27.64700 0.10600 29.39800
C  28.62900 -0.21700 28.50300
C  29.78900 -0.72100 29.25800
C  29.51000 -0.40900 30.60100
C  28.19200 0.09300 30.64100
C  30.99200 -1.35200 28.69200
C  30.06900 -0.40000 31.93700
O  31.17300 -0.78700 32.29200
C  28.92700 0.00200 32.87800
C  28.63900 -1.02300 33.88300
O  27.85400 -1.97300 33.68000
O  29.49800 -0.88700 34.96300
C  29.33700 -2.01200 35.98100
H  22.13600 1.26900 31.74700
H  23.36400 1.24800 25.35000
H  29.15200 -0.66400 26.37700
H  25.77800 0.01100 34.27300
H  23.70300 2.13400 33.45100
H  22.22700 0.90500 34.27000
H  23.42100 -0.07500 35.00800
H  22.78900 -0.61300 33.39600
H  26.13700 3.04200 33.75800
H  27.28700 2.02500 34.55400
H  24.84200 1.69500 36.02500
H  25.11800 3.45900 35.73800
H  19.81900 2.28500 29.52800
H  20.29400 1.18200 30.87000
H  19.40100 0.59900 29.41600
H  18.76500 2.48300 25.82700
H  19.09400 2.62200 27.49300
H  18.73500 0.98300 26.80300
H  25.71400 1.70600 24.41300
H  27.38700 -0.74500 24.44700
H  24.81100 0.51300 22.77500
H  24.04800 -0.61400 23.97300
H  25.59600 -1.02900 23.30500
H  29.12000 1.28600 24.92500
H  27.81900 2.19400 24.21300
H  28.64300 -0.12900 22.48600
H  30.05300 0.86400 23.00800
H  28.64000 1.63700 22.29400
H  31.19300 -0.87100 27.73500
H  30.60200 -2.35000 28.49000
H  31.83000 -1.23300 29.37800
H  29.27500 0.90000 33.38800
H  29.05400 -1.56400 36.93300
H  30.24600 -2.61200 36.02500
H  28.64600 -2.83800 35.81400
Mg 6.57800 54.28300 42.18700
C  6.00300 50.81000 41.58700
C  9.57000 53.86200 40.57500
C  6.52800 57.55300 41.71500
C  3.25200 54.42000 43.24500
N  7.51000 52.54600 41.07300
C  7.18000 51.22200 40.99600
C  8.29100 50.37100 40.45200
C  9.56500 51.32000 40.64800
C  8.85000 52.69800 40.86500
C  10.60400 50.97400 41.62800
C  8.04700 49.86100 39.04700
C  7.30400 50.70900 38.06600
H  6.82200 50.19800 36.79500
N  7.95900 55.58100 41.38600
C  9.17900 55.21300 40.87900
C  9.95500 56.42600 40.76000
C  9.08100 57.52400 40.95100
C  7.74700 56.95100 41.30600
C  11.45600 56.46800 40.57800
C  9.38900 58.96200 40.73500
O  10.54700 59.30400 40.36100
C  8.43700 60.02600 40.81300
N  5.09000 55.73900 42.47500
C  5.30500 57.00500 42.19000
C  4.05900 57.91900 42.55500
C  2.98300 56.91300 42.77700
C  3.79600 55.58100 42.89100
C  4.38500 58.94600 43.69400
C  1.81200 56.76700 41.73800
C  0.49400 57.06000 42.34000
N  5.02600 52.92500 42.52500
C  3.80500 53.11300 43.16400
C  3.17400 51.90100 43.58700
C  3.99500 50.95400 42.87700
C  5.02400 51.61300 42.21400
C  2.02400 51.69000 44.53400
C  4.20500 49.57500 42.70500
O  3.56700 48.65800 43.13500
C  5.47400 49.37800 41.76700
C  5.11500 48.63200 40.48600
O  4.30800 48.99500 39.67700
O  5.79700 47.48800 40.32200
C  5.27300 46.53100 39.35700
H  10.61400 53.69500 40.30300
H  6.46200 58.64300 41.74600
H  2.24600 54.36700 43.66700
H  8.35300 49.51000 41.11700
H  10.06200 51.49700 39.69500
H  10.40400 49.99900 42.07300
H  10.56800 51.73800 42.40500
H  11.60600 50.92600 41.20100
H  7.78500 48.80300 39.07700
H  9.05600 49.77800 38.64300
H  7.95000 51.57800 37.93600
H  6.41200 51.10600 38.55000
H  11.65000 57.05500 39.68100
H  11.95200 55.51600 40.38700
H  11.97100 57.00000 41.37700
H  7.55600 59.83500 40.20200
H  8.87600 60.98200 40.52900
H  8.08800 60.04300 41.84600
H  3.71100 58.53200 41.72400
H  2.63200 57.14600 43.78200
H  5.44100 59.02600 43.95200
H  3.83100 58.59300 44.56400
H  3.99400 59.94200 43.48500
H  1.82100 55.80300 41.22900
H  2.10100 57.48800 40.97200
H  0.27500 56.41600 43.19200
H  -0.22600 56.79000 41.56700
H  0.49300 58.08900 42.70000
H  1.87600 52.53900 45.20100
H  2.17200 50.77100 45.10200
H  1.13300 51.67700 43.90600
H  6.19500 48.78000 42.32500
H  5.76000 45.57200 39.53200
H  5.38900 46.90000 38.33800
H  4.23500 46.31500 39.61000

