158

Mg 7.69200 3.24200 27.40500
C  8.86600 1.93800 30.42200
C  5.40600 5.10900 28.89900
C  6.65200 4.03000 24.40600
C  9.63200 0.46100 25.77400
N  7.14800 3.37300 29.41400
C  7.84500 2.89000 30.47300
C  7.21200 3.47200 31.78700
C  5.94400 4.24000 31.27800
C  6.19900 4.31100 29.75300
C  4.66000 3.63200 31.79200
C  8.21000 4.29500 32.59200
C  7.98400 4.11000 34.18500
H  9.28700 3.72200 34.94900
N  6.39000 4.71000 26.74900
C  5.45300 5.30500 27.51200
C  4.73200 6.18900 26.75300
C  5.01800 5.88700 25.39300
C  6.11200 4.86500 25.46800
C  3.78800 7.30000 27.35600
C  4.46200 6.57800 24.13400
O  4.86700 6.27300 23.02000
C  3.33400 7.57300 24.23500
N  8.05800 2.22700 25.30600
C  7.43400 2.86800 24.28700
C  7.72500 2.15900 22.93200
C  8.72800 1.04700 23.34100
C  8.78100 1.19300 24.89500
C  6.47500 1.61100 22.17100
C  10.14700 1.22600 22.65400
C  10.42400 0.25400 21.47300
N  8.96200 1.51100 27.95500
C  9.70800 0.62200 27.21900
C  10.60000 -0.10600 28.18300
C  10.33600 0.44200 29.43100
C  9.35800 1.39300 29.20900
C  11.63100 -1.04600 27.74700
C  10.73200 0.37900 30.77500
O  11.54900 -0.29200 31.38600
C  9.72900 1.38400 31.50700
C  8.88800 0.52300 32.40100
O  7.75200 0.05700 32.19800
O  9.52500 0.42500 33.64500
C  8.72900 -0.30500 34.56600
H  4.62100 5.67800 29.40200
H  6.18400 4.38100 23.48400
H  10.24500 -0.36600 25.40800
H  6.92100 2.60000 32.37200
H  5.95500 5.24500 31.69900
H  4.83300 2.79300 32.46700
H  3.99000 3.40100 30.96400
H  4.21100 4.38700 32.43700
H  8.03400 5.35500 32.40900
H  9.22200 4.08800 32.24700
H  7.30400 3.29900 34.44600
H  7.65900 5.07900 34.56500
H  4.06600 7.30700 28.41000
H  2.80400 6.87900 27.14900
H  3.94500 8.26400 26.87200
H  2.75000 7.73300 23.32900
H  3.78400 8.51900 24.53400
H  2.62200 7.22900 24.98500
H  8.27500 2.83400 22.27700
H  8.31900 0.04200 23.24500
H  5.57100 1.95200 22.67500
H  6.60900 0.53200 22.09500
H  6.36800 2.06700 21.18700
H  10.90600 1.02000 23.40900
H  10.40500 2.23800 22.34000
H  9.47800 -0.14300 21.10600
H  11.01700 -0.57100 21.86800
H  10.96700 0.77200 20.68300
H  11.24000 -2.06300 27.76500
H  12.56100 -1.07400 28.31400
H  11.76000 -0.85200 26.68200
H  10.31700 2.10800 32.07200
H  8.28200 -1.24900 34.25600
H  8.05100 0.37500 35.08100
H  9.41300 -0.78100 35.26900
Mg 25.30000 1.51500 29.63000
C  27.61100 1.42900 32.27200
C  22.87500 1.50000 31.83400
C  23.21100 1.27500 27.00100
C  28.00500 0.73100 27.47500
N  25.29900 1.29900 31.91600
C  26.31400 1.60100 32.73500
C  25.82100 1.95200 34.16300
C  24.32500 2.06600 33.92900
C  24.10500 1.51600 32.50600
C  23.44200 1.36600 34.99000
C  26.31600 3.26000 34.86700
C  26.61400 3.18300 36.37200
H  26.04300 4.18200 37.36700
N  23.27700 1.30600 29.44100
C  22.39400 1.39600 30.48000
C  21.05100 1.44600 29.92400
C  21.15000 1.50300 28.56700
C  22.60400 1.36800 28.27300
C  19.82600 1.40800 30.89100
C  20.07400 1.56600 27.55400
O  20.35000 1.41200 26.34300
C  18.64000 1.73900 27.98300
N  25.58000 0.99500 27.54500
C  24.59300 1.13100 26.66500
C  25.06600 1.13500 25.26300
C  26.60800 1.09900 25.40200
C  26.75900 0.97400 26.91500
C  24.40900 0.03700 24.37600
C  27.30800 2.38700 24.79900
C  27.11000 3.64800 25.67100
N  27.40500 1.12500 29.80200
C  28.36300 0.78800 28.88300
C  29.67400 0.66000 29.42200
C  29.44000 0.93500 30.78400
C  28.04400 1.16700 30.94700
C  30.96800 0.30900 28.76000
C  30.03000 1.06200 32.12000
O  31.21300 0.94400 32.52200
C  28.85700 1.51300 33.13600
C  28.86700 0.59400 34.22700
O  28.72400 -0.62500 34.20000
O  29.14600 1.33200 35.38000
C  29.35000 0.59100 36.61200
H  22.11200 1.75900 32.57100
H  22.60000 1.34200 26.09900
H  28.87100 0.68000 26.81100
H  25.97200 1.07400 34.79100
H  24.08800 3.13000 33.91400
H  23.97600 1.38700 35.94000
H  23.15000 0.33500 34.79200
H  22.51900 1.90000 35.21600
H  25.65300 4.11400 34.73200
H  27.20400 3.57500 34.31900
H  27.68100 3.31100 36.55900
H  26.42000 2.20000 36.80200
H  19.10300 2.20400 30.71000
H  20.07100 1.37700 31.95200
H  19.43700 0.42500 30.62500
H  18.43800 0.81700 28.52700
H  18.06200 1.91400 27.07500
H  18.56000 2.55300 28.70300
H  24.83800 2.07500 24.76200
H  26.99200 0.18300 24.95200
H  23.59200 -0.42700 24.92800
H  25.13200 -0.75200 24.17000
H  23.98200 0.47000 23.47200
H  26.79500 2.49600 23.84300
H  28.36000 2.12900 24.67600
H  28.06300 4.06200 25.99900
H  26.51400 3.54800 26.57800
H  26.59100 4.45100 25.14800
H  31.01800 0.44900 27.68000
H  31.12200 -0.73900 29.01900
H  31.74200 0.88800 29.26400
H  29.08500 2.49700 33.54600
H  30.07800 1.21400 37.13200
H  29.49200 -0.48200 36.48300
H  28.40200 0.74100 37.13000

