158

Mg 39.86900 8.75200 29.53800
C  41.53900 10.08900 32.29500
C  37.49900 7.38600 31.53800
C  38.59800 7.04400 26.86200
C  42.59900 9.74900 27.60200
N  39.61300 8.69800 31.64800
C  40.31500 9.46400 32.59000
C  39.60600 9.48000 33.98700
C  38.54000 8.34800 33.84700
C  38.57700 8.03700 32.29000
C  38.88700 6.95600 34.54600
C  39.03500 10.85700 34.41100
C  38.75400 11.16500 35.94100
H  39.65700 12.11700 36.77700
N  38.29300 7.45200 29.22600
C  37.38400 7.08200 30.15100
C  36.37400 6.37000 29.52500
C  36.57000 6.33600 28.11000
C  37.84000 6.92600 28.02900
C  35.25100 5.74100 30.35200
C  35.80300 5.71000 27.04700
O  36.28300 5.52300 25.91600
C  34.31300 5.47500 27.31400
N  40.60600 8.41600 27.57000
C  39.83600 7.73500 26.66500
C  40.54500 7.72500 25.24500
C  41.51300 8.91000 25.49500
C  41.56900 9.11100 26.98800
C  41.28400 6.35600 24.96800
C  41.04200 10.19800 24.74800
C  39.74000 10.81300 25.10300
N  41.70600 9.78000 29.81400
C  42.76200 10.09800 28.96100
C  43.86200 10.66400 29.64700
C  43.36700 10.74600 31.01600
C  42.12200 10.16700 31.00200
C  45.16600 11.24400 29.10200
C  43.64700 11.43300 32.28000
O  44.40200 12.30500 32.66300
C  42.49800 10.85800 33.17100
C  43.09000 10.09300 34.33100
O  43.96300 9.29400 34.23900
O  42.54700 10.59300 35.52500
C  43.11400 10.01500 36.74500
H  36.69300 7.07700 32.20700
H  38.25400 6.50400 25.97800
H  43.43100 10.09500 26.98500
H  40.35400 9.23000 34.73900
H  37.58600 8.73700 34.20000
H  38.82000 6.17300 33.79100
H  38.15500 6.75100 35.32700
H  39.82200 6.86600 35.09900
H  38.15300 11.13300 33.83300
H  39.71200 11.67900 34.17800
H  38.73600 10.28100 36.57800
H  37.76000 11.57500 36.12200
H  35.35200 5.63700 31.43300
H  34.97300 4.77200 29.93700
H  34.35700 6.35800 30.26600
H  33.87500 6.32600 27.83600
H  34.26800 4.57900 27.93300
H  33.70200 5.19000 26.45800
H  39.87800 7.91100 24.40300
H  42.50900 8.51600 25.29600
H  42.32000 6.34200 24.63100
H  40.67800 5.87100 24.20300
H  41.21000 5.71900 25.85000
H  41.02700 9.94300 23.68900
H  41.83100 10.92500 24.94300
H  39.88200 11.84700 25.41600
H  39.19300 10.16700 25.79100
H  39.20000 10.81200 24.15600
H  45.25800 12.25000 29.51000
H  45.20100 11.28400 28.01300
H  45.96600 10.56900 29.40500
H  41.98800 11.73900 33.55900
H  42.84500 10.59900 37.62500
H  44.18400 10.20300 36.65400
H  43.01000 8.93100 36.80900
Mg -5.34500 24.87400 25.94400
C  -3.65100 26.45500 28.61500
C  -6.96600 23.01100 28.13300
C  -6.51900 23.39700 23.23800
C  -3.06900 26.66100 23.77000
N  -5.23600 24.64400 28.10700
C  -4.64500 25.53600 28.98700
C  -5.03400 25.18300 30.44500
C  -5.61800 23.77000 30.26200
C  -5.98500 23.76800 28.77700
C  -4.70500 22.61700 30.64400
C  -6.12300 26.13200 30.91400
C  -6.03300 26.61000 32.40900
H  -6.03100 25.61900 33.56800
N  -6.71600 23.58000 25.74000
C  -7.38900 22.95400 26.72700
C  -8.34200 21.97800 26.18100
C  -8.26200 22.19100 24.71700
C  -7.17700 23.19200 24.48100
C  -9.23200 21.14500 26.95200
C  -9.18900 21.61500 23.60000
O  -9.22300 22.09100 22.41900
C  -10.18400 20.51200 23.94900
N  -4.84900 24.99400 23.78400
C  -5.56100 24.26500 22.83300
C  -4.96000 24.41600 21.42900
C  -4.10200 25.74800 21.64800
C  -4.03600 25.86300 23.16100
C  -4.11800 23.21400 20.91200
C  -4.52000 27.00100 20.85800
C  -3.61900 27.53000 19.72900
N  -3.64000 26.29400 26.09400
C  -2.90700 26.93600 25.14300
C  -2.06900 27.92600 25.83000
C  -2.42700 27.80600 27.17400
C  -3.28200 26.76500 27.33400
C  -1.33000 29.08200 25.14600
C  -2.28300 28.40600 28.52500
O  -1.61700 29.37800 28.96700
C  -3.00900 27.48900 29.46600
C  -2.17300 27.07800 30.54400
O  -1.19500 26.34100 30.41600
O  -2.69200 27.48100 31.77400
C  -1.90700 27.08200 32.93000
H  -7.46500 22.34000 28.83600
H  -6.83100 22.60900 22.54900
H  -2.36000 27.18800 23.12800
H  -4.18700 25.04600 31.11600
H  -6.51200 23.58800 30.86000
H  -3.69700 22.96000 30.87800
H  -4.57100 21.91100 29.82600
H  -5.00600 22.24400 31.62300
H  -7.12100 25.77500 30.66200
H  -6.05600 26.97300 30.22400
H  -6.68700 27.48200 32.42400
H  -5.13400 27.21100 32.54200
H  -10.24400 21.54400 26.87600
H  -8.90200 21.18900 27.99000
H  -9.27200 20.07300 26.76100
H  -9.64500 19.73200 24.48700
H  -10.62100 19.94500 23.12600
H  -11.02600 20.93300 24.49800
H  -5.79400 24.59700 20.75100
H  -3.07300 25.57000 21.33800
H  -4.35000 22.30200 21.46300
H  -3.05000 23.40200 21.01500
H  -4.32500 23.03400 19.85700
H  -4.66700 27.87000 21.49900
H  -5.50500 26.81500 20.42900
H  -3.22100 26.65700 19.21000
H  -2.74900 28.08900 20.07300
H  -4.07600 28.23800 19.03700
H  -0.25300 28.94100 25.04900
H  -1.59700 29.98100 25.70100
H  -1.75100 29.20800 24.14900
H  -3.80200 28.11500 29.87400
H  -1.03800 26.43600 32.80400
H  -2.63100 26.59300 33.58300
H  -1.47100 27.95000 33.42400

