158

Mg 0.34400 7.71900 25.66400
C  1.02600 9.59400 28.45700
C  0.33200 4.83100 27.68300
C  0.09900 5.87000 22.87300
C  0.38600 10.68700 23.75000
N  0.84200 7.21800 27.66900
C  1.00800 8.22500 28.69200
C  1.04700 7.57000 30.10100
C  1.07100 6.04700 29.81100
C  0.64300 6.03200 28.36300
C  2.46800 5.40900 30.24300
C  -0.22300 7.93500 30.90400
C  -0.09500 7.84100 32.40900
H  1.18300 7.42800 33.20900
N  0.27100 5.64300 25.28500
C  0.25100 4.68000 26.22800
C  0.16000 3.35000 25.52100
C  0.05800 3.66700 24.13200
C  0.08400 5.12300 24.06100
C  0.24400 1.96600 26.15700
C  0.12500 2.76000 22.96600
O  -0.12600 3.06200 21.79100
C  0.49300 1.24900 23.14200
N  0.34200 8.23100 23.53500
C  0.26300 7.27900 22.60600
C  0.08500 7.84800 21.20000
C  0.11400 9.40300 21.53300
C  0.29000 9.47100 22.99900
C  1.12200 7.39400 20.18100
C  -1.08700 10.22300 20.98800
C  -0.88400 10.78600 19.55900
N  0.48900 9.76600 25.98000
C  0.60000 10.81700 25.12000
C  0.94700 12.04700 25.86600
C  1.15200 11.59300 27.20300
C  0.81900 10.21700 27.20300
C  1.10800 13.42200 25.39500
C  1.54400 12.03100 28.53900
O  1.90300 13.14100 28.90300
C  1.32600 10.76300 29.46900
C  2.59100 10.47500 30.15800
O  3.59500 9.89900 29.72600
O  2.50600 11.03300 31.44300
C  3.71700 10.87000 32.27100
H  0.63900 3.90500 28.17400
H  -0.25100 5.40000 21.95100
H  0.40800 11.65900 23.25200
H  1.94200 7.96100 30.58600
H  0.23200 5.58300 30.33000
H  2.95800 4.78300 29.49700
H  2.37700 4.89500 31.20000
H  3.21900 6.19300 30.34000
H  -1.06300 7.25700 30.75200
H  -0.51600 8.93100 30.57200
H  -0.96300 7.35000 32.85000
H  -0.41100 8.83200 32.73500
H  1.06400 1.42200 25.68900
H  -0.69800 1.50800 25.85600
H  0.42900 1.88100 27.22800
H  -0.23500 0.92300 23.88500
H  1.48700 1.06500 23.55100
H  0.34000 0.64300 22.25000
H  -0.89900 7.63800 20.78100
H  0.95800 9.91500 21.07200
H  1.97300 6.97900 20.72200
H  1.43400 8.25300 19.58700
H  0.72100 6.62000 19.52700
H  -1.22500 11.07500 21.65500
H  -1.94000 9.55800 21.11800
H  -1.85000 10.69800 19.06000
H  -0.27400 10.13800 18.93100
H  -0.68800 11.85800 19.55900
H  0.11500 13.75000 25.70100
H  1.20400 13.50600 24.31200
H  1.86800 13.97700 25.94600
H  0.43500 10.82200 30.09400
H  4.47500 10.18200 31.89500
H  3.56400 10.62000 33.32100
H  4.26400 11.80800 32.36900
Mg 47.59300 16.39200 28.89600
C  45.42000 15.55200 31.60300
C  49.42500 18.32000 31.06800
C  49.93600 16.81300 26.39700
C  45.60500 14.50300 26.77000
N  47.32500 16.95300 30.96900
C  46.51700 16.35900 31.95900
C  46.95400 16.76600 33.32800
C  47.76700 18.04500 33.04200
C  48.24000 17.76300 31.57000
C  47.09800 19.41100 33.08200
C  47.70200 15.66100 34.06800
C  47.80000 15.83200 35.61900
H  49.11400 15.90200 36.28700
N  49.46000 17.41300 28.75500
C  50.02600 18.17600 29.78600
C  51.19900 18.81300 29.23400
C  51.43200 18.35300 27.95000
C  50.22800 17.58300 27.59600
C  52.14000 19.70600 30.01700
C  52.61600 18.53100 26.97600
O  52.53500 18.12600 25.81800
C  53.72300 19.46300 27.40000
N  47.69000 15.89900 26.77400
C  48.83100 15.96700 26.07300
C  48.76900 15.12400 24.77800
C  47.51700 14.30100 25.04700
C  46.85500 14.96800 26.26700
C  48.78200 16.08400 23.55700
C  47.76400 12.81400 25.32700
C  47.22200 11.81600 24.28200
N  45.78500 15.38800 29.01500
C  45.04300 14.71800 28.05800
C  43.90000 14.13900 28.69100
C  43.98900 14.38200 30.03500
C  45.10500 15.28400 30.23100
C  42.89900 13.28100 27.96900
C  43.47800 14.11700 31.38800
O  42.50700 13.47300 31.69600
C  44.28700 14.99000 32.40700
C  43.48600 16.01900 33.06300
O  42.82500 16.86400 32.45900
O  43.50700 15.83600 34.40500
C  42.54900 16.42200 35.35000
H  50.05800 18.98700 31.65700
H  50.66400 16.81700 25.58300
H  45.10900 13.75900 26.14300
H  46.04600 17.08800 33.83800
H  48.73000 18.07100 33.55400
H  46.01800 19.30800 32.97900
H  47.48100 20.05900 32.29300
H  47.39800 19.88400 34.01700
H  48.72600 15.56800 33.70700
H  47.07500 14.79300 33.86700
H  47.43100 14.84500 35.89700
H  47.15900 16.66300 35.91600
H  53.02800 19.17200 30.35300
H  51.63300 20.20800 30.84100
H  52.47400 20.47900 29.32500
H  53.35000 20.48700 27.40700
H  54.47900 19.39200 26.61800
H  54.16900 19.02000 28.29100
H  49.61400 14.46200 24.59000
H  46.93800 14.38100 24.12800
H  48.73500 17.10500 23.93600
H  47.86100 16.08800 22.97500
H  49.66600 15.87600 22.95400
H  47.09500 12.56000 26.14900
H  48.82300 12.64200 25.51700
H  46.42300 11.26200 24.77400
H  48.02100 11.12900 24.00300
H  46.90700 12.34100 23.38000
H  41.93100 13.73800 28.17400
H  43.00000 12.31800 28.47000
H  43.22000 13.23600 26.92800
H  44.71100 14.35200 33.18300
H  41.75300 16.95400 34.82700
H  43.09700 17.02400 36.07500
H  42.01800 15.63100 35.87900

