158

Mg 30.18500 57.88300 41.34400
C  27.36800 56.13100 40.13800
C  32.14800 55.80200 39.53700
C  32.82700 60.02500 41.99000
C  28.00200 60.39100 42.37300
N  29.71100 56.11700 39.98200
C  28.51200 55.52500 39.67500
C  28.76000 54.46100 38.61800
C  30.28000 54.14500 38.82600
C  30.80800 55.47900 39.49600
C  30.50200 52.98000 39.88300
C  28.41200 54.84900 37.12500
C  27.46400 53.82000 36.46500
H  26.69800 54.37500 35.20900
N  32.30400 57.82200 40.96500
C  32.90500 56.92900 40.18400
C  34.30500 57.19400 40.14100
C  34.52700 58.39100 40.84400
C  33.18500 58.80900 41.34700
C  35.22600 56.41400 39.37100
C  35.82500 59.13000 40.89200
O  36.83700 58.61800 40.41700
C  36.01500 60.46000 41.70100
N  30.39000 59.88200 42.07400
C  31.58800 60.49900 42.34200
C  31.39600 61.84100 43.03200
C  29.81500 61.88900 43.30800
C  29.34900 60.65500 42.53600
C  32.20400 62.10900 44.39400
C  29.08100 63.21300 42.93200
C  27.96600 63.53700 43.97500
N  28.09200 58.16400 41.46100
C  27.38300 59.31500 41.76100
C  25.97200 59.07200 41.54500
C  25.95000 57.82400 40.93100
C  27.27600 57.35900 40.83700
C  24.75800 60.01500 42.06200
C  25.05400 56.81100 40.37500
O  23.83800 56.83200 40.29200
C  25.93100 55.80300 39.75900
C  25.52600 54.47700 40.23400
O  25.44400 54.14700 41.42200
O  24.99600 53.76600 39.15800
C  24.51400 52.43200 39.50800
H  32.75700 55.22000 38.84200
H  33.59800 60.71800 42.33300
H  27.27100 61.15100 42.65800
H  28.18100 53.56100 38.82500
H  30.78800 53.99000 37.87400
H  29.64900 52.30400 39.83100
H  30.58000 53.33900 40.90900
H  31.40800 52.43600 39.61600
H  29.34000 54.70100 36.57300
H  28.04900 55.87400 37.04200
H  26.78600 53.59300 37.28700
H  28.07800 52.93100 36.31800
H  35.24300 56.86200 38.37700
H  34.89700 55.37600 39.31900
H  36.20800 56.37300 39.84200
H  35.60200 60.34700 42.70300
H  35.49300 61.22700 41.12800
H  37.04200 60.81900 41.77800
H  31.63500 62.50500 42.20100
H  29.63100 61.61100 44.34600
H  33.01300 61.37900 44.37100
H  31.71700 62.05500 45.36800
H  32.64200 63.10500 44.34300
H  28.54000 62.97700 42.01500
H  29.73800 64.04700 42.68700
H  28.18400 64.56100 44.28100
H  28.01200 62.97000 44.90500
H  27.02500 63.44200 43.43300
H  24.04400 59.37500 42.58100
H  24.36600 60.66400 41.27900
H  25.13800 60.74100 42.78000
H  25.76600 55.77800 38.68200
H  23.45800 52.42600 39.77900
H  25.09500 51.87800 40.24500
H  24.66600 51.86400 38.59100
Mg 6.31500 54.15500 41.17800
C  5.42200 50.65900 40.58800
C  9.39600 53.53500 40.08500
C  6.76500 57.41800 41.39400
C  2.80400 54.60500 41.72100
N  7.20500 52.21300 40.32400
C  6.74400 50.88900 40.28100
C  7.88000 49.95300 40.00800
C  9.18400 50.92600 39.90300
C  8.61400 52.31100 40.10500
C  10.29300 50.60200 40.87300
C  7.67500 49.13300 38.67300
C  7.09200 49.87500 37.49100
H  6.25400 49.11100 36.40300
N  7.94300 55.39500 40.88200
C  9.15600 54.90600 40.38200
C  10.02300 56.05000 40.29500
C  9.30500 57.19700 40.78000
C  7.94500 56.73400 41.03100
C  11.43000 56.02000 39.78700
C  9.81600 58.59700 40.92700
O  11.02400 58.85400 40.77800
C  9.00400 59.74800 41.28000
N  4.97000 55.72700 41.52700
C  5.42400 57.02200 41.58400
C  4.32700 57.97700 42.01300
C  3.05300 57.05800 42.05500
C  3.59600 55.68300 41.78400
C  4.59400 58.64200 43.35100
C  1.82700 57.44500 41.25300
C  1.89000 57.33700 39.75000
N  4.50600 52.95200 41.23800
C  3.17100 53.25400 41.52700
C  2.37300 52.13700 41.62500
C  3.20700 51.03600 41.41300
C  4.49900 51.57800 41.07000
C  0.85000 52.10400 41.82000
C  3.29700 49.58400 41.29900
O  2.49300 48.72400 41.56000
C  4.83200 49.30000 40.87200
C  4.66500 48.38600 39.74100
O  4.12400 48.68400 38.68600
O  5.08400 47.06000 40.03300
C  4.68400 46.09500 39.05200
H  10.42800 53.34100 39.78300
H  6.85200 58.49600 41.54700
H  1.71800 54.69800 41.78200
H  7.99900 49.21400 40.80000
H  9.77100 50.88900 38.98600
H  10.15400 49.63600 41.35600
H  10.07800 51.31200 41.67200
H  11.30300 50.83600 40.53400
H  7.16200 48.18200 38.81300
H  8.64700 48.89900 38.23900
H  7.90500 50.36200 36.95200
H  6.47900 50.67500 37.90600
H  11.37900 56.22000 38.71700
H  11.89000 55.04000 39.91000
H  12.03200 56.77600 40.29200
H  9.64500 60.59500 41.52400
H  8.48800 59.45900 42.19500
H  8.34500 60.02500 40.45600
H  4.27300 58.69500 41.19500
H  2.73700 56.93400 43.09100
H  3.99800 58.47200 44.24800
H  4.31100 59.64100 43.01900
H  5.67100 58.59900 43.51500
H  1.68900 58.50200 41.48300
H  0.96300 56.98100 41.72800
H  1.62700 58.28000 39.27000
H  1.23500 56.54300 39.39200
H  2.91900 57.18900 39.42200
H  0.67800 51.94200 42.88500
H  0.49400 51.20900 41.31000
H  0.30400 52.94800 41.40000
H  5.30000 48.76900 41.70000
H  5.11200 45.12300 39.29900
H  5.08800 46.30000 38.06000
H  3.59400 46.09000 39.07700

