158

Mg 34.91400 2.95600 29.50700
C  33.02800 4.23900 32.18300
C  37.52500 2.59200 31.55400
C  36.79900 2.14900 26.75600
C  32.12700 3.60600 27.42800
N  35.32400 3.51200 31.60000
C  34.40600 3.94300 32.50000
C  34.99700 3.95600 33.90700
C  36.50900 3.75000 33.64100
C  36.51400 3.28900 32.16500
C  37.37000 4.96600 34.02000
C  34.34600 2.92100 34.82400
C  34.11000 3.28100 36.34300
H  34.69500 4.62700 36.98400
N  36.86300 2.37100 29.21800
C  37.70500 2.16800 30.25800
C  38.79000 1.34900 29.72100
C  38.58800 1.15200 28.31300
C  37.36800 1.94100 28.04600
C  39.89700 0.73700 30.67700
C  39.39000 0.42200 27.30000
O  38.99800 0.32100 26.19500
C  40.58900 -0.27500 27.58700
N  34.56700 2.89400 27.45900
C  35.46100 2.57100 26.50700
C  34.89900 2.83200 25.11000
C  33.44100 3.01000 25.33200
C  33.36200 3.12500 26.86800
C  35.70200 3.98600 24.30700
C  32.54200 1.88600 24.74400
C  32.53000 0.56100 25.56700
N  32.90900 3.65700 29.69700
C  31.92500 3.85700 28.81500
C  30.68600 4.28500 29.54300
C  31.13300 4.46200 30.87100
C  32.42900 4.05200 30.86500
C  29.29600 4.51400 28.93300
C  30.72500 4.84400 32.22300
O  29.59500 5.01400 32.66700
C  31.93700 4.70600 33.12800
C  32.20500 6.00800 33.82200
O  33.05100 6.81600 33.36100
O  31.39500 6.22700 34.92800
C  31.47300 7.62800 35.46000
H  38.43800 2.47100 32.14100
H  37.35100 1.84700 25.86300
H  31.32400 3.92500 26.76000
H  34.86300 4.99800 34.20000
H  36.92300 2.90600 34.19300
H  37.72000 5.44900 33.10800
H  38.22100 4.70700 34.65000
H  36.66500 5.69600 34.41800
H  34.96000 2.02300 34.89400
H  33.43900 2.50500 34.38500
H  34.54300 2.47100 36.92900
H  33.03400 3.24000 36.51700
H  39.78500 -0.34600 30.71800
H  39.89600 1.19100 31.66800
H  40.82000 0.98100 30.15100
H  41.12500 -0.32900 26.64000
H  40.36200 -1.27900 27.94600
H  41.11800 0.36700 28.29200
H  35.08600 1.92100 24.54200
H  33.09700 3.96900 24.94500
H  36.65700 4.23500 24.76900
H  35.16600 4.93000 24.20800
H  35.81500 3.53700 23.32000
H  32.80300 1.84300 23.68600
H  31.51400 2.24600 24.72100
H  33.36200 0.58300 26.27000
H  32.65900 -0.23900 24.83800
H  31.55400 0.54400 26.05300
H  28.56000 4.60600 29.73100
H  29.21600 3.54900 28.43300
H  29.34600 5.23900 28.12100
H  31.77400 4.02600 33.96400
H  32.37000 7.75600 36.06700
H  30.58400 7.90500 36.02500
H  31.45600 8.30800 34.60800
Mg 49.05500 35.64100 27.19100
C  47.22400 33.84400 29.61600
C  49.11100 38.33700 29.49800
C  50.38500 37.48200 24.87100
C  48.43300 32.99700 24.97300
N  48.40900 35.94300 29.34300
C  47.75900 35.00700 30.11500
C  47.49500 35.56000 31.51700
C  47.68500 37.12200 31.28200
C  48.42900 37.15200 29.93600
C  46.48100 38.06700 31.35300
C  48.35400 34.89000 32.64300
C  48.63900 35.76200 33.89700
H  47.47500 36.52200 34.48900
N  49.82600 37.55400 27.24700
C  49.74800 38.49300 28.23200
C  50.45600 39.63200 27.80600
C  50.68800 39.48600 26.41500
C  50.27200 38.09600 26.15500
C  50.65500 40.83900 28.76500
C  51.10900 40.47200 25.40500
O  51.34900 40.25800 24.23600
C  51.22100 41.91800 25.83200
N  49.39700 35.26900 25.27600
C  50.06900 36.17700 24.55000
C  50.47100 35.52700 23.16400
C  50.19800 33.97800 23.38800
C  49.26100 34.03100 24.60700
C  49.60400 36.17300 22.09600
C  51.48000 33.18100 23.74300
C  51.99200 32.29200 22.61700
N  47.93500 33.86200 27.20500
C  47.73100 32.92100 26.16600
C  46.88300 31.84500 26.67900
C  46.61500 32.19700 27.98600
C  47.30800 33.41400 28.28000
C  46.62500 30.59300 25.96700
C  46.00200 31.70600 29.29100
O  45.23200 30.74400 29.51000
C  46.32700 32.71900 30.32800
C  47.03700 32.08400 31.43300
O  48.23100 31.85300 31.51200
O  46.15500 31.77900 32.43600
C  46.61900 31.02800 33.61000
H  49.04100 39.14100 30.23300
H  51.09600 37.96700 24.19800
H  48.36600 32.13400 24.30700
H  46.44600 35.37200 31.74200
H  48.40900 37.55600 31.97100
H  46.30800 38.67600 30.46600
H  46.72000 38.79400 32.12800
H  45.70100 37.37900 31.67900
H  49.28800 34.44200 32.30400
H  47.74100 34.09900 33.07300
H  49.54500 36.34900 33.74500
H  48.85500 35.25100 34.83500
H  49.98800 41.65500 28.48600
H  51.64900 41.27100 28.65000
H  50.56500 40.52600 29.80500
H  50.25100 42.23800 26.21400
H  51.61400 42.53400 25.02300
H  51.99200 41.89200 26.60200
H  51.53800 35.61400 22.96000
H  49.70700 33.56800 22.50500
H  48.70200 36.59400 22.53800
H  49.41400 35.42500 21.32600
H  50.14700 37.00300 21.64400
H  51.30500 32.56300 24.62300
H  52.28900 33.88600 23.93700
H  51.44200 32.47400 21.69400
H  51.86700 31.22400 22.79800
H  53.04600 32.49600 22.43000
H  47.51200 29.97300 26.10000
H  46.42800 30.69200 24.90000
H  45.69800 30.20900 26.39400
H  45.41400 33.14900 30.73900
H  45.90300 30.73900 34.37900
H  47.32200 31.66200 34.15000
H  47.00000 30.10300 33.17700

