158

Mg 16.88700 -2.29500 28.78600
C  15.68000 -0.13700 31.15800
C  18.45500 -4.01600 31.36700
C  18.56100 -3.98300 26.45700
C  15.43300 -0.24400 26.24600
N  17.07100 -2.03000 31.10400
C  16.44000 -1.08800 31.82500
C  16.55100 -1.40100 33.33400
C  17.64700 -2.54200 33.37700
C  17.72700 -2.93700 31.87400
C  18.94700 -2.10400 34.17400
C  15.15400 -1.63300 33.98600
C  15.10000 -2.43400 35.33400
H  16.14200 -2.00900 36.41200
N  18.35100 -3.72200 28.86200
C  18.70100 -4.38000 30.04100
C  19.47200 -5.55300 29.58600
C  19.55100 -5.54300 28.15600
C  18.85100 -4.38900 27.77500
C  19.92700 -6.53500 30.57700
C  20.30100 -6.50200 27.22800
O  20.29500 -6.38000 26.02900
C  21.16500 -7.59100 27.70800
N  17.16300 -2.00800 26.60000
C  17.82400 -2.95500 25.91700
C  17.60400 -2.71900 24.31300
C  16.62100 -1.56800 24.30400
C  16.37100 -1.29200 25.73700
C  18.89100 -2.44500 23.62800
C  15.31900 -1.81500 23.49800
C  15.03700 -0.76700 22.38000
N  15.65500 -0.63300 28.66800
C  15.14700 0.08700 27.56900
C  14.30800 1.13600 28.12400
C  14.49200 1.06400 29.51600
C  15.35500 0.00300 29.80600
C  13.45800 2.14300 27.47600
C  14.07500 1.69000 30.75400
O  13.26200 2.58300 31.02400
C  14.86800 0.93300 31.85400
C  15.53500 1.93200 32.82500
O  16.58200 2.51800 32.62500
O  14.67000 2.16800 33.86800
C  15.35300 2.85500 34.99500
H  19.09300 -4.43800 32.14700
H  18.99800 -4.55700 25.63700
H  14.84300 0.33100 25.53000
H  16.92400 -0.54600 33.89800
H  17.37200 -3.40500 33.98300
H  18.72500 -2.08000 35.24100
H  19.28100 -1.11500 33.86000
H  19.77400 -2.78300 33.96700
H  14.44600 -1.93300 33.21400
H  14.86300 -0.64800 34.35100
H  15.00500 -3.49600 35.10600
H  14.17400 -2.11800 35.81300
H  19.12900 -6.78100 31.27800
H  20.72500 -6.17000 31.22400
H  20.21400 -7.51100 30.18500
H  21.53100 -8.21800 26.89500
H  20.57700 -8.26000 28.33500
H  22.01000 -7.12900 28.21900
H  17.25500 -3.60600 23.78500
H  17.16100 -0.75700 23.81600
H  18.81700 -1.86800 22.70600
H  19.40400 -3.38900 23.44400
H  19.48100 -1.83700 24.31300
H  14.48600 -1.92300 24.19200
H  15.42200 -2.73900 22.92900
H  14.04600 -0.32000 22.46000
H  15.01300 -1.31000 21.43500
H  15.79300 0.00900 22.25200
H  13.49900 2.01800 26.39400
H  13.76200 3.15500 27.74300
H  12.44300 1.95100 27.82200
H  14.16200 0.38700 32.48100
H  15.40600 2.12100 35.79900
H  14.81400 3.74100 35.33100
H  16.37700 3.16900 34.79200
Mg 39.86900 8.75200 29.53800
C  41.53900 10.08900 32.29500
C  37.49900 7.38600 31.53800
C  38.59800 7.04400 26.86200
C  42.59900 9.74900 27.60200
N  39.61300 8.69800 31.64800
C  40.31500 9.46400 32.59000
C  39.60600 9.48000 33.98700
C  38.54000 8.34800 33.84700
C  38.57700 8.03700 32.29000
C  38.88700 6.95600 34.54600
C  39.03500 10.85700 34.41100
C  38.75400 11.16500 35.94100
H  39.65700 12.11700 36.77700
N  38.29300 7.45200 29.22600
C  37.38400 7.08200 30.15100
C  36.37400 6.37000 29.52500
C  36.57000 6.33600 28.11000
C  37.84000 6.92600 28.02900
C  35.25100 5.74100 30.35200
C  35.80300 5.71000 27.04700
O  36.28300 5.52300 25.91600
C  34.31300 5.47500 27.31400
N  40.60600 8.41600 27.57000
C  39.83600 7.73500 26.66500
C  40.54500 7.72500 25.24500
C  41.51300 8.91000 25.49500
C  41.56900 9.11100 26.98800
C  41.28400 6.35600 24.96800
C  41.04200 10.19800 24.74800
C  39.74000 10.81300 25.10300
N  41.70600 9.78000 29.81400
C  42.76200 10.09800 28.96100
C  43.86200 10.66400 29.64700
C  43.36700 10.74600 31.01600
C  42.12200 10.16700 31.00200
C  45.16600 11.24400 29.10200
C  43.64700 11.43300 32.28000
O  44.40200 12.30500 32.66300
C  42.49800 10.85800 33.17100
C  43.09000 10.09300 34.33100
O  43.96300 9.29400 34.23900
O  42.54700 10.59300 35.52500
C  43.11400 10.01500 36.74500
H  36.69300 7.07700 32.20700
H  38.25400 6.50400 25.97800
H  43.43100 10.09500 26.98500
H  40.35400 9.23000 34.73900
H  37.58600 8.73700 34.20000
H  38.82000 6.17300 33.79100
H  38.15500 6.75100 35.32700
H  39.82200 6.86600 35.09900
H  38.15300 11.13300 33.83300
H  39.71200 11.67900 34.17800
H  38.73600 10.28100 36.57800
H  37.76000 11.57500 36.12200
H  35.35200 5.63700 31.43300
H  34.97300 4.77200 29.93700
H  34.35700 6.35800 30.26600
H  33.87500 6.32600 27.83600
H  34.26800 4.57900 27.93300
H  33.70200 5.19000 26.45800
H  39.87800 7.91100 24.40300
H  42.50900 8.51600 25.29600
H  42.32000 6.34200 24.63100
H  40.67800 5.87100 24.20300
H  41.21000 5.71900 25.85000
H  41.02700 9.94300 23.68900
H  41.83100 10.92500 24.94300
H  39.88200 11.84700 25.41600
H  39.19300 10.16700 25.79100
H  39.20000 10.81200 24.15600
H  45.25800 12.25000 29.51000
H  45.20100 11.28400 28.01300
H  45.96600 10.56900 29.40500
H  41.98800 11.73900 33.55900
H  42.84500 10.59900 37.62500
H  44.18400 10.20300 36.65400
H  43.01000 8.93100 36.80900

