158

Mg 24.18300 -4.85700 45.02600
C  26.17200 -2.16400 43.79600
C  21.65800 -3.64700 43.13900
C  22.41900 -7.65300 45.90300
C  26.97800 -6.08200 46.67300
N  23.99500 -3.09700 43.48500
C  24.86500 -2.09300 43.30200
C  24.32200 -1.15800 42.20200
C  22.77400 -1.45100 42.27100
C  22.75000 -2.79400 43.03800
C  22.14000 -0.34200 43.09400
C  24.97900 -1.55400 40.85000
C  25.69900 -0.47700 40.02100
H  25.41000 -0.36200 38.60900
N  22.27500 -5.61200 44.53000
C  21.38900 -4.90300 43.79900
C  20.13200 -5.72400 43.74700
C  20.30600 -6.81900 44.69200
C  21.69300 -6.70300 45.14300
C  19.01300 -5.30900 42.82900
C  19.26700 -7.83700 45.02100
O  18.21900 -7.70500 44.41700
C  19.47700 -8.96000 46.07000
N  24.68000 -6.62600 45.96700
C  23.76600 -7.66400 46.20200
C  24.45800 -8.88900 46.89300
C  25.81200 -8.31700 47.25300
C  25.86200 -6.94200 46.58300
C  23.70400 -9.46800 48.11500
C  26.99800 -9.23400 46.82000
C  27.71600 -10.06500 47.92300
N  26.18900 -4.34000 45.20100
C  27.19700 -4.89400 45.95000
C  28.42200 -4.18400 45.74700
C  28.08900 -3.19300 44.90100
C  26.71100 -3.24500 44.66800
C  29.69600 -4.53100 46.40100
C  28.59400 -1.99700 44.25500
O  29.78200 -1.59500 44.31000
C  27.37300 -1.32300 43.45500
C  27.16700 0.14100 43.95100
O  26.41300 0.48100 44.85100
O  27.91600 1.04400 43.25300
C  28.03900 2.37400 43.88400
H  20.75000 -3.26900 42.66500
H  21.86600 -8.51200 46.28900
H  27.81500 -6.37500 47.31000
H  24.58700 -0.12200 42.41100
H  22.33900 -1.48500 41.27200
H  21.51800 -0.80600 43.86000
H  21.60000 0.26800 42.37000
H  22.91100 0.27800 43.55300
H  24.21500 -1.92200 40.16500
H  25.78300 -2.26000 41.05400
H  26.77000 -0.60000 40.17600
H  25.46700 0.51600 40.40800
H  19.06600 -4.32700 42.35800
H  18.08200 -5.45600 43.37500
H  18.91500 -5.96100 41.96000
H  19.71100 -8.52200 47.04000
H  20.25700 -9.65300 45.75700
H  18.55600 -9.52000 46.23900
H  24.37900 -9.60700 46.07700
H  25.85500 -8.20800 48.33700
H  23.12000 -10.28500 47.69100
H  22.89400 -8.80600 48.42100
H  24.33900 -9.81200 48.93200
H  27.73100 -8.57400 46.35700
H  26.67200 -9.77600 45.93200
H  28.76400 -10.25000 47.68700
H  27.22100 -11.03500 47.96700
H  27.67200 -9.51200 48.86200
H  29.90900 -5.42700 45.81800
H  29.51200 -4.81100 47.43900
H  30.46000 -3.77300 46.23000
H  27.44800 -1.29300 42.36800
H  27.11600 2.93400 44.03700
H  28.70700 3.03500 43.33100
H  28.38800 2.14500 44.89100
Mg 17.48500 -0.33900 27.07400
C  16.14400 1.43400 29.79200
C  19.34500 -2.21300 29.55000
C  19.08300 -1.84400 24.69900
C  15.93700 1.91400 24.91500
N  17.59800 -0.47200 29.49400
C  16.94600 0.43800 30.32200
C  17.31800 0.16900 31.76900
C  18.37000 -0.97200 31.73500
C  18.49800 -1.27400 30.20100
C  19.71500 -0.61000 32.49900
C  16.03800 -0.17000 32.66600
C  16.03100 0.29500 34.15800
H  17.31700 0.85300 34.79400
N  18.85300 -1.91100 27.07800
C  19.52000 -2.48500 28.15900
C  20.42100 -3.54000 27.65400
C  20.22800 -3.55700 26.24700
C  19.39700 -2.40600 25.94300
C  21.23200 -4.54800 28.48200
C  20.83600 -4.50600 25.18200
O  20.49700 -4.40300 24.01300
C  21.77200 -5.62400 25.65800
N  17.48100 0.03200 25.10200
C  18.32300 -0.68600 24.30700
C  18.31100 -0.19300 22.83200
C  17.25200 0.98900 22.86100
C  16.85100 1.05000 24.38300
C  19.66800 0.31200 22.37300
C  16.02500 0.78800 21.92700
C  15.52400 1.97200 21.15200
N  16.33700 1.41000 27.27900
C  15.78100 2.14600 26.27000
C  14.96100 3.16400 26.88200
C  15.13000 2.93100 28.25800
C  15.87200 1.85400 28.44300
C  14.13400 4.19000 26.23000
C  14.81300 3.52500 29.56300
O  14.13900 4.52000 29.88100
C  15.48800 2.58300 30.62700
C  16.45600 3.38300 31.45500
O  17.66700 3.55200 31.25800
O  15.70600 4.13200 32.41500
C  16.51700 5.04300 33.31100
H  19.98800 -2.78900 30.22000
H  19.60700 -2.09400 23.77400
H  15.48100 2.57200 24.17200
H  17.77400 1.08500 32.14500
H  18.06500 -1.93100 32.15300
H  19.95700 -1.30400 33.30400
H  19.66800 0.38300 32.94400
H  20.56100 -0.57500 31.81300
H  15.83300 -1.23900 32.73000
H  15.12400 0.19800 32.20200
H  15.79400 -0.50500 34.85900
H  15.23800 1.03500 34.26400
H  20.74800 -5.52500 28.48700
H  21.22300 -4.25000 29.53000
H  22.30100 -4.61200 28.27800
H  21.45500 -6.32800 26.42700
H  22.72700 -5.16300 25.91000
H  22.05100 -6.17600 24.76000
H  18.10000 -1.09300 22.25500
H  17.60400 1.96800 22.53500
H  20.48200 -0.24700 22.83400
H  19.79900 1.38100 22.54000
H  19.81200 0.15200 21.30500
H  15.18400 0.50400 22.55900
H  16.19800 0.05900 21.13500
H  15.28600 2.66400 21.96000
H  14.69100 1.75800 20.48300
H  16.36800 2.44100 20.64700
H  13.10400 3.87600 26.39900
H  14.29900 4.30400 25.15900
H  14.31800 5.07400 26.84100
H  14.80400 2.22000 31.39400
H  15.79900 5.71000 33.78800
H  17.44400 5.44500 32.90300
H  16.95600 4.41900 34.08800

