158

Mg 45.18200 4.11100 46.29400
C  43.43000 7.12200 46.28500
C  42.06100 2.50400 45.80200
C  46.69100 1.23600 45.48900
C  48.18000 5.90600 46.06900
N  42.99500 4.74800 45.95700
C  42.56000 6.06600 45.94500
C  41.03900 6.09400 45.81800
C  40.60600 4.60400 46.08900
C  41.92300 3.87600 45.97500
C  40.00000 4.35500 47.51300
C  40.50500 6.48100 44.48300
C  39.76800 7.81400 44.28900
H  40.29000 8.77000 43.22800
N  44.52000 2.15900 45.83700
C  43.19500 1.72100 45.66200
C  43.08000 0.24400 45.38100
C  44.44100 -0.15900 45.38100
C  45.33500 1.06700 45.56200
C  41.81600 -0.55200 45.07300
C  44.96200 -1.48600 45.04000
O  44.22100 -2.40500 44.68000
C  46.40600 -1.85500 44.91700
N  47.12600 3.69400 45.84500
C  47.51000 2.41100 45.65100
C  49.09400 2.29700 45.47200
C  49.55700 3.78900 45.57900
C  48.18300 4.53600 45.79800
C  49.84100 1.36800 46.51000
C  50.36700 4.41200 44.38200
C  51.61600 5.19300 44.75900
N  45.73000 6.12500 46.27100
C  46.98900 6.70700 46.22300
C  46.83600 8.14700 46.36900
C  45.44300 8.36900 46.43400
C  44.81400 7.10800 46.37500
C  47.87600 9.21800 46.41900
C  44.42100 9.40000 46.50400
O  44.47000 10.63100 46.59600
C  43.09500 8.59900 46.38500
C  42.35400 8.85700 47.63800
O  42.27400 8.07800 48.56200
O  41.62500 9.98800 47.45800
C  40.57000 10.31100 48.40700
H  41.11700 1.95600 45.75800
H  47.38400 0.43900 45.20900
H  49.19900 6.29600 46.01100
H  40.60600 6.73700 46.58400
H  39.83900 4.30700 45.37500
H  40.31200 5.17200 48.16300
H  40.30200 3.40600 47.95700
H  38.91300 4.27700 47.49000
H  39.89600 5.76900 43.92600
H  41.39400 6.73700 43.90800
H  39.81000 8.40400 45.20400
H  38.71200 7.57600 44.15900
H  40.95600 0.09500 45.25000
H  41.78200 -1.39200 45.76700
H  41.88300 -0.86800 44.03200
H  46.56500 -1.33600 43.97200
H  46.50800 -2.94000 44.94000
H  47.04700 -1.50300 45.72500
H  49.27800 1.96800 44.44900
H  50.10100 4.03100 46.49200
H  50.36600 0.61600 45.92200
H  49.10400 0.96600 47.20500
H  50.58400 2.00300 46.99300
H  49.65800 5.07300 43.88400
H  50.58500 3.67600 43.60900
H  51.87900 5.26600 45.81500
H  51.37400 6.11200 44.22500
H  52.52600 4.79300 44.31200
H  47.62400 10.21200 46.78800
H  48.38700 9.28100 45.45800
H  48.64000 8.86400 47.11100
H  42.52200 9.00400 45.55100
H  40.60200 9.92000 49.42400
H  39.73300 9.82800 47.90200
H  40.31500 11.35700 48.57100
Mg 1.47100 42.91900 26.04900
C  2.94800 43.13600 29.17400
C  -1.30300 41.79300 27.55500
C  0.28300 42.41900 22.96400
C  4.62900 43.54100 24.53900
N  0.88300 42.57500 28.25100
C  1.59000 42.83700 29.32600
C  0.78000 42.77400 30.63700
C  -0.53800 42.16800 30.07800
C  -0.35600 42.17100 28.57900
C  -0.89600 40.80200 30.70600
C  0.58800 44.17700 31.33800
C  1.02100 44.29200 32.78700
H  0.76200 43.12200 33.71600
N  -0.31900 42.21000 25.37000
C  -1.33500 41.76200 26.17600
C  -2.34400 41.24000 25.30000
C  -2.01800 41.58400 23.99200
C  -0.65000 42.08600 24.05400
C  -3.53200 40.47500 25.82800
C  -2.70500 41.40200 22.72600
O  -2.27900 41.80200 21.64900
C  -4.09200 40.74100 22.80800
N  2.34500 42.99200 24.04000
C  1.60700 42.77200 22.95900
C  2.50900 42.86700 21.67300
C  3.86400 43.23500 22.24400
C  3.63000 43.20200 23.71800
C  2.47900 41.58600 20.79700
C  4.36500 44.62200 21.78800
C  3.78200 45.84700 22.52500
N  3.41300 43.23200 26.62900
C  4.63100 43.46400 25.93300
C  5.66000 43.77700 26.96200
C  4.98200 43.54500 28.12800
C  3.66700 43.27100 27.94200
C  7.08700 44.22500 26.70900
C  5.22800 43.55400 29.57400
O  6.29400 43.87400 30.18800
C  3.90500 43.37700 30.31700
C  3.98500 42.36600 31.35000
O  3.67100 41.20900 31.20700
O  4.51300 42.94700 32.51600
C  4.82200 42.05200 33.64900
H  -2.25400 41.50300 28.00600
H  -0.04500 42.21500 21.94300
H  5.61600 43.81600 24.16400
H  1.25200 42.08900 31.34100
H  -1.36300 42.81200 30.38300
H  -0.02100 40.47500 31.26800
H  -1.21300 40.10400 29.93100
H  -1.78800 40.93900 31.31800
H  -0.41100 44.60900 31.27200
H  1.23500 44.87100 30.80200
H  0.38600 45.04100 33.26200
H  2.00000 44.76400 32.86800
H  -3.60200 39.48900 25.36900
H  -4.47700 40.92000 25.51800
H  -3.67300 40.21500 26.87700
H  -3.87100 39.70100 23.04800
H  -4.56200 40.86500 21.83300
H  -4.75200 41.30100 23.47100
H  2.07300 43.67000 21.07900
H  4.67000 42.59400 21.88800
H  2.96400 40.78600 21.35700
H  2.95200 41.77600 19.83300
H  1.46100 41.29000 20.54300
H  4.07500 44.76900 20.74700
H  5.45200 44.62000 21.70000
H  3.39100 45.75200 23.53800
H  2.97900 46.23200 21.89600
H  4.51200 46.64700 22.64200
H  7.01100 44.88100 25.84200
H  7.80600 43.44800 26.44500
H  7.46600 44.79300 27.55800
H  3.69900 44.28200 30.88900
H  4.70700 42.84800 34.38500
H  5.81200 41.60500 33.56200
H  3.99100 41.34800 33.66800

