158

Mg 42.97500 4.20700 47.90600
C  40.90300 6.97200 47.58300
C  40.12400 2.18500 47.77400
C  45.06600 1.54000 47.74700
C  45.83800 6.33800 47.81100
N  40.73800 4.60500 47.77600
C  40.11500 5.80400 47.68300
C  38.57200 5.66900 47.81200
C  38.42300 4.11000 48.06100
C  39.87000 3.58100 47.84000
C  37.85300 3.70900 49.38900
C  37.77400 6.23200 46.62200
C  38.17800 5.61200 45.22000
H  37.64300 6.48200 43.99300
N  42.62100 2.10200 47.67800
C  41.41100 1.49500 47.60900
C  41.69600 0.08500 47.41000
C  43.05200 -0.07000 47.38200
C  43.66700 1.18500 47.62300
C  40.61000 -0.87700 47.41500
C  43.77200 -1.46500 47.25500
O  43.16700 -2.52900 47.13000
C  45.31300 -1.51000 47.23500
N  45.16500 3.99300 47.70800
C  45.73500 2.75200 47.79100
C  47.24500 2.73400 47.90000
C  47.55300 4.27600 47.78600
C  46.09700 4.95300 47.74000
C  47.76300 2.05600 49.19200
C  48.23200 4.72200 46.52000
C  49.73400 4.77300 46.46700
N  43.36000 6.17600 47.76200
C  44.54900 6.92000 47.73500
C  44.20200 8.28000 47.58100
C  42.83500 8.32200 47.52000
C  42.33400 7.07700 47.64500
C  45.15300 9.39400 47.55200
C  41.71800 9.31500 47.35900
O  41.81100 10.53500 47.29500
C  40.38600 8.37400 47.31500
C  39.49600 8.81700 48.39000
O  39.68900 8.67200 49.59000
O  38.35300 9.38800 47.87100
C  37.55700 10.23500 48.78400
H  39.18900 1.62300 47.71900
H  45.85200 0.78300 47.78000
H  46.67900 7.02600 47.70000
H  38.18100 6.10600 48.73100
H  37.70600 3.72600 47.33400
H  38.58300 3.13600 49.96100
H  36.89300 3.21500 49.23500
H  37.63300 4.61300 49.95800
H  37.64800 7.31400 46.58100
H  36.75100 5.89600 46.79400
H  37.62600 4.68600 45.05900
H  39.26600 5.55800 45.18300
H  40.40800 -1.34000 46.45000
H  39.70200 -0.40600 47.79000
H  40.85400 -1.69900 48.08800
H  45.59000 -0.68300 46.58200
H  45.77300 -2.43900 46.90000
H  45.72200 -1.32100 48.22700
H  47.68400 2.29100 47.00600
H  48.13200 4.60900 48.64800
H  47.00200 1.65800 49.86300
H  48.38100 2.74600 49.76600
H  48.38100 1.24700 48.80400
H  48.00400 5.77400 46.34500
H  47.83400 4.16200 45.67400
H  50.08800 4.06600 47.21700
H  50.07700 5.76200 46.77100
H  50.15400 4.53000 45.49200
H  45.71900 9.45900 48.48200
H  44.56800 10.27700 47.29500
H  45.87300 9.29300 46.74000
H  39.86600 8.59500 46.38300
H  38.24300 10.74600 49.45900
H  36.96700 9.56400 49.40900
H  37.06200 10.98600 48.16800
Mg 47.30900 24.73500 28.90600
C  48.19300 26.97000 31.37700
C  46.63100 22.38600 31.27400
C  46.89000 22.42300 26.50600
C  48.58700 26.97400 26.55900
N  47.29100 24.76700 31.11500
C  47.74500 25.75700 31.88300
C  47.50700 25.52700 33.38600
C  46.98500 24.01600 33.35900
C  46.97100 23.66900 31.79900
C  47.74200 23.05600 34.33300
C  46.59000 26.64000 34.14800
C  45.87600 26.15400 35.39400
H  45.72600 27.14700 36.57800
N  46.98300 22.63200 28.89800
C  46.57700 21.90400 29.99200
C  46.08900 20.58300 29.54500
C  46.24900 20.50300 28.14900
C  46.72300 21.86300 27.79100
C  45.54300 19.43200 30.52700
C  45.97100 19.34600 27.22100
O  46.31400 19.39600 26.01400
C  45.40900 18.12800 27.76500
N  47.69400 24.72100 26.79800
C  47.25000 23.65200 25.99400
C  47.49900 24.00300 24.45100
C  47.81800 25.50800 24.53800
C  48.06200 25.76500 26.04400
C  48.65800 23.16300 23.83000
C  46.69100 26.34000 23.88000
C  46.77500 26.57600 22.31200
N  48.20700 26.55600 28.91900
C  48.67400 27.37500 27.86700
C  49.08500 28.63600 28.36500
C  48.88400 28.53100 29.73300
C  48.37400 27.24200 30.02400
C  49.63100 29.74700 27.49300
C  49.11800 29.21500 30.97300
O  49.50100 30.35600 31.12500
C  48.70400 28.24500 32.07500
C  49.88800 28.00100 32.98800
O  50.93900 27.39200 32.67900
O  49.53200 28.47200 34.22200
C  50.48800 28.42400 35.29300
H  46.41200 21.67600 32.07500
H  46.71100 21.87200 25.58100
H  48.85300 27.66100 25.75400
H  48.41400 25.61700 33.98500
H  45.95300 23.87000 33.67900
H  48.34800 22.22600 33.97000
H  46.99400 22.61800 34.99300
H  48.35300 23.63100 35.02900
H  45.79700 27.03000 33.51000
H  47.10700 27.58000 34.34100
H  46.38200 25.26000 35.75700
H  44.88100 25.80400 35.11800
H  44.53600 19.06900 30.32500
H  45.57400 19.80600 31.55000
H  46.23800 18.59400 30.46500
H  46.14000 17.66700 28.42900
H  45.32900 17.47900 26.89300
H  44.44800 18.44100 28.17300
H  46.55800 23.61400 24.06100
H  48.76200 25.72000 24.03600
H  49.45000 23.81600 23.46300
H  48.32900 22.59300 22.96100
H  49.17200 22.52900 24.55200
H  46.57500 27.27100 24.43500
H  45.70800 25.92200 24.09600
H  45.81000 26.29700 21.88900
H  47.54500 26.01400 21.78300
H  47.02800 27.63400 22.23300
H  50.65800 29.41400 27.34600
H  49.62200 30.61500 28.15300
H  49.05300 29.89700 26.58100
H  47.86400 28.67600 32.62000
H  51.50800 28.35000 34.91800
H  50.18500 27.51000 35.80400
H  50.38100 29.27700 35.96500

