158

Mg 40.69700 9.82000 29.43400
C  42.28100 10.72000 32.48700
C  38.06900 8.43800 31.31500
C  39.15500 8.81200 26.56800
C  43.46600 10.84000 27.65800
N  40.26600 9.55300 31.73500
C  41.00700 10.04100 32.78100
C  40.17500 9.90500 34.07500
C  38.93200 9.10900 33.61100
C  39.09300 8.95600 32.11200
C  38.78400 7.72700 34.29100
C  39.77500 11.34600 34.59900
C  39.35200 11.52200 36.04100
H  40.36500 11.40300 37.20900
N  38.88200 8.77300 29.01300
C  37.92600 8.35700 29.93600
C  36.81200 7.70300 29.27000
C  37.01900 7.91700 27.86100
C  38.34600 8.51700 27.74500
C  35.80600 6.94200 30.00800
C  36.15200 7.54600 26.66100
O  36.44300 7.86500 25.52900
C  34.78900 6.88900 26.93500
N  41.22000 9.82700 27.40400
C  40.49000 9.29300 26.41800
C  41.13800 9.54700 25.06700
C  42.46900 10.20200 25.41000
C  42.37300 10.31700 26.91200
C  41.23000 8.41800 24.00300
C  42.81000 11.63400 24.80300
C  41.78000 12.78600 24.89200
N  42.45800 10.51000 29.92400
C  43.47100 10.89100 29.09800
C  44.61000 11.31200 29.90100
C  44.17500 11.33300 31.22200
C  42.86500 10.80500 31.20800
C  45.91300 11.86000 29.29600
C  44.55200 11.70600 32.58600
O  45.60000 12.19700 32.95000
C  43.25000 11.39400 33.46300
C  43.72400 10.48400 34.62800
O  44.07400 9.30000 34.57400
O  43.80300 11.23900 35.74300
C  44.57300 10.64900 36.85700
H  37.19700 8.18400 31.92100
H  38.72700 8.56300 25.59500
H  44.42200 10.99800 27.15400
H  40.80000 9.46700 34.85400
H  37.96100 9.55100 33.83500
H  38.11200 7.87600 35.13700
H  39.73300 7.32800 34.64900
H  38.46400 6.96000 33.58600
H  38.93700 11.72900 34.01700
H  40.53200 12.12000 34.47200
H  38.49600 10.88000 36.25100
H  38.96100 12.53400 36.14500
H  36.32600 6.40600 30.80200
H  35.58100 6.12900 29.31700
H  35.04400 7.62700 30.38000
H  34.21900 7.50000 27.63500
H  34.97600 5.90800 27.37200
H  34.33900 6.75800 25.95200
H  40.45900 10.29500 24.65800
H  43.34000 9.60100 25.14600
H  40.30000 8.46700 23.43600
H  41.36100 7.41400 24.40500
H  41.97100 8.60400 23.22500
H  42.99700 11.43700 23.74800
H  43.72500 11.94800 25.30600
H  41.30100 13.05200 23.95000
H  42.31500 13.68900 25.18600
H  41.08300 12.58900 25.70700
H  46.57600 12.12800 30.11800
H  45.67000 12.79200 28.78700
H  46.36400 11.18300 28.57000
H  42.71400 12.30200 33.74000
H  43.79100 10.12400 37.40700
H  45.09300 11.30200 37.55800
H  45.26100 9.82400 36.67500
Mg 30.12800 57.95100 39.92600
C  27.24300 56.04100 38.89700
C  32.04700 55.17300 39.06800
C  32.74200 59.98200 40.18900
C  27.97600 60.71200 40.47300
N  29.68400 55.85900 38.90200
C  28.40700 55.27400 38.72000
C  28.56300 53.85700 38.43700
C  30.06500 53.54900 38.91000
C  30.67200 54.92600 38.92800
C  30.22500 52.83000 40.32500
C  28.20100 53.21700 37.09800
C  28.77100 53.94700 35.93500
H  27.96400 54.71700 34.91600
N  32.13900 57.64500 39.63800
C  32.70900 56.42700 39.30300
C  34.12800 56.70300 39.18400
C  34.38500 58.07700 39.51300
C  33.04900 58.64200 39.75000
C  35.17600 55.64300 38.89800
C  35.71800 58.74900 39.48700
O  36.73800 58.04800 39.45500
C  35.83000 60.26100 39.52200
N  30.33400 60.14300 40.16400
C  31.51900 60.69700 40.30500
C  31.45900 62.18400 40.63700
C  29.93100 62.39500 40.95400
C  29.38400 61.04000 40.42300
C  32.42600 62.75200 41.79700
C  29.34200 63.68000 40.27400
C  28.92600 64.86300 41.18000
N  27.99700 58.33500 39.87600
C  27.33000 59.43800 40.11600
C  25.96300 59.11000 40.16900
C  25.84200 57.84900 39.58900
C  27.10300 57.32400 39.44200
C  24.85200 60.13600 40.33400
C  24.89800 56.77600 39.10100
O  23.65600 56.76200 38.99600
C  25.78700 55.62200 38.61500
C  25.24700 54.43200 39.36700
O  25.32200 54.25500 40.54400
O  24.61200 53.60400 38.43700
C  23.79200 52.64700 39.14100
H  32.67200 54.28000 39.01500
H  33.57800 60.68000 40.26800
H  27.26500 61.51400 40.68300
H  27.85300 53.29200 39.04100
H  30.60300 52.92000 38.20000
H  30.67600 51.84200 40.23400
H  29.27600 52.75500 40.85600
H  30.75400 53.46800 41.03300
H  27.14600 53.00300 36.92800
H  28.71800 52.25900 37.15400
H  29.42700 53.26600 35.39200
H  29.24600 54.79400 36.43000
H  34.76900 54.63800 39.01100
H  35.93300 55.75600 39.67500
H  35.50400 55.74300 37.86300
H  36.81000 60.58300 39.16800
H  35.69100 60.71900 40.50100
H  35.16400 60.64800 38.75100
H  31.71200 62.70900 39.71600
H  29.80400 62.45900 42.03400
H  32.76100 63.75700 41.54200
H  33.32000 62.17900 42.04600
H  31.80200 62.87600 42.68300
H  28.42400 63.47200 39.72300
H  30.01100 64.11700 39.53300
H  27.83800 64.91500 41.22000
H  29.41100 65.82300 40.99900
H  29.09000 64.62700 42.23200
H  23.95200 59.71800 40.78500
H  24.70500 60.53300 39.33000
H  25.18400 60.97800 40.94200
H  25.62400 55.47700 37.54700
H  24.35400 52.18400 39.95200
H  23.57000 51.80200 38.48900
H  22.82200 53.00700 39.48400

