158

Mg 8.59800 3.89000 27.73500
C  9.90900 2.22100 30.53700
C  6.91400 5.98100 29.78100
C  7.08900 5.04300 25.09400
C  10.24800 1.44800 25.77300
N  8.30900 4.02500 29.88700
C  9.06000 3.31000 30.82800
C  8.76300 3.76500 32.29500
C  7.70500 4.90600 32.08500
C  7.54400 4.94400 30.54700
C  6.35200 4.90500 32.84100
C  10.06000 4.05800 33.20400
C  9.85700 5.15900 34.30300
H  10.19200 4.78800 35.74500
N  7.20700 5.31400 27.46300
C  6.62900 6.11600 28.43500
C  5.58200 6.95600 27.82200
C  5.60700 6.68800 26.43400
C  6.64100 5.63600 26.28000
C  4.84900 7.95500 28.58100
C  4.74300 7.23200 25.37200
O  4.60800 6.77400 24.24100
C  3.90300 8.39900 25.60400
N  8.75800 3.29300 25.68400
C  8.05200 4.06200 24.76200
C  8.36700 3.59600 23.30900
C  9.23800 2.20700 23.60200
C  9.45700 2.34400 25.10300
C  7.17400 3.38500 22.37200
C  10.55800 2.10500 22.81300
C  10.73800 0.66200 22.16800
N  9.82000 2.10700 28.07500
C  10.47900 1.31600 27.16700
C  11.36700 0.43700 27.93000
C  11.07700 0.68900 29.26400
C  10.23300 1.80400 29.28100
C  12.32400 -0.56500 27.36600
C  11.38000 0.31700 30.62900
O  12.17700 -0.44700 31.08700
C  10.59400 1.30300 31.57100
C  9.74900 0.38100 32.34500
O  9.02400 -0.50800 31.83800
O  9.81300 0.60900 33.69600
C  8.85100 -0.27300 34.49100
H  6.46900 6.69800 30.47400
H  6.55800 5.44900 24.23000
H  10.91400 0.78600 25.21700
H  8.23100 2.95600 32.79700
H  8.19600 5.86300 32.26000
H  6.29200 5.84600 33.38900
H  6.19600 4.08000 33.53600
H  5.61400 5.05800 32.05400
H  10.84500 4.44900 32.55700
H  10.45700 3.18600 33.72400
H  8.78500 5.35500 34.30500
H  10.42900 6.02900 33.98100
H  4.80000 7.59400 29.60800
H  3.82000 7.80900 28.25200
H  5.27300 8.95700 28.52200
H  4.40700 8.89700 26.43200
H  2.90400 8.03600 25.84700
H  3.87600 9.00200 24.69600
H  8.98600 4.35000 22.82400
H  8.57400 1.36500 23.40900
H  6.22600 3.44100 22.90800
H  7.24900 2.40300 21.90500
H  7.23900 4.09700 21.54900
H  11.37000 2.23200 23.52900
H  10.58400 2.89400 22.06300
H  11.16800 0.70500 21.16800
H  9.75500 0.19700 22.09100
H  11.37600 0.20400 22.92400
H  11.88500 -1.53500 27.13300
H  13.14300 -0.71200 28.07000
H  12.68100 -0.12200 26.43700
H  11.33700 1.88100 32.11900
H  8.88400 -1.29500 34.11200
H  7.84700 0.14300 34.41000
H  9.20900 -0.18100 35.51600
Mg 17.07500 -1.26500 27.92100
C  16.12800 0.57400 30.61100
C  19.18000 -3.24600 29.87600
C  18.65500 -2.56900 25.06100
C  15.47000 1.08500 25.82000
N  17.64900 -1.23900 30.01900
C  16.95700 -0.53600 30.95600
C  17.46500 -0.95000 32.40300
C  18.64800 -1.79700 32.05600
C  18.45600 -2.19700 30.58900
C  20.07900 -1.23500 32.31800
C  16.31500 -1.64800 33.11400
C  16.05200 -1.44000 34.65800
H  17.04800 -0.57400 35.42500
N  18.58600 -2.74200 27.58400
C  19.22600 -3.56100 28.48000
C  20.00800 -4.57100 27.78700
C  19.93000 -4.30000 26.40800
C  18.99800 -3.13900 26.28500
C  20.82800 -5.60600 28.64400
C  20.71900 -4.90800 25.18200
O  20.46300 -4.61000 24.05400
C  21.69200 -5.97300 25.34600
N  16.94500 -0.94700 25.78000
C  17.75500 -1.52900 24.81300
C  17.61600 -0.88500 23.38000
C  16.39700 0.13300 23.64500
C  16.23500 0.07000 25.20100
C  18.91300 -0.33800 22.73800
C  15.06600 -0.22900 22.89100
C  13.91500 -0.97600 23.58200
N  15.79900 0.38300 28.10800
C  15.30900 1.25600 27.21000
C  14.66800 2.42000 27.90900
C  14.93600 2.14400 29.25700
C  15.72200 0.94100 29.33000
C  13.89900 3.51100 27.28400
C  14.73800 2.52400 30.63000
O  14.08100 3.50000 31.02500
C  15.42300 1.53600 31.61400
C  16.28100 2.34100 32.49100
O  17.46600 2.59600 32.29300
O  15.54300 2.68800 33.52000
C  16.00000 3.72100 34.43000
H  19.91400 -3.84400 30.42000
H  19.09400 -2.81200 24.09100
H  15.16800 1.85800 25.11100
H  17.63200 0.05500 32.79100
H  18.69000 -2.72500 32.62700
H  20.78000 -1.28100 31.48400
H  20.49500 -1.82500 33.13400
H  20.04700 -0.17500 32.56900
H  16.36000 -2.70300 32.84300
H  15.39200 -1.25000 32.69200
H  15.99000 -2.46100 35.03400
H  15.10100 -0.91900 34.76800
H  20.43200 -5.71900 29.65300
H  21.84900 -5.24400 28.77000
H  20.85000 -6.62800 28.26300
H  21.44300 -6.66300 26.15200
H  22.70400 -5.56700 25.34100
H  21.58000 -6.67500 24.52000
H  17.29300 -1.72700 22.76800
H  16.77000 1.11800 23.36300
H  18.81600 0.69800 22.41500
H  19.23300 -0.86700 21.84000
H  19.70300 -0.48100 23.47700
H  15.25200 -0.44700 21.83900
H  14.62700 0.76900 22.88600
H  13.23900 -0.34000 24.15400
H  14.32000 -1.69000 24.29900
H  13.40200 -1.67500 22.92200
H  14.27800 3.84700 26.31900
H  13.95800 4.42300 27.87800
H  12.84000 3.25400 27.26400
H  14.67900 1.07700 32.26500
H  16.64800 4.42500 33.90900
H  16.43200 3.15600 35.25600
H  15.11800 4.25300 34.78700

