158

Mg 47.10700 35.86500 28.96900
C  45.55000 33.57500 31.19800
C  47.19200 38.07000 31.65100
C  48.04800 38.16900 26.91900
C  46.49600 33.64100 26.23500
N  46.54700 35.81900 31.13800
C  45.97900 34.72300 31.89400
C  46.12600 34.89500 33.37800
C  46.20000 36.40500 33.45400
C  46.69000 36.81000 31.98800
C  44.84100 37.10400 33.82200
C  47.41400 34.06300 33.86700
C  47.38300 33.65500 35.34000
H  46.51900 34.45400 36.32400
N  47.82900 37.75800 29.26600
C  47.68900 38.46700 30.41100
C  48.41600 39.82200 30.16600
C  48.76600 39.78400 28.80300
C  48.17800 38.55900 28.20600
C  48.58900 40.88000 31.19000
C  49.62700 40.73200 27.91900
O  49.85100 40.56500 26.75400
C  50.00500 42.05300 28.50600
N  47.20000 35.91000 26.87300
C  47.67200 36.99400 26.27200
C  47.75100 36.91300 24.77100
C  47.26600 35.45400 24.53100
C  47.02700 34.92500 25.98100
C  46.81300 37.96700 23.97800
C  48.13700 34.57900 23.59700
C  47.68900 34.43500 22.09100
N  46.25300 34.05100 28.73100
C  46.08600 33.27900 27.51000
C  45.34900 32.08100 27.87300
C  45.12200 32.20500 29.30100
C  45.68800 33.42000 29.80200
C  45.13800 30.83200 26.96900
C  44.59300 31.44100 30.43700
O  44.12200 30.27500 30.54700
C  44.66300 32.40000 31.60800
C  45.00600 31.75000 32.92000
O  46.06500 31.30200 33.27900
O  43.87100 31.75300 33.72900
C  44.04800 31.15600 35.07600
H  47.18300 38.89500 32.36600
H  48.19700 38.96500 26.18600
H  46.19900 33.05100 25.36600
H  45.28000 34.59400 33.99600
H  46.84900 36.66700 34.28900
H  43.97900 36.44400 33.72500
H  44.67000 37.83200 33.02800
H  44.80200 37.63900 34.77000
H  48.22300 34.79300 33.84600
H  47.55900 33.24000 33.16700
H  48.40100 33.72300 35.72200
H  47.05100 32.64700 35.59100
H  48.07300 41.79600 30.90400
H  49.67000 40.90500 31.32400
H  48.20500 40.58700 32.16700
H  50.57100 42.61100 27.76100
H  50.68200 41.78400 29.31700
H  49.12200 42.57300 28.87700
H  48.80900 36.96700 24.51700
H  46.27000 35.70800 24.16800
H  46.08200 37.46200 23.34800
H  47.43400 38.61900 23.36200
H  46.29700 38.64500 24.65800
H  48.13500 33.61200 24.10000
H  49.13200 35.01900 23.52400
H  46.61400 34.55400 21.95400
H  47.94900 33.40700 21.83900
H  48.21000 35.07700 21.38200
H  46.08700 30.45400 26.59000
H  44.53900 31.17600 26.12500
H  44.64700 29.97300 27.42500
H  43.63600 32.76500 31.60100
H  44.62100 31.78900 35.75400
H  44.44700 30.14200 35.10300
H  43.05500 31.11200 35.52400
Mg -1.90500 34.21000 25.90500
C  -2.92500 32.42800 28.78300
C  -0.29600 36.43200 27.79400
C  -1.58200 36.13000 23.21400
C  -3.36700 31.72100 24.05400
N  -1.87100 34.43700 28.11100
C  -2.24300 33.60500 29.09800
C  -1.69700 34.04600 30.45000
C  -1.01400 35.42600 30.04400
C  -1.01400 35.46500 28.51200
C  -1.56300 36.74800 30.75000
C  -0.67400 32.90200 30.89900
C  -1.10600 32.31800 32.31600
H  -0.00300 32.24700 33.37100
N  -1.08300 36.09300 25.58700
C  -0.38000 36.78000 26.48100
C  0.38100 37.79700 25.75600
C  -0.06700 37.85100 24.48000
C  -1.00800 36.68000 24.37500
C  1.35500 38.64900 26.50600
C  0.33000 38.79900 23.35100
O  -0.06600 38.72100 22.21000
C  0.97700 40.16200 23.67800
N  -2.27400 33.86700 23.87100
C  -2.19900 34.86000 23.00500
C  -2.60400 34.32200 21.57900
C  -2.85100 32.77600 21.85700
C  -2.83000 32.78500 23.37100
C  -3.64000 35.00000 20.79300
C  -1.76100 31.80100 21.30500
C  -0.30500 31.99100 21.80100
N  -3.04200 32.50600 26.30000
C  -3.50800 31.54100 25.44900
C  -4.27800 30.55000 26.16600
C  -4.12200 30.80100 27.51500
C  -3.27100 31.99000 27.49800
C  -4.99300 29.40100 25.53200
C  -4.42300 30.40900 28.88000
O  -5.09800 29.50600 29.37200
C  -3.52200 31.34500 29.72200
C  -4.43600 31.99200 30.73600
O  -5.10200 32.98900 30.55900
O  -4.39300 31.27000 31.93200
C  -4.88100 31.84200 33.20200
H  0.31700 37.00800 28.49000
H  -1.38300 36.76000 22.34500
H  -3.77300 31.01000 23.33200
H  -2.42600 34.26500 31.23000
H  0.05500 35.42000 30.25400
H  -2.08500 36.39700 31.64000
H  -2.28800 37.18200 30.06200
H  -0.81200 37.50000 30.99600
H  0.28100 33.41200 31.02100
H  -0.51200 32.07200 30.21200
H  -1.47800 31.30800 32.14300
H  -1.83600 32.98900 32.76800
H  0.90600 39.64000 26.57500
H  2.34200 38.73400 26.05200
H  1.41100 38.35400 27.55400
H  2.04700 40.00900 23.82000
H  0.54300 40.69400 24.52500
H  0.72000 40.80900 22.84000
H  -1.65100 34.37900 21.05400
H  -3.82700 32.42400 21.52300
H  -4.08300 35.87800 21.26200
H  -4.38200 34.26600 20.48000
H  -3.19000 35.32700 19.85600
H  -1.88600 31.77500 20.22200
H  -2.03100 30.76200 21.49400
H  -0.09900 32.98100 22.20800
H  0.30000 31.87700 20.90100
H  0.02000 31.30300 22.58100
H  -4.47800 29.17500 24.59900
H  -6.02500 29.70400 25.35600
H  -4.97000 28.53000 26.18700
H  -2.86900 30.72500 30.33600
H  -4.08600 32.02100 33.92500
H  -5.65400 31.24400 33.68600
H  -5.34000 32.82400 33.08800

