158

Mg -0.59400 7.24700 25.79800
C  0.18700 9.19400 28.66500
C  -0.62700 4.52600 27.87000
C  -0.77600 5.34200 23.07300
C  0.13000 10.06800 23.81700
N  -0.29300 6.94600 28.01600
C  -0.09300 7.85100 28.98400
C  -0.26700 7.26000 30.33500
C  -0.10100 5.77300 30.11100
C  -0.39000 5.73700 28.58800
C  1.26000 5.23800 30.43500
C  -1.69900 7.57700 30.95600
C  -1.67800 8.24400 32.35500
H  -0.62800 7.96800 33.46800
N  -0.73900 5.19600 25.57000
C  -0.81000 4.25000 26.48100
C  -1.08100 3.01200 25.86500
C  -1.15600 3.18900 24.46500
C  -0.82800 4.63100 24.29300
C  -1.19700 1.71500 26.66300
C  -1.43000 2.14100 23.37300
O  -1.35800 2.33200 22.12600
C  -1.80600 0.69300 23.71100
N  -0.45400 7.66200 23.75600
C  -0.66500 6.76400 22.86600
C  -0.58800 7.33800 21.45400
C  -0.59100 8.83200 21.75700
C  -0.19200 8.85300 23.17600
C  0.78200 6.86100 20.73100
C  -2.01600 9.46300 21.34000
C  -2.13900 10.13900 20.03800
N  -0.01700 9.24300 26.10600
C  0.27200 10.24200 25.22500
C  0.55300 11.44300 25.89600
C  0.58700 11.12300 27.28800
C  0.19200 9.78300 27.37000
C  0.68200 12.78100 25.41100
C  0.77600 11.61400 28.64900
O  1.14600 12.73200 28.99100
C  0.46600 10.38000 29.54800
C  1.61000 10.23000 30.56600
O  2.59000 9.49100 30.42300
O  1.36000 11.05600 31.66700
C  2.33900 10.82400 32.71900
H  -0.63800 3.58900 28.43000
H  -0.80800 4.91100 22.07100
H  0.22800 10.96400 23.20000
H  0.60100 7.54800 30.92900
H  -0.84400 5.23400 30.69900
H  1.78500 6.00700 31.00000
H  1.84700 5.02700 29.54100
H  1.18500 4.31800 31.01500
H  -2.20300 6.62700 31.13200
H  -2.13800 8.23100 30.20300
H  -2.59800 7.81300 32.75000
H  -1.84500 9.30800 32.18700
H  -2.20900 1.49400 27.00200
H  -0.59500 1.71900 27.57100
H  -0.81200 0.89800 26.05200
H  -0.99800 0.12000 24.16500
H  -2.13000 0.22000 22.78400
H  -2.71800 0.63700 24.30600
H  -1.45600 7.12200 20.83200
H  0.21200 9.31500 21.20000
H  0.88600 5.81300 21.01300
H  1.63900 7.46300 21.03000
H  0.61900 6.89000 19.65300
H  -2.26800 10.25500 22.04400
H  -2.82800 8.74900 21.47900
H  -3.05200 9.74900 19.58900
H  -1.29500 9.88600 19.39600
H  -2.21900 11.21400 20.19600
H  -0.12400 12.95200 24.69700
H  1.59200 13.04300 24.87100
H  0.66900 13.51100 26.22100
H  -0.45600 10.62700 30.07500
H  3.29300 10.38800 32.42200
H  1.81300 10.35300 33.54900
H  2.57900 11.85100 32.99400
Mg -11.77400 38.40000 42.27900
C  -9.57400 35.93300 41.05400
C  -9.85700 40.72100 40.53200
C  -14.27700 40.54300 42.58200
C  -13.98400 35.79600 43.47400
N  -10.05600 38.27300 40.81500
C  -9.19600 37.19100 40.61700
C  -7.84900 37.53300 39.92200
C  -8.02200 39.04400 39.74400
C  -9.41300 39.39100 40.35800
C  -6.89100 39.89300 40.30500
C  -7.63400 36.82300 38.55500
C  -6.31600 36.03800 38.35900
H  -5.47100 36.31600 37.11300
N  -11.94800 40.41300 41.79000
C  -11.04500 41.14200 41.09400
C  -11.56600 42.46700 41.00000
C  -12.83300 42.48100 41.54500
C  -13.07000 41.11000 42.04500
C  -10.74200 43.66100 40.42800
C  -13.78500 43.67800 41.54800
O  -13.46000 44.74700 41.05800
C  -15.18200 43.57800 42.06800
N  -13.93500 38.18100 42.97200
C  -14.66600 39.27700 42.99200
C  -16.06700 38.95400 43.54700
C  -15.94000 37.35300 43.84700
C  -14.50900 37.09700 43.45900
C  -16.67600 39.84400 44.72600
C  -16.94500 36.46300 43.11900
C  -18.17400 36.01600 43.86300
N  -11.84100 36.25500 42.23500
C  -12.75300 35.40700 42.82600
C  -12.10800 34.07000 42.83700
C  -10.86400 34.23600 42.20100
C  -10.78200 35.57200 41.79100
C  -12.60900 32.79200 43.44600
C  -9.58400 33.58000 41.83100
O  -9.15500 32.44900 42.13000
C  -8.73000 34.56600 41.00800
C  -7.39500 34.58600 41.63000
O  -6.46700 33.80800 41.32100
O  -7.28000 35.48900 42.68600
C  -6.04700 35.24200 43.53500
H  -9.14200 41.43100 40.11100
H  -15.07500 41.28500 42.64300
H  -14.65200 35.09100 43.97300
H  -7.03900 37.27400 40.60400
H  -8.09600 39.36100 38.70400
H  -7.09500 40.07300 41.36100
H  -6.70700 40.82100 39.76300
H  -5.97300 39.31500 40.19900
H  -7.68300 37.51100 37.71100
H  -8.51000 36.20600 38.35400
H  -6.63400 34.99600 38.32800
H  -5.78500 36.24600 39.28800
H  -10.80000 43.75200 39.34400
H  -9.71700 43.42000 40.70900
H  -11.00600 44.58800 40.93800
H  -15.74200 44.47800 41.81700
H  -15.06700 43.38900 43.13500
H  -15.73600 42.77500 41.58100
H  -16.76000 39.14500 42.72800
H  -16.07100 37.17100 44.91400
H  -15.75300 40.33200 45.04000
H  -17.07700 39.31000 45.58800
H  -17.34200 40.59600 44.30200
H  -16.48000 35.55000 42.74800
H  -17.20200 36.95300 42.17900
H  -18.79800 35.66900 43.03900
H  -18.66800 36.77400 44.47200
H  -17.97200 35.11900 44.44800
H  -12.84100 32.07800 42.65600
H  -13.48800 33.00700 44.05400
H  -11.80500 32.42700 44.08400
H  -8.63600 34.37400 39.93900
H  -6.16400 35.80800 44.45900
H  -5.11500 35.51600 43.04000
H  -6.00000 34.20800 43.87700

