158

Mg 44.93800 4.51200 48.30700
C  43.04900 7.15500 47.27600
C  42.43900 2.43800 47.62700
C  47.05600 1.83800 48.85600
C  47.75600 6.56800 48.31100
N  43.04200 4.81200 47.43700
C  42.35600 5.94900 47.14800
C  40.90300 5.71000 46.59500
C  40.67300 4.24100 47.12200
C  42.14700 3.80200 47.49600
C  39.49700 4.08600 48.16000
C  40.82200 5.84000 45.03500
C  40.01400 7.01300 44.39100
H  39.05500 6.71900 43.27800
N  44.75200 2.44400 48.06000
C  43.64900 1.76100 47.82900
C  43.89500 0.39900 47.78500
C  45.24200 0.16900 48.18000
C  45.79000 1.48400 48.35900
C  42.73800 -0.60800 47.66900
C  45.87300 -1.15000 48.48600
O  45.31500 -2.18900 48.12400
C  47.23300 -1.38400 49.01500
N  47.16700 4.19000 48.42700
C  47.75400 3.06000 48.93200
C  49.15800 3.15000 49.24000
C  49.32900 4.69300 49.07200
C  48.02700 5.21600 48.44800
C  49.59600 2.59800 50.59500
C  50.56600 5.16300 48.24000
C  51.43900 6.20300 48.87600
N  45.34100 6.50100 47.99300
C  46.54500 7.19300 47.99900
C  46.23100 8.62300 47.77700
C  44.86100 8.63500 47.55900
C  44.42400 7.36800 47.59700
C  47.08200 9.79900 47.79300
C  43.74500 9.61700 47.27100
O  43.63900 10.81800 47.15000
C  42.49600 8.54300 47.08600
C  41.44700 8.84700 48.19300
O  41.15800 8.09300 49.11400
O  40.89100 10.05400 47.89700
C  39.82700 10.44800 48.83200
H  41.49600 1.88900 47.59800
H  47.77800 1.03100 49.00200
H  48.61100 7.23400 48.45000
H  40.26700 6.47600 47.03900
H  40.30000 3.67900 46.26600
H  39.20100 5.06900 48.52600
H  39.91000 3.57700 49.03100
H  38.57400 3.71100 47.71800
H  40.42800 4.87100 44.72900
H  41.84400 5.91900 44.66300
H  40.71000 7.76900 44.02800
H  39.55500 7.50100 45.25200
H  42.92500 -1.29400 46.84300
H  41.79600 -0.11800 47.42500
H  42.58500 -1.25500 48.53400
H  47.41100 -2.44600 49.18200
H  47.38700 -0.74500 49.88400
H  47.78800 -1.08300 48.12700
H  49.69300 2.59900 48.46700
H  49.38200 5.08700 50.08700
H  48.68800 2.47900 51.18700
H  50.33300 3.21300 51.11200
H  50.09100 1.64300 50.41800
H  50.36800 5.60900 47.26500
H  51.28900 4.35100 48.15400
H  51.56200 6.02200 49.94300
H  50.84000 7.10700 48.76700
H  52.41200 6.32800 48.40100
H  46.70100 10.49300 48.54200
H  47.03600 10.22700 46.79200
H  48.07300 9.38800 47.98200
H  41.93600 8.62200 46.15500
H  38.95500 10.96300 48.43000
H  40.15800 10.91800 49.75800
H  39.27700 9.61100 49.26100
Mg 50.31500 46.63600 41.67400
C  47.10200 46.98700 40.26600
C  50.08700 43.38000 40.78500
C  53.65800 46.45300 41.74000
C  50.47200 50.01600 42.05200
N  48.69900 45.39700 40.79600
C  47.48900 45.66300 40.32600
C  46.66900 44.47500 39.86900
C  47.57000 43.30200 40.40500
C  48.88800 44.05800 40.73400
C  47.02700 42.48800 41.60700
C  46.34100 44.49300 38.31900
C  44.96700 44.10400 37.85600
H  44.78200 43.21700 36.59800
N  51.72300 45.11000 41.47500
C  51.39000 43.83400 41.07100
C  52.55400 43.02200 41.05500
C  53.71300 43.80400 41.42100
C  53.09700 45.17900 41.61100
C  52.42900 41.62000 40.70700
C  55.19600 43.38800 41.58200
O  55.48800 42.21800 41.57100
C  56.27900 44.36700 42.05600
N  51.91600 48.07300 41.76500
C  53.17000 47.72600 41.91800
C  54.12300 48.95000 42.06500
C  53.01900 50.15400 42.29500
C  51.71800 49.42600 41.96100
C  55.26400 48.91100 43.11600
C  53.33600 51.45300 41.39200
C  53.35700 52.84700 42.18600
N  48.97300 48.29000 41.37400
C  49.22100 49.62900 41.60500
C  48.08600 50.38100 41.11000
C  47.17800 49.38300 40.54500
C  47.84200 48.17200 40.68600
C  47.88200 51.87900 41.36500
C  45.94500 49.11000 39.95800
O  44.98500 49.87900 39.58000
C  45.79800 47.53700 39.76000
C  44.68000 47.32900 40.69700
O  44.81700 47.28700 41.94100
O  43.58000 47.08700 39.89400
C  42.41400 46.70200 40.75900
H  50.12200 42.29100 40.70200
H  54.74800 46.38300 41.74400
H  50.57600 51.07500 42.29800
H  45.75600 44.56300 40.45800
H  47.96300 42.59800 39.67200
H  45.96300 42.68500 41.74600
H  47.55900 42.78800 42.50900
H  47.15800 41.42500 41.40700
H  46.95500 43.67700 37.93800
H  46.68600 45.44600 37.91800
H  44.53600 45.05300 37.53500
H  44.41100 43.73800 38.71900
H  52.08000 41.56500 39.67600
H  51.77100 41.00700 41.32200
H  53.36100 41.05500 40.69300
H  55.86100 44.98800 42.84800
H  56.61200 44.97900 41.21800
H  57.01200 43.76900 42.59800
H  54.69900 49.01100 41.14100
H  53.06300 50.46800 43.33800
H  56.06100 48.63300 42.42500
H  55.14700 48.11200 43.84800
H  55.44900 49.88500 43.56900
H  52.53400 51.51800 40.65700
H  54.29100 51.36500 40.87500
H  54.19400 53.44200 41.82100
H  53.43700 52.63700 43.25300
H  52.41500 53.31600 41.90200
H  47.98700 52.45700 40.44700
H  48.52300 52.25300 42.16300
H  46.82100 52.05400 41.54000
H  45.51500 47.34800 38.72400
H  41.69400 47.49100 40.97600
H  42.60700 46.04300 41.60600
H  41.89700 46.02800 40.07700

