158

Mg 47.10600 15.90100 28.60200
C  44.80500 15.77300 31.31500
C  49.12600 17.81500 30.74100
C  48.92800 16.71000 25.89700
C  44.53600 14.72000 26.52800
N  46.83700 16.89100 30.71600
C  45.95900 16.49300 31.66500
C  46.38600 16.85600 33.11900
C  47.58700 17.82300 32.75900
C  47.93600 17.46900 31.30100
C  47.36300 19.36500 32.86300
C  46.86400 15.55300 33.83200
C  46.63600 15.59800 35.36000
H  46.37900 16.98100 35.96700
N  48.87100 16.95700 28.38100
C  49.54700 17.72100 29.33500
C  50.77200 18.20700 28.79100
C  50.75900 17.88200 27.38000
C  49.56100 17.05200 27.13500
C  51.69900 19.13600 29.65500
C  51.67500 18.30600 26.28800
O  51.76100 17.76000 25.19900
C  52.80000 19.24400 26.63200
N  46.81200 15.59900 26.47300
C  47.69700 16.15400 25.58500
C  47.12400 15.97200 24.09400
C  45.79000 15.29700 24.30100
C  45.70200 15.09400 25.86600
C  47.04000 17.34300 23.46300
C  45.61900 14.00200 23.51100
C  46.20400 12.69300 23.98400
N  45.20100 15.15700 28.89200
C  44.29900 14.73200 27.91400
C  43.02900 14.39500 28.59800
C  43.21500 14.71500 29.94300
C  44.54500 15.22300 30.10400
C  41.74500 13.94700 28.02500
C  42.54100 14.84400 31.32900
O  41.39500 14.62800 31.65300
C  43.61500 15.49500 32.23200
C  43.06300 16.69500 32.92100
O  42.74700 17.76900 32.43200
O  42.96600 16.27500 34.31100
C  42.43600 17.33000 35.16000
H  49.82200 18.26000 31.45600
H  49.51400 16.96100 25.01000
H  43.67800 14.59500 25.86400
H  45.47700 17.25300 33.57200
H  48.46300 17.62500 33.37600
H  48.16500 19.95000 33.31200
H  46.42700 19.69300 33.31600
H  47.28200 19.75100 31.84700
H  47.94100 15.58200 33.67200
H  46.41000 14.63400 33.46200
H  47.54700 15.24500 35.84200
H  45.83600 14.92600 35.67200
H  52.64100 18.67200 29.94900
H  51.23800 19.25100 30.63600
H  51.95400 20.09900 29.21400
H  53.27900 19.07500 27.59600
H  52.39600 20.24800 26.50700
H  53.57300 18.93200 25.92900
H  47.87500 15.33300 23.62900
H  44.97500 15.99400 24.10800
H  45.99700 17.41000 23.15200
H  47.60900 17.44400 22.53900
H  47.40800 18.12900 24.12200
H  46.17900 14.16400 22.59000
H  44.61500 13.91700 23.09600
H  46.45900 12.01400 23.17100
H  45.42800 12.17100 24.54400
H  47.04300 12.86600 24.65900
H  41.72700 14.11000 26.94700
H  40.93300 14.46700 28.53200
H  41.68600 12.86700 28.15700
H  43.84200 14.65200 32.88500
H  42.92200 18.30200 35.07600
H  42.39100 16.93300 36.17400
H  41.42500 17.44300 34.76900
Mg 47.36000 25.36200 28.54800
C  47.80700 27.41400 31.31500
C  46.07200 22.90500 30.52900
C  47.27300 23.28100 25.87900
C  48.37100 27.93800 26.42600
N  46.73700 25.29100 30.72400
C  47.20600 26.19300 31.66900
C  46.83400 25.69800 33.00900
C  46.34700 24.20400 32.82900
C  46.49200 24.06000 31.29300
C  47.09000 23.10900 33.60200
C  45.75400 26.56800 33.68500
C  46.18500 27.20700 34.98500
H  45.17300 27.39300 36.11200
N  46.69800 23.39900 28.25400
C  46.15500 22.56700 29.21700
C  45.78100 21.28400 28.60300
C  46.16800 21.35600 27.20900
C  46.69700 22.72300 27.06900
C  45.19600 20.22400 29.39400
C  46.07900 20.25900 26.22700
O  46.53700 20.34500 25.07100
C  45.55500 18.89900 26.69900
N  47.68400 25.61100 26.40200
C  47.59900 24.66700 25.50400
C  48.22400 25.01400 24.10900
C  48.30600 26.56100 24.26200
C  48.11200 26.76600 25.80200
C  49.58500 24.33400 23.64900
C  47.34500 27.42600 23.49300
C  47.87200 28.01900 22.18100
N  47.97200 27.30400 28.79200
C  48.34200 28.20100 27.84100
C  48.77100 29.44400 28.47600
C  48.65200 29.20400 29.83400
C  48.09700 27.87100 30.00100
C  49.31600 30.70000 27.84000
C  48.86500 29.65200 31.16300
O  49.34500 30.76500 31.54100
C  48.42600 28.49000 32.13100
C  49.64100 28.00000 32.78600
O  50.75600 27.94300 32.34100
O  49.38800 27.72000 34.06500
C  50.51900 27.23800 34.88600
H  45.67800 22.16000 31.22300
H  47.20000 22.69000 24.96400
H  48.72500 28.68000 25.70800
H  47.83100 25.69600 33.45000
H  45.28600 24.08000 33.04900
H  47.71500 23.69700 34.27300
H  47.73700 22.59100 32.89400
H  46.52300 22.31800 34.09400
H  44.74600 26.17700 33.82800
H  45.53200 27.36700 32.97800
H  46.38500 28.24800 34.73300
H  47.09900 26.78200 35.39900
H  44.27700 19.91500 28.89400
H  44.82000 20.46000 30.38900
H  45.93900 19.43300 29.49600
H  46.11400 18.65300 27.60200
H  45.56300 18.17600 25.88300
H  44.49900 18.95900 26.95900
H  47.42100 24.70100 23.44100
H  49.32700 26.89200 24.07100
H  49.87200 23.60700 24.40900
H  50.30600 25.11900 23.42400
H  49.43400 23.60100 22.85600
H  46.98100 28.27900 24.06600
H  46.50000 26.76900 23.28400
H  48.88500 27.71200 21.91900
H  47.89300 29.08300 22.41600
H  47.19500 27.78700 21.35900
H  50.40200 30.60500 27.79900
H  49.07300 31.55700 28.46800
H  49.06900 30.83800 26.78800
H  47.66900 28.89500 32.80200
H  50.17900 27.27600 35.92100
H  51.34400 27.92400 34.69400
H  50.75800 26.23300 34.53700

