158

Mg 34.95400 4.08400 30.17800
C  32.39600 4.98100 32.75100
C  37.14200 4.04900 32.86800
C  37.23300 3.07500 28.07700
C  32.48600 4.15300 27.78300
N  34.71300 4.42600 32.54600
C  33.63700 4.76900 33.32400
C  33.96600 4.97000 34.76900
C  35.57000 4.86500 34.78400
C  35.82300 4.37800 33.31100
C  36.42400 6.08300 35.31400
C  33.19100 3.95300 35.64300
C  33.38100 3.98300 37.19700
H  34.05100 5.23100 37.82400
N  36.87900 3.73600 30.35000
C  37.68100 3.85400 31.50700
C  39.02600 3.49600 31.23900
C  39.10700 3.22800 29.87100
C  37.69900 3.34000 29.36500
C  40.09700 3.51800 32.29400
C  40.27500 2.81400 29.03100
O  40.18700 2.58200 27.77100
C  41.57100 2.48200 29.70600
N  34.92000 3.65200 28.14600
C  35.97500 3.25200 27.42600
C  35.64800 2.94600 25.94000
C  34.15800 3.40200 25.92500
C  33.80600 3.72600 27.38000
C  36.60100 3.63400 24.94800
C  33.08400 2.48100 25.22700
C  32.88800 1.18700 25.91200
N  32.93400 4.47700 30.24000
C  32.11900 4.51200 29.04300
C  30.74800 4.95800 29.53400
C  30.82900 5.12500 30.91700
C  32.16100 4.84800 31.34800
C  29.52000 5.06600 28.66300
C  30.04200 5.39800 32.09400
O  28.84600 5.75400 32.20800
C  31.09200 5.44000 33.30300
C  31.05500 6.77500 33.91300
O  31.61300 7.75300 33.51100
O  30.49300 6.69900 35.18600
C  30.76200 7.76000 36.17900
H  37.80100 4.02600 33.73800
H  37.97200 2.71600 27.35700
H  31.74000 4.20800 26.98800
H  33.52100 5.93600 35.00900
H  35.81200 3.98500 35.38000
H  37.23300 5.63600 35.89200
H  35.89000 6.75300 35.98800
H  36.81200 6.62500 34.45200
H  33.32400 2.96600 35.20000
H  32.13200 4.19500 35.55900
H  34.02700 3.14600 37.46300
H  32.42600 3.81700 37.69600
H  39.68300 4.10200 33.11600
H  40.93600 4.02200 31.81300
H  40.38800 2.54600 32.69000
H  41.51400 1.60300 30.34700
H  41.88000 3.28900 30.37100
H  42.32300 2.38000 28.92300
H  35.80200 1.88300 25.75500
H  34.08200 4.40400 25.50300
H  37.19000 4.41800 25.42300
H  35.99100 4.06600 24.15400
H  37.18700 2.83400 24.49400
H  33.51300 2.21400 24.26200
H  32.16200 3.05400 25.12700
H  31.90000 1.22600 26.37200
H  33.62400 1.16700 26.71500
H  33.10800 0.34900 25.25000
H  29.64900 4.57300 27.69900
H  29.20500 6.09500 28.48800
H  28.72100 4.68400 29.29800
H  30.93900 4.63400 34.02100
H  29.91200 8.43700 36.26500
H  31.66100 8.36400 36.05500
H  30.78600 7.35400 37.19000
Mg 30.26100 57.35700 39.52100
C  27.77300 55.13700 38.74300
C  32.67400 54.94200 38.82000
C  32.70400 59.67100 39.55500
C  27.82900 59.85100 40.29900
N  30.19100 55.27500 38.78500
C  29.07800 54.56900 38.54700
C  29.48600 53.16900 37.99700
C  31.02800 53.05800 38.18300
C  31.32200 54.50500 38.66500
C  31.48300 52.11300 39.23700
C  29.04000 52.98800 36.49900
C  29.33400 54.00000 35.49200
H  28.24000 54.52600 34.68300
N  32.44800 57.28400 39.20400
C  33.20200 56.23500 38.99000
C  34.53200 56.61900 38.86300
C  34.59800 57.99800 39.16100
C  33.26300 58.36600 39.36400
C  35.60000 55.63200 38.62900
C  35.83900 58.80500 39.30300
O  36.97100 58.33800 39.09600
C  35.91800 60.15200 39.73100
N  30.20100 59.46400 39.66800
C  31.35700 60.15600 39.78400
C  31.07800 61.60200 40.24300
C  29.66000 61.57200 40.64000
C  29.11000 60.25800 39.97200
C  32.08500 62.17700 41.26800
C  28.89600 62.87600 40.20300
C  28.15800 63.63400 41.31300
N  28.16500 57.49700 39.67400
C  27.34100 58.53200 40.02000
C  25.98300 58.06600 39.87200
C  26.13600 56.74400 39.32500
C  27.52300 56.45600 39.21600
C  24.87600 58.92200 40.08900
C  25.33100 55.60200 38.91800
O  24.17600 55.40000 38.93700
C  26.39000 54.55800 38.42900
C  26.21100 53.23600 39.11300
O  26.65800 52.98900 40.23300
O  25.29700 52.52300 38.35100
C  24.97500 51.17300 38.86600
H  33.33800 54.09300 38.64900
H  33.42900 60.48600 39.62400
H  27.08300 60.58700 40.60900
H  28.86100 52.43700 38.50800
H  31.57000 52.92400 37.24700
H  30.57600 51.68500 39.66500
H  32.12800 52.52800 40.01200
H  31.95500 51.27100 38.73100
H  27.98000 52.74100 36.56400
H  29.45700 52.04700 36.14200
H  30.01400 53.48200 34.81500
H  29.89600 54.85500 35.86800
H  36.10500 55.99100 37.73200
H  35.26900 54.60600 38.46900
H  36.28900 55.67000 39.47300
H  36.94700 60.40700 39.98300
H  35.22800 60.41000 40.53500
H  35.54000 60.84100 38.97500
H  31.12400 62.15600 39.30500
H  29.56800 61.39600 41.71200
H  32.90900 62.77900 40.88600
H  32.50300 61.28800 41.74100
H  31.60600 62.73400 42.07400
H  28.21500 62.50000 39.43900
H  29.62300 63.53400 39.72800
H  28.75100 64.51000 41.57700
H  27.99700 63.09300 42.24600
H  27.28200 64.08900 40.85200
H  24.53600 59.33400 39.13900
H  25.18800 59.74400 40.73400
H  24.03500 58.40900 40.55500
H  26.34900 54.39500 37.35100
H  24.76400 50.40000 38.12600
H  24.05000 51.40100 39.39500
H  25.65400 50.79600 39.63200

