158

Mg 40.45700 40.66500 27.14600
C  39.80200 43.03300 29.59300
C  41.79300 38.65600 29.54900
C  41.52400 38.68800 24.63700
C  39.82400 43.18700 24.69800
N  40.79800 40.84900 29.35300
C  40.36300 41.87700 30.10100
C  40.63900 41.64100 31.62500
C  41.20300 40.13700 31.61200
C  41.36700 39.85500 30.08700
C  42.47300 40.06900 32.45000
C  39.40000 41.64100 32.49700
C  39.28800 42.71000 33.61700
H  38.41300 42.37900 34.82600
N  41.44300 38.85500 27.09800
C  41.94600 38.17600 28.13400
C  42.47200 36.88500 27.74400
C  42.45000 36.91300 26.30900
C  41.79200 38.20900 25.91200
C  43.14800 36.01400 28.73800
C  42.94400 35.80900 25.31700
O  42.81900 35.84000 24.10400
C  43.37700 34.48900 25.87800
N  40.74700 41.01200 24.97700
C  40.91500 39.82400 24.23200
C  40.46200 40.10200 22.79000
C  39.79200 41.51300 22.82300
C  40.13800 41.98100 24.25200
C  41.67800 40.14800 21.82000
C  38.26700 41.66000 22.44300
C  37.26000 40.83500 23.22100
N  39.77200 42.62200 27.09200
C  39.68100 43.59100 26.04100
C  39.26900 44.84500 26.52000
C  39.25700 44.65200 27.90400
C  39.62100 43.31100 28.22500
C  38.82400 45.99600 25.68000
C  38.86700 45.32000 29.12600
O  38.30200 46.39300 29.36400
C  39.27800 44.25300 30.30000
C  40.30200 44.99200 31.14200
O  41.50000 45.04500 30.88500
O  39.69800 45.53400 32.20500
C  40.61000 46.50300 32.97000
H  42.06200 37.88900 30.27800
H  41.78100 37.96700 23.85900
H  39.46500 43.78000 23.85500
H  41.34000 42.36600 32.03900
H  40.54200 39.35200 31.97800
H  42.35600 39.03500 32.77700
H  42.50900 40.82300 33.23600
H  43.33300 40.20900 31.79600
H  39.25800 40.70500 33.03700
H  38.49700 41.86300 31.92700
H  38.68300 43.43800 33.07600
H  40.29300 43.03900 33.88000
H  42.72400 35.01100 28.68100
H  43.18400 36.28700 29.79300
H  44.17300 35.77000 28.45900
H  44.11800 34.56100 26.67400
H  43.75100 33.86900 25.06300
H  42.50400 33.90900 26.17900
H  39.76500 39.27200 22.67600
H  40.33500 42.22100 22.19700
H  41.75300 39.26500 21.18500
H  42.54100 40.09700 22.48400
H  41.90500 41.06700 21.28100
H  38.20000 41.35000 21.40000
H  38.02000 42.72100 22.46800
H  37.71400 40.21300 23.99300
H  36.73500 40.13300 22.57300
H  36.51100 41.47700 23.68400
H  38.31400 45.69300 24.76500
H  39.68300 46.62400 25.44300
H  38.18600 46.60100 26.32300
H  38.33300 43.96300 30.75900
H  40.19700 46.82600 33.92500
H  40.68500 47.30600 32.23600
H  41.55700 46.04700 33.25900
Mg 6.41700 55.56000 42.13000
C  5.90500 52.13800 42.06100
C  9.33200 55.15600 40.32800
C  6.31500 58.85500 41.54800
C  3.13300 55.83800 43.65600
N  7.38700 53.85200 41.26700
C  6.98500 52.55400 41.25900
C  7.91900 51.67100 40.35700
C  9.21500 52.58500 40.25900
C  8.59500 53.96600 40.58700
C  10.24700 52.33100 41.37200
C  7.16200 51.53200 38.98300
C  7.62100 50.20500 38.21700
H  6.83500 49.85900 36.98900
N  7.63600 56.86100 41.07700
C  8.86900 56.50100 40.49500
C  9.46300 57.66700 39.95500
C  8.58000 58.79800 40.22500
C  7.40300 58.24400 40.93400
C  10.78300 57.68200 39.19100
C  8.77700 60.26300 39.93600
O  9.76000 60.66100 39.36800
C  7.74500 61.31400 40.00900
N  4.77500 57.11500 42.29800
C  5.10400 58.39700 42.13500
C  3.97100 59.33700 42.57400
C  2.98000 58.34400 43.13900
C  3.65600 56.96700 42.97400
C  4.37700 60.44000 43.70100
C  1.56800 58.26700 42.46500
C  0.42000 57.89600 43.38800
N  4.90900 54.24800 42.99000
C  3.65200 54.47500 43.59300
C  3.10900 53.27400 44.14200
C  3.88400 52.30900 43.47600
C  4.95700 52.99200 42.79600
C  1.79900 53.14800 44.84200
C  4.06500 50.91900 43.21800
O  3.42400 49.91600 43.57000
C  5.27500 50.75700 42.28800
C  4.91800 49.97600 41.04000
O  3.83400 50.09200 40.39200
O  5.79500 48.95100 40.93500
C  5.30800 47.79800 40.23000
H  10.29600 54.88500 39.89100
H  6.47800 59.92400 41.70000
H  2.14800 55.84900 44.12800
H  8.10900 50.72100 40.85800
H  9.59400 52.54900 39.23700
H  11.13600 51.91600 40.89700
H  9.94300 51.66600 42.18100
H  10.61400 53.27100 41.78200
H  7.24300 52.50300 38.49500
H  6.12500 51.42300 39.29900
H  7.83600 49.35500 38.86600
H  8.58000 50.42400 37.74700
H  10.64600 57.76000 38.11200
H  11.46800 56.89300 39.50200
H  11.34300 58.57300 39.47500
H  6.76300 60.85400 39.90200
H  7.84200 62.01700 39.18100
H  7.82900 61.83100 40.96500
H  3.48000 59.79300 41.71400
H  2.75500 58.38300 44.20500
H  5.36300 60.14700 44.06000
H  3.63800 60.34900 44.49800
H  4.41800 61.45900 43.31700
H  1.56000 57.63400 41.57800
H  1.36100 59.27600 42.10600
H  -0.25100 58.73100 43.58700
H  0.79500 57.55000 44.35100
H  -0.12200 57.12300 42.84300
H  1.29000 54.08600 45.06400
H  1.81600 52.59500 45.78100
H  1.06900 52.60500 44.24200
H  5.96000 50.14400 42.87400
H  5.81700 47.73100 39.26800
H  4.23000 47.87200 40.09000
H  5.54700 46.96500 40.89100

