158

Mg 17.27000 51.86900 26.86400
C  19.31100 50.23100 29.25400
C  14.87900 52.39400 29.20000
C  15.32100 52.72100 24.37100
C  19.71100 50.59900 24.39600
N  17.08600 51.19900 28.87000
C  18.08500 50.72300 29.67500
C  17.71400 50.79700 31.08300
C  16.17200 51.13100 31.04000
C  15.98800 51.68400 29.63700
C  15.20000 49.92500 31.23500
C  18.58000 52.02800 31.65800
C  19.21500 51.79800 33.07500
H  18.64000 52.45600 34.36100
N  15.38100 52.55500 26.78600
C  14.52100 52.73700 27.83600
C  13.31000 53.44300 27.36200
C  13.53800 53.61000 25.94900
C  14.78900 52.92500 25.65000
C  12.18700 53.68700 28.29100
C  12.51000 54.34400 24.95400
O  12.85400 54.40700 23.76200
C  11.14900 54.94000 25.48500
N  17.50000 51.66600 24.69200
C  16.53600 52.17900 23.90400
C  16.99000 52.14700 22.45700
C  18.55000 51.75400 22.49000
C  18.61400 51.39000 23.96200
C  15.96500 51.30000 21.55300
C  19.47600 52.96200 22.00500
C  20.24900 52.69500 20.71300
N  19.18300 50.78700 26.74700
C  19.97700 50.32900 25.76400
C  21.05600 49.43800 26.31200
C  20.86000 49.50300 27.66300
C  19.74900 50.32600 27.89400
C  22.14400 48.74000 25.54100
C  21.31100 48.88400 28.90700
O  22.24000 48.13700 29.13400
C  20.40100 49.43800 29.99900
C  19.78100 48.13700 30.57800
O  18.87700 47.44300 30.06800
O  20.44100 47.88100 31.74000
C  19.87100 46.84800 32.53800
H  14.11700 52.50400 29.97400
H  14.74900 53.08000 23.51300
H  20.34600 50.01800 23.72300
H  17.82600 49.86900 31.64300
H  15.82800 51.84600 31.78700
H  14.20000 50.30100 31.45100
H  15.44600 49.35600 32.13200
H  15.17700 49.29500 30.34600
H  17.90400 52.87000 31.80800
H  19.37900 52.31500 30.97400
H  20.29300 51.95800 33.05100
H  19.18600 50.74000 33.33700
H  11.28600 53.34700 27.78100
H  12.06400 54.76400 28.41300
H  12.27500 53.17800 29.25100
H  11.48500 55.54000 26.33100
H  10.41200 54.18100 25.74800
H  10.76700 55.47400 24.61500
H  16.96100 53.15800 22.05200
H  18.80600 50.83600 21.96000
H  15.42300 51.94800 20.86500
H  15.19100 50.83800 22.16600
H  16.45900 50.48000 21.03300
H  20.23100 52.94800 22.79100
H  19.04300 53.96300 22.00900
H  20.40800 53.66800 20.24900
H  19.77000 51.97500 20.05000
H  21.23200 52.31700 20.99300
H  21.64700 48.04300 24.86700
H  22.83800 48.31700 26.26600
H  22.74500 49.42900 24.94700
H  20.95300 49.98300 30.76500
H  19.37900 46.07500 31.94600
H  19.30500 47.27400 33.36600
H  20.77900 46.35300 32.88100
Mg -12.05700 16.63700 41.57200
C  -9.07000 14.87100 40.81900
C  -10.43400 19.47900 40.00700
C  -14.95100 18.17700 41.63200
C  -13.47500 13.66200 42.75900
N  -10.00400 17.15700 40.60300
C  -8.99700 16.27900 40.42900
C  -7.73400 16.91200 39.80000
C  -8.12500 18.38400 39.48900
C  -9.61800 18.35100 40.05100
C  -7.23100 19.48700 40.20900
C  -7.24100 16.17400 38.48500
C  -5.72200 16.15600 38.18800
H  -5.23100 16.97000 37.02700
N  -12.58100 18.52200 40.98600
C  -11.81900 19.57100 40.39500
C  -12.71100 20.62400 40.11400
C  -13.94500 20.41000 40.66300
C  -13.88300 19.00200 41.10600
C  -12.24800 21.79400 39.26700
C  -15.14200 21.38900 40.96000
O  -15.16100 22.56800 40.44300
C  -16.33600 21.05000 41.78900
N  -13.94700 15.98700 42.11000
C  -14.99300 16.85500 42.08500
C  -16.35500 16.01900 42.38200
C  -15.75600 14.54900 42.68800
C  -14.25800 14.75600 42.60200
C  -17.24900 16.71400 43.44400
C  -16.40400 13.46200 41.81100
C  -17.29400 12.53200 42.58200
N  -11.41700 14.72800 42.01100
C  -12.08600 13.60700 42.53100
C  -11.18800 12.53100 42.61200
C  -10.00700 13.02500 42.01600
C  -10.24600 14.29500 41.52400
C  -11.30500 11.20400 43.21500
C  -8.63200 12.53300 41.66800
O  -8.21000 11.40300 41.86100
C  -7.96800 13.80000 40.87400
C  -6.82100 14.24100 41.68900
O  -6.78200 14.58500 42.87800
O  -5.81200 14.28900 40.76700
C  -4.48500 14.48000 41.41800
H  -10.02400 20.32200 39.44800
H  -15.82600 18.68200 41.21800
H  -13.97700 12.82800 43.25400
H  -6.89300 16.86900 40.49200
H  -8.26900 18.71800 38.46200
H  -7.83000 20.16500 40.81700
H  -6.56900 20.00900 39.51900
H  -6.47400 19.03100 40.84700
H  -7.61900 16.66800 37.58900
H  -7.51500 15.12300 38.38800
H  -5.32600 15.14100 38.21700
H  -5.18300 16.49500 39.07300
H  -13.06400 21.96300 38.56400
H  -11.37800 21.46400 38.69900
H  -11.99200 22.68300 39.84400
H  -16.79600 22.00900 42.02800
H  -16.10300 20.54000 42.72400
H  -16.94600 20.51700 41.06000
H  -16.91700 15.99600 41.44800
H  -15.95400 14.27000 43.72300
H  -17.24500 17.79800 43.32600
H  -17.05900 16.41000 44.47300
H  -18.27600 16.50500 43.14400
H  -15.65400 12.85600 41.30300
H  -16.96400 13.95600 41.01700
H  -18.33400 12.61800 42.26800
H  -17.29000 12.84800 43.62500
H  -16.92400 11.51000 42.49600
H  -12.01900 11.32500 44.03000
H  -10.35500 10.90100 43.65600
H  -11.65200 10.43000 42.53000
H  -7.69800 13.25000 39.97300
H  -3.75700 14.36800 40.61400
H  -4.35000 13.81600 42.27200
H  -4.24300 15.48700 41.75700

