158

Mg 1.03700 8.28300 26.83400
C  1.80900 10.50900 29.35400
C  1.44500 5.70300 29.29700
C  0.72400 6.00900 24.44600
C  1.06800 10.88500 24.57000
N  1.52100 8.15600 29.05200
C  1.61900 9.23600 29.84000
C  1.38000 8.77100 31.32100
C  1.58400 7.26000 31.29000
C  1.47600 7.03200 29.81200
C  2.95700 6.77600 31.81700
C  -0.04400 9.31400 31.72600
C  -0.19100 9.31000 33.28500
H  0.98500 8.78300 34.18600
N  1.05600 6.16600 26.81500
C  1.17500 5.28900 27.87700
C  1.05300 3.91000 27.47100
C  1.01900 4.02700 26.01400
C  0.90900 5.46000 25.68500
C  1.09100 2.74600 28.41400
C  1.19000 2.93400 24.95900
O  1.26700 3.14100 23.76900
C  1.38400 1.50700 25.43700
N  1.10800 8.44500 24.74000
C  0.73900 7.34800 23.97500
C  0.39100 7.76500 22.52800
C  0.30800 9.36200 22.64300
C  0.86500 9.59600 24.05500
C  1.39000 7.31400 21.42400
C  -1.04400 10.03000 22.34000
C  -0.92500 11.16500 21.25800
N  1.48600 10.29500 26.92000
C  1.50600 11.19800 25.94900
C  1.93900 12.51600 26.47500
C  2.08200 12.32500 27.90400
C  1.79700 10.92100 28.03300
C  2.29200 13.78900 25.65900
C  2.49000 12.85700 29.16300
O  2.96300 13.93600 29.45400
C  2.16800 11.68400 30.18500
C  3.32300 11.51400 31.04900
O  4.35500 10.91700 30.80400
O  3.14700 12.24500 32.21300
C  4.18600 12.29600 33.28600
H  1.34600 4.91000 30.04100
H  0.39700 5.29500 23.68700
H  0.97000 11.67600 23.82300
H  2.10700 9.30600 31.93300
H  0.84800 6.70400 31.87100
H  2.80400 6.09500 32.65500
H  3.56800 7.65400 32.02900
H  3.47900 6.20300 31.05100
H  -0.72800 8.52300 31.41800
H  -0.41800 10.25900 31.33200
H  -1.03900 8.67900 33.55200
H  -0.42200 10.35900 33.47000
H  1.10100 3.08200 29.45100
H  2.03900 2.21900 28.31100
H  0.25900 2.06600 28.23200
H  0.43500 0.99400 25.59400
H  2.09200 1.58700 26.26100
H  1.92700 0.92700 24.69100
H  -0.58600 7.38600 22.22900
H  1.12700 9.74600 22.03500
H  2.34800 7.10400 21.89800
H  1.64500 8.00000 20.61700
H  0.90800 6.45900 20.95000
H  -1.25900 10.61400 23.23500
H  -1.85100 9.34900 22.06900
H  -0.88200 12.05900 21.88000
H  -1.71000 11.26200 20.50800
H  -0.02600 11.04200 20.65300
H  3.14000 14.33300 26.07700
H  1.51500 14.54900 25.57800
H  2.44000 13.51700 24.61400
H  1.31000 12.08200 30.72600
H  4.08400 13.20900 33.87200
H  5.17600 12.23600 32.83300
H  4.03600 11.49200 34.00600
Mg 16.52200 51.97300 25.97800
C  18.59300 50.66600 28.69200
C  14.31900 52.97900 28.27100
C  14.70700 53.04000 23.39500
C  18.88900 50.43700 23.71500
N  16.59800 51.91400 28.26100
C  17.48000 51.43200 29.19400
C  17.00700 51.59700 30.59200
C  15.56800 52.10500 30.43300
C  15.43000 52.34000 28.87400
C  14.47800 51.05700 31.01500
C  17.83100 52.61900 31.42800
C  17.81800 52.54600 32.95700
H  16.70900 51.74200 33.56600
N  14.77300 52.89100 25.84300
C  14.06300 53.35400 26.90700
C  13.01300 54.19000 26.43100
C  13.08800 54.16800 24.99300
C  14.23100 53.31700 24.69100
C  11.96000 54.82600 27.31600
C  12.26200 54.93200 23.93800
O  12.51600 55.07300 22.74600
C  11.12300 55.78500 24.39600
N  16.71200 51.65800 23.79700
C  15.88200 52.31300 23.01600
C  16.47600 52.24100 21.55500
C  17.71000 51.29800 21.59700
C  17.81100 51.13200 23.10000
C  15.50400 52.01700 20.42100
C  19.05700 51.89800 21.00600
C  19.87500 50.86100 20.26500
N  18.35900 50.73100 26.05500
C  19.08900 50.20200 25.06600
C  20.29200 49.55100 25.63100
C  20.10700 49.70800 27.04500
C  18.99100 50.46500 27.26600
C  21.39300 48.89200 24.87000
C  20.66400 49.34000 28.34200
O  21.76700 48.89700 28.64800
C  19.72100 49.91500 29.47100
C  19.26500 48.76000 30.28300
O  18.86000 47.64400 29.96300
O  19.42100 49.16500 31.55200
C  19.47600 48.20200 32.59500
H  13.56900 53.12600 29.05100
H  14.19100 53.43500 22.51800
H  19.75200 50.06100 23.16200
H  17.09400 50.60500 31.03400
H  15.42200 53.06300 30.93300
H  15.04500 50.28400 31.53400
H  13.84000 50.57500 30.27400
H  13.85400 51.46000 31.81300
H  17.55200 53.65200 31.22000
H  18.80900 52.41200 30.99400
H  17.88900 53.57000 33.32200
H  18.74300 52.02100 33.19400
H  11.95000 54.48700 28.35200
H  10.93800 54.72300 26.95000
H  12.14500 55.89700 27.23900
H  10.25800 55.12700 24.48200
H  10.88300 56.46000 23.57400
H  11.23800 56.33000 25.33300
H  16.76400 53.27100 21.34500
H  17.46900 50.34000 21.13600
H  14.86200 52.89600 20.48200
H  14.95100 51.08400 20.53400
H  16.02600 51.90700 19.47100
H  19.58200 52.09900 21.94000
H  18.88200 52.86000 20.52400
H  19.28500 49.94500 20.21900
H  20.85200 50.73200 20.73100
H  20.18400 51.27800 19.30700
H  21.68200 49.61100 24.10300
H  21.10800 47.95100 24.39900
H  22.19000 48.73400 25.59600
H  20.32200 50.60500 30.06300
H  19.61100 47.19400 32.20300
H  18.56300 48.25500 33.18800
H  20.25900 48.43400 33.31600

