158

Mg 28.38200 56.99800 41.39700
C  25.75100 54.99800 40.42300
C  30.55200 54.85700 39.62500
C  30.81100 59.39300 41.54900
C  26.06900 59.27900 42.81800
N  28.19300 55.11000 40.14900
C  26.99200 54.53800 39.88300
C  27.08400 53.37800 38.84700
C  28.61400 53.04200 39.11400
C  29.17300 54.44700 39.55800
C  28.82800 51.99000 40.26300
C  26.88900 54.00100 37.45300
C  26.48000 53.06500 36.27300
H  27.04500 53.42500 34.90800
N  30.44300 57.11200 40.76100
C  31.16200 56.07100 40.19100
C  32.56400 56.47700 40.02100
C  32.60300 57.74800 40.51700
C  31.27100 58.13200 40.96400
C  33.59400 55.67000 39.42600
C  33.82000 58.61200 40.56500
O  34.94600 58.14100 40.29200
C  33.83400 60.04300 41.03400
N  28.35200 59.02500 42.07100
C  29.53200 59.71300 42.04600
C  29.26800 61.15600 42.61400
C  27.90000 61.02200 43.39400
C  27.37000 59.69000 42.70900
C  30.40000 61.84000 43.49100
C  26.89100 62.18200 43.35300
C  26.15700 62.54900 44.64500
N  26.30000 57.10100 41.67600
C  25.54200 58.08100 42.26300
C  24.13900 57.62900 42.25800
C  24.16200 56.43400 41.48300
C  25.49500 56.17700 41.15800
C  22.99800 58.08400 43.04000
C  23.35700 55.36700 40.85400
O  22.16400 55.14400 40.87200
C  24.36100 54.34600 40.20600
C  24.31300 53.05600 40.91200
O  24.99000 52.69000 41.89200
O  23.39800 52.20600 40.33900
C  23.49600 50.85900 40.82200
H  31.29700 54.28100 39.07400
H  31.53000 60.21400 41.53300
H  25.40500 60.01300 43.27900
H  26.36200 52.60200 39.10200
H  28.94200 52.58100 38.18200
H  29.29200 52.39600 41.16200
H  29.43700 51.18100 39.85900
H  27.96900 51.49100 40.71400
H  27.82700 54.46100 37.14100
H  26.17900 54.82800 37.45700
H  25.39900 53.16600 36.18000
H  26.54600 52.02200 36.58000
H  33.57900 55.72100 38.33800
H  33.37000 54.62200 39.63000
H  34.58900 55.81100 39.84800
H  33.17800 60.63700 40.39800
H  34.82500 60.48400 40.92500
H  33.64700 59.95600 42.10400
H  29.04900 61.78300 41.75000
H  28.13200 60.80600 44.43700
H  30.45800 62.87900 43.17000
H  31.39800 61.45700 43.27800
H  30.19800 61.94400 44.55700
H  26.11700 61.89300 42.64200
H  27.34400 63.10500 42.99500
H  25.10700 62.30000 44.49300
H  26.11800 63.63800 44.66100
H  26.57600 62.05400 45.52100
H  23.15000 57.92600 44.10800
H  22.06500 57.62700 42.70800
H  22.87100 59.15200 42.86400
H  24.05300 54.25300 39.16500
H  23.18100 50.81000 41.86400
H  24.43800 50.34400 40.63500
H  22.83400 50.33100 40.13600
Mg -12.80700 17.22100 40.46900
C  -9.85400 15.38200 39.96700
C  -11.01500 20.06800 39.40600
C  -15.77300 18.89200 39.99900
C  -14.54900 14.18100 40.70800
N  -10.68000 17.66200 39.66500
C  -9.65900 16.72900 39.61500
C  -8.26700 17.33500 39.14200
C  -8.59600 18.83300 39.22000
C  -10.14400 18.89100 39.45100
C  -7.79900 19.45100 40.39400
C  -7.80600 16.82000 37.75400
C  -6.35000 16.44900 37.70800
H  -5.67500 16.56300 36.37200
N  -13.28300 19.24400 39.77900
C  -12.43700 20.24200 39.44900
C  -13.21200 21.46700 39.14900
C  -14.58400 21.16500 39.19500
C  -14.59900 19.70000 39.72200
C  -12.56800 22.73400 38.75000
C  -15.81100 22.02200 38.80400
O  -15.58700 23.16900 38.36000
C  -17.17800 21.55500 38.86600
N  -14.87700 16.65400 40.53400
C  -15.90100 17.51000 40.31500
C  -17.18800 16.86100 40.56200
C  -16.78600 15.32400 40.70200
C  -15.31300 15.35200 40.57300
C  -17.91400 17.43200 41.79400
C  -17.47300 14.36500 39.74600
C  -18.04500 13.07400 40.43400
N  -12.34300 15.20500 40.43900
C  -13.16100 14.07500 40.63700
C  -12.27200 12.90300 40.73300
C  -11.02400 13.37800 40.42700
C  -11.06000 14.82000 40.31600
C  -12.72500 11.49500 41.14400
C  -9.64700 12.95100 40.33000
O  -9.10200 11.87900 40.53800
C  -8.85100 14.27400 40.01700
C  -7.90000 14.43600 41.18500
O  -8.01100 14.37600 42.42000
O  -6.68600 14.38200 40.56500
C  -5.51500 14.20800 41.43900
H  -10.46200 21.00200 39.28400
H  -16.77700 19.27200 39.79600
H  -15.08000 13.28800 41.04500
H  -7.53700 16.98000 39.86900
H  -8.26700 19.25500 38.27000
H  -8.47100 19.68300 41.22000
H  -7.30300 20.30900 39.94100
H  -6.93100 18.86100 40.68900
H  -8.13600 17.50600 36.97400
H  -8.33700 15.90600 37.48900
H  -6.29900 15.41100 38.03800
H  -5.78000 17.09800 38.37200
H  -11.59100 22.82900 39.22300
H  -13.13100 23.64300 38.95900
H  -12.52300 22.75600 37.66100
H  -17.39300 21.17600 39.86600
H  -17.17300 20.73900 38.14400
H  -17.88100 22.31100 38.51600
H  -17.80200 16.97200 39.66800
H  -16.87700 14.88400 41.69500
H  -17.51200 18.33200 42.26000
H  -18.01300 16.66400 42.56100
H  -18.88900 17.75500 41.43000
H  -16.73500 13.87800 39.10900
H  -18.29000 14.78900 39.16200
H  -19.11400 13.22100 40.59000
H  -17.57900 12.87700 41.40000
H  -17.90800 12.21900 39.77100
H  -13.75000 11.22800 40.88600
H  -12.77500 11.52100 42.23200
H  -12.04700 10.71700 40.79300
H  -8.29500 14.19000 39.08300
H  -5.67200 13.44700 42.20300
H  -5.20500 15.18800 41.80300
H  -4.69800 13.74900 40.88200

