158

Mg 53.50500 23.95300 45.16800
C  50.63600 25.86300 44.49100
C  52.19600 21.28700 43.83500
C  56.71100 22.60300 45.09300
C  54.99500 27.04300 46.09500
N  51.65600 23.68600 44.23900
C  50.62700 24.51400 44.02300
C  49.31400 23.80800 43.75000
C  49.83600 22.27500 43.67900
C  51.33700 22.44000 43.96000
C  49.13900 21.23700 44.66100
C  48.54600 24.23500 42.54200
C  49.35800 24.36400 41.23000
H  48.85600 23.74900 39.99300
N  54.34300 22.14700 44.56500
C  53.59900 21.14100 44.11700
C  54.45900 19.97800 43.90700
C  55.80200 20.33600 44.22300
C  55.69400 21.71700 44.68200
C  53.90700 18.64000 43.28300
C  57.02800 19.47300 44.11400
O  56.92900 18.34700 43.66500
C  58.37900 20.01300 44.47300
N  55.55900 24.75300 45.40700
C  56.61200 23.97400 45.29600
C  57.93900 24.78600 45.58400
C  57.38000 26.16900 45.94400
C  55.84500 26.00400 45.77100
C  58.99800 24.20200 46.62000
C  57.74500 27.37100 45.02500
C  59.23000 27.46100 44.60500
N  52.91500 26.00000 45.45900
C  53.58900 27.06900 45.92300
C  52.74200 28.23700 46.22100
C  51.56600 27.85700 45.58500
C  51.74200 26.47900 45.12200
C  53.17100 29.50500 46.93200
C  50.20500 28.25400 45.22800
O  49.54200 29.30300 45.46100
C  49.59900 26.99800 44.46300
C  49.35400 27.52400 43.12600
O  50.27500 27.79800 42.32400
O  47.99900 27.59400 42.86600
C  47.40700 28.02700 41.54900
H  51.58700 20.39300 43.68400
H  57.69400 22.13300 45.16600
H  55.37400 28.04800 46.29400
H  48.81900 23.93700 44.71300
H  49.77500 21.92100 42.64900
H  48.44800 21.80000 45.28800
H  49.81300 20.62800 45.26300
H  48.59500 20.57600 43.98500
H  48.01300 25.16700 42.72800
H  47.66200 23.60200 42.45700
H  50.33000 23.91900 41.44200
H  49.56200 25.41000 40.99800
H  54.42000 18.39800 42.35200
H  52.83500 18.72400 43.11100
H  54.05500 17.75200 43.89700
H  58.58900 20.82100 43.77300
H  59.04600 19.17400 44.27500
H  58.30300 20.25500 45.53400
H  58.47000 24.81800 44.63300
H  57.53800 26.32900 47.01100
H  59.70400 23.54300 46.11600
H  58.62800 23.60300 47.45300
H  59.62000 24.97300 47.07400
H  57.50900 28.33000 45.48800
H  57.19600 27.18400 44.10200
H  59.87100 26.75500 45.13300
H  59.73200 28.41000 44.79700
H  59.22200 27.17900 43.55300
H  52.29900 30.13000 47.12700
H  53.91600 30.05800 46.36000
H  53.58300 29.28300 47.91600
H  48.64100 26.68800 44.88000
H  46.80500 28.93500 41.54500
H  46.79800 27.23400 41.11300
H  48.23200 28.28700 40.88600
Mg 25.25000 51.00400 26.94800
C  22.94300 51.93800 29.33900
C  27.51500 50.17100 29.45600
C  27.83200 50.57400 24.59400
C  23.21200 52.14500 24.43800
N  25.22900 51.18100 29.10400
C  24.13100 51.46800 29.93000
C  24.42000 51.33300 31.45900
C  25.94100 50.69400 31.37200
C  26.26700 50.70700 29.89500
C  26.98200 51.56500 32.17200
C  23.44000 50.43400 32.33800
C  23.96900 50.03700 33.68300
H  23.37700 50.71800 34.95600
N  27.30000 50.31800 27.00100
C  27.98500 49.95100 28.15200
C  29.27000 49.41200 27.78700
C  29.31100 49.39100 26.40500
C  28.09700 50.11600 25.90500
C  30.29800 48.91300 28.76300
C  30.41500 48.89600 25.50300
O  30.43000 49.12300 24.31800
C  31.63500 48.07100 26.04200
N  25.58000 51.41600 24.84700
C  26.65500 51.11600 24.10100
C  26.47200 51.60300 22.63900
C  24.95300 51.91200 22.61300
C  24.54700 51.79200 24.00400
C  27.31200 52.83800 22.18400
C  24.13000 51.06900 21.72300
C  24.19300 51.42200 20.25300
N  23.50000 51.90800 26.86200
C  22.74800 52.21100 25.76300
C  21.37600 52.49600 26.23100
C  21.46500 52.57200 27.58400
C  22.74600 52.09900 27.93800
C  20.21800 52.94100 25.39200
C  20.70000 52.81100 28.78800
O  19.58800 53.24600 28.96700
C  21.68300 52.50900 29.97100
C  21.92400 53.79100 30.70000
O  22.28400 54.80900 30.16500
O  21.45000 53.64500 31.99200
C  21.44700 54.93900 32.71300
H  28.10100 49.79400 30.29700
H  28.57900 50.44900 23.80700
H  22.49700 52.42000 23.66000
H  24.24800 52.36200 31.77300
H  25.97300 49.69600 31.80900
H  27.89800 51.63400 31.58500
H  27.23900 51.15800 33.15000
H  26.60100 52.57800 32.30200
H  23.31500 49.46600 31.85300
H  22.47400 50.93800 32.35200
H  24.96000 50.46900 33.81800
H  23.99300 48.95300 33.79400
H  30.10900 49.17500 29.80400
H  31.25600 49.39300 28.55900
H  30.35500 47.82500 28.74800
H  31.20200 47.32700 26.71100
H  32.27400 48.75600 26.59800
H  32.22700 47.43200 25.38600
H  26.72500 50.87100 21.87200
H  24.76000 52.93800 22.29900
H  27.76000 53.38900 23.01000
H  26.80100 53.48100 21.46700
H  28.25200 52.57100 21.70200
H  23.05900 51.04300 21.92400
H  24.60400 50.08700 21.72000
H  24.01200 50.47600 19.74200
H  25.05100 52.05400 20.02500
H  23.29200 51.98300 20.00400
H  20.31300 52.60900 24.35800
H  20.19200 54.02500 25.50100
H  19.31600 52.57600 25.88300
H  21.18800 51.84400 30.67900
H  22.13300 55.69800 32.33600
H  21.55700 54.80200 33.78800
H  20.43800 55.33800 32.61200

