158

Mg 44.57700 4.93600 47.60100
C  42.23900 7.38800 46.71600
C  42.03800 2.66400 47.02900
C  46.85100 2.58900 47.22400
C  47.12600 7.43500 47.52000
N  42.38400 5.03900 47.07500
C  41.72500 6.13200 46.73600
C  40.26800 5.86000 46.51600
C  40.15200 4.42300 47.19500
C  41.59700 4.02200 47.12900
C  39.56100 4.43800 48.65700
C  39.78100 5.83700 45.04100
C  38.62700 6.82600 44.75400
H  38.90600 7.86200 43.65200
N  44.40500 2.82700 47.36700
C  43.29200 2.14500 47.12700
C  43.63700 0.69600 47.08500
C  45.07700 0.64700 47.03700
C  45.51700 2.05500 47.23000
C  42.59600 -0.43300 47.16200
C  45.90700 -0.64100 46.85300
O  45.32700 -1.73500 46.76200
C  47.46600 -0.53300 46.66300
N  46.67800 5.04300 47.41000
C  47.36200 3.84100 47.32800
C  48.90000 4.04200 47.43900
C  48.98100 5.59100 47.60400
C  47.53500 6.06400 47.44300
C  49.62800 3.16300 48.56200
C  49.86000 6.35500 46.57900
C  50.42800 7.65600 47.06000
N  44.68300 7.06600 47.48600
C  45.81400 7.94300 47.48800
C  45.31800 9.25000 47.41400
C  43.95300 9.14000 47.03500
C  43.59000 7.79500 47.05300
C  46.21800 10.48100 47.49400
C  42.75200 9.88500 46.70100
O  42.52300 11.02400 46.58200
C  41.65000 8.74700 46.50800
C  40.53900 9.03000 47.52200
O  40.49800 8.82700 48.76200
O  39.51800 9.60000 46.82400
C  38.18300 9.62500 47.47500
H  41.17300 1.99900 47.06100
H  47.60300 1.79800 47.27100
H  47.88500 8.21900 47.46800
H  39.71700 6.66600 47.00100
H  39.48900 3.74700 46.65500
H  39.27400 5.40600 49.06900
H  40.31900 4.08800 49.35900
H  38.71100 3.76000 48.58200
H  39.50200 4.82100 44.76100
H  40.58500 6.15900 44.38000
H  38.33800 7.30500 45.68900
H  37.71500 6.24700 44.60600
H  42.65300 -1.12900 46.32500
H  41.57100 -0.08300 47.28300
H  42.95800 -1.02000 48.00600
H  48.00800 -0.16700 47.53500
H  47.54100 0.23200 45.89000
H  47.83700 -1.49100 46.29800
H  49.33700 3.78400 46.47500
H  49.23200 5.86400 48.62900
H  48.85300 2.59400 49.07600
H  50.22700 3.60500 49.35800
H  50.20100 2.46700 47.95000
H  49.15000 6.60300 45.79000
H  50.50800 5.67800 46.02200
H  50.39600 7.86900 48.12900
H  49.93600 8.45600 46.50700
H  51.48300 7.71500 46.79100
H  46.76800 10.54300 46.55500
H  46.78900 10.26500 48.39700
H  45.60400 11.36300 47.67600
H  41.22700 8.92800 45.52000
H  37.96500 10.39100 48.21900
H  37.87200 8.70900 47.97600
H  37.49700 9.73100 46.63400
Mg 26.53200 50.07100 26.37300
C  24.41700 51.47200 28.72500
C  28.71600 49.13400 28.73300
C  28.58300 48.78200 23.87200
C  24.35900 51.33000 23.88600
N  26.58600 50.28200 28.46800
C  25.54800 50.75400 29.22800
C  25.82300 50.45600 30.81100
C  27.26800 49.86600 30.74300
C  27.52200 49.68800 29.21700
C  28.34500 50.85300 31.31600
C  24.72200 49.69500 31.49200
C  24.22400 50.13400 32.89700
H  25.12800 50.79200 33.98300
N  28.29000 49.06000 26.33400
C  29.11600 48.82300 27.40400
C  30.24800 48.10100 27.03600
C  30.15800 47.87900 25.62100
C  28.89300 48.53700 25.20000
C  31.31800 47.59100 28.01500
C  31.09300 47.01600 24.75900
O  30.82700 46.63500 23.66100
C  32.46800 46.77600 25.28500
N  26.59300 50.22700 24.13500
C  27.43900 49.49600 23.38900
C  27.16200 49.61900 21.89600
C  25.70300 50.29300 21.86500
C  25.51100 50.67000 23.35000
C  28.29700 50.34000 21.13400
C  24.62700 49.37100 21.22000
C  24.12500 48.15300 21.96500
N  24.69700 51.15000 26.26900
C  23.96000 51.57600 25.22900
C  22.80800 52.29900 25.71700
C  22.97400 52.32700 27.07000
C  24.14500 51.61100 27.38200
C  21.80900 53.03300 24.90500
C  22.36800 52.79800 28.29800
O  21.43300 53.54000 28.55400
C  23.29000 52.23900 29.42300
C  23.68600 53.42000 30.24600
O  24.21200 54.46600 29.87500
O  23.06600 53.36600 31.45400
C  23.19600 54.45200 32.46600
H  29.23500 48.80200 29.63500
H  29.31300 48.35500 23.18100
H  23.55700 51.50500 23.16600
H  25.77100 51.40300 31.34800
H  27.32700 48.88400 31.21200
H  29.15300 50.92700 30.58900
H  28.65400 50.28700 32.19500
H  28.00300 51.85100 31.59000
H  25.03500 48.65600 31.60000
H  23.91100 49.61800 30.76800
H  24.09100 49.16500 33.37800
H  23.31400 50.70500 32.71400
H  31.49400 46.53000 27.84000
H  30.84200 47.75500 28.98200
H  32.23100 48.18000 27.92500
H  32.84300 47.65900 25.80200
H  33.22900 46.57200 24.53100
H  32.54300 45.92800 25.96700
H  27.17600 48.62000 21.46000
H  25.64200 51.25000 21.34800
H  28.17500 51.40800 20.95300
H  28.57700 49.81400 20.22200
H  29.25800 50.33800 21.64900
H  25.07800 49.17800 20.24600
H  23.69400 49.84500 20.91500
H  23.08500 48.39400 22.18600
H  24.77500 48.19900 22.83900
H  24.27400 47.25400 21.36700
H  21.85600 54.07700 25.21600
H  20.80600 52.62000 25.01300
H  22.16700 52.98900 23.87700
H  22.75100 51.50000 30.01800
H  23.70000 55.31500 32.02900
H  23.78100 54.11800 33.32200
H  22.19900 54.75900 32.78200

