158

Mg 26.16800 -0.76700 29.43100
C  28.14500 -1.14700 32.43400
C  23.53600 -0.37200 31.44700
C  24.44800 -0.24400 26.57900
C  29.02100 -1.66500 27.50800
N  25.89800 -0.92000 31.71800
C  26.86400 -0.82100 32.72800
C  26.22000 -0.64900 34.16300
C  24.64300 -0.72900 33.82600
C  24.68000 -0.66300 32.25400
C  23.91100 -1.96600 34.36000
C  26.80100 0.57600 34.95100
C  27.37200 0.38200 36.30100
H  26.48900 -0.30400 37.35000
N  24.27900 -0.30900 29.05600
C  23.26300 -0.25900 29.99900
C  22.02900 -0.06200 29.35200
C  22.25000 0.06400 27.99700
C  23.71100 -0.12600 27.82200
C  20.64300 0.00500 30.07400
C  21.27800 0.09200 26.79600
O  21.59600 0.23000 25.61100
C  19.78600 0.10600 26.98900
N  26.63800 -1.07800 27.27000
C  25.80100 -0.65300 26.31200
C  26.44400 -0.60500 24.90500
C  27.87200 -1.17200 25.20200
C  27.85300 -1.42700 26.73800
C  25.63600 -1.30200 23.82300
C  28.98800 -0.14200 24.71900
C  30.31600 -0.89600 24.49900
N  28.16400 -1.24400 29.83300
C  29.20000 -1.64600 28.93000
C  30.43000 -1.69000 29.73300
C  30.05600 -1.57200 31.05900
C  28.66400 -1.35500 31.09100
C  31.81200 -1.99200 29.18900
C  30.55200 -1.58800 32.43600
O  31.71300 -1.85300 32.83000
C  29.39700 -1.32200 33.32400
C  29.28100 -2.50900 34.18800
O  28.54900 -3.45400 33.87400
O  30.04100 -2.39300 35.33700
C  29.76400 -3.43800 36.36100
H  22.59100 -0.27200 31.98400
H  23.96500 0.05100 25.64500
H  29.94300 -1.80900 26.94200
H  26.56300 -1.53900 34.69000
H  24.18600 0.21800 34.11200
H  23.46000 -2.59300 33.59100
H  23.16700 -1.55600 35.04200
H  24.61200 -2.57000 34.93700
H  25.90700 1.19900 34.97500
H  27.48900 1.11800 34.30100
H  27.42900 1.34400 36.80900
H  28.29300 -0.20000 36.33100
H  20.22200 0.99300 29.88700
H  20.74300 -0.18400 31.14300
H  20.02400 -0.78200 29.64200
H  19.63900 1.04100 27.52900
H  19.41100 -0.77200 27.51400
H  19.29100 0.20500 26.02400
H  26.57000 0.41800 24.55000
H  28.04800 -2.10100 24.66100
H  26.13100 -2.22000 23.50500
H  25.50200 -0.61000 22.99100
H  24.63500 -1.54000 24.18200
H  29.19800 0.60500 25.48400
H  28.62900 0.35700 23.81900
H  30.91500 -0.67500 25.38200
H  30.70800 -0.71900 23.49800
H  30.28100 -1.98400 24.43900
H  31.98800 -1.40600 28.28600
H  31.87100 -3.01700 28.82500
H  32.52100 -1.82300 29.99900
H  29.57400 -0.43600 33.93400
H  29.60300 -4.45100 35.99000
H  28.94500 -3.21600 37.04500
H  30.58200 -3.36800 37.07800
Mg -2.15400 34.85100 26.95100
C  -3.13100 33.36400 29.76300
C  -0.32000 37.25700 28.88300
C  -1.76100 36.64200 24.13700
C  -4.12800 32.63900 25.16800
N  -1.71600 35.19900 29.04100
C  -2.24100 34.38700 29.99500
C  -1.75100 34.85000 31.44200
C  -0.87900 36.14600 31.12500
C  -0.99900 36.22800 29.62600
C  -1.42100 37.34300 31.96000
C  -0.98300 33.67600 32.08400
C  -1.40300 33.26800 33.53200
H  -0.35100 33.20800 34.60500
N  -1.05300 36.67700 26.57100
C  -0.42000 37.52900 27.48800
C  -0.07800 38.73300 26.82200
C  -0.53500 38.62000 25.43200
C  -1.10500 37.31400 25.29900
C  0.58600 39.92700 27.47700
C  -0.41200 39.64500 24.29900
O  -0.59600 39.35800 23.11400
C  -0.08800 41.06900 24.58800
N  -2.83900 34.71600 24.92000
C  -2.58700 35.60100 23.99800
C  -3.27400 35.30500 22.59500
C  -3.87100 33.82900 22.82300
C  -3.60700 33.69100 24.40500
C  -4.41300 36.35700 22.45800
C  -3.12200 32.77700 21.87900
C  -1.72400 32.23500 22.41400
N  -3.35600 33.29400 27.32500
C  -4.09900 32.47100 26.53700
C  -4.72100 31.43700 27.33900
C  -4.44300 31.83700 28.63100
C  -3.59900 32.94700 28.55500
C  -5.61400 30.33600 27.00100
C  -4.63800 31.46300 30.00000
O  -5.27600 30.54000 30.51200
C  -3.85200 32.56000 30.82400
C  -4.96500 33.29500 31.52900
O  -5.73600 34.03900 31.02900
O  -4.84400 33.00700 32.90600
C  -5.93100 33.48100 33.75300
H  0.30100 37.99900 29.38900
H  -1.73600 37.22600 23.21400
H  -4.60100 31.92900 24.48700
H  -2.66400 35.12400 31.97000
H  0.17200 36.01900 31.38300
H  -2.45100 37.63700 31.75700
H  -0.81100 38.22900 31.78500
H  -1.36000 37.13800 33.02900
H  0.06500 33.97600 32.12000
H  -1.02300 32.78100 31.46300
H  -1.88100 32.28900 33.49500
H  -2.17600 33.95900 33.87000
H  1.29200 39.71100 28.27800
H  -0.12600 40.63400 27.90300
H  1.24900 40.33400 26.71400
H  -0.51700 41.54500 23.70700
H  0.97400 41.31400 24.62400
H  -0.67300 41.38600 25.45100
H  -2.60500 35.36100 21.73700
H  -4.92500 33.69900 22.57600
H  -4.54500 36.94600 23.36500
H  -5.36800 35.85100 22.32300
H  -4.12300 37.01500 21.63800
H  -2.97200 33.24300 20.90500
H  -3.76200 31.90500 21.74800
H  -0.94700 32.49100 21.69400
H  -1.88000 31.16400 22.54800
H  -1.48600 32.62200 23.40400
H  -5.67100 30.13800 25.93100
H  -6.57600 30.60600 27.43700
H  -5.17200 29.56200 27.62900
H  -3.07300 32.13200 31.45600
H  -6.18400 32.71900 34.49100
H  -6.80400 33.86000 33.22200
H  -5.53100 34.37700 34.22700

