158

Mg -2.33500 17.42800 27.08800
C  -2.45800 15.27300 29.84300
C  -2.82100 20.07800 29.14300
C  -2.45900 19.43500 24.31600
C  -2.26200 14.73300 24.91400
N  -2.74600 17.65900 29.30700
C  -2.50700 16.63100 30.23400
C  -2.51500 17.17200 31.72700
C  -2.89500 18.65900 31.40100
C  -2.81800 18.79500 29.87900
C  -4.07800 19.36100 32.11200
C  -1.16200 16.98200 32.53700
C  -0.99300 17.80100 33.82800
H  -0.89700 17.08600 35.18500
N  -2.43400 19.44400 26.81500
C  -2.64500 20.42000 27.79800
C  -2.60100 21.73300 27.26100
C  -2.43200 21.54100 25.81600
C  -2.38300 20.08900 25.60100
C  -2.65500 22.93000 28.07800
C  -2.33200 22.64900 24.79400
O  -2.04100 22.40500 23.62700
C  -2.31500 24.18200 25.21500
N  -2.53700 17.10500 24.97000
C  -2.49000 18.11300 24.03800
C  -2.55300 17.51500 22.62500
C  -2.09900 16.02900 22.79900
C  -2.43900 15.94500 24.28600
C  -4.00200 17.68300 21.98700
C  -0.61200 15.87200 22.34700
C  0.51500 15.32400 23.30900
N  -2.52500 15.36200 27.25200
C  -2.40800 14.36500 26.27900
C  -2.42300 13.07700 26.91800
C  -2.54800 13.37200 28.32700
C  -2.48500 14.74000 28.44400
C  -2.45100 11.88200 26.28900
C  -2.63600 12.81600 29.59800
O  -2.68700 11.64200 30.00800
C  -2.66900 14.00300 30.69200
C  -1.73300 13.65100 31.74200
O  -0.50400 13.70300 31.69500
O  -2.45800 13.19500 32.87000
C  -1.62800 12.33300 33.75800
H  -2.83600 20.86400 29.90100
H  -2.52000 20.09300 23.44700
H  -2.01800 13.91300 24.23600
H  -3.39000 16.74200 32.21400
H  -2.00800 19.22400 31.68800
H  -3.70300 20.19700 32.70300
H  -4.61400 18.62200 32.70800
H  -4.86100 19.66100 31.41400
H  -0.41400 17.38600 31.85500
H  -0.91300 15.96700 32.84700
H  -1.92000 18.36800 33.91300
H  -0.19200 18.52400 33.66900
H  -2.04300 23.76700 27.74000
H  -2.21600 22.71400 29.05200
H  -3.67600 23.30900 28.12400
H  -3.18300 24.39200 25.84000
H  -2.26300 24.72700 24.27300
H  -1.35400 24.29000 25.71900
H  -1.77300 18.00200 22.04000
H  -2.71700 15.32900 22.23600
H  -4.65600 18.25500 22.64500
H  -4.39800 16.74000 21.61200
H  -3.79800 18.22800 21.06500
H  -0.20000 16.78100 21.90900
H  -0.70700 15.10000 21.58400
H  0.07000 15.24700 24.30100
H  1.34900 16.02500 23.33400
H  0.92000 14.35900 23.00600
H  -2.25100 11.05600 26.97300
H  -1.70600 11.67700 25.52100
H  -3.36900 11.78800 25.70900
H  -3.65400 14.02000 31.16000
H  -1.11100 12.99800 34.44900
H  -0.91000 11.69600 33.24200
H  -2.34200 11.74400 34.33400
Mg 49.09400 45.47100 42.33600
C  45.63400 45.86600 41.69800
C  48.84600 42.33900 41.06200
C  52.37600 45.45200 42.14400
C  49.24100 48.94800 43.15100
N  47.41300 44.24300 41.54000
C  46.10000 44.59900 41.32300
C  45.41100 43.59400 40.42200
C  46.29500 42.29600 40.59100
C  47.59600 42.98200 41.10900
C  45.73300 41.26000 41.58100
C  45.27400 44.00100 38.87600
C  43.98200 43.57900 38.04000
H  44.12900 42.78900 36.69300
N  50.41300 44.05500 41.91000
C  50.10600 42.78800 41.42400
C  51.32600 41.97700 41.31000
C  52.40600 42.86600 41.52500
C  51.73500 44.18200 41.94100
C  51.32900 40.48200 40.85800
C  53.81900 42.52600 41.33100
O  54.14700 41.49900 40.67400
C  54.91000 43.44400 41.80000
N  50.67400 47.02800 42.57700
C  51.92300 46.78900 42.27700
C  52.82700 48.07400 42.42900
C  51.78100 49.05500 43.01300
C  50.48800 48.35400 42.91300
C  54.06700 48.02100 43.31300
C  51.88500 50.51800 42.32000
C  51.41900 51.74500 43.14300
N  47.74300 47.09600 42.42700
C  47.94100 48.37300 42.93100
C  46.71400 49.03900 42.98600
C  45.76200 48.10400 42.53600
C  46.43300 46.91500 42.20900
C  46.60400 50.50300 43.31100
C  44.36000 47.94100 42.16500
O  43.46800 48.71400 42.19800
C  44.29300 46.49500 41.51700
C  43.10300 45.79200 42.09500
O  42.46000 44.91100 41.51900
O  43.01700 46.15700 43.38300
C  41.89900 45.48800 44.14700
H  48.81900 41.34700 40.60800
H  53.44700 45.51300 41.93700
H  49.24700 49.96400 43.55100
H  44.42200 43.29100 40.76600
H  46.41700 41.80100 39.62800
H  45.52300 40.33700 41.04200
H  44.78500 41.59900 41.99900
H  46.39700 41.02600 42.41400
H  46.01500 43.45200 38.29600
H  45.46200 45.04800 38.63900
H  43.56000 44.54900 37.77500
H  43.25500 43.05000 38.65700
H  51.54100 40.25700 39.81300
H  50.34300 40.02600 40.94600
H  52.00000 39.87200 41.46400
H  55.22500 44.22600 41.10800
H  55.79500 42.83400 41.97800
H  54.45100 43.79300 42.72500
H  53.19700 48.28800 41.42600
H  51.86900 49.27300 44.07700
H  54.08800 47.07400 43.85300
H  53.85200 48.73400 44.10900
H  55.00300 48.19600 42.78300
H  51.16600 50.50300 41.50100
H  52.84100 50.79200 41.87400
H  52.07800 52.56400 42.85700
H  51.39000 51.47700 44.19900
H  50.37900 52.02000 42.96400
H  47.37300 50.71500 44.05400
H  45.62500 50.83800 43.65400
H  46.88100 51.25400 42.57100
H  44.05700 46.60600 40.45900
H  42.03700 45.47600 45.22800
H  41.67700 44.48200 43.78900
H  41.05300 46.13000 43.90500

