158

Mg 24.31300 -5.04000 46.45400
C  26.44400 -2.58000 45.24700
C  21.86300 -3.91500 44.27000
C  22.61300 -8.00700 46.88800
C  26.86900 -6.32900 48.45600
N  24.20800 -3.45700 44.85700
C  25.19400 -2.55100 44.55000
C  24.78200 -1.82800 43.26400
C  23.20200 -2.02100 43.12500
C  23.04000 -3.12800 44.23900
C  22.47300 -0.70800 43.49200
C  25.58400 -2.42700 42.04200
C  26.14100 -1.32300 41.15000
H  25.38400 -1.06800 39.87400
N  22.41300 -5.79100 45.81100
C  21.61000 -5.17900 44.91900
C  20.37300 -5.93100 44.78000
C  20.55500 -7.07700 45.52000
C  21.90900 -7.03400 46.03700
C  19.25200 -5.34800 43.98100
C  19.46300 -8.17000 45.82400
O  18.33300 -8.00600 45.34200
C  19.77300 -9.40600 46.62000
N  24.63300 -6.84500 47.62200
C  23.74600 -7.92700 47.66100
C  24.37400 -9.13000 48.42700
C  25.72700 -8.51300 48.93500
C  25.74200 -7.12400 48.35200
C  23.35000 -9.61700 49.47600
C  26.90800 -9.46100 48.35100
C  28.14100 -9.62000 49.24000
N  26.21900 -4.59800 46.87900
C  27.16800 -5.16600 47.72400
C  28.33500 -4.31600 47.73600
C  28.11800 -3.32900 46.77100
C  26.84000 -3.53100 46.25000
C  29.60700 -4.70600 48.45800
C  28.72900 -2.23900 46.08000
O  29.84800 -1.77700 46.34100
C  27.69100 -1.84100 44.94400
C  27.48600 -0.34700 45.05800
O  26.65900 0.19100 45.78100
O  28.23400 0.30100 44.15600
C  28.11800 1.80200 44.11400
H  20.98500 -3.52300 43.75200
H  22.19200 -8.98700 47.12400
H  27.63600 -6.54600 49.20300
H  25.05900 -0.77400 43.30200
H  22.91100 -2.33000 42.12100
H  21.48600 -0.96400 43.87500
H  22.28200 -0.10000 42.60700
H  23.00400 -0.05300 44.18300
H  24.91000 -2.97100 41.38000
H  26.32400 -3.12900 42.42600
H  27.14200 -1.65400 40.87400
H  26.41600 -0.45700 41.75200
H  19.60000 -4.88200 43.06000
H  18.53100 -4.73900 44.52700
H  18.68800 -6.14200 43.49100
H  19.83900 -9.00800 47.63200
H  20.72500 -9.87900 46.38100
H  19.00500 -10.16900 46.49500
H  24.43700 -9.92500 47.68400
H  25.93400 -8.40100 50.00000
H  22.50600 -8.95300 49.66200
H  23.88300 -9.68200 50.42500
H  22.98700 -10.56900 49.08800
H  27.20200 -9.02400 47.39700
H  26.50600 -10.40400 47.98100
H  28.01000 -9.03900 50.15300
H  29.00000 -9.30100 48.65100
H  28.24400 -10.68800 49.43500
H  30.29500 -5.24300 47.80500
H  29.46000 -5.36700 49.31200
H  30.19400 -3.87600 48.85000
H  28.05900 -2.12200 43.95700
H  27.12600 1.94500 43.68500
H  28.90000 2.29400 43.53500
H  28.13900 2.23200 45.11500
Mg 35.61200 48.57300 26.15400
C  36.02700 46.54500 28.95200
C  34.89500 51.19600 28.17400
C  34.77200 50.24400 23.36500
C  36.60200 45.84100 24.16400
N  35.55300 48.82600 28.37200
C  35.70500 47.88200 29.32500
C  35.46500 48.41300 30.69700
C  34.94400 49.82300 30.42000
C  35.12400 49.99700 28.90500
C  33.42800 50.12600 30.77200
C  36.86100 48.41300 31.43700
C  36.83200 47.82400 32.80400
H  36.80600 48.84300 33.88100
N  35.01500 50.41700 25.81800
C  34.89900 51.40300 26.77000
C  34.66900 52.67400 26.11300
C  34.57100 52.40100 24.66000
C  34.70500 50.97500 24.60700
C  34.41700 53.90200 26.92200
C  34.33900 53.44400 23.48400
O  34.27200 53.17300 22.32500
C  34.12500 54.87200 23.92000
N  35.37400 48.02600 24.02300
C  35.21600 49.00600 23.08400
C  35.24500 48.37400 21.67500
C  35.99000 47.05900 21.96700
C  35.99900 46.95300 23.47000
C  33.92700 48.20800 20.99400
C  37.46200 46.97100 21.47700
C  38.66000 47.60500 22.31200
N  36.02200 46.62200 26.45500
C  36.53100 45.65800 25.57600
C  36.92300 44.46900 26.35400
C  36.62000 44.75500 27.65900
C  36.22300 46.13600 27.62500
C  37.49400 43.14400 25.96100
C  36.66300 44.22100 28.94800
O  36.91000 43.12000 29.35200
C  36.22500 45.41200 29.86700
C  34.99400 44.93600 30.51800
O  33.93000 44.85800 29.93800
O  35.36700 44.46500 31.74300
C  34.27000 43.91100 32.57100
H  34.66000 52.01200 28.86000
H  34.55000 50.79900 22.45000
H  37.06500 45.08100 23.53100
H  34.68200 47.75600 31.07400
H  35.58400 50.58500 30.86500
H  32.98700 49.34300 31.38900
H  32.77600 50.17100 29.89900
H  33.26600 50.95500 31.46100
H  37.36700 49.37800 31.45800
H  37.47500 47.77300 30.80400
H  37.65300 47.11600 32.91200
H  35.94000 47.21900 32.96800
H  34.94300 53.86100 27.87700
H  33.34400 54.06100 27.02800
H  34.87000 54.77500 26.45200
H  33.46100 55.14000 23.09900
H  35.01200 55.50500 23.93200
H  33.63000 54.92300 24.89000
H  35.94800 48.96600 21.09000
H  35.54300 46.14700 21.57100
H  33.72800 49.03600 20.31400
H  33.10500 48.20000 21.71000
H  33.81700 47.39800 20.27400
H  37.47100 47.62700 20.60600
H  37.81600 45.98500 21.18000
H  39.01700 48.41700 21.68000
H  39.39800 46.80500 22.35800
H  38.51500 47.96300 23.33200
H  38.30600 42.89300 26.64300
H  37.79200 43.10300 24.91300
H  36.77200 42.34300 26.11600
H  37.07700 45.52700 30.53700
H  34.07800 42.87800 32.27900
H  33.37700 44.53600 32.58900
H  34.70800 43.88800 33.56800

