158

Mg 50.64700 45.10700 42.51900
C  47.34300 45.71800 41.33400
C  50.17300 41.84500 41.32200
C  53.76800 44.73500 42.88700
C  50.79300 48.53200 43.16100
N  48.92300 43.95200 41.44900
C  47.65200 44.40000 41.15100
C  46.81900 43.28100 40.47000
C  47.57200 41.99100 41.01100
C  49.03000 42.61100 41.23100
C  47.08300 41.26400 42.31100
C  46.59600 43.45300 38.95400
C  45.17100 43.31700 38.48000
H  44.84700 42.33700 37.33400
N  51.81900 43.45500 42.25600
C  51.44900 42.19300 41.82800
C  52.60400 41.36300 41.84700
C  53.66300 42.13400 42.39600
C  53.13600 43.52600 42.52700
C  52.53100 39.90500 41.45700
C  55.01900 41.62500 42.69700
O  55.21600 40.41800 42.72800
C  56.25500 42.52400 43.04800
N  52.07800 46.47500 42.78400
C  53.38200 46.04000 43.04800
C  54.26100 47.23800 43.38200
C  53.30900 48.39100 43.65100
C  51.92300 47.73200 43.24900
C  55.19600 46.93300 44.59800
C  53.48400 49.73600 42.90200
C  53.26700 51.06100 43.71600
N  49.40100 46.79200 42.32200
C  49.61100 48.12300 42.66900
C  48.46400 48.92800 42.37100
C  47.52800 48.01900 41.83100
C  48.13400 46.72300 41.84300
C  48.17900 50.43800 42.68600
C  46.20200 47.87600 41.37200
O  45.27800 48.70700 41.25600
C  46.07700 46.41800 40.95600
C  44.88700 45.88200 41.71600
O  44.96300 45.28500 42.78600
O  43.69800 46.13000 41.13400
C  42.55900 45.34700 41.62500
H  49.87300 40.83100 41.04900
H  54.85800 44.72700 42.95800
H  50.75200 49.60200 43.37200
H  45.87000 43.38800 40.99600
H  47.69600 41.23900 40.23200
H  47.81500 41.35600 43.11300
H  46.96900 40.18600 42.19800
H  46.05600 41.60900 42.43000
H  47.15300 42.57900 38.61600
H  47.03500 44.37500 38.57500
H  44.85500 44.30800 38.15400
H  44.61500 43.06800 39.38400
H  53.32300 39.54500 40.80100
H  51.63700 39.57100 40.93000
H  52.44100 39.42100 42.43000
H  56.20900 42.99400 44.03100
H  56.32900 43.23800 42.22800
H  57.11700 41.85600 43.07800
H  54.86100 47.30600 42.47400
H  53.29200 48.57400 44.72500
H  55.01600 46.04100 45.19800
H  55.13900 47.83800 45.20300
H  56.24000 46.87100 44.29000
H  52.74900 49.68900 42.09800
H  54.51300 49.65900 42.55100
H  52.98300 50.82000 44.74000
H  52.40800 51.64000 43.37900
H  54.12200 51.73300 43.78900
H  47.16400 50.56300 43.06100
H  48.27100 50.99300 41.75300
H  48.86500 50.86100 43.42000
H  45.93300 46.31400 39.88000
H  41.72800 45.32400 40.92100
H  42.12400 45.65300 42.57700
H  42.97200 44.35200 41.79500
Mg -10.03800 39.68200 39.89200
C  -9.09600 36.33500 39.18200
C  -6.95500 40.70100 38.79700
C  -11.30200 42.92500 39.61300
C  -13.16400 38.59900 40.74100
N  -8.30900 38.57100 38.85900
C  -8.07100 37.24800 38.76300
C  -6.66800 36.95700 38.24900
C  -5.91900 38.34000 38.52300
C  -7.13500 39.23500 38.76300
C  -5.08300 38.30800 39.86400
C  -6.52900 36.38700 36.78200
C  -6.64100 37.28700 35.57500
H  -7.82400 37.16000 34.62900
N  -9.27000 41.50500 39.28500
C  -7.92900 41.71300 38.96200
C  -7.69300 43.12500 38.92900
C  -8.90400 43.77600 39.06900
C  -9.91700 42.73000 39.31900
C  -6.32400 43.77100 38.74400
C  -9.06100 45.34000 38.94200
O  -8.20300 46.10000 38.58000
C  -10.36900 45.95700 39.39600
N  -11.92300 40.66500 40.01900
C  -12.25600 41.98100 39.87600
C  -13.71700 42.39000 40.14400
C  -14.28700 40.95900 40.53500
C  -13.02800 39.98800 40.44600
C  -13.89200 43.52000 41.22500
C  -15.54300 40.61600 39.67400
C  -16.88300 40.84500 40.21600
N  -10.97200 37.82900 40.11100
C  -12.29500 37.56000 40.45700
C  -12.49900 36.13600 40.37400
C  -11.25800 35.62900 39.90100
C  -10.42900 36.68400 39.65400
C  -13.70300 35.33800 40.68300
C  -10.54600 34.39300 39.57100
O  -11.03900 33.26800 39.55300
C  -9.13600 34.76800 39.06000
C  -8.09000 34.04800 39.81800
O  -7.98300 33.99800 41.03100
O  -7.15600 33.61900 38.97600
C  -5.83700 33.10000 39.41300
H  -5.90400 40.96800 38.67300
H  -11.68300 43.93700 39.45900
H  -14.16900 38.32200 41.06500
H  -6.40800 36.14200 38.92400
H  -5.27300 38.75600 37.75100
H  -5.11300 37.32300 40.33000
H  -5.27300 39.04000 40.64900
H  -4.02600 38.56800 39.79400
H  -7.33500 35.65300 36.77400
H  -5.62600 35.77600 36.77100
H  -5.68600 37.15200 35.06800
H  -6.61700 38.30300 35.97100
H  -6.29200 44.20400 37.74400
H  -5.51000 43.05100 38.83100
H  -6.14600 44.59200 39.43900
H  -10.58700 45.71700 40.43700
H  -11.21400 45.82900 38.72000
H  -10.26300 47.04200 39.40900
H  -14.07600 42.78800 39.19500
H  -14.56100 40.96000 41.59000
H  -12.85300 43.69200 41.50500
H  -14.45200 43.21900 42.11000
H  -14.26300 44.42600 40.74500
H  -15.35600 39.64300 39.22000
H  -15.56700 41.34400 38.86400
H  -17.55100 39.98600 40.15900
H  -17.40400 41.69000 39.76500
H  -16.84200 41.01800 41.29100
H  -14.46400 35.34300 39.90200
H  -14.01700 35.74900 41.64200
H  -13.33700 34.31400 40.61700
H  -9.07100 34.49700 38.00600
H  -5.78800 33.18000 40.49900
H  -4.99000 33.54600 38.89300
H  -5.72600 32.04900 39.14400

