158

Mg 16.87400 -1.33700 28.12600
C  15.62700 0.38700 30.83400
C  18.61100 -3.34000 30.25900
C  18.53100 -2.59100 25.63100
C  15.41800 1.01500 25.99300
N  17.19400 -1.31400 30.39200
C  16.45500 -0.61100 31.27900
C  16.85300 -0.99900 32.73100
C  18.02900 -2.03400 32.52200
C  17.96500 -2.29700 30.95500
C  19.42100 -1.46500 32.95500
C  15.59000 -1.44400 33.53400
C  15.26300 -0.58300 34.80400
H  16.44000 -0.63400 35.84200
N  18.05700 -2.96300 27.96100
C  18.68000 -3.69300 28.91900
C  19.39000 -4.82800 28.35200
C  19.38400 -4.66700 26.95100
C  18.57400 -3.40200 26.75100
C  20.11800 -5.87100 29.08700
C  19.98400 -5.55500 25.94700
O  19.80400 -5.28200 24.79700
C  20.90400 -6.74900 26.32800
N  16.94900 -0.84400 26.13000
C  17.87300 -1.44200 25.35000
C  17.99800 -0.77300 23.92500
C  16.79800 0.28500 23.99300
C  16.37400 0.18100 25.44400
C  19.39700 -0.30300 23.42200
C  15.67600 0.07900 23.06300
C  15.35000 1.20200 22.00800
N  15.75800 0.39200 28.35700
C  15.19400 1.22900 27.38000
C  14.43100 2.23500 28.06000
C  14.57300 1.93800 29.42800
C  15.36400 0.84000 29.56100
C  13.56500 3.19600 27.44800
C  14.21100 2.40500 30.72800
O  13.45900 3.33300 31.06900
C  14.99500 1.48500 31.68000
C  16.06500 2.26000 32.41100
O  17.10300 2.71100 31.93200
O  15.57100 2.69300 33.62400
C  16.11500 3.88200 34.28000
H  19.16000 -4.05800 30.87000
H  19.12700 -2.91000 24.77300
H  14.94700 1.66300 25.25000
H  17.26900 -0.08800 33.16100
H  17.81800 -2.98000 33.02000
H  19.32200 -0.52400 33.49500
H  20.17100 -1.38400 32.16800
H  19.79300 -2.17800 33.69100
H  15.68500 -2.50800 33.75100
H  14.70000 -1.29100 32.92400
H  14.29700 -0.87800 35.21500
H  15.18900 0.47600 34.56000
H  19.70700 -6.86100 28.89000
H  20.06300 -5.67000 30.15600
H  21.16600 -5.67600 28.85700
H  20.46600 -7.56300 26.90700
H  21.86400 -6.46600 26.76100
H  21.07500 -7.21000 25.35600
H  17.59100 -1.47800 23.19900
H  17.14500 1.31600 23.91500
H  19.47600 0.77900 23.31500
H  19.49000 -0.62300 22.38400
H  20.10800 -0.76500 24.10700
H  14.70800 -0.10000 23.53200
H  15.80800 -0.81000 22.44800
H  15.64200 2.22000 22.26700
H  14.27900 1.18100 21.80800
H  15.73800 0.91600 21.03000
H  14.05800 3.84300 26.72200
H  13.11900 3.94200 28.10600
H  12.73100 2.61000 27.06200
H  14.34500 1.06000 32.44500
H  15.94900 3.78300 35.35200
H  15.60500 4.73000 33.82300
H  17.19000 3.96000 34.11800
Mg 47.98900 16.45900 28.69200
C  45.74600 15.90600 31.34400
C  50.26900 17.77000 30.85300
C  49.95000 16.99800 26.06400
C  45.48400 15.16500 26.44100
N  47.92400 16.88500 30.78400
C  47.02000 16.40800 31.74400
C  47.41500 16.86700 33.14900
C  48.74700 17.75200 32.94100
C  49.05600 17.42300 31.46300
C  48.64900 19.30200 33.16200
C  47.61800 15.68600 34.18400
C  47.30500 15.74500 35.61200
H  47.24200 17.08000 36.31300
N  49.83200 17.37300 28.49000
C  50.69500 17.76600 29.53000
C  51.98100 18.08400 28.91000
C  51.88800 17.87600 27.49400
C  50.50900 17.48000 27.27000
C  53.09500 18.54700 29.75600
C  52.94600 18.16700 26.34900
O  52.65900 18.12400 25.17300
C  54.25000 18.50700 26.72400
N  47.75900 16.16300 26.56300
C  48.73900 16.46700 25.65600
C  48.33600 16.27800 24.24900
C  46.97500 15.46300 24.37800
C  46.70400 15.62400 25.87700
C  48.22800 17.55800 23.40000
C  47.13300 13.89100 24.01700
C  45.97800 13.43900 23.07900
N  45.99600 15.81000 28.78800
C  45.11300 15.31900 27.83800
C  43.83900 14.93700 28.44800
C  44.03300 15.11700 29.82700
C  45.36400 15.65300 29.98800
C  42.71800 14.25500 27.78200
C  43.46200 14.95200 31.17300
O  42.33200 14.58300 31.55700
C  44.53400 15.52000 32.16600
C  43.95900 16.73900 32.82100
O  43.63700 17.75800 32.22900
O  43.83900 16.53100 34.18300
C  43.33100 17.69900 34.93900
H  51.00400 17.95100 31.64000
H  50.70900 16.98300 25.27900
H  44.83500 14.59000 25.77800
H  46.67200 17.53000 33.59200
H  49.51900 17.41000 33.63200
H  47.59500 19.51400 33.34200
H  49.01200 19.76800 32.24600
H  49.29800 19.69100 33.94600
H  48.66500 15.49100 33.95200
H  47.19500 14.79100 33.72600
H  48.02400 15.08000 36.09000
H  46.33300 15.28500 35.78500
H  53.65600 19.28100 29.17800
H  53.73100 17.81200 30.25000
H  52.71800 19.20700 30.53700
H  54.61400 17.76800 27.43800
H  54.34600 19.53800 27.06400
H  54.93900 18.33200 25.89700
H  49.17200 15.66300 23.91700
H  46.20500 15.92800 23.76300
H  47.66100 17.34500 22.49300
H  49.23500 17.81000 23.06900
H  47.75400 18.35800 23.96900
H  46.95800 13.31400 24.92500
H  48.13300 13.64500 23.66100
H  46.39800 13.46000 22.07300
H  45.13300 14.12400 23.02100
H  45.70800 12.39400 23.23200
H  43.07800 13.35800 27.27900
H  42.10000 14.87300 27.13000
H  42.04100 13.83500 28.52600
H  44.73400 14.77600 32.93700
H  43.86300 17.67800 35.89000
H  42.25800 17.56200 35.07200
H  43.43900 18.60700 34.34600

