158

Mg 25.08600 -7.25900 46.79300
C  27.53300 -4.93600 46.09700
C  22.88500 -5.63700 44.68500
C  23.01000 -9.87900 47.25400
C  27.48900 -9.01800 48.76100
N  25.21100 -5.38400 45.71400
C  26.27900 -4.66600 45.45200
C  25.98100 -3.38400 44.64500
C  24.37500 -3.44500 44.59900
C  24.10100 -4.90000 45.00400
C  23.71700 -2.44600 45.58200
C  26.61800 -3.36500 43.24500
C  27.12300 -2.08500 42.66500
H  26.63600 -1.64600 41.24700
N  23.27000 -7.72800 46.02000
C  22.46000 -6.94500 45.13500
C  21.34600 -7.73900 44.80300
C  21.25500 -8.82900 45.62900
C  22.50400 -8.89600 46.35900
C  20.38700 -7.11900 43.84900
C  20.07100 -9.84400 45.77100
O  19.07400 -9.66400 45.10300
C  19.91200 -11.09000 46.67100
N  25.23600 -9.26100 47.73300
C  24.23400 -10.02500 47.86700
C  24.51800 -11.18900 48.88700
C  25.92000 -10.82600 49.38400
C  26.29200 -9.63100 48.55700
C  23.47300 -11.43200 50.03100
C  26.89400 -12.10400 49.38800
C  27.82300 -12.29200 48.11700
N  27.08300 -7.06900 47.38900
C  27.96200 -7.83500 48.15600
C  29.28500 -7.25700 48.16300
C  29.16600 -6.12700 47.34100
C  27.77400 -6.06600 46.95600
C  30.56500 -7.78400 48.81700
C  29.91300 -5.00600 46.80100
O  31.07300 -4.68200 46.97800
C  28.89400 -4.20000 45.97500
C  28.92500 -2.73100 46.36100
O  29.04400 -2.30100 47.52100
O  28.79200 -1.96600 45.22800
C  28.60300 -0.55500 45.39800
H  22.18400 -5.04400 44.09200
H  22.34700 -10.73300 47.40400
H  28.30400 -9.45000 49.34400
H  26.32300 -2.52000 45.21500
H  24.07000 -3.21400 43.57800
H  23.19100 -3.01200 46.35100
H  22.94800 -1.89400 45.04200
H  24.39500 -1.71800 46.02600
H  25.90600 -3.80100 42.54400
H  27.54300 -3.93300 43.33800
H  28.21300 -2.08900 42.67300
H  26.90100 -1.24500 43.32400
H  19.73300 -6.41500 44.36200
H  19.78900 -7.86500 43.32600
H  20.85700 -6.47200 43.10800
H  19.75100 -10.80800 47.71100
H  20.73400 -11.77300 46.45300
H  18.99100 -11.62100 46.42900
H  24.48100 -12.15400 48.38200
H  25.81700 -10.38000 50.37400
H  22.48400 -11.01300 49.84500
H  23.78800 -11.00200 50.98200
H  23.22700 -12.48800 50.14400
H  26.43800 -13.09500 49.40100
H  27.52600 -11.99400 50.26900
H  27.42500 -11.72000 47.27900
H  27.77600 -13.35900 47.90100
H  28.83300 -12.01600 48.42000
H  31.44100 -7.48300 48.24300
H  30.57400 -8.87000 48.72600
H  30.62700 -7.44500 49.85100
H  29.35100 -4.33100 44.99300
H  29.03100 -0.16900 46.32300
H  27.55800 -0.26900 45.27700
H  29.09800 -0.08600 44.54700
Mg 17.20100 -2.25900 27.47900
C  16.54900 -0.00500 30.19100
C  19.13500 -4.09600 29.54400
C  18.51800 -3.77100 24.71700
C  15.70700 0.19900 25.36400
N  17.83600 -2.00700 29.58000
C  17.37200 -1.12000 30.58800
C  17.97400 -1.38000 31.98700
C  18.94900 -2.60200 31.64000
C  18.66200 -2.91200 30.16500
C  20.53700 -2.47600 31.88600
C  16.93100 -1.65400 33.07500
C  17.38200 -1.29500 34.47500
H  18.90200 -1.44700 34.81900
N  18.51200 -3.84200 27.16900
C  19.17500 -4.53800 28.16400
C  19.98900 -5.53900 27.57500
C  19.72600 -5.53000 26.16300
C  18.86400 -4.37700 25.96200
C  20.82100 -6.48100 28.43400
C  20.08400 -6.48700 25.06500
O  19.94700 -6.26500 23.85600
C  20.84500 -7.68100 25.37900
N  16.99200 -1.92100 25.44200
C  17.68700 -2.63600 24.46700
C  17.48100 -2.02300 23.01000
C  16.38900 -0.94800 23.32800
C  16.25700 -0.92500 24.79400
C  18.79000 -1.53600 22.28500
C  15.05300 -1.19700 22.67100
C  14.42800 0.02300 21.99800
N  16.28000 -0.34400 27.64200
C  15.64600 0.51700 26.71900
C  15.04100 1.65200 27.38900
C  15.30600 1.48700 28.73200
C  16.11500 0.28200 28.86100
C  14.03100 2.60700 26.70100
C  15.06600 2.02200 30.01200
O  14.31800 2.95900 30.35600
C  15.86500 1.04500 31.02500
C  16.75600 1.83800 31.93900
O  17.90400 2.17500 31.67600
O  16.09300 2.07600 33.14700
C  16.79700 2.96900 34.08900
H  19.72400 -4.70900 30.22900
H  19.13800 -4.11700 23.88700
H  15.16900 0.88000 24.70100
H  18.55100 -0.49400 32.25300
H  18.64200 -3.39500 32.32200
H  21.05600 -3.39700 32.15000
H  20.72300 -1.69600 32.62500
H  20.90100 -2.18500 30.90000
H  16.76000 -2.73000 33.03900
H  15.95700 -1.21400 32.86400
H  16.90600 -2.06900 35.07800
H  16.97000 -0.36500 34.86700
H  21.27900 -5.89300 29.23000
H  21.63100 -7.00900 27.93100
H  20.25800 -7.18300 29.05000
H  20.24300 -8.24600 26.09100
H  21.76700 -7.28400 25.80300
H  21.16900 -8.39300 24.62000
H  17.04500 -2.80300 22.38500
H  16.69400 0.04600 23.00100
H  18.57800 -0.56600 21.83500
H  18.98900 -2.25000 21.48500
H  19.67300 -1.43100 22.91500
H  14.31800 -1.50600 23.41400
H  15.00300 -1.99400 21.93000
H  13.72300 -0.32400 21.24200
H  15.18900 0.62800 21.50400
H  13.91800 0.65500 22.72500
H  14.36300 2.97000 25.72900
H  14.10000 3.47300 27.36000
H  13.03700 2.17300 26.58800
H  15.10400 0.60200 31.66800
H  17.70000 2.58700 34.56400
H  16.07700 3.17200 34.88200
H  16.96700 3.88600 33.52400

