158

Mg 1.29900 -1.10600 44.15700
C  4.36600 0.11800 43.20800
C  -0.20300 1.55700 42.64400
C  -1.72400 -2.50900 44.74800
C  2.93200 -4.02400 45.28900
N  2.08600 0.59700 42.90300
C  3.34600 0.95500 42.69400
C  3.49600 2.15000 41.78000
C  2.01700 2.75800 41.86600
C  1.22700 1.53700 42.47300
C  1.87800 3.95600 42.94900
C  4.00000 1.89300 40.26200
C  3.69800 0.48700 39.67700
H  3.38000 0.24300 38.24600
N  -0.74200 -0.54700 43.66400
C  -1.16300 0.60000 43.07400
C  -2.59900 0.63200 43.11000
C  -2.97800 -0.46900 43.90300
C  -1.80500 -1.22700 44.13700
C  -3.35200 1.79000 42.43400
C  -4.41400 -0.75800 44.31100
O  -5.31600 -0.05900 43.83100
C  -4.82400 -1.86500 45.18600
N  0.76600 -3.09900 44.80100
C  -0.55100 -3.33200 45.01600
C  -0.77600 -4.78200 45.69500
C  0.69300 -5.30400 45.61200
C  1.53400 -4.07900 45.14200
C  -1.39400 -4.75900 47.05600
C  0.93300 -6.58800 44.81000
C  0.85700 -7.85500 45.65000
N  3.25700 -1.80500 44.30800
C  3.80900 -2.97200 44.81300
C  5.29200 -2.94700 44.75900
C  5.52900 -1.74200 44.16200
C  4.28000 -1.14400 43.89600
C  6.31100 -3.94600 45.30600
C  6.63800 -0.81800 43.71600
O  7.89300 -0.91600 43.74200
C  5.85900 0.36400 43.03100
C  6.35800 1.64200 43.70500
O  5.91900 2.11400 44.71800
O  7.44300 2.16100 42.93500
C  8.04900 3.46800 43.31500
H  -0.65700 2.38100 42.09000
H  -2.66300 -2.92300 45.12100
H  3.44700 -4.85900 45.76800
H  4.20300 2.91800 42.09500
H  1.50600 3.00500 40.93500
H  1.56900 4.85000 42.40800
H  2.77900 4.12900 43.53800
H  1.24900 3.75400 43.81600
H  5.03200 2.15900 40.03200
H  3.28400 2.45000 39.65800
H  2.89300 0.00500 40.23100
H  4.55800 -0.15900 39.85300
H  -4.30900 2.01800 42.90300
H  -3.44200 1.65400 41.35600
H  -2.71300 2.67300 42.46300
H  -5.89300 -1.75700 45.37200
H  -4.28300 -2.02500 46.11800
H  -4.73300 -2.72600 44.52300
H  -1.35200 -5.35000 44.96400
H  1.12600 -5.37000 46.61100
H  -1.78900 -5.75700 47.24600
H  -2.21500 -4.04400 47.00300
H  -0.70300 -4.37700 47.80700
H  1.86800 -6.54900 44.25100
H  0.09600 -6.58700 44.11300
H  1.05800 -8.67800 44.96500
H  -0.09300 -7.97800 46.17000
H  1.56800 -7.87900 46.47700
H  5.96000 -4.94400 45.04500
H  6.53200 -3.87600 46.37200
H  7.17200 -3.69700 44.68700
H  6.15200 0.42400 41.98300
H  7.91800 3.68400 44.37500
H  7.51900 4.21800 42.72700
H  9.09500 3.60400 43.04200
Mg 48.74100 45.94100 44.16900
C  45.50600 46.21500 42.81600
C  48.85800 42.86900 42.71200
C  51.95800 45.99900 44.80800
C  48.55300 49.41400 44.99300
N  47.29500 44.67200 42.94600
C  46.01000 44.92800 42.57500
C  45.47200 43.83900 41.58300
C  46.45400 42.69000 41.91800
C  47.62600 43.46500 42.56000
C  46.02500 41.55500 42.91500
C  45.58400 44.31700 40.05600
C  44.29400 44.48500 39.24100
H  44.03300 43.42400 38.21300
N  50.23300 44.57500 43.88500
C  50.07600 43.33400 43.31100
C  51.31400 42.57600 43.48900
C  52.31600 43.53400 43.98400
C  51.52600 44.76400 44.25000
C  51.52400 41.18700 42.97600
C  53.79700 43.32300 44.13600
O  54.19200 42.12700 44.00400
C  54.72400 44.30000 44.67100
N  50.02200 47.45700 44.91200
C  51.34100 47.20300 45.11600
C  52.22800 48.47800 45.34400
C  51.05000 49.57200 45.40400
C  49.81300 48.75700 45.12400
C  53.09400 48.44500 46.62900
C  51.22200 50.69400 44.33400
C  51.45800 52.05700 44.97200
N  47.33600 47.51900 44.15600
C  47.42300 48.86200 44.46600
C  46.14700 49.56500 44.13400
C  45.39900 48.53800 43.45200
C  46.18100 47.31000 43.42800
C  45.71500 50.96000 44.36100
C  44.11300 48.34600 42.72900
O  43.23800 49.15700 42.37300
C  44.13000 46.80400 42.33100
C  42.98100 46.14000 43.06300
O  42.81000 46.17200 44.30500
O  42.08200 45.59000 42.18700
C  41.08900 44.73500 42.81300
H  48.75600 41.80500 42.48900
H  53.04800 46.06000 44.84900
H  48.57100 50.48800 45.19000
H  44.45200 43.64200 41.91200
H  46.78500 42.23000 40.98700
H  45.67200 40.67300 42.38000
H  45.15500 41.88300 43.48400
H  46.79100 41.31800 43.65300
H  46.15000 43.52900 39.55900
H  46.20700 45.21100 40.07600
H  44.26900 45.45300 38.74100
H  43.41000 44.55200 39.87400
H  50.74700 40.99800 42.23500
H  51.46400 40.43500 43.76300
H  52.46400 41.19400 42.42300
H  55.77400 44.01100 44.64700
H  54.51600 44.44000 45.73200
H  54.70600 45.14000 43.97700
H  52.89200 48.58900 44.48700
H  50.95700 49.98500 46.40900
H  52.57100 48.91400 47.46300
H  53.88700 49.11000 46.28700
H  53.49100 47.45400 46.84800
H  50.32100 50.90300 43.75800
H  52.04500 50.39600 43.68400
H  52.51500 52.13800 45.22500
H  50.85800 52.11100 45.88100
H  51.12300 52.82400 44.27300
H  44.74800 50.87100 44.85700
H  45.79000 51.59500 43.47900
H  46.34500 51.40900 45.12800
H  43.94300 46.72900 41.25900
H  41.18300 43.71800 42.43400
H  40.09900 45.16100 42.65000
H  41.18600 44.68600 43.89700

