158

Mg 0.33300 8.00900 26.75700
C  1.00900 10.15300 29.42700
C  -0.02800 5.41400 29.13000
C  0.00900 5.74500 24.25400
C  1.37300 10.54800 24.56000
N  0.44700 7.88000 29.04700
C  0.54400 8.94900 29.93700
C  0.27300 8.54700 31.37900
C  0.19600 6.94600 31.17500
C  0.11900 6.69100 29.67500
C  1.28500 6.09300 31.88300
C  -0.90600 9.25300 31.99800
C  -0.75500 9.69000 33.46500
H  0.18000 8.84100 34.30700
N  -0.08900 5.89700 26.71800
C  -0.15700 5.03900 27.81900
C  -0.36100 3.68500 27.30200
C  -0.47900 3.82700 25.88500
C  -0.21400 5.19100 25.53600
C  -0.49300 2.41000 28.13000
C  -0.86400 2.70800 24.89800
O  -0.87400 2.92400 23.71800
C  -1.33700 1.31000 25.36900
N  0.77700 8.08900 24.69000
C  0.60800 6.98600 23.87000
C  0.87000 7.40600 22.41200
C  1.11900 8.97100 22.52500
C  1.05800 9.26600 24.07400
C  2.00600 6.69200 21.64700
C  0.12700 9.90400 21.77800
C  0.82900 11.06700 20.92100
N  1.07400 9.95100 26.92600
C  1.51900 10.85100 25.91400
C  1.98500 12.08400 26.57000
C  1.76100 11.82100 27.90200
C  1.25000 10.50700 28.03000
C  2.36000 13.42500 25.98900
C  1.97900 12.43800 29.21400
O  2.54200 13.49900 29.48200
C  1.48500 11.40500 30.27700
C  2.60000 11.08500 31.11300
O  3.72200 10.63500 30.80000
O  2.31700 11.33700 32.41200
C  3.43200 11.31100 33.34400
H  -0.00600 4.71800 29.97100
H  -0.11800 4.99100 23.47500
H  1.52100 11.40500 23.89900
H  1.15000 8.79400 31.97700
H  -0.65400 6.37100 31.54200
H  0.79300 5.17500 32.20500
H  1.72500 6.50800 32.79100
H  2.07000 5.79700 31.18700
H  -1.74900 8.56300 32.02600
H  -1.27600 10.15400 31.50700
H  -1.69400 9.69000 34.01800
H  -0.57300 10.76000 33.36400
H  -0.26100 2.50800 29.19100
H  0.28400 1.77800 27.70200
H  -1.52900 2.07700 28.05800
H  -1.66400 0.60600 24.60300
H  -2.20000 1.50700 26.00400
H  -0.52000 0.78400 25.86300
H  0.00500 7.16600 21.79300
H  2.14300 9.33400 22.43900
H  2.60300 6.12300 22.36000
H  2.73900 7.33600 21.16100
H  1.48000 6.10000 20.89800
H  -0.61300 10.35600 22.43900
H  -0.55600 9.32700 21.15400
H  0.61800 10.81200 19.88200
H  1.87700 11.09000 21.21900
H  0.44800 12.00400 21.32800
H  2.37300 14.17800 26.77700
H  1.59900 13.88400 25.35800
H  3.37900 13.53600 25.61800
H  0.62100 11.82200 30.79500
H  4.37800 11.74400 33.01600
H  3.67300 10.28800 33.63400
H  3.04400 11.74100 34.26700
Mg -10.05900 38.28000 40.81400
C  -7.99800 35.46800 40.08600
C  -7.69300 40.23200 39.22900
C  -12.34900 40.81200 40.94500
C  -12.62600 35.96100 41.65000
N  -8.09300 37.85700 39.73900
C  -7.39800 36.70500 39.61600
C  -6.07300 36.87900 38.86900
C  -5.87400 38.41500 38.87100
C  -7.31600 38.86100 39.24000
C  -4.75000 39.04000 39.74000
C  -6.16300 36.28400 37.44300
C  -4.82100 35.56400 36.98600
H  -4.26900 35.79500 35.61200
N  -9.99600 40.23400 40.31800
C  -8.87100 40.91200 39.73600
C  -9.17100 42.29800 39.49300
C  -10.54800 42.43600 39.96500
C  -11.01800 41.14500 40.43800
C  -8.26200 43.34200 38.72400
C  -11.21600 43.82800 40.06000
O  -10.64500 44.77300 39.60600
C  -12.48400 44.02600 40.81900
N  -12.21300 38.34900 41.19700
C  -12.90800 39.53800 41.18500
C  -14.36700 39.27300 41.69500
C  -14.41300 37.72100 41.92200
C  -13.00000 37.32800 41.55800
C  -14.79800 40.07900 42.98900
C  -15.47300 36.99800 41.07900
C  -16.94000 37.34200 41.43800
N  -10.36600 36.13200 40.89000
C  -11.37800 35.38700 41.30300
C  -10.93800 34.05700 41.48400
C  -9.67700 33.96700 40.95400
C  -9.31000 35.31600 40.61300
C  -11.90300 32.92900 41.97100
C  -8.55000 33.19800 40.53500
O  -8.35800 32.03000 40.60300
C  -7.45400 34.11300 39.87500
C  -6.16700 33.91800 40.53600
O  -5.23600 33.34600 39.97600
O  -6.22000 34.22400 41.89000
C  -5.06600 33.83900 42.68500
H  -7.09200 40.95200 38.67000
H  -13.10400 41.60000 40.98400
H  -13.30700 35.25700 42.13400
H  -5.43300 36.42400 39.62500
H  -5.62000 38.61600 37.83000
H  -5.24000 39.48200 40.60800
H  -4.18000 39.68400 39.06900
H  -4.14100 38.36400 40.34000
H  -6.47700 37.03000 36.71300
H  -7.05300 35.66000 37.52800
H  -4.91000 34.48500 37.11300
H  -4.01600 35.79800 37.68200
H  -7.76300 43.94700 39.48100
H  -8.94300 43.92500 38.10300
H  -7.61100 42.81900 38.02400
H  -12.38100 43.66400 41.84200
H  -13.30900 43.51900 40.31900
H  -12.59900 45.10900 40.78000
H  -15.00100 39.63600 40.88600
H  -14.58600 37.45200 42.96500
H  -14.66600 41.15400 42.87100
H  -13.96400 39.96200 43.68300
H  -15.72800 39.75700 43.45700
H  -15.40900 35.91000 41.05600
H  -15.14200 37.32700 40.09400
H  -17.55200 37.47700 40.54600
H  -17.11000 38.16300 42.13600
H  -17.35300 36.49800 41.99000
H  -12.91200 33.07400 41.58400
H  -11.89500 32.82000 43.05500
H  -11.66900 31.95000 41.55200
H  -7.38000 33.70800 38.86600
H  -5.41100 33.96300 43.71100
H  -4.23200 34.53000 42.56800
H  -4.73200 32.80300 42.61800

