158

Mg 15.61300 51.96100 25.18000
C  17.20000 50.81100 28.16100
C  13.05300 53.02300 27.28700
C  14.11700 53.40900 22.64700
C  18.25300 50.90400 23.34800
N  15.22100 51.96600 27.50900
C  16.07700 51.57000 28.47800
C  15.49800 51.89000 29.92100
C  14.11100 52.40300 29.57400
C  14.15600 52.48600 28.01400
C  12.86300 51.59900 30.19700
C  16.47200 52.91400 30.56200
C  16.44300 52.98000 32.13400
H  15.50300 52.10600 32.97100
N  13.72500 52.85100 24.94300
C  12.84400 53.20600 25.91900
C  11.61800 53.83700 25.30300
C  11.97500 54.10100 23.97200
C  13.27800 53.35800 23.77000
C  10.45600 54.24800 26.11100
C  11.23500 54.95700 22.93600
O  11.59900 55.12200 21.76800
C  10.02800 55.69500 23.27100
N  16.11100 52.24500 23.32100
C  15.39900 52.88200 22.39200
C  16.14800 52.95700 21.00000
C  17.51600 52.31100 21.43600
C  17.29200 51.77500 22.72600
C  15.43700 52.32800 19.80000
C  18.73700 53.26400 21.44500
C  19.71500 53.05800 20.27200
N  17.36900 51.03200 25.61300
C  18.34000 50.61200 24.73300
C  19.30100 49.84500 25.47100
C  18.92800 49.88000 26.81000
C  17.72600 50.55900 26.84500
C  20.54400 49.31900 24.91300
C  19.28000 49.53000 28.13800
O  20.17700 48.82200 28.61900
C  18.23100 50.19000 29.08100
C  17.64200 49.08700 29.98900
O  16.59400 48.54100 29.87100
O  18.46700 49.02800 31.07600
C  18.07700 48.26900 32.24500
H  12.26900 53.30500 27.99300
H  13.71000 54.00700 21.82900
H  19.09900 50.63900 22.71100
H  15.41900 51.04200 30.60100
H  14.06600 53.42300 29.95500
H  13.17800 50.77800 30.84100
H  12.23800 51.17300 29.41300
H  12.29800 52.28800 30.82500
H  16.17000 53.89700 30.19900
H  17.52400 52.81600 30.29400
H  16.17600 54.03300 32.22500
H  17.46700 52.78900 32.45300
H  10.26800 53.47600 26.85700
H  9.53500 54.28300 25.53000
H  10.63100 55.19500 26.62100
H  10.35500 56.10600 24.22600
H  9.26000 54.94100 23.44400
H  9.86000 56.48600 22.54000
H  16.22700 54.02400 20.79000
H  17.76800 51.55800 20.69000
H  15.21500 53.09100 19.05400
H  14.45600 51.90600 20.02000
H  16.02200 51.57700 19.27100
H  19.31100 53.08300 22.35400
H  18.34200 54.27700 21.36500
H  19.40200 52.41900 19.44600
H  20.62400 52.65000 20.71500
H  20.03600 54.00000 19.82800
H  21.33400 50.06800 24.96700
H  20.35400 49.16000 23.85200
H  20.74100 48.31700 25.29400
H  18.74300 50.97300 29.63900
H  17.78700 47.28400 31.87700
H  17.23700 48.64700 32.82700
H  18.90600 48.11200 32.93500
Mg -2.85200 34.93600 26.40600
C  -3.86200 33.43400 29.25900
C  -1.19900 37.27400 28.42800
C  -1.83100 36.60400 23.58100
C  -4.73100 32.80400 24.59600
N  -2.42800 35.15100 28.58700
C  -2.95500 34.41300 29.56800
C  -2.39400 34.75500 30.90600
C  -1.64200 36.12800 30.58100
C  -1.80600 36.23000 29.10200
C  -2.25600 37.38700 31.33600
C  -1.55700 33.60800 31.60000
C  -1.95500 33.10200 32.97200
H  -0.91400 33.35000 34.04400
N  -1.69700 36.63500 26.05800
C  -1.10000 37.45400 27.00100
C  -0.45100 38.60100 26.32400
C  -0.56200 38.41600 24.91100
C  -1.44200 37.15700 24.81700
C  0.29500 39.58900 27.07700
C  -0.05200 39.19400 23.74900
O  -0.36200 38.98000 22.58100
C  1.00900 40.23500 24.09200
N  -3.29500 34.81000 24.37500
C  -2.71900 35.51500 23.36600
C  -3.10900 34.90400 21.95100
C  -3.71600 33.53400 22.33900
C  -3.95400 33.70300 23.85300
C  -3.97100 35.84300 21.05400
C  -2.75400 32.39600 22.08700
C  -3.32900 31.21100 21.30500
N  -4.10500 33.39100 26.81700
C  -4.78400 32.57000 25.99200
C  -5.32200 31.47600 26.75800
C  -5.05000 31.83100 28.06000
C  -4.20600 32.95200 28.00900
C  -6.24100 30.41000 26.25700
C  -5.23200 31.41100 29.39700
O  -5.93500 30.49600 29.84500
C  -4.43000 32.45800 30.22400
C  -5.44900 33.08900 31.09000
O  -6.43400 33.75700 30.71600
O  -5.25700 32.69100 32.36100
C  -6.03900 33.35900 33.35600
H  -0.66300 37.97900 29.06600
H  -1.50600 36.97200 22.60600
H  -5.28400 32.00300 24.09900
H  -3.24800 34.93800 31.55800
H  -0.56800 36.02000 30.73200
H  -1.34900 37.98600 31.41000
H  -2.65400 37.24200 32.34000
H  -2.94500 37.95200 30.70700
H  -0.55900 34.03000 31.72600
H  -1.48500 32.78200 30.89200
H  -2.22100 32.04800 32.89600
H  -2.85900 33.63500 33.26600
H  1.30000 39.41900 26.69000
H  0.13900 39.53300 28.15400
H  0.06200 40.62600 26.83600
H  1.36400 40.48900 23.09400
H  1.86900 39.79400 24.59600
H  0.69500 41.08500 24.69800
H  -2.16600 34.79800 21.41500
H  -4.55200 33.19100 21.73000
H  -4.88300 35.26600 20.90000
H  -3.44000 35.99500 20.11500
H  -4.07500 36.86000 21.43200
H  -2.29400 32.11300 23.03400
H  -1.93900 32.77700 21.47200
H  -3.31500 30.40800 22.04200
H  -2.69200 30.87000 20.48900
H  -4.38100 31.26600 21.02300
H  -5.84000 29.40400 26.37900
H  -6.39300 30.56800 25.18900
H  -7.21700 30.46200 26.74000
H  -3.75800 31.90200 30.87700
H  -6.41800 34.32800 33.03200
H  -5.31900 33.50800 34.16000
H  -6.83900 32.71400 33.72100

