158

Mg -1.71800 16.74300 26.01100
C  -2.02100 14.57000 28.64400
C  -2.32500 19.48600 28.38900
C  -2.13500 18.88000 23.54000
C  -2.02500 14.02800 23.79200
N  -2.21900 16.94700 28.17700
C  -2.10600 15.89900 29.07900
C  -2.49500 16.38800 30.52200
C  -2.79400 17.84600 30.23200
C  -2.37000 18.13300 28.83600
C  -4.33600 18.17400 30.48200
C  -1.44900 16.07700 31.59100
C  -1.69400 16.90400 32.94200
H  -1.53300 16.33900 34.33800
N  -1.98100 18.86900 25.91600
C  -2.12800 19.83800 26.96100
C  -2.01100 21.11700 26.39900
C  -1.97300 20.97000 25.00400
C  -2.07200 19.50600 24.76800
C  -2.06400 22.37500 27.27700
C  -1.88100 22.07000 23.93300
O  -2.01700 21.83700 22.73700
C  -1.70200 23.45700 24.35400
N  -2.22500 16.47700 23.94900
C  -2.22400 17.53500 23.11100
C  -2.34900 17.05800 21.64000
C  -2.12400 15.56000 21.76400
C  -2.10600 15.36100 23.26800
C  -3.77500 17.39000 21.12800
C  -0.79600 15.10600 21.10000
C  0.47100 15.40400 21.91200
N  -1.89800 14.68800 26.09700
C  -1.98400 13.69800 25.13400
C  -1.87700 12.41900 25.75000
C  -1.83800 12.66800 27.12300
C  -1.87800 14.07700 27.28400
C  -1.76700 11.19800 25.05000
C  -1.79700 12.12700 28.44200
O  -1.59400 10.99100 28.80900
C  -1.98600 13.26500 29.48900
C  -0.89800 13.26000 30.42700
O  0.17400 13.77500 30.21300
O  -1.21500 12.55800 31.55500
C  -0.16200 12.50400 32.61600
H  -2.24000 20.33500 29.07000
H  -2.08700 19.55300 22.68100
H  -1.91800 13.18100 23.11200
H  -3.41000 15.85600 30.78300
H  -2.28600 18.54400 30.89800
H  -4.44900 19.00600 31.17700
H  -4.87700 17.49000 31.13500
H  -4.79800 18.35500 29.51100
H  -0.45200 16.26900 31.19300
H  -1.53600 15.06800 31.99300
H  -2.70800 17.29300 32.84600
H  -0.98100 17.72700 32.89200
H  -2.86600 23.06400 27.01300
H  -1.14100 22.94300 27.15600
H  -2.16900 22.17200 28.34200
H  -2.67900 23.88500 24.57700
H  -1.29400 23.96300 23.47900
H  -1.13000 23.66200 25.25900
H  -1.75600 17.63300 20.92800
H  -2.99200 15.00100 21.41600
H  -3.93600 18.34500 21.62800
H  -4.52500 16.73400 21.56900
H  -3.82200 17.44400 20.04100
H  -0.67700 15.38900 20.05400
H  -0.83200 14.01700 21.06400
H  0.22800 16.08700 22.72600
H  1.18800 15.94000 21.29100
H  0.94000 14.56000 22.41800
H  -0.81300 11.02100 24.55300
H  -2.60600 11.04200 24.37100
H  -1.77800 10.49400 25.88200
H  -2.95200 13.09800 29.96600
H  -0.42000 13.16100 33.44700
H  0.82100 12.71600 32.19600
H  -0.24900 11.47900 32.97600
Mg 47.03600 34.57700 27.90400
C  45.23800 32.59800 30.34600
C  47.15300 37.08500 30.33500
C  48.05900 36.75000 25.50300
C  46.18000 32.19600 25.49700
N  46.36800 34.75900 30.10200
C  45.74800 33.80300 30.89300
C  45.86200 34.34500 32.37200
C  45.95600 35.88900 32.20900
C  46.51300 35.93000 30.81000
C  44.54600 36.63100 32.41400
C  47.16000 33.75200 33.04700
C  47.08000 33.46500 34.58900
H  46.01800 34.28900 35.39600
N  47.54300 36.59700 27.93200
C  47.60200 37.40200 29.00500
C  48.21800 38.61100 28.63500
C  48.64200 38.48700 27.28900
C  48.10000 37.21100 26.83600
C  48.43400 39.76900 29.58900
C  49.37400 39.51600 26.29700
O  49.76200 39.30000 25.17200
C  49.71800 40.86100 26.77000
N  47.04100 34.49300 25.71400
C  47.48800 35.52500 25.00000
C  47.40800 35.09500 23.49400
C  47.19500 33.56100 23.55900
C  46.69500 33.39300 24.99400
C  46.33700 35.81700 22.62700
C  48.55000 32.78600 23.39900
C  48.48700 31.66200 22.33900
N  46.14300 32.71600 27.94200
C  45.84400 31.89600 26.85200
C  45.24100 30.60300 27.38100
C  44.97300 30.91200 28.72700
C  45.48600 32.23700 29.03400
C  44.83600 29.30800 26.60100
C  44.38000 30.39200 29.87100
O  43.98800 29.22400 30.11300
C  44.45500 31.41300 30.95900
C  44.74500 30.95100 32.34500
O  45.88800 30.63100 32.65300
O  43.62400 31.10900 33.12500
C  43.86900 30.79800 34.56200
H  47.29000 37.84100 31.11100
H  48.41100 37.44800 24.74100
H  46.10900 31.44200 24.71000
H  44.90100 34.07900 32.81200
H  46.72000 36.23200 32.90600
H  44.56700 37.32300 33.25500
H  43.77700 35.86500 32.51800
H  44.41400 37.21700 31.50500
H  47.96400 34.47500 32.90200
H  47.29700 32.80400 32.52700
H  48.05200 33.64600 35.04600
H  46.92700 32.40300 34.77700
H  48.37400 39.40800 30.61500
H  47.53300 40.36800 29.45400
H  49.28200 40.45200 29.53000
H  50.56100 40.77700 27.45600
H  48.90500 41.32400 27.32900
H  50.03000 41.62800 26.06100
H  48.39200 35.34300 23.09700
H  46.42700 33.20000 22.87500
H  45.69200 36.35700 23.32000
H  45.79800 35.09700 22.01200
H  46.84100 36.53300 21.97700
H  48.86300 32.29000 24.31800
H  49.36000 33.47500 23.15900
H  49.39100 31.54900 21.73900
H  47.56200 31.64400 21.76300
H  48.45200 30.81700 23.02600
H  45.61100 29.10400 25.86200
H  43.94600 29.34500 25.97300
H  44.75700 28.52700 27.35800
H  43.42100 31.75500 30.99300
H  43.01700 30.32600 35.05300
H  44.10700 31.76300 35.00800
H  44.69500 30.08900 34.62000

