158

Mg 25.84900 0.86500 30.45200
C  28.08900 0.66600 33.04300
C  23.36300 1.24100 32.76200
C  23.67400 0.73100 27.87700
C  28.39800 -0.38800 28.33500
N  25.78000 0.90700 32.72500
C  26.83100 1.02900 33.51500
C  26.43100 1.31900 34.90500
C  24.84400 1.36000 34.84600
C  24.60800 1.17700 33.37600
C  24.03600 0.25300 35.79000
C  27.10000 2.60100 35.40100
C  27.90000 2.65000 36.70100
H  27.42400 3.65100 37.78000
N  23.75400 1.13700 30.35600
C  22.94100 1.23000 31.41000
C  21.57700 1.19300 30.91600
C  21.62000 1.17200 29.47900
C  23.06000 0.95800 29.20200
C  20.40400 1.39100 31.80300
C  20.56900 1.19600 28.43200
O  20.82300 1.31700 27.20300
C  19.19300 1.28800 28.84100
N  26.04400 0.21500 28.44700
C  24.99100 0.42300 27.56100
C  25.49900 0.33100 26.09500
C  26.97700 -0.00800 26.24600
C  27.15000 -0.09200 27.75600
C  24.72500 -0.53400 25.02700
C  28.01200 0.95500 25.58300
C  29.26200 0.37900 24.98000
N  27.78900 0.21300 30.57700
C  28.72700 -0.19000 29.67500
C  30.00400 -0.43800 30.31400
C  29.81300 -0.11700 31.65400
C  28.47500 0.29200 31.73200
C  31.22800 -0.97000 29.65100
C  30.44200 0.00400 32.95100
O  31.55600 -0.19900 33.33300
C  29.33300 0.51800 33.91300
C  29.24100 -0.51700 35.02900
O  28.66000 -1.60600 34.95100
O  29.89500 -0.02400 36.13800
C  29.89100 -0.84900 37.34300
H  22.58000 1.44100 33.49600
H  23.05300 0.93800 27.00300
H  29.15600 -0.71600 27.62100
H  26.73600 0.45700 35.49800
H  24.45900 2.36000 35.04700
H  23.22000 -0.27300 35.29500
H  23.51700 0.71200 36.63200
H  24.79900 -0.47600 36.06100
H  26.33400 3.36000 35.55900
H  27.63200 2.99400 34.53400
H  28.96500 2.84200 36.56900
H  27.75700 1.69500 37.20700
H  20.64000 1.48400 32.86300
H  19.73200 0.55500 31.60800
H  19.96000 2.33400 31.48200
H  19.04300 2.12600 29.52100
H  19.08900 0.34400 29.37600
H  18.56900 1.29900 27.94700
H  25.50800 1.31400 25.62300
H  27.14900 -0.99600 25.82000
H  23.67600 -0.61300 25.31500
H  25.17000 -1.52700 24.96600
H  24.63400 -0.10400 24.02900
H  28.25300 1.68700 26.35400
H  27.58800 1.55500 24.77800
H  29.34600 -0.68500 25.20000
H  30.08700 0.96300 25.38600
H  29.20400 0.50700 23.89900
H  31.00000 -2.03600 29.67700
H  32.22100 -0.85000 30.08600
H  31.23400 -0.62000 28.61900
H  29.78200 1.42700 34.31300
H  28.85600 -0.90800 37.68000
H  30.49000 -0.32700 38.09000
H  30.14000 -1.89100 37.14100
Mg 42.32100 41.18700 25.89700
C  41.66900 43.74100 28.38600
C  42.99900 38.92900 28.43500
C  42.97400 39.05700 23.53800
C  41.89500 43.75900 23.58100
N  42.49000 41.43000 28.14500
C  41.96700 42.42600 28.95400
C  41.80800 41.98500 30.43400
C  42.25300 40.51400 30.37700
C  42.54400 40.20600 28.88400
C  43.32000 40.06300 31.34400
C  40.38300 42.32100 31.15000
C  39.98300 41.62500 32.44700
H  39.45600 42.43700 33.62000
N  43.00500 39.28000 25.99700
C  43.19000 38.52900 27.11700
C  43.67700 37.24300 26.75400
C  43.60600 37.16800 25.33800
C  43.24100 38.54600 24.87400
C  44.10100 36.22600 27.74800
C  43.79800 36.02500 24.35300
O  43.48900 36.18300 23.19200
C  44.19200 34.66800 24.79800
N  42.61700 41.46600 23.83800
C  42.69900 40.38100 23.10300
C  42.54200 40.75400 21.64600
C  42.03400 42.24300 21.71800
C  42.28700 42.52100 23.13400
C  43.88200 40.57800 20.85400
C  40.50900 42.39000 21.38700
C  39.55300 41.67400 22.37100
N  41.93300 43.32900 25.86300
C  41.90700 44.23300 24.88700
C  41.73100 45.52900 25.33800
C  41.54700 45.41200 26.74000
C  41.68700 44.04600 26.99600
C  41.55500 46.70300 24.52800
C  41.22200 46.14800 27.96500
O  41.04800 47.31500 28.20400
C  41.21100 45.03300 29.09600
C  42.07600 45.42900 30.19100
O  43.28000 45.68600 30.04100
O  41.40100 45.55600 31.35800
C  42.31500 45.74200 32.48300
H  42.94200 38.13900 29.18600
H  42.98900 38.31500 22.73700
H  41.63100 44.44300 22.77200
H  42.53900 42.53500 31.02700
H  41.44600 39.82400 30.62200
H  44.28800 39.92400 30.86200
H  43.04900 39.08300 31.73500
H  43.30300 40.71500 32.21700
H  39.72400 42.23900 30.28500
H  40.51600 43.36100 31.44900
H  40.61400 40.81700 32.81500
H  39.10900 41.02600 32.18900
H  43.30000 35.57000 28.08900
H  44.39200 36.61700 28.72200
H  44.90800 35.58000 27.40400
H  43.48500 34.26400 25.52300
H  45.22400 34.69700 25.14800
H  44.35400 33.98500 23.96400
H  41.78300 40.22600 21.07000
H  42.64200 42.94800 21.15100
H  44.54700 39.89700 21.38500
H  44.41900 41.52200 20.76300
H  43.76300 40.45500 19.77800
H  40.30100 41.95700 20.40800
H  40.26600 43.44500 21.51000
H  40.05000 41.58300 23.33700
H  39.25200 40.70800 21.96500
H  38.71300 42.35100 22.53000
H  42.18500 47.53500 24.84500
H  40.54500 47.08400 24.68000
H  41.64800 46.65100 23.44300
H  40.21700 44.88900 29.52000
H  42.89000 46.66700 32.49800
H  42.92900 44.84600 32.57500
H  41.75900 45.78400 33.41900

