158

Mg 0.46300 7.45300 25.50700
C  1.32800 9.57600 28.25100
C  0.81000 4.69800 27.63000
C  -0.32000 5.50900 22.96200
C  0.49200 10.25400 23.46000
N  1.03100 7.22400 27.60500
C  1.30700 8.14100 28.58100
C  1.41600 7.59400 29.95000
C  1.60700 6.10800 29.75800
C  1.11800 5.97900 28.24400
C  3.08500 5.53700 30.01100
C  0.23300 7.92600 30.91600
C  0.60000 8.24400 32.39600
H  1.77300 7.47000 33.15100
N  0.17300 5.37600 25.26400
C  0.36200 4.46400 26.26500
C  -0.03100 3.16700 25.71500
C  -0.25800 3.29600 24.32800
C  -0.17100 4.75300 24.12600
C  -0.00800 1.90600 26.58800
C  -0.39800 2.31800 23.24900
O  -0.58900 2.60900 22.08000
C  -0.22800 0.81600 23.48300
N  0.32000 7.74300 23.41000
C  -0.10900 6.80700 22.59200
C  -0.39800 7.35700 21.13700
C  -0.41500 8.89300 21.44300
C  0.26200 8.99500 22.79500
C  0.55600 7.00400 19.96900
C  -1.85800 9.49400 21.42400
C  -1.94200 10.88700 20.80100
N  0.94100 9.39300 25.70000
C  0.81100 10.49400 24.78900
C  0.98600 11.71500 25.46700
C  1.22400 11.42300 26.80900
C  1.14100 10.02300 26.89800
C  0.99500 13.07000 24.88300
C  1.49600 12.01100 28.18200
O  1.81800 13.10900 28.60000
C  1.54000 10.76500 29.11800
C  2.76700 10.82000 29.95300
O  3.90300 10.54300 29.66100
O  2.46500 11.40100 31.21500
C  3.50000 11.72800 32.22400
H  1.00000 3.83900 28.27700
H  -0.66500 4.92700 22.10500
H  0.36600 11.21600 22.95800
H  2.32100 8.06100 30.34000
H  0.96700 5.52100 30.41700
H  3.60100 5.53200 29.05100
H  2.98400 4.50500 30.34700
H  3.61200 6.15300 30.74000
H  -0.47500 7.09800 30.89600
H  -0.16600 8.88900 30.59700
H  -0.31600 8.06800 32.96100
H  0.80700 9.30600 32.52200
H  -0.71600 1.16800 26.21100
H  -0.32300 2.19700 27.59000
H  0.99700 1.48500 26.64100
H  -1.12900 0.45900 23.98200
H  0.67200 0.58000 24.05100
H  -0.22300 0.27700 22.53500
H  -1.36500 6.98700 20.79400
H  0.22600 9.37600 20.70600
H  1.44300 7.62700 20.07900
H  0.08100 7.22500 19.01300
H  0.96400 6.00100 20.09100
H  -2.27400 9.63400 22.42100
H  -2.56200 8.83200 20.91900
H  -2.77600 11.01500 20.11100
H  -1.09100 11.08400 20.14900
H  -1.87700 11.59400 21.62800
H  0.03100 13.05100 24.37400
H  1.82500 13.08300 24.17700
H  0.96600 13.97400 25.49100
H  0.69300 10.86400 29.79700
H  4.44900 11.86700 31.70500
H  3.66200 10.96800 32.98800
H  3.21500 12.68600 32.65800
Mg 9.70600 47.27200 26.60200
C  8.04700 47.46300 29.60100
C  12.40200 49.02300 28.01900
C  11.34600 46.94500 23.65800
C  6.67700 46.46300 25.02300
N  10.17200 48.16400 28.59700
C  9.40700 47.97000 29.66700
C  10.03600 48.53900 30.89400
C  11.24100 49.39700 30.29900
C  11.27900 48.88100 28.88000
C  11.11800 50.93800 30.36300
C  10.53100 47.50200 31.97200
C  10.18100 47.67500 33.44100
H  9.88300 46.59500 34.48000
N  11.63000 47.70300 26.09000
C  12.59900 48.46600 26.73400
C  13.85000 48.51900 25.91800
C  13.59500 47.72700 24.77000
C  12.15700 47.37900 24.82700
C  15.15300 49.16500 26.38400
C  14.46500 47.39600 23.64200
O  14.08400 46.72500 22.67800
C  15.85700 47.87600 23.63000
N  9.02700 46.71500 24.64700
C  9.91200 46.78100 23.56700
C  9.18600 46.45000 22.23500
C  7.78400 46.01400 22.74300
C  7.81800 46.48300 24.17800
C  9.20800 47.58100 21.22100
C  7.50000 44.51700 22.59700
C  8.52900 43.60600 23.38000
N  7.65700 47.09100 27.15300
C  6.59800 46.65800 26.43900
C  5.37300 46.55100 27.31600
C  5.92000 46.94100 28.55400
C  7.30600 47.25500 28.41100
C  4.06900 45.97000 26.83900
C  5.66200 46.98500 29.99400
O  4.64700 46.74000 30.67600
C  7.05900 47.26000 30.69100
C  7.32500 46.06700 31.58400
O  7.88700 45.04200 31.21400
O  6.69900 46.34100 32.81100
C  6.53300 45.08600 33.58500
H  13.24500 49.57300 28.44200
H  11.90200 46.92300 22.71800
H  5.84500 46.02600 24.46800
H  9.36100 49.25600 31.36300
H  12.20800 49.16900 30.74700
H  10.19800 51.25300 30.85400
H  11.26800 51.32700 29.35600
H  11.99900 51.21500 30.94200
H  11.61700 47.45100 31.89800
H  10.22100 46.48400 31.73600
H  9.27200 48.26800 33.34300
H  11.09800 48.12800 33.81700
H  15.27100 49.98700 25.67800
H  15.89800 48.37000 26.36900
H  15.13100 49.63600 27.36700
H  15.78500 48.96300 23.64900
H  16.19600 47.57100 22.64000
H  16.45800 47.39700 24.40300
H  9.68800 45.62300 21.73300
H  6.86300 46.48100 22.39500
H  8.18400 47.89200 21.01500
H  9.60300 47.29500 20.24700
H  9.85600 48.38000 21.57900
H  7.60900 44.18200 21.56600
H  6.47300 44.33500 22.91300
H  7.94000 42.84600 23.89300
H  9.08700 44.01700 24.22200
H  9.27500 43.18800 22.70300
H  4.17800 45.31700 25.97400
H  3.50600 46.78600 26.38500
H  3.42500 45.62900 27.65000
H  6.89600 48.13400 31.32200
H  6.52900 45.20700 34.66800
H  7.14700 44.19900 33.42300
H  5.61700 44.62900 33.21100

