158

Mg 0.66000 8.44100 27.63000
C  1.66800 10.73300 30.14700
C  0.68900 5.97000 30.03600
C  -0.02600 6.36100 25.15100
C  0.98100 11.12000 25.32600
N  1.12300 8.46700 29.84200
C  1.49600 9.46500 30.68400
C  1.59300 8.95100 32.14300
C  1.66200 7.41100 31.92400
C  1.03500 7.23800 30.53400
C  3.06300 6.76900 31.94000
C  0.31700 9.31200 33.00000
C  0.48400 9.49300 34.53500
H  -0.31200 8.52600 35.44900
N  0.24100 6.43100 27.61600
C  0.25000 5.59100 28.70900
C  -0.30300 4.32700 28.30900
C  -0.41700 4.40000 26.88700
C  -0.06100 5.74300 26.48500
C  -0.65700 3.19400 29.25000
C  -0.87400 3.28800 25.94700
O  -1.01700 3.45900 24.76500
C  -1.15600 2.04000 26.49500
N  0.77100 8.66700 25.52000
C  0.32000 7.67600 24.73300
C  0.07900 8.14800 23.30100
C  0.05200 9.69800 23.45600
C  0.61200 9.87900 24.89700
C  1.12500 7.44200 22.30900
C  -1.38600 10.24600 23.33200
C  -2.01400 10.38800 21.90100
N  1.26900 10.45800 27.61000
C  1.43300 11.44600 26.61600
C  1.77300 12.69700 27.21100
C  1.85600 12.50800 28.54300
C  1.55300 11.10400 28.77000
C  1.79400 13.81900 26.35100
C  2.06800 13.16500 29.81400
O  2.24000 14.36800 30.09000
C  1.78900 12.04900 30.89500
C  2.88300 12.12400 31.90900
O  4.06800 12.00400 31.68700
O  2.31900 12.39600 33.13200
C  3.24900 12.58200 34.29500
H  0.70300 5.15800 30.76600
H  -0.18100 5.62700 24.35700
H  0.78200 11.94500 24.63900
H  2.47000 9.32300 32.67300
H  1.10900 6.86300 32.68700
H  3.79000 7.53600 32.20800
H  3.33300 6.20600 31.04700
H  3.28600 6.09900 32.77000
H  -0.45200 8.55100 32.86600
H  -0.27600 10.16100 32.65700
H  0.26800 10.54200 34.74100
H  1.51500 9.35300 34.85900
H  -1.71500 2.93200 29.24800
H  -0.46400 3.59400 30.24500
H  0.04600 2.36300 29.18100
H  -2.10900 2.10300 27.02100
H  -0.23500 1.76800 27.01000
H  -1.26200 1.25300 25.74900
H  -0.90600 7.79500 22.99700
H  0.70600 10.02000 22.64600
H  1.94000 8.14500 22.13400
H  0.70300 7.20600 21.33200
H  1.39800 6.49800 22.78000
H  -1.42700 11.22400 23.81300
H  -2.06300 9.51400 23.77300
H  -1.31000 10.13100 21.11000
H  -2.36500 11.41500 21.79400
H  -2.91300 9.77400 21.84000
H  0.76900 14.11000 26.12100
H  2.46100 13.62900 25.51000
H  2.20700 14.68700 26.86500
H  0.82000 12.22600 31.36100
H  3.70200 13.56500 34.16700
H  3.98400 11.78200 34.38200
H  2.65500 12.45900 35.20100
Mg 47.91200 25.18600 28.56200
C  48.87400 27.69700 30.92600
C  47.01000 23.21200 31.17900
C  47.20100 22.93600 26.39900
C  49.30900 27.23100 25.96700
N  48.08300 25.42200 30.78600
C  48.32300 26.54800 31.52900
C  48.11900 26.25500 33.04200
C  47.78500 24.73200 33.03400
C  47.52600 24.45800 31.60000
C  48.89100 23.84000 33.57500
C  46.87800 27.03600 33.53100
C  47.31300 27.92000 34.79600
H  46.30100 28.06000 35.98400
N  47.20000 23.29900 28.71700
C  46.92000 22.62500 29.86900
C  46.60400 21.23200 29.57400
C  46.45100 21.21200 28.14300
C  46.98200 22.51200 27.71000
C  46.29800 20.22100 30.61400
C  45.88500 20.08800 27.25900
O  45.70100 20.20900 26.02600
C  45.51700 18.75600 27.87900
N  48.23300 25.12900 26.48800
C  47.68700 24.11400 25.80500
C  48.03400 24.27500 24.32400
C  48.46500 25.76500 24.08900
C  48.71700 26.01700 25.59600
C  48.82800 23.15000 23.63600
C  47.40600 26.66800 23.52000
C  47.86600 28.02500 22.98600
N  48.69400 27.14100 28.35300
C  49.23500 27.83500 27.25400
C  49.68300 29.17500 27.66800
C  49.55600 29.17000 29.13300
C  48.94900 27.83400 29.51300
C  50.40000 30.24600 27.00200
C  49.66900 29.93500 30.32600
O  50.15800 31.02700 30.49100
C  49.14400 29.08300 31.48900
C  50.10800 28.91000 32.68300
O  51.12300 28.22500 32.68100
O  49.84600 29.74200 33.69100
C  50.70200 29.75900 34.89400
H  46.72100 22.58500 32.02500
H  46.89000 22.19500 25.66000
H  49.79800 27.87500 25.23400
H  48.96700 26.58900 33.63900
H  46.78900 24.53000 33.42800
H  48.45100 22.88800 33.87200
H  49.42600 24.24900 34.43200
H  49.56900 23.70500 32.73200
H  46.00600 26.42900 33.77200
H  46.57600 27.76900 32.78300
H  47.34700 28.95800 34.46600
H  48.26300 27.65400 35.25900
H  45.22900 20.15700 30.81500
H  46.81500 20.50100 31.53200
H  46.67500 19.24900 30.29400
H  46.33400 18.17900 28.31300
H  44.95300 18.10400 27.21300
H  44.86700 18.82700 28.75100
H  47.10200 24.19100 23.76600
H  49.34800 25.86600 23.45800
H  49.63800 23.61100 23.07100
H  48.30100 22.46200 22.97500
H  49.27500 22.50800 24.39500
H  46.77500 26.81900 24.39600
H  46.87700 26.13000 22.73300
H  48.93800 28.22000 23.02700
H  47.34100 28.81100 23.52900
H  47.76400 27.96000 21.90300
H  49.98400 30.47300 26.02000
H  51.47000 30.11200 26.84900
H  50.27000 31.17300 27.56000
H  48.22700 29.58700 31.79500
H  51.71200 29.61900 34.50700
H  50.43100 29.02200 35.65000
H  50.68800 30.76300 35.31900

