158

Mg 53.63400 23.88000 46.12900
C  51.02300 25.72200 44.99300
C  51.85700 21.05200 45.14400
C  56.48600 22.02500 46.51300
C  55.54500 26.79900 46.70000
N  51.70900 23.39800 45.08500
C  50.79100 24.38200 44.78400
C  49.41200 23.73000 44.30700
C  49.62100 22.25700 44.69200
C  51.11900 22.23200 44.96200
C  48.83600 21.67600 45.92700
C  49.13600 23.90700 42.73700
C  47.70800 24.50600 42.42800
H  47.11900 23.96100 41.11500
N  54.10300 21.82500 45.84800
C  53.22400 20.83300 45.43400
C  53.96200 19.52000 45.48800
C  55.31600 19.83900 45.77000
C  55.32300 21.23500 46.10200
C  53.32000 18.22700 44.99300
C  56.43200 18.84300 45.95200
O  56.35000 17.66700 45.66100
C  57.85200 19.18700 46.48500
N  55.73100 24.36800 46.33900
C  56.62900 23.42500 46.63700
C  57.93000 23.98000 47.24800
C  57.72600 25.49400 47.07900
C  56.25200 25.57600 46.70500
C  58.20000 23.45600 48.67300
C  58.57500 26.14800 45.93400
C  59.36900 27.39900 46.44500
N  53.39900 25.89900 46.02100
C  54.25200 26.94800 46.32400
C  53.43700 28.15000 46.23700
C  52.20500 27.73300 45.67000
C  52.23300 26.36500 45.54200
C  53.67500 29.53700 46.69600
C  50.88000 28.20900 45.22600
O  50.41800 29.33700 45.28900
C  50.14700 26.92700 44.67800
C  50.17500 27.25300 43.21700
O  51.01500 26.88400 42.42000
O  49.02000 27.90900 42.82900
C  48.82300 28.21000 41.35200
H  51.20500 20.18700 45.00500
H  57.42600 21.53300 46.77300
H  55.99200 27.73300 47.04800
H  48.62900 24.08100 44.98000
H  49.35200 21.63700 43.83700
H  48.12100 20.93600 45.56800
H  48.21900 22.45600 46.37400
H  49.36600 21.34400 46.82000
H  49.24100 22.97600 42.17900
H  49.85500 24.51700 42.19100
H  47.73500 25.59600 42.42300
H  47.05000 24.43400 43.29500
H  53.58900 17.47000 45.73000
H  53.81000 17.98500 44.05000
H  52.23600 18.29900 44.89600
H  58.49200 19.86100 45.91800
H  58.35700 18.25000 46.72100
H  57.80800 19.62300 47.48400
H  58.87000 23.72500 46.75900
H  57.86000 25.94000 48.06400
H  57.34600 22.93900 49.11400
H  58.42100 24.20600 49.43200
H  58.98200 22.69900 48.72900
H  57.96900 26.51500 45.10500
H  59.31300 25.42800 45.58200
H  60.35600 27.44000 45.98400
H  59.30100 27.54900 47.52200
H  58.93700 28.31600 46.04400
H  52.99700 30.16700 46.12000
H  54.70700 29.85200 46.54100
H  53.50700 29.73700 47.75400
H  49.11000 26.82500 44.99800
H  49.85000 28.37800 41.02500
H  48.10500 29.02900 41.34800
H  48.40900 27.38100 40.77700
Mg 47.50400 14.71700 27.90300
C  45.37900 15.12500 30.57800
C  49.58900 17.07900 29.23800
C  49.18000 14.75100 25.06000
C  44.90500 12.90200 26.31500
N  47.36100 16.09300 29.67500
C  46.51900 15.92700 30.74800
C  47.09200 16.51300 32.03100
C  48.17100 17.43100 31.43400
C  48.42600 16.92100 29.98500
C  47.85600 18.93100 31.49100
C  47.54100 15.55700 33.09300
C  47.20500 15.98200 34.53500
H  48.40000 16.47000 35.34300
N  49.21600 15.65500 27.30900
C  49.93000 16.54300 28.01200
C  51.33200 16.67500 27.44000
C  51.20100 16.05600 26.10800
C  49.80200 15.45800 26.11000
C  52.54200 17.31200 28.17900
C  52.20600 16.03300 24.94500
O  51.97000 15.52900 23.87700
C  53.46200 16.85000 25.05200
N  47.07900 14.03200 26.05400
C  47.91700 14.18500 25.03500
C  47.45600 13.51100 23.74100
C  46.18900 12.72900 24.20100
C  46.00700 13.28000 25.58800
C  47.10100 14.42100 22.50500
C  46.47100 11.22300 24.14900
C  47.38900 10.53000 25.17400
N  45.50900 14.07200 28.34200
C  44.59200 13.26300 27.67500
C  43.48700 12.96700 28.53600
C  43.82600 13.61300 29.74300
C  45.00700 14.33300 29.53500
C  42.30500 12.11100 28.20700
C  43.29100 13.82600 31.07500
O  42.25000 13.45300 31.61800
C  44.35600 14.86500 31.68400
C  43.59700 16.10300 32.08700
O  43.31100 17.05800 31.38200
O  43.10000 15.93300 33.31000
C  42.47300 17.01300 33.99800
H  50.42900 17.59500 29.70800
H  49.67900 14.76100 24.08900
H  44.17300 12.26400 25.81600
H  46.27500 17.08500 32.47100
H  49.09700 17.29100 31.99000
H  47.68000 19.27500 30.47100
H  48.74800 19.45300 31.83700
H  46.98500 19.14600 32.11100
H  48.62200 15.41400 33.07400
H  47.12600 14.58200 32.83600
H  46.62400 15.23700 35.07800
H  46.63300 16.91000 34.54800
H  53.43800 16.77000 27.87800
H  52.25700 17.02100 29.18900
H  52.56300 18.40200 28.18600
H  54.07400 16.42700 25.84900
H  53.22700 17.89500 25.25500
H  53.93700 16.83900 24.07100
H  48.33300 12.94000 23.43700
H  45.27900 12.92600 23.63400
H  46.22600 13.97100 22.03500
H  47.96800 14.57800 21.86400
H  46.85000 15.32000 23.06800
H  46.82500 10.99700 23.14400
H  45.49300 10.75200 24.24700
H  47.66100 11.03000 26.10400
H  48.31800 10.17200 24.73000
H  46.85900 9.66200 25.56500
H  41.40100 12.65900 27.94100
H  42.03600 11.49200 29.06300
H  42.56100 11.57600 27.29300
H  44.72700 14.30600 32.54300
H  42.84000 17.98700 33.67500
H  42.76000 16.80000 35.02800
H  41.38700 16.92000 34.03000

