158

Mg 44.89000 4.54800 46.44800
C  42.92300 7.47300 46.84300
C  41.91000 2.90000 45.95700
C  46.72900 1.87100 45.80900
C  47.72100 6.53800 46.62000
N  42.67800 5.22000 46.38400
C  42.07900 6.41600 46.60300
C  40.58200 6.37600 46.57200
C  40.29100 4.82400 46.60200
C  41.72200 4.26500 46.30300
C  39.51900 4.28800 47.78400
C  39.98700 7.28800 45.42200
C  40.45900 7.23600 43.98400
H  39.74800 6.38700 42.94400
N  44.39100 2.64700 45.86600
C  43.08300 2.13400 45.78900
C  43.20800 0.71600 45.54200
C  44.60000 0.37800 45.41300
C  45.29700 1.67000 45.64300
C  41.99700 -0.22100 45.27500
C  45.16100 -1.02700 45.11600
O  44.44200 -2.03600 45.17600
C  46.44400 -1.22200 44.52400
N  46.99600 4.33900 45.91300
C  47.53700 3.09500 45.86900
C  48.98700 3.09900 46.24600
C  49.36000 4.66500 46.14200
C  47.90000 5.24100 46.24900
C  49.35300 2.55700 47.65100
C  49.96500 5.20300 44.79100
C  51.44600 5.79200 44.90600
N  45.32300 6.60600 46.67900
C  46.54400 7.26700 46.78600
C  46.34500 8.64500 47.12400
C  44.92700 8.78600 47.12800
C  44.35000 7.52100 46.84600
C  47.38800 9.76500 47.08600
C  43.85800 9.68800 47.30700
O  43.78500 10.86600 47.42400
C  42.52200 8.82000 47.21200
C  41.76000 8.96000 48.42900
O  41.98800 8.29300 49.42200
O  40.58000 9.69700 48.24000
C  39.59000 9.54700 49.33800
H  40.90700 2.46900 45.96000
H  47.30800 0.95900 45.65300
H  48.64800 7.04800 46.89100
H  40.40300 6.83600 47.54300
H  39.58700 4.57900 45.80600
H  39.24000 4.98200 48.57700
H  40.12300 3.45100 48.13500
H  38.62200 3.68800 47.63600
H  40.02700 8.33900 45.70700
H  38.95500 6.97100 45.57500
H  41.45000 6.78600 43.93300
H  40.35600 8.24900 43.59400
H  41.81800 -0.33100 44.20500
H  41.00900 0.04700 45.65000
H  42.31200 -1.21400 45.59800
H  46.38700 -1.85800 43.64200
H  47.15300 -1.73900 45.17000
H  46.92100 -0.29700 44.20100
H  49.45800 2.51000 45.45800
H  49.85600 5.14200 46.98700
H  48.41000 2.34600 48.15500
H  49.88700 3.29000 48.25500
H  50.02300 1.70100 47.56100
H  49.24700 5.92300 44.39900
H  49.95200 4.45400 43.99900
H  51.53500 6.59400 44.17300
H  52.11600 4.96900 44.65700
H  51.63400 6.15700 45.91600
H  46.94000 10.67400 46.68400
H  48.31500 9.57300 46.54500
H  47.63300 10.06000 48.10600
H  41.83900 9.30600 46.51500
H  38.62900 9.67400 48.83900
H  39.74200 10.30700 50.10500
H  39.59500 8.57100 49.82300
Mg 49.50100 35.77400 27.00800
C  47.02800 34.78100 29.29100
C  50.20400 38.50800 28.66000
C  51.63200 36.54100 24.51300
C  48.14800 33.21800 24.83600
N  48.68900 36.46500 28.76300
C  47.74900 35.92400 29.62400
C  47.52400 36.87300 30.81600
C  48.35800 38.15600 30.44000
C  49.25900 37.67100 29.25500
C  47.50600 39.46900 30.27200
C  47.86500 36.30600 32.22000
C  46.66500 36.20500 33.14600
H  46.48500 37.51200 33.92800
N  50.89900 37.29900 26.75000
C  51.10200 38.26800 27.58200
C  52.22600 39.08300 27.13300
C  52.65600 38.55800 25.86900
C  51.71200 37.48700 25.62700
C  52.66100 40.30300 27.84100
C  53.80700 38.96600 25.01400
O  54.15600 38.36400 23.97200
C  54.73700 40.11600 25.49000
N  49.65800 35.06300 24.93200
C  50.72800 35.56400 24.20400
C  50.99100 34.71300 22.88900
C  50.11700 33.40400 23.26500
C  49.22600 33.92200 24.33300
C  50.71900 35.27000 21.48600
C  50.97000 32.21200 23.74900
C  51.25400 31.12800 22.75600
N  47.96600 34.16000 26.99100
C  47.51000 33.25700 26.07200
C  46.37900 32.50200 26.64900
C  46.09500 33.14900 27.85000
C  47.14200 34.11500 28.07700
C  45.73800 31.22100 26.03900
C  45.25200 33.13500 28.97500
O  44.30900 32.44800 29.25200
C  45.85200 34.15100 29.95500
C  46.05900 33.42600 31.26200
O  47.10100 32.86800 31.66600
O  44.84100 33.50700 31.95800
C  44.90200 33.00700 33.36100
H  50.40600 39.46400 29.14600
H  52.41500 36.72700 23.77400
H  47.85000 32.39400 24.18400
H  46.44000 36.98700 30.79700
H  49.04700 38.30100 31.27300
H  47.89200 39.92800 29.36200
H  47.68900 40.14800 31.10500
H  46.46100 39.21400 30.09700
H  48.63800 36.91600 32.68700
H  48.30000 35.32000 32.05100
H  46.79400 35.36200 33.82400
H  45.75300 35.97800 32.59500
H  53.72200 40.27700 28.08900
H  52.22500 40.38900 28.83600
H  52.48600 41.18400 27.22200
H  54.15200 41.03500 25.54200
H  55.59000 40.16200 24.81300
H  55.04700 39.89400 26.51100
H  52.02000 34.35200 22.86900
H  49.48300 33.03900 22.45600
H  51.57600 35.14800 20.82400
H  50.63900 36.33900 21.68200
H  49.84300 34.84400 20.99600
H  50.46100 31.64900 24.53200
H  51.97800 32.47000 24.07200
H  50.76100 31.24300 21.79100
H  50.87700 30.16300 23.09400
H  52.31000 31.07300 22.49000
H  46.45900 30.41300 26.16600
H  45.62200 31.41700 24.97300
H  44.77600 30.96400 26.48200
H  45.17200 34.98700 30.12300
H  45.86600 32.75000 33.80000
H  44.33400 32.07900 33.29100
H  44.40800 33.72100 34.02000

