158

Mg 8.43400 3.59700 27.32400
C  9.58400 2.26700 30.36000
C  6.50600 5.72600 29.01600
C  7.12300 4.35700 24.40800
C  10.05300 0.73500 25.69900
N  8.06100 3.94100 29.42100
C  8.82500 3.40700 30.47500
C  8.34600 4.00600 31.79900
C  7.22500 5.00900 31.42800
C  7.25200 4.91900 29.87300
C  5.84600 4.58200 31.94900
C  9.43400 4.63900 32.61300
C  9.16600 4.77100 34.11600
H  10.38900 4.88100 35.09800
N  7.21100 4.98400 26.77500
C  6.47400 5.76800 27.59600
C  5.74900 6.67600 26.79900
C  5.85300 6.29700 25.48600
C  6.77400 5.17000 25.48200
C  4.95600 7.76900 27.50300
C  5.21100 6.87800 24.32600
O  5.45700 6.42000 23.20500
C  4.40400 8.07200 24.41900
N  8.76100 2.74700 25.32600
C  8.11300 3.31600 24.28500
C  8.31700 2.49700 22.98300
C  9.19600 1.30400 23.34800
C  9.36700 1.61500 24.87000
C  6.97900 2.13800 22.27900
C  10.61900 1.15200 22.66400
C  10.68900 0.10700 21.53000
N  9.67700 1.94100 27.84000
C  10.28400 0.91000 27.08900
C  11.12300 0.05900 27.94200
C  10.89300 0.59500 29.22800
C  10.00300 1.68300 29.11200
C  11.93900 -1.06600 27.32500
C  11.22600 0.45500 30.65200
O  11.92000 -0.31500 31.27200
C  10.40600 1.58300 31.48400
C  9.72900 0.89700 32.51300
O  8.84800 0.06200 32.24300
O  10.27900 1.16500 33.72300
C  9.72600 0.39600 34.84600
H  5.88700 6.47000 29.52300
H  6.91500 4.61600 23.36800
H  10.59400 -0.07200 25.20000
H  7.84700 3.18200 32.30900
H  7.46900 6.01800 31.75900
H  5.22800 4.10300 31.18900
H  5.22800 5.42300 32.26500
H  5.88700 3.93700 32.82600
H  9.49200 5.68200 32.30200
H  10.43300 4.26500 32.38900
H  8.66900 3.81600 34.28800
H  8.48400 5.57700 34.38900
H  4.93600 8.68200 26.91000
H  5.17300 7.94700 28.55700
H  3.93300 7.39100 27.50100
H  3.96000 8.27800 23.44500
H  5.08200 8.86900 24.72800
H  3.64700 7.79800 25.15400
H  8.72300 3.21600 22.27100
H  8.60000 0.39400 23.27900
H  6.11300 2.36500 22.90000
H  6.92000 1.05600 22.16800
H  6.96400 2.59100 21.28800
H  11.41600 0.90500 23.36600
H  10.82000 2.08900 22.14500
H  9.72000 -0.36800 21.37500
H  11.39500 -0.70000 21.72500
H  10.93600 0.61800 20.60000
H  12.70400 -1.49300 27.97300
H  12.40700 -0.62100 26.44700
H  11.24500 -1.87700 27.10100
H  11.20600 2.18500 31.91600
H  9.36200 -0.60700 34.62200
H  8.89100 0.84900 35.38200
H  10.48700 0.22100 35.60700
Mg 30.35500 57.61900 39.93100
C  27.58000 55.63300 38.82600
C  32.39100 54.99000 39.07300
C  33.00200 59.61000 40.17200
C  28.18000 60.41600 40.12000
N  29.99900 55.53800 39.03200
C  28.80800 54.92400 38.73800
C  29.12100 53.60100 37.99700
C  30.55700 53.23400 38.63600
C  31.00300 54.67000 39.00100
C  30.50500 52.31600 39.93200
C  29.03300 53.65800 36.46700
C  27.98000 52.75700 35.84600
H  27.09800 53.28900 34.68000
N  32.34500 57.36000 39.74100
C  32.98800 56.19100 39.45800
C  34.45100 56.48000 39.53000
C  34.68100 57.83900 39.85800
C  33.30100 58.31800 39.92800
C  35.41800 55.30100 39.34900
C  36.09200 58.45300 39.99000
O  37.09600 57.80300 39.81400
C  36.23800 59.90400 40.22100
N  30.48500 59.71000 40.16100
C  31.76100 60.27500 40.31400
C  31.62600 61.84600 40.52000
C  30.07700 62.05600 40.74400
C  29.53900 60.64200 40.30200
C  32.44300 62.46200 41.71800
C  29.56100 63.37900 40.10600
C  28.36600 64.18300 40.70300
N  28.24600 58.01400 39.59800
C  27.56800 59.18400 39.74600
C  26.17400 58.88300 39.53400
C  26.10500 57.48800 39.13000
C  27.42000 56.99900 39.18100
C  24.96000 59.85000 39.63300
C  25.22600 56.40900 38.73200
O  24.00300 56.38000 38.56000
C  26.19500 55.12400 38.43200
C  25.79600 53.97700 39.29700
O  25.69100 53.97800 40.54200
O  25.42200 52.92600 38.56800
C  24.85200 51.71100 39.30700
H  33.07600 54.17500 38.82700
H  33.84600 60.30000 40.24000
H  27.46700 61.21000 40.35000
H  28.41200 52.80600 38.22700
H  31.05300 52.69000 37.83200
H  29.47100 51.97900 40.00100
H  30.70000 52.81500 40.88100
H  30.99400 51.34300 39.87800
H  29.94800 53.36800 35.94900
H  28.66800 54.62400 36.12100
H  27.23300 52.42300 36.56600
H  28.48400 51.86100 35.48400
H  36.40700 55.57900 38.98400
H  35.10400 54.41600 38.79500
H  35.54300 54.79400 40.30500
H  35.90900 60.28600 41.18700
H  35.97500 60.49300 39.34200
H  37.32000 60.03300 40.20900
H  31.90700 62.35100 39.59600
H  29.83000 62.02800 41.80500
H  33.14100 63.20700 41.33500
H  32.86700 61.66300 42.32600
H  31.72700 63.05600 42.28500
H  29.22100 63.11900 39.10400
H  30.34500 64.11200 39.91400
H  28.01400 63.63800 41.57900
H  27.52200 64.07700 40.02200
H  28.57100 65.24100 40.86600
H  25.10900 60.75600 39.04500
H  24.66800 60.01300 40.67000
H  24.10900 59.34300 39.17900
H  26.07400 54.90100 37.37200
H  23.83600 51.90200 39.65200
H  25.45300 51.39100 40.15800
H  24.76900 50.83200 38.66800

