158

Mg 48.02500 16.03800 28.55700
C  45.99300 15.65700 31.35200
C  50.17400 17.95300 30.44500
C  49.81700 16.38800 25.78200
C  45.45800 14.44600 26.61500
N  48.06000 16.69100 30.63200
C  47.17000 16.37600 31.60800
C  47.63300 16.78800 32.96300
C  48.73100 17.83900 32.62600
C  49.02200 17.56100 31.14700
C  48.16200 19.31300 32.93500
C  48.12900 15.59900 33.76800
C  48.15200 15.89000 35.31200
H  47.72000 17.22400 35.85100
N  49.74100 16.93100 28.17900
C  50.48200 17.71100 29.07200
C  51.71500 18.23700 28.41500
C  51.69000 17.66500 27.11700
C  50.32700 17.00100 26.94000
C  52.71800 19.12600 29.09800
C  52.83200 17.66200 26.09200
O  52.71100 17.18300 24.94900
C  54.24000 18.15700 26.39600
N  47.57600 15.68500 26.41100
C  48.57900 15.74000 25.52600
C  48.22500 15.11800 24.17400
C  46.82900 14.51900 24.48400
C  46.58300 14.87700 25.91900
C  48.25500 16.20300 23.02100
C  46.78900 12.92600 24.25900
C  45.57600 12.15900 23.80700
N  46.16500 15.14900 28.86700
C  45.21900 14.64000 27.97500
C  44.07600 14.32100 28.73600
C  44.32000 14.58700 30.09500
C  45.61100 15.19000 30.06900
C  42.85900 13.70500 28.21700
C  43.67500 14.64500 31.40000
O  42.53000 14.30100 31.74500
C  44.84300 15.18000 32.34600
C  44.31000 16.22900 33.24800
O  44.40100 17.44600 32.98400
O  43.84200 15.67400 34.45500
C  43.24900 16.55800 35.45600
H  50.84400 18.55100 31.06600
H  50.53400 16.46100 24.96100
H  44.74000 13.85800 26.04000
H  46.79000 17.23700 33.48800
H  49.64600 17.61900 33.17600
H  47.08300 19.45900 32.88400
H  48.65700 20.00300 32.25300
H  48.40600 19.63300 33.94800
H  49.18700 15.40600 33.59100
H  47.49700 14.75000 33.51000
H  49.13300 15.67600 35.73600
H  47.45700 15.12000 35.64600
H  53.53900 18.54300 29.51500
H  52.35100 19.71700 29.93700
H  53.13500 19.85400 28.40100
H  54.52100 17.83800 27.39900
H  54.19800 19.20600 26.10100
H  54.95200 17.63500 25.75600
H  49.02900 14.38400 24.13000
H  46.00700 14.96300 23.92300
H  48.91700 15.84600 22.23200
H  48.64300 17.11200 23.48000
H  47.25700 16.36100 22.61300
H  47.03700 12.42000 25.19200
H  47.61000 12.61800 23.61100
H  45.38700 11.44000 24.60400
H  45.86500 11.66200 22.88100
H  44.65600 12.72900 23.67300
H  43.10200 12.77500 27.70300
H  42.53800 14.42500 27.46400
H  42.20100 13.61800 29.08200
H  45.04000 14.34200 33.01600
H  42.19600 16.62200 35.18000
H  43.58800 17.59400 35.47400
H  43.24600 16.14100 36.46300
Mg 35.48700 49.12000 26.47500
C  35.83200 46.77100 29.05800
C  34.34200 51.41500 28.70300
C  34.47200 50.98500 23.82900
C  36.03800 46.49900 24.28700
N  35.06500 49.01500 28.67400
C  35.48200 48.03500 29.51900
C  35.41400 48.52100 30.94300
C  34.61700 49.91700 30.84400
C  34.61800 50.13900 29.30500
C  33.23200 50.09000 31.43000
C  36.79700 48.70600 31.63600
C  36.80300 48.30800 33.15800
H  36.69200 49.43100 34.24600
N  34.67700 50.98900 26.31000
C  34.35000 51.79400 27.29500
C  33.85000 53.06800 26.75800
C  33.96400 53.01500 25.34100
C  34.43300 51.65300 25.08700
C  33.12300 54.15700 27.60800
C  33.54600 54.12500 24.29600
O  33.36600 53.90000 23.10400
C  33.18000 55.48000 24.81900
N  35.40200 48.78000 24.42600
C  34.83500 49.70400 23.53400
C  34.84400 49.18000 22.04700
C  35.57000 47.80100 22.23800
C  35.72000 47.68500 23.74600
C  33.44200 49.14100 21.28100
C  36.88700 47.54200 21.47200
C  36.78000 46.64300 20.17000
N  35.89200 47.09300 26.56800
C  36.14900 46.10400 25.59200
C  36.58100 44.83800 26.16500
C  36.48000 45.03900 27.55100
C  36.05900 46.43300 27.70100
C  36.89200 43.61700 25.36000
C  36.62100 44.52100 28.93400
O  36.89900 43.40600 29.34200
C  36.33900 45.68800 29.90000
C  35.28700 45.30900 30.92200
O  34.08100 45.22100 30.87700
O  35.96400 44.95100 32.07200
C  35.18700 44.69400 33.24400
H  34.05600 52.25000 29.34600
H  33.92900 51.62600 23.13100
H  36.18900 45.58300 23.71100
H  34.83500 47.81200 31.53400
H  35.25300 50.62700 31.37400
H  33.16000 50.95700 32.08600
H  32.85700 49.18400 31.90400
H  32.52300 50.38600 30.65600
H  37.01900 49.77200 31.57600
H  37.56100 48.22700 31.02200
H  37.72300 47.73900 33.29100
H  35.92900 47.67000 33.29000
H  33.62900 55.12200 27.62400
H  33.06400 53.83300 28.64700
H  32.09800 54.28900 27.26000
H  33.02200 56.15800 23.98100
H  34.15000 55.78700 25.21000
H  32.39700 55.49700 25.57700
H  35.49100 49.86100 21.49400
H  34.87700 47.01100 21.94700
H  32.69200 49.69500 21.84700
H  33.00200 48.16900 21.06000
H  33.56500 49.79400 20.41700
H  37.58000 47.20900 22.24500
H  37.32100 48.46600 21.09100
H  37.85700 46.52500 20.05000
H  36.35800 47.10600 19.27800
H  36.43300 45.61000 20.19400
H  37.77200 43.85600 24.76300
H  36.12400 43.22100 24.69700
H  37.20100 42.72700 25.90900
H  37.25400 46.01500 30.39400
H  34.35900 45.39300 33.36300
H  35.82100 44.57200 34.12200
H  34.74500 43.70000 33.17800

