158

Mg 16.89800 -2.41200 28.18200
C  16.01800 -0.32100 30.86400
C  18.69900 -4.29200 30.32500
C  18.03300 -3.99100 25.43700
C  15.29000 -0.00800 26.03700
N  17.27500 -2.20600 30.32700
C  16.78200 -1.37400 31.29600
C  17.37100 -1.67900 32.66800
C  18.39200 -2.84200 32.32600
C  18.04700 -3.17800 30.89400
C  19.91400 -2.46700 32.46800
C  16.32300 -1.99200 33.72100
C  16.58000 -1.51400 35.16600
H  18.01000 -1.63900 35.71300
N  18.06000 -4.08100 27.92300
C  18.70900 -4.70700 28.97100
C  19.39900 -5.86300 28.40200
C  19.20500 -5.79400 26.92400
C  18.38500 -4.58400 26.69700
C  20.10200 -6.79400 29.35900
C  19.75800 -6.67400 25.86400
O  19.54500 -6.63300 24.63800
C  20.71700 -7.66000 26.24600
N  16.67700 -2.06600 26.01500
C  17.35100 -2.79700 25.07400
C  17.06500 -2.27600 23.66600
C  16.20800 -1.07700 23.92100
C  16.06400 -1.02800 25.42700
C  18.33100 -1.90500 22.80100
C  14.86100 -1.05600 23.05400
C  13.45800 -1.47600 23.49900
N  15.84400 -0.62500 28.29100
C  15.16000 0.18100 27.42200
C  14.42900 1.18200 28.11700
C  14.79200 1.06600 29.45100
C  15.63500 -0.01700 29.53600
C  13.51100 2.17400 27.50000
C  14.62300 1.71400 30.72400
O  13.99600 2.70500 30.99400
C  15.40700 0.78100 31.72500
C  16.48700 1.61600 32.38900
O  17.66200 1.72100 32.11500
O  15.87900 2.46300 33.26100
C  16.75400 3.51300 33.82400
H  19.17300 -4.90100 31.09700
H  18.51700 -4.50000 24.60100
H  14.80700 0.74100 25.40500
H  17.86600 -0.77600 33.02600
H  18.20000 -3.67100 33.00700
H  20.03200 -1.42600 32.76900
H  20.31500 -2.56300 31.45900
H  20.44100 -3.15300 33.13200
H  16.10300 -3.05700 33.64500
H  15.39200 -1.51900 33.41100
H  15.90100 -2.21500 35.65100
H  16.09700 -0.54700 35.30700
H  19.45000 -7.27700 30.08700
H  20.91900 -6.25900 29.84400
H  20.49100 -7.65600 28.81700
H  21.10000 -8.13300 25.34200
H  20.14700 -8.39200 26.81800
H  21.59800 -7.33600 26.79900
H  16.49200 -2.98300 23.06700
H  16.72600 -0.12000 23.85800
H  18.26800 -2.67800 22.03500
H  19.21500 -2.15300 23.38800
H  18.36000 -0.88400 22.42000
H  15.06900 -1.58000 22.12100
H  14.78600 -0.00800 22.76300
H  12.84600 -0.58400 23.63300
H  13.58100 -1.98200 24.45600
H  13.03100 -2.14900 22.75500
H  12.82400 1.62800 26.85500
H  14.10400 2.90500 26.95000
H  13.04100 2.80400 28.25600
H  14.75700 0.28900 32.45000
H  17.67000 3.13600 34.27800
H  16.30900 4.09300 34.63200
H  17.18000 4.22400 33.11600
Mg 41.85200 41.01100 26.89200
C  41.40600 43.43400 29.36700
C  42.50900 38.75900 29.50500
C  42.70200 38.65900 24.61600
C  41.37800 43.36000 24.48800
N  41.93300 41.07600 29.20300
C  41.62800 42.18800 29.96400
C  41.69100 41.86100 31.49100
C  42.01900 40.35700 31.45700
C  42.22200 40.02700 29.97100
C  43.26300 39.90100 32.29900
C  40.37200 42.17900 32.19900
C  40.06600 41.42500 33.49800
H  39.41800 42.19900 34.57400
N  42.40800 38.95800 27.04700
C  42.61300 38.24000 28.14600
C  43.01300 36.92700 27.77800
C  43.25400 36.89400 26.35200
C  42.79800 38.21900 25.91900
C  43.38700 36.00900 28.86800
C  43.81100 35.78200 25.47000
O  43.98600 35.97400 24.24500
C  44.26000 34.50000 26.15800
N  41.86500 40.98700 24.85500
C  42.32800 39.92700 24.09900
C  42.05000 40.24600 22.68200
C  41.34300 41.60400 22.66500
C  41.51900 42.01200 24.12400
C  43.38900 40.21100 21.86800
C  39.85900 41.50400 22.25200
C  38.90500 40.28700 22.75200
N  41.38700 43.02400 26.89300
C  41.24400 43.89100 25.81600
C  41.09600 45.27500 26.23300
C  41.05900 45.11400 27.64500
C  41.30500 43.76100 27.99800
C  41.01800 46.51300 25.34000
C  40.93100 45.78700 28.88200
O  40.70400 46.95200 29.11800
C  41.02200 44.74600 30.02600
C  41.95700 45.28000 30.95600
O  43.17100 45.38400 30.76300
O  41.38800 45.57900 32.21400
C  42.46700 45.87900 33.24900
H  42.53200 38.12600 30.39500
H  43.03800 38.01400 23.80200
H  41.26600 44.12700 23.71900
H  42.53900 42.40500 31.90800
H  41.29400 39.65100 31.86300
H  44.14800 39.81800 31.66800
H  43.17600 38.95500 32.83200
H  43.34000 40.65100 33.08700
H  39.61700 42.03400 31.42700
H  40.41300 43.23500 32.46600
H  40.95000 40.97300 33.94800
H  39.41600 40.57300 33.30100
H  44.44000 36.21700 29.05400
H  43.28100 34.96200 28.58200
H  42.72200 36.14200 29.72200
H  45.20500 34.60300 26.69000
H  44.37500 33.73400 25.39100
H  43.57900 33.90400 26.76500
H  41.44300 39.45700 22.23900
H  41.76800 42.50300 22.22000
H  44.13600 39.57500 22.34300
H  43.85500 41.18600 21.73100
H  43.19500 39.78200 20.88400
H  39.62900 41.47800 21.18700
H  39.42000 42.44300 22.59100
H  38.34500 39.82400 21.94000
H  38.21400 40.75200 23.45600
H  39.32400 39.49900 23.37800
H  39.95200 46.66100 25.17000
H  41.49300 46.37200 24.36900
H  41.44400 47.35400 25.88600
H  40.04700 44.57400 30.48300
H  42.74700 46.93200 33.24800
H  43.30100 45.18400 33.14700
H  41.94200 45.65600 34.17800

