158

Mg 35.91900 1.01100 29.61400
C  33.57500 2.06000 31.93300
C  38.30400 0.95300 32.12000
C  38.13700 -0.05200 27.29800
C  33.52400 1.38400 27.21500
N  35.99400 1.44100 31.80400
C  34.87100 1.75400 32.51500
C  35.18400 1.78400 33.98200
C  36.80100 1.93500 33.96200
C  37.11700 1.43700 32.54100
C  37.31900 3.43900 34.16900
C  34.48100 0.52900 34.63100
C  34.15300 0.81100 36.18100
H  34.99700 1.83600 36.92200
N  37.93200 0.45600 29.71100
C  38.73200 0.45300 30.82900
C  39.93800 -0.24600 30.53300
C  39.97200 -0.42700 29.13500
C  38.64000 0.05200 28.62400
C  41.02100 -0.49200 31.58000
C  41.10100 -0.93200 28.26300
O  41.15200 -0.90200 27.00400
C  42.36800 -1.51100 28.95800
N  35.89300 0.90300 27.54300
C  36.88500 0.36300 26.80800
C  36.52200 0.11400 25.34100
C  34.99300 0.59500 25.28800
C  34.77600 0.99400 26.75800
C  37.43300 0.82700 24.27100
C  33.93000 -0.47600 24.78900
C  33.54700 -1.52500 25.84800
N  33.99100 1.75600 29.51400
C  33.09600 1.85700 28.46200
C  31.80000 2.30400 28.91400
C  31.98200 2.39500 30.26100
C  33.29800 1.99400 30.56900
C  30.61700 2.43100 28.14600
C  31.28200 2.73200 31.53600
O  30.09300 3.04500 31.80600
C  32.34600 2.50000 32.67700
C  32.42400 3.72800 33.49800
O  33.16500 4.67600 33.34100
O  31.72600 3.51600 34.66200
C  32.02400 4.50900 35.74300
H  39.04900 0.92200 32.91800
H  38.67200 -0.66500 26.57000
H  32.80700 1.52600 26.40400
H  34.69200 2.66300 34.39900
H  37.37900 1.33900 34.66700
H  37.90100 3.41300 35.09000
H  36.63000 4.28100 34.24000
H  37.98600 3.66500 33.33700
H  35.01200 -0.41300 34.49400
H  33.53100 0.47400 34.09900
H  34.22700 -0.21400 36.54300
H  33.11000 1.12700 36.21000
H  41.57600 -1.43000 31.55600
H  40.54400 -0.35400 32.55100
H  41.66500 0.38000 31.46800
H  43.07200 -0.73100 29.24700
H  42.96200 -1.92500 28.14300
H  42.14400 -2.27600 29.70000
H  36.59000 -0.96700 25.22000
H  34.81100 1.48400 24.68400
H  38.08100 1.53700 24.78500
H  36.78900 1.39100 23.59700
H  38.01400 0.08700 23.72100
H  34.21300 -0.84900 23.80500
H  32.99500 0.03300 24.55300
H  34.12000 -1.56600 26.77400
H  33.65300 -2.53000 25.44000
H  32.48600 -1.48200 26.09400
H  29.67100 2.31000 28.67400
H  30.62100 1.72200 27.31900
H  30.65400 3.46300 27.79600
H  31.96100 1.76000 33.37900
H  31.19500 4.34500 36.43200
H  32.09600 5.54700 35.41800
H  32.99700 4.33300 36.20200
Mg 35.90900 49.69200 26.01200
C  35.77000 47.96200 29.02200
C  34.74600 52.43400 27.56200
C  35.62800 51.13900 22.95800
C  36.71800 46.66300 24.44300
N  35.33500 50.07900 28.06000
C  35.42400 49.32500 29.22500
C  35.07000 50.04300 30.53200
C  34.59100 51.41000 29.94500
C  34.89800 51.33700 28.37400
C  33.14100 51.84000 30.38000
C  36.19400 50.04100 31.56300
C  35.84300 49.89800 32.96300
H  34.36100 50.10000 33.51100
N  35.31100 51.50300 25.32600
C  34.94800 52.54300 26.20400
C  34.79600 53.71800 25.40500
C  34.89100 53.36500 24.04300
C  35.26800 51.91500 24.05200
C  34.51800 55.14800 25.90900
C  34.45300 54.17700 22.86600
O  34.47600 53.74100 21.68700
C  34.06500 55.59400 23.09300
N  36.08800 48.90300 24.02500
C  35.93700 49.73700 22.89800
C  36.22400 49.01200 21.62500
C  36.72800 47.67000 22.16200
C  36.51900 47.77100 23.66300
C  34.99900 48.95400 20.68100
C  38.19500 47.33800 21.78600
C  39.31600 47.91100 22.72100
N  36.24600 47.67300 26.58400
C  36.59500 46.53300 25.86400
C  36.64000 45.47400 26.73000
C  36.35700 45.95200 27.98500
C  36.06400 47.31000 27.85400
C  37.06900 43.99900 26.39600
C  36.24000 45.57500 29.40600
O  36.47000 44.50200 29.93500
C  35.73900 46.89600 30.09900
C  34.43900 46.53300 30.66100
O  33.42700 46.50800 30.00900
O  34.57300 46.12700 31.99200
C  33.38400 45.69200 32.75600
H  34.40000 53.32900 28.08500
H  35.59600 51.67400 22.00600
H  37.02800 45.78900 23.86700
H  34.24800 49.48100 30.97700
H  35.25100 52.21200 30.27500
H  32.61300 50.93100 30.66700
H  32.69300 52.17000 29.44300
H  33.12700 52.65300 31.10700
H  36.71800 50.98400 31.40600
H  37.00900 49.32700 31.44100
H  36.45800 50.67000 33.42600
H  36.26300 48.95400 33.31000
H  34.75000 55.05700 26.97100
H  33.47400 55.45500 25.83700
H  35.23700 55.89000 25.56300
H  33.81400 56.01200 22.11800
H  34.84400 56.30000 23.37900
H  33.17200 55.61800 23.71800
H  37.06700 49.56000 21.20300
H  36.16200 46.81600 21.78900
H  34.22500 49.55100 21.16300
H  34.60300 47.95200 20.51900
H  35.20800 49.51600 19.77100
H  38.58100 47.67200 20.82300
H  38.34600 46.26400 21.67600
H  40.10600 48.43600 22.18300
H  39.77800 47.13200 23.32800
H  38.90500 48.60700 23.45200
H  36.21200 43.33900 26.26300
H  37.73400 43.62100 27.17200
H  37.39800 43.89500 25.36100
H  36.50300 47.14900 30.83300
H  33.67300 45.69800 33.80700
H  33.05100 44.70000 32.44900
H  32.48600 46.28000 32.56600

