158

Mg 9.03200 4.10400 27.08400
C  9.90800 2.26300 29.91900
C  6.88500 5.99800 28.89100
C  7.76000 5.33300 24.13600
C  10.89300 1.71800 25.17000
N  8.40100 4.04800 29.15500
C  9.11400 3.41000 30.23800
C  8.62300 3.82600 31.61000
C  7.54100 4.97900 31.14800
C  7.59500 5.01300 29.57500
C  6.13000 4.77400 31.75600
C  9.65300 4.31300 32.66500
C  8.96400 5.07500 33.85900
H  9.75300 5.18800 35.19300
N  7.42100 5.43100 26.55400
C  6.70700 6.16200 27.48900
C  5.95500 7.09900 26.79900
C  6.28200 6.96900 25.41100
C  7.19000 5.89600 25.32000
C  4.99700 8.06400 27.52800
C  5.85200 7.90400 24.25800
O  6.18800 7.74500 23.08100
C  5.05600 9.03500 24.52600
N  9.30000 3.54900 24.96900
C  8.68500 4.30700 24.00800
C  9.20500 3.84400 22.62100
C  10.23000 2.73400 22.91300
C  10.20500 2.69200 24.46200
C  8.07800 3.48800 21.63800
C  11.69600 3.05400 22.24900
C  12.55300 4.04500 23.06900
N  10.35600 2.43100 27.46100
C  10.95800 1.54500 26.58400
C  11.67300 0.49400 27.28900
C  11.38400 0.74300 28.69000
C  10.46300 1.90200 28.69700
C  12.47500 -0.66200 26.67000
C  11.39600 0.26100 30.05800
O  11.90600 -0.73600 30.47100
C  10.64800 1.32900 30.92000
C  9.78200 0.61500 31.88700
O  8.63500 0.27800 31.67500
O  10.36600 0.75100 33.11700
C  9.58100 0.42800 34.27200
H  6.54600 6.65000 29.69800
H  7.35200 5.62700 23.16700
H  11.44600 1.00800 24.55300
H  8.17700 2.93300 32.04900
H  7.85400 6.01000 31.30600
H  5.89600 5.73000 32.22400
H  6.03200 4.05300 32.56800
H  5.46300 4.47800 30.94600
H  10.38700 4.99000 32.22800
H  9.99700 3.33400 32.99800
H  7.96500 4.66500 34.00800
H  8.91900 6.07800 33.43400
H  5.03400 7.91000 28.60600
H  4.04100 7.75500 27.10700
H  5.29500 9.10900 27.44300
H  5.54500 9.57500 25.33700
H  4.15200 8.50900 24.83400
H  4.99300 9.70100 23.66500
H  9.77800 4.69600 22.25500
H  9.92100 1.72600 22.63600
H  7.07500 3.61400 22.04500
H  8.19400 2.49200 21.21100
H  8.14300 4.10800 20.74300
H  11.46200 3.50400 21.28400
H  12.22300 2.11500 22.08100
H  13.46800 3.55000 23.39600
H  12.08000 4.40900 23.98100
H  12.93200 4.90100 22.50900
H  12.86000 -0.37700 25.69100
H  11.86700 -1.55500 26.52800
H  13.30000 -0.99700 27.29900
H  11.38700 1.92200 31.45900
H  10.02500 0.98800 35.09500
H  9.52400 -0.60100 34.62600
H  8.55200 0.76600 34.14400
Mg 35.06700 48.33000 25.01400
C  35.69400 46.69200 27.97600
C  33.69800 51.01000 26.89400
C  34.08200 49.79000 22.12100
C  35.96800 45.53300 23.27300
N  34.58600 48.73200 27.20500
C  35.04600 47.92600 28.24300
C  34.79700 48.61300 29.71500
C  33.97600 49.90400 29.23600
C  33.99600 49.87800 27.65600
C  32.49400 50.15600 29.76800
C  36.11500 49.03200 30.38300
C  36.05800 48.85400 31.82700
H  34.75800 49.03000 32.58700
N  34.16600 50.19900 24.48800
C  33.71200 51.14200 25.42400
C  33.44600 52.33000 24.68400
C  33.42200 52.02200 23.29100
C  33.89500 50.60100 23.25300
C  33.25200 53.66400 25.25400
C  32.99600 52.85700 22.09800
O  33.16800 52.50400 20.97500
C  32.39000 54.27400 22.27300
N  35.10100 47.77700 22.93300
C  34.66200 48.55400 21.94400
C  34.77300 47.80900 20.55600
C  35.40500 46.43400 20.95800
C  35.57100 46.57500 22.47800
C  33.39600 47.70900 19.71500
C  36.81800 46.23500 20.31100
C  37.95600 47.23700 20.65300
N  35.59100 46.44200 25.47500
C  36.08300 45.43600 24.64900
C  36.53900 44.34800 25.46200
C  36.41100 44.80300 26.84200
C  35.91500 46.11700 26.74100
C  36.90300 43.02800 25.03000
C  36.56500 44.42200 28.32400
O  37.04800 43.43700 28.83700
C  36.09700 45.68300 29.07100
C  35.01000 45.31700 29.94800
O  33.90000 44.96100 29.49900
O  35.39600 45.35700 31.27900
C  34.25000 45.12400 32.17500
H  33.31400 51.89900 27.39800
H  33.73800 50.24600 21.19100
H  36.46100 44.74900 22.69300
H  34.15800 48.05200 30.39700
H  34.54100 50.76800 29.58900
H  31.84100 50.07400 28.89900
H  32.38600 51.13100 30.24400
H  32.19400 49.44800 30.54100
H  36.27000 50.09800 30.21600
H  36.94600 48.48500 29.93700
H  36.76800 49.46500 32.38400
H  36.34800 47.81300 31.97000
H  32.21200 53.97500 25.16500
H  33.85500 54.38500 24.70300
H  33.61300 53.68300 26.28200
H  31.87100 54.55000 21.35600
H  33.24500 54.91100 22.50200
H  31.59600 54.27900 23.02000
H  35.51300 48.40700 20.02400
H  34.84100 45.56900 20.60800
H  33.67500 47.67300 18.66200
H  32.75900 48.57400 19.90000
H  32.83200 46.85300 20.08500
H  36.67200 46.28200 19.23200
H  37.20800 45.25600 20.59100
H  38.00300 48.10900 19.99900
H  38.92300 46.74400 20.75100
H  37.79600 47.62200 21.66000
H  37.95100 43.11700 24.74200
H  36.33300 42.57500 24.21900
H  36.84000 42.37100 25.89700
H  36.92600 45.97500 29.71600
H  33.49900 45.91000 32.08500
H  34.63700 45.21500 33.19000
H  33.86300 44.11400 32.04400

