158

Mg 1.04700 7.87100 26.14400
C  1.77500 9.77900 28.88700
C  1.34000 5.02300 28.12800
C  0.44100 5.94200 23.37900
C  1.53300 10.61800 23.96400
N  1.39600 7.53000 28.25500
C  1.61400 8.41800 29.24400
C  1.75800 7.79900 30.62400
C  2.02200 6.30400 30.26700
C  1.57900 6.27700 28.78200
C  3.38300 5.63500 30.68200
C  0.44200 8.06800 31.42700
C  0.61000 8.18200 32.91900
H  1.68300 7.40800 33.65500
N  0.75200 5.78300 25.82800
C  0.91600 4.79500 26.76600
C  0.52600 3.55800 26.17300
C  0.25900 3.76800 24.74000
C  0.49200 5.23300 24.63300
C  0.46800 2.27200 27.00800
C  -0.16800 2.73800 23.65200
O  -0.50900 3.12600 22.54800
C  -0.21600 1.29000 23.91400
N  0.92100 8.23600 23.94600
C  0.65900 7.25700 23.02500
C  0.59300 7.87000 21.61800
C  0.63100 9.37200 21.89800
C  1.00000 9.48600 23.37600
C  1.79500 7.45900 20.70400
C  -0.68300 10.13300 21.57800
C  -1.03700 10.47000 20.15400
N  1.57300 9.79400 26.34000
C  1.80200 10.78300 25.30300
C  1.89700 12.04600 26.09900
C  1.96300 11.76400 27.43500
C  1.77100 10.34800 27.58900
C  1.96300 13.47000 25.57400
C  2.11300 12.30400 28.77100
O  2.25100 13.44200 29.21000
C  1.98300 11.02500 29.76500
C  3.10900 10.92200 30.82500
O  4.22900 10.42500 30.78500
O  2.62200 11.57200 31.92300
C  3.46800 11.57200 33.12500
H  1.32900 4.15700 28.79400
H  0.13800 5.39700 22.48200
H  1.52500 11.49100 23.30900
H  2.61700 8.28800 31.08200
H  1.30600 5.78100 30.90100
H  4.09700 5.47000 29.87600
H  3.10300 4.69900 31.16600
H  3.91900 6.26000 31.39600
H  -0.30100 7.37800 31.02700
H  0.02400 9.02900 31.12700
H  -0.37000 8.10600 33.39100
H  0.78400 9.23500 33.14000
H  -0.02500 1.44400 26.49900
H  -0.20400 2.40500 27.85600
H  1.39900 2.00100 27.50600
H  -0.98300 1.09800 24.66400
H  0.69700 0.87600 24.34300
H  -0.52400 0.75900 23.01300
H  -0.35900 7.55000 21.19600
H  1.43700 9.93700 21.42900
H  2.19100 6.49700 21.02800
H  2.61700 8.17100 20.78300
H  1.50200 7.55700 19.65900
H  -0.65100 11.02800 22.20000
H  -1.53300 9.61000 22.01500
H  -0.14500 10.20900 19.58500
H  -1.12600 11.55000 20.03300
H  -1.87400 9.89500 19.75800
H  1.55500 14.12700 26.34200
H  1.31100 13.39300 24.70400
H  2.97000 13.71600 25.23500
H  1.03200 11.27400 30.23600
H  4.45400 12.01700 32.99300
H  3.55600 10.53400 33.44400
H  2.90900 12.19700 33.82100
Mg 26.58700 52.26400 25.80100
C  24.00100 53.04000 28.19800
C  28.58400 51.66100 28.40900
C  29.07800 51.82700 23.59800
C  24.47100 53.45600 23.33600
N  26.32400 52.54500 28.12600
C  25.16300 52.73300 28.83800
C  25.41500 52.35900 30.35100
C  26.93900 51.97400 30.32000
C  27.34100 52.05100 28.85100
C  27.92900 52.78700 31.31300
C  24.50100 51.20200 30.83200
C  23.56800 51.55500 32.02300
H  23.62500 50.62100 33.25400
N  28.60300 51.70700 26.00100
C  29.22000 51.53500 27.17500
C  30.52200 51.05000 26.94600
C  30.73300 51.08600 25.49000
C  29.49800 51.52500 24.96200
C  31.42700 50.46500 27.99700
C  31.84800 50.54100 24.66200
O  31.83800 50.60300 23.43900
C  32.92900 49.73500 25.30900
N  26.75500 52.52200 23.78600
C  27.93000 52.29500 23.12300
C  27.74800 52.67000 21.66700
C  26.27400 53.21300 21.52600
C  25.78300 53.04600 22.92000
C  28.92000 53.50800 21.07100
C  25.41400 52.66600 20.35200
C  25.30700 53.43200 19.00500
N  24.58900 53.04200 25.77800
C  23.86700 53.42200 24.66200
C  22.48600 53.75700 25.01600
C  22.49600 53.60400 26.42900
C  23.76600 53.19800 26.78200
C  21.34300 54.09700 24.08400
C  21.73100 53.68100 27.68400
O  20.57900 53.92900 27.87700
C  22.65500 53.42800 28.83400
C  22.78600 54.78800 29.47400
O  23.03000 55.82300 28.91000
O  22.69600 54.68900 30.80800
C  22.60000 55.97600 31.51500
H  29.33000 51.32800 29.13300
H  29.81000 51.65200 22.80700
H  23.76200 53.68800 22.53900
H  25.34800 53.18800 31.05500
H  27.02700 50.94600 30.67100
H  28.85500 53.09500 30.82900
H  28.34500 52.05900 32.00900
H  27.48200 53.50300 32.00300
H  25.08800 50.32100 31.09400
H  23.80200 51.02400 30.01600
H  22.49400 51.55500 31.83500
H  23.88000 52.52700 32.40400
H  31.37700 49.40200 27.76000
H  31.14000 50.64900 29.03200
H  32.45500 50.80200 27.86700
H  32.54000 48.90700 25.90200
H  33.50900 50.32700 26.01700
H  33.55100 49.28100 24.53800
H  27.77000 51.73000 21.11600
H  26.23900 54.28900 21.36000
H  29.57200 54.04400 21.76000
H  28.52200 54.25200 20.38100
H  29.56600 52.85000 20.49000
H  24.38900 52.41400 20.62700
H  25.88000 51.74600 20.00000
H  24.33800 53.27300 18.53200
H  25.96000 53.20400 18.16300
H  25.54800 54.47800 19.19400
H  20.40900 54.01700 24.64100
H  21.29200 53.27400 23.37200
H  21.49100 55.04200 23.56100
H  22.26900 52.67300 29.51800
H  23.59900 56.32000 31.78200
H  22.01400 55.68400 32.38700
H  22.04200 56.77800 31.03300

