158

Mg 8.48100 2.36800 27.50800
C  10.16300 1.20100 30.19500
C  6.64700 4.44200 29.68400
C  6.84400 3.64700 24.90200
C  10.12600 0.00100 25.48600
N  8.35700 2.69000 29.74000
C  9.24300 2.22200 30.59800
C  8.96500 2.70700 31.97400
C  7.79500 3.78200 31.69000
C  7.50600 3.58100 30.23400
C  6.61700 3.67600 32.67200
C  10.18300 3.36400 32.76300
C  10.46900 2.77100 34.11900
H  10.58800 3.85600 35.24200
N  6.82300 3.83200 27.34300
C  6.40400 4.69500 28.32600
C  5.56500 5.75400 27.73300
C  5.49500 5.44800 26.34000
C  6.39600 4.22900 26.10600
C  4.74100 6.75300 28.54200
C  4.65500 6.16500 25.29400
O  4.56700 5.78500 24.11500
C  3.91700 7.41600 25.60600
N  8.24400 1.74100 25.57100
C  7.60000 2.49200 24.58400
C  7.84400 1.94500 23.18100
C  8.99900 0.94700 23.43200
C  9.15800 0.88700 24.94100
C  6.48300 1.35300 22.48400
C  10.35200 1.38200 22.69800
C  11.11700 0.13000 22.12300
N  9.94100 0.89500 27.75400
C  10.51700 0.03800 26.81000
C  11.47900 -0.78200 27.50500
C  11.35700 -0.41700 28.86100
C  10.36700 0.58000 28.95900
C  12.35200 -1.84300 26.93100
C  11.81600 -0.65900 30.26700
O  12.48200 -1.52500 30.75800
C  11.12100 0.46600 31.15400
C  10.32800 -0.28100 32.15900
O  9.30300 -0.88900 31.85000
O  10.86900 -0.25000 33.39600
C  10.05900 -0.77500 34.49000
H  6.15200 5.07600 30.42200
H  6.60500 4.28400 24.04700
H  10.68500 -0.64600 24.80700
H  8.64400 1.79200 32.47100
H  8.21600 4.78400 31.77900
H  5.78600 3.09500 32.27200
H  6.34200 4.62600 33.13100
H  7.03300 3.18100 33.54900
H  10.10200 4.44500 32.87600
H  11.07200 3.24100 32.14500
H  11.51400 2.46600 34.06900
H  9.70400 2.03000 34.34900
H  5.02400 6.89500 29.58500
H  3.67400 6.52600 28.53300
H  4.93000 7.72900 28.09600
H  3.18700 7.34500 26.41200
H  3.22100 7.62900 24.79600
H  4.57600 8.26300 25.79500
H  8.19600 2.74300 22.52800
H  8.87000 -0.07500 23.07500
H  5.71300 1.23700 23.24700
H  6.65700 0.42500 21.94000
H  6.17700 2.12400 21.77700
H  10.95700 1.82800 23.48600
H  10.16800 2.06300 21.86700
H  11.12500 0.24000 21.03800
H  10.55400 -0.72500 22.49800
H  12.14800 0.16000 22.47400
H  11.58000 -2.59100 26.74900
H  13.13400 -2.06400 27.65800
H  12.75100 -1.51800 25.97000
H  11.80900 1.10600 31.70600
H  10.19800 -1.83800 34.68700
H  9.00900 -0.52600 34.33600
H  10.28200 -0.31700 35.45300
Mg 25.97100 0.41300 29.80000
C  27.70300 0.18800 32.74900
C  23.04500 0.68700 31.43400
C  24.48900 0.48800 26.78800
C  29.08100 -0.30000 28.04500
N  25.49300 0.43500 31.83000
C  26.29500 0.39800 32.87200
C  25.51600 0.71000 34.22800
C  24.06300 0.54600 33.76400
C  24.17900 0.54300 32.25200
C  23.42100 -0.83500 34.22100
C  25.98500 2.12200 34.73500
C  26.68900 2.15700 36.05300
H  26.22000 3.28500 37.09200
N  24.07400 0.44200 29.18800
C  22.92600 0.57600 29.98700
C  21.70900 0.58700 29.22600
C  22.19200 0.41000 27.85500
C  23.66500 0.50500 27.87100
C  20.32800 0.65000 29.87400
C  21.30800 0.31800 26.55900
O  21.76700 0.21800 25.42100
C  19.79000 0.37400 26.77700
N  26.75900 0.17000 27.67200
C  25.82400 0.18800 26.65000
C  26.58300 0.19900 25.34000
C  28.08100 -0.06000 25.70500
C  28.04700 -0.01100 27.22300
C  26.04700 -0.99100 24.52800
C  29.16200 0.88300 25.21100
C  28.90600 1.57100 23.90800
N  27.93900 -0.01100 30.28000
C  29.05200 -0.34400 29.50200
C  30.24500 -0.40300 30.37100
C  29.76600 -0.10400 31.66500
C  28.36900 0.04100 31.55900
C  31.57800 -0.70000 29.86300
C  30.15300 0.11500 33.04400
O  31.27200 0.21800 33.53300
C  28.85800 0.29200 33.80400
C  28.91900 -0.67900 34.90200
O  28.57100 -1.82400 34.74000
O  29.29400 -0.16800 36.11800
C  29.18200 -0.91400 37.37400
H  22.15500 0.76300 32.06100
H  24.12000 0.64400 25.77200
H  30.01400 -0.52200 27.52300
H  25.80900 -0.04300 34.96000
H  23.45300 1.33600 34.20200
H  22.94300 -0.63000 35.17900
H  24.24000 -1.51900 34.44500
H  22.73600 -1.40100 33.59000
H  25.06700 2.69700 34.85600
H  26.64200 2.52400 33.96400
H  27.77200 2.23600 35.95100
H  26.47700 1.21300 36.55600
H  20.28500 0.10500 30.81700
H  19.55400 0.09300 29.34700
H  19.97800 1.67300 30.00700
H  19.40900 -0.41000 27.43100
H  19.33300 0.28400 25.79100
H  19.50800 1.35500 27.15800
H  26.26900 1.06200 24.75300
H  28.38900 -1.09500 25.55700
H  25.32800 -1.56100 25.11600
H  26.85600 -1.62400 24.16200
H  25.44700 -0.64800 23.68500
H  30.10900 0.34500 25.17000
H  29.33300 1.61300 26.00300
H  29.69800 1.18300 23.26600
H  29.10900 2.63800 24.00300
H  27.95000 1.47300 23.39400
H  31.67600 -1.63600 29.31300
H  32.23200 -0.83300 30.72500
H  31.76200 0.08300 29.12800
H  28.83800 1.28600 34.25200
H  28.83600 -1.92800 37.17600
H  28.58400 -0.31900 38.06400
H  30.11800 -1.07300 37.91100

