158

Mg 35.84400 1.66300 29.80300
C  33.28100 2.86100 31.88600
C  37.95500 1.63300 32.51100
C  38.24800 0.74200 27.66600
C  33.49700 1.78500 27.03600
N  35.63100 2.29500 31.93900
C  34.45800 2.48900 32.61700
C  34.58100 2.19900 34.12800
C  36.08000 2.09600 34.33200
C  36.63400 2.04800 32.86100
C  36.74500 3.06300 35.29500
C  33.83000 0.92300 34.61600
C  33.28800 0.95900 36.13200
H  33.83800 2.02700 37.09600
N  37.87600 1.20800 30.07500
C  38.51900 1.18500 31.27600
C  39.84800 0.81900 30.97500
C  39.98600 0.56500 29.60900
C  38.71600 0.84400 29.01900
C  40.94600 0.74300 32.07300
C  41.16300 0.16200 28.84400
O  41.04800 -0.27100 27.69800
C  42.52300 0.05800 29.46100
N  35.88200 1.35400 27.65500
C  37.05200 1.00800 27.03000
C  36.83600 0.88500 25.52700
C  35.29400 1.05200 25.31800
C  34.81600 1.41200 26.71300
C  37.63700 2.01500 24.70000
C  34.51800 -0.14000 24.75300
C  34.17900 -1.13400 25.78400
N  33.79900 2.25000 29.38700
C  33.03500 2.26700 28.24400
C  31.73800 2.72600 28.65200
C  31.78400 2.99100 30.02200
C  33.10000 2.70300 30.46200
C  30.55500 2.80100 27.67700
C  30.95800 3.36000 31.21800
O  29.80600 3.72600 31.27100
C  31.94300 3.17000 32.47400
C  31.87500 4.36300 33.43500
O  31.91200 5.54200 33.15500
O  31.54600 3.90300 34.68900
C  31.12200 4.81900 35.70900
H  38.58300 1.42400 33.38000
H  39.01000 0.50600 26.91900
H  32.77600 1.79700 26.21700
H  34.22500 3.09700 34.63300
H  36.31700 1.09400 34.69000
H  37.40100 2.61300 36.04100
H  35.96200 3.67300 35.74500
H  37.49400 3.75500 34.91100
H  34.49600 0.06200 34.55500
H  32.92200 0.77300 34.03200
H  33.63400 -0.00300 36.50900
H  32.20400 0.85000 36.10400
H  41.29600 -0.24200 32.38300
H  40.58500 1.24200 32.97300
H  41.76600 1.31000 31.63100
H  42.80300 0.96300 30.00000
H  43.26000 -0.23200 28.71200
H  42.45600 -0.76800 30.16900
H  37.16700 -0.06800 25.11400
H  35.06700 1.88900 24.65700
H  38.51300 1.78700 24.09400
H  38.06100 2.71100 25.42500
H  36.91000 2.54400 24.08400
H  35.05300 -0.47400 23.86400
H  33.57900 0.29600 24.41200
H  34.64600 -2.04400 25.41000
H  33.10900 -1.21600 25.97100
H  34.79800 -0.98800 26.67000
H  30.34600 1.83800 27.21000
H  30.89000 3.41900 26.84400
H  29.68100 3.25300 28.14600
H  31.44600 2.37200 33.02500
H  30.66500 4.38200 36.59700
H  30.37800 5.38700 35.15100
H  32.02300 5.34700 36.02000
Mg 25.90500 50.69000 26.03500
C  23.81300 51.79300 28.61800
C  28.03800 49.32800 28.42000
C  28.20600 50.14300 23.64700
C  23.62600 51.94000 23.83800
N  25.90900 50.58300 28.30800
C  24.95500 51.11400 29.17600
C  25.23500 50.92900 30.63300
C  26.60500 50.17200 30.48700
C  26.95100 50.01400 28.98300
C  27.82700 50.78700 31.26800
C  24.08300 50.16500 31.38700
C  24.41900 49.42000 32.73200
H  23.57600 49.80100 33.97400
N  27.81700 49.82200 26.03300
C  28.49500 49.29700 27.05300
C  29.77000 48.64300 26.58300
C  29.85900 48.87800 25.25100
C  28.61900 49.70000 24.89600
C  30.65000 47.80700 27.47000
C  30.87700 48.28800 24.32000
O  30.93400 48.70000 23.20100
C  31.96100 47.30300 24.71800
N  25.99600 51.08100 24.07600
C  26.98100 50.64700 23.26200
C  26.53800 50.87000 21.75600
C  25.05800 51.29700 21.77000
C  24.84600 51.38100 23.34300
C  27.39100 51.81200 21.01000
C  23.99000 50.19800 21.12800
C  23.65300 50.55900 19.68300
N  24.04300 51.55800 26.11200
C  23.20400 51.99600 25.14900
C  22.00000 52.47700 25.63600
C  22.23700 52.54900 26.99500
C  23.47400 51.91500 27.26100
C  20.72100 52.94900 24.86900
C  21.68600 53.02000 28.24800
O  20.64900 53.71400 28.44400
C  22.65800 52.45200 29.38300
C  23.09500 53.53600 30.33900
O  24.16300 54.12300 30.30400
O  22.13500 53.69500 31.28700
C  22.28200 54.62900 32.42000
H  28.55200 48.97500 29.31600
H  29.00200 50.08100 22.90200
H  22.87200 52.22200 23.10100
H  25.33900 51.90900 31.09800
H  26.44500 49.16900 30.88200
H  27.62100 51.52700 32.04100
H  28.63900 51.14500 30.63500
H  28.35500 49.98600 31.78500
H  23.93600 49.30800 30.72900
H  23.12300 50.67700 31.45200
H  25.44800 49.57700 33.05600
H  24.16400 48.36100 32.69900
H  30.52200 46.72900 27.37500
H  30.52400 48.06300 28.52200
H  31.67900 48.13700 27.32300
H  31.53500 46.35600 25.04900
H  32.33400 47.92200 25.53400
H  32.71600 47.14400 23.94800
H  26.69400 49.91400 21.25600
H  24.88400 52.28700 21.34900
H  28.16200 52.21900 21.66500
H  26.80500 52.58000 20.50500
H  27.91700 51.17600 20.29800
H  23.07800 50.30600 21.71400
H  24.62700 49.31600 21.20000
H  22.56800 50.66200 19.66800
H  24.02100 49.76100 19.03800
H  24.04500 51.51400 19.33500
H  20.78400 54.02300 24.69400
H  19.85900 52.84300 25.52700
H  20.60600 52.40900 23.93000
H  21.99900 51.70800 29.82900
H  21.40400 55.26400 32.30000
H  23.13200 55.30700 32.33900
H  22.37900 54.15300 33.39600

