158

Mg -2.34800 16.60300 25.91700
C  -2.90400 14.60600 28.81800
C  -3.34900 19.38100 27.84500
C  -2.53300 18.50300 23.14700
C  -2.08400 13.77400 24.04900
N  -3.01800 16.92500 28.12800
C  -3.16400 15.97900 29.09200
C  -3.60000 16.62600 30.41200
C  -4.11800 18.04500 29.92000
C  -3.48900 18.13600 28.49100
C  -5.64600 18.10900 29.90600
C  -2.43700 16.74400 31.45400
C  -2.89800 17.17800 32.82600
H  -2.77300 16.00400 33.86700
N  -2.67100 18.64800 25.56300
C  -2.79100 19.66200 26.53600
C  -2.56000 20.93000 25.93400
C  -2.41400 20.69700 24.49800
C  -2.57000 19.22500 24.30400
C  -2.52800 22.24300 26.80000
C  -2.08400 21.66600 23.38500
O  -2.08400 21.44000 22.21400
C  -1.96100 23.10100 23.77700
N  -2.50200 16.17300 23.91300
C  -2.48800 17.12500 22.90000
C  -2.35500 16.50200 21.47800
C  -1.90800 14.98800 21.84500
C  -2.19900 14.93700 23.36100
C  -3.64300 16.65700 20.60400
C  -0.51300 14.55700 21.56000
C  0.57000 15.12200 22.45300
N  -2.38900 14.61600 26.34300
C  -2.24000 13.51200 25.43000
C  -2.35400 12.33900 26.06500
C  -2.54000 12.67000 27.43200
C  -2.55800 14.08600 27.51600
C  -2.14500 10.99400 25.45200
C  -2.69700 12.07500 28.74200
O  -2.53100 10.93200 29.14800
C  -3.05300 13.35800 29.68200
C  -2.11400 13.38600 30.82900
O  -0.96400 13.83700 30.87100
O  -2.61000 12.56900 31.83000
C  -1.91900 12.21400 33.08400
H  -3.74700 20.23200 28.40100
H  -2.34300 18.99500 22.19000
H  -1.98400 12.87400 23.44000
H  -4.38200 16.01600 30.86600
H  -3.69700 18.90300 30.44500
H  -5.90100 18.44800 28.90200
H  -6.04200 18.81800 30.63300
H  -6.12500 17.14100 30.05400
H  -1.71300 17.46000 31.06700
H  -1.96700 15.76200 31.50700
H  -3.94300 17.48200 32.77000
H  -2.31700 18.04900 33.13100
H  -2.59500 22.09700 27.87800
H  -3.43400 22.75700 26.47700
H  -1.66200 22.82200 26.47800
H  -1.90400 23.70300 22.87000
H  -0.99800 23.20700 24.27800
H  -2.75400 23.50600 24.40500
H  -1.55600 16.93300 20.87600
H  -2.61700 14.30700 21.37500
H  -4.27700 15.78500 20.76200
H  -3.39600 16.73800 19.54600
H  -4.14100 17.61500 20.75600
H  -0.41000 14.84600 20.51400
H  -0.54800 13.49500 21.31700
H  0.15600 15.63500 23.32100
H  1.12600 15.85600 21.87000
H  1.21500 14.32600 22.82700
H  -2.06600 10.21800 26.21300
H  -1.21700 10.96200 24.88100
H  -2.94700 10.72500 24.76400
H  -4.03000 13.37200 30.16300
H  -1.13500 12.97000 33.11000
H  -1.41900 11.24800 33.01100
H  -2.67800 12.36800 33.85200
Mg 17.27500 -3.12000 27.75500
C  16.55300 -1.02100 30.60700
C  19.22700 -5.01600 29.75900
C  18.46000 -4.50600 24.96800
C  15.39200 -0.82100 25.68200
N  17.88700 -2.89000 29.88400
C  17.38900 -2.10800 30.87600
C  17.81400 -2.57600 32.25000
C  18.92800 -3.64000 31.89100
C  18.66300 -3.89800 30.42400
C  20.44700 -3.37200 32.26900
C  16.69000 -3.11500 33.22900
C  16.62600 -2.51700 34.63400
H  17.91700 -1.96800 35.31300
N  18.52100 -4.64500 27.41600
C  19.19500 -5.34500 28.37800
C  19.88600 -6.49600 27.77400
C  19.61100 -6.30200 26.35800
C  18.75200 -5.13100 26.19800
C  20.62500 -7.49400 28.56100
C  20.02000 -7.17200 25.19700
O  19.73800 -6.99400 24.03500
C  20.77100 -8.44300 25.56900
N  16.82700 -2.83500 25.63500
C  17.56300 -3.49400 24.70100
C  17.47300 -2.81100 23.32700
C  16.23500 -1.84900 23.59800
C  16.12300 -1.79100 25.07600
C  18.67000 -2.08100 22.77800
C  14.90400 -2.38800 22.96300
C  13.91300 -1.31900 22.46600
N  16.22300 -1.32600 28.02800
C  15.40700 -0.56700 27.12400
C  14.77300 0.47500 27.85100
C  15.21000 0.31200 29.15800
C  16.10900 -0.76500 29.26100
C  13.78500 1.38600 27.23900
C  15.13600 0.87800 30.42300
O  14.47300 1.82400 30.74600
C  15.94700 0.03100 31.47900
C  16.85800 0.95100 32.27100
O  18.07800 1.08500 32.23700
O  15.98500 1.57400 33.13100
C  16.60800 2.54400 34.02500
H  19.66800 -5.78300 30.39900
H  18.97800 -4.78300 24.04700
H  14.88400 -0.16200 24.97500
H  18.38100 -1.72200 32.62200
H  18.75000 -4.63000 32.31100
H  20.93500 -4.29900 32.57200
H  20.69200 -2.70300 33.09400
H  21.10100 -3.17600 31.41900
H  16.76000 -4.20000 33.30900
H  15.75200 -2.90300 32.71500
H  16.29900 -3.26800 35.35300
H  15.87500 -1.74200 34.48000
H  21.51400 -7.85500 28.04400
H  19.84400 -8.21700 28.79600
H  21.02400 -7.05000 29.47400
H  20.40900 -9.05000 26.40000
H  21.80800 -8.14900 25.73500
H  20.72300 -9.09600 24.69800
H  17.28100 -3.46600 22.47800
H  16.48800 -0.89500 23.13500
H  18.65200 -1.02600 23.05200
H  18.74100 -2.08500 21.69100
H  19.52700 -2.62200 23.18000
H  14.32800 -2.95400 23.69500
H  15.13800 -3.01300 22.10100
H  13.50200 -1.51300 21.47500
H  14.28600 -0.29500 22.46200
H  13.14500 -1.29500 23.23900
H  12.94500 0.77600 26.90600
H  14.17100 1.83900 26.32500
H  13.54900 2.23100 27.88600
H  15.22500 -0.45800 32.13300
H  16.95300 3.40000 33.44500
H  17.51300 2.16000 34.49700
H  15.93400 2.72600 34.86300

