158

Mg -2.36500 16.96600 26.15800
C  -2.28000 14.63300 28.75400
C  -2.93500 19.27200 28.50700
C  -2.63500 19.17500 23.70500
C  -2.16900 14.55100 23.80000
N  -2.97300 16.88000 28.42600
C  -2.59600 15.84700 29.26900
C  -2.83200 16.31000 30.71700
C  -3.00700 17.89100 30.63900
C  -2.83100 18.06400 29.10000
C  -4.41700 18.40100 31.15000
C  -1.61700 16.06700 31.65000
C  -1.47400 16.76100 33.03200
H  -1.71000 16.07300 34.36700
N  -2.70600 18.92100 26.06600
C  -2.89900 19.77200 27.18100
C  -3.10700 21.12300 26.73000
C  -3.07200 21.08900 25.28000
C  -2.84300 19.66900 24.96000
C  -3.33100 22.22000 27.78900
C  -3.13700 22.20500 24.25400
O  -3.14700 22.09700 23.03700
C  -3.26100 23.57300 24.84500
N  -2.46800 16.85400 23.98700
C  -2.56000 17.88800 23.20200
C  -2.40400 17.55500 21.67400
C  -2.27700 15.95600 21.73700
C  -2.32700 15.72100 23.26700
C  -3.55700 18.02400 20.85800
C  -0.93200 15.44700 21.06500
C  0.36900 15.85100 21.78100
N  -2.26000 15.08600 26.26800
C  -2.09700 14.19600 25.14200
C  -1.90200 12.89900 25.67400
C  -2.01200 13.07700 27.07400
C  -2.26200 14.34800 27.40300
C  -1.83400 11.64700 25.01700
C  -1.80700 12.25800 28.27600
O  -1.40200 11.09200 28.43800
C  -2.10700 13.26600 29.49100
C  -0.97400 13.04400 30.40300
O  0.08100 13.62300 30.19700
O  -1.31700 12.26800 31.43500
C  -0.23200 11.83200 32.27900
H  -3.01400 20.06700 29.25200
H  -2.72900 19.93800 22.93000
H  -1.88400 13.74200 23.12400
H  -3.72800 15.80900 31.08300
H  -2.18200 18.35800 31.17500
H  -4.33900 18.96000 32.08300
H  -5.01900 17.51600 31.35600
H  -4.95300 19.03900 30.44700
H  -0.70700 15.96500 31.05900
H  -1.86300 15.06500 32.00200
H  -1.99000 17.71000 33.17500
H  -0.42000 17.03100 33.09700
H  -3.77900 23.08100 27.29300
H  -2.34600 22.52300 28.14500
H  -3.96200 21.94700 28.63500
H  -4.32200 23.71500 25.05200
H  -2.95900 24.31700 24.10800
H  -2.65300 23.58700 25.74900
H  -1.51000 18.06300 21.31400
H  -3.15000 15.60000 21.19000
H  -3.32300 18.99400 20.42100
H  -4.44800 18.06000 21.48500
H  -3.64900 17.37100 19.99000
H  -0.79600 15.99200 20.13000
H  -0.96000 14.35900 21.00300
H  0.16900 16.53600 22.60400
H  1.02900 16.38900 21.10100
H  0.83800 14.97900 22.23900
H  -1.40000 11.84500 24.03700
H  -2.84000 11.23000 25.05500
H  -1.15300 11.11900 25.68600
H  -2.98800 12.83700 29.97000
H  -0.05800 12.67300 32.95000
H  0.64100 11.54700 31.69000
H  -0.59000 11.02000 32.91200
Mg 47.92200 34.19400 26.80600
C  46.14800 32.93000 29.60900
C  48.68600 37.00000 28.58200
C  48.91000 35.76600 23.92600
C  46.89100 31.50700 24.98300
N  47.49800 34.76100 28.85200
C  46.85000 34.08600 29.88200
C  46.97600 34.78400 31.18900
C  47.36700 36.22100 30.68300
C  47.94700 36.02700 29.26400
C  46.21600 37.27800 30.77800
C  48.02700 34.16800 32.19500
C  47.69700 34.36400 33.62400
H  46.71900 35.45300 34.08900
N  48.65800 36.13800 26.36900
C  48.99400 37.05400 27.27200
C  49.60100 38.21000 26.59900
C  49.60900 37.92900 25.17800
C  48.93900 36.57400 25.09100
C  50.09500 39.38400 27.31600
C  50.22500 38.71100 24.11100
O  50.24000 38.25200 22.95800
C  51.01500 39.98700 24.32500
N  47.80800 33.71200 24.73800
C  48.37900 34.46700 23.74600
C  48.40700 33.73000 22.45900
C  47.65000 32.37900 22.64800
C  47.47900 32.49500 24.19000
C  47.90500 34.52500 21.25200
C  48.49100 31.12300 22.30100
C  49.60600 30.67100 23.22500
N  46.84100 32.45000 27.21400
C  46.50500 31.42100 26.35700
C  45.80000 30.40900 27.08800
C  45.53300 31.02600 28.35500
C  46.23200 32.23900 28.41000
C  45.23800 29.16500 26.63200
C  44.78000 30.82600 29.53700
O  44.06600 29.84800 29.85500
C  45.03500 32.13700 30.40000
C  45.32300 31.74700 31.78700
O  46.33900 31.19200 32.15300
O  44.22600 32.19800 32.59600
C  44.38000 31.85300 34.03100
H  48.87900 37.85700 29.23100
H  49.56400 36.10400 23.11900
H  46.67100 30.58300 24.44400
H  45.96000 34.72600 31.57900
H  48.08900 36.58000 31.41700
H  45.28900 36.92000 31.22500
H  45.90000 37.48400 29.75500
H  46.50600 38.23100 31.22000
H  49.06500 34.47000 32.05000
H  48.12300 33.08300 32.17100
H  48.63200 34.60800 34.12900
H  47.22000 33.47300 34.03100
H  49.68800 40.27900 26.84700
H  51.18300 39.33600 27.26500
H  49.89000 39.43500 28.38600
H  51.29700 40.46500 23.38700
H  51.90300 39.70600 24.89200
H  50.53600 40.68500 25.01200
H  49.45900 33.51400 22.27100
H  46.77000 32.54900 22.02900
H  46.95200 34.11500 20.91900
H  48.75800 34.64700 20.58400
H  47.65100 35.53300 21.58000
H  48.90800 31.29800 21.31000
H  47.73500 30.35500 22.46300
H  49.92200 31.46600 23.90100
H  50.53800 30.39200 22.73300
H  49.30200 29.79100 23.79100
H  45.46100 28.44000 27.41500
H  45.64800 28.87200 25.66500
H  44.15800 29.26900 26.52600
H  44.08400 32.66900 30.41600
H  43.72400 31.01000 34.25000
H  44.01700 32.70900 34.60000
H  45.37100 31.59900 34.40700

