158

Mg -1.92600 17.37900 25.96100
C  -2.58300 14.96800 28.57000
C  -2.30000 19.82100 28.30000
C  -2.11600 19.37900 23.38900
C  -1.83400 14.65500 23.70800
N  -2.38400 17.35000 28.17200
C  -2.37300 16.24200 29.03600
C  -2.50300 16.67500 30.49500
C  -2.59000 18.22200 30.39100
C  -2.45200 18.50800 28.87000
C  -3.83600 19.01400 31.08400
C  -1.23900 16.19900 31.24800
C  -0.88400 16.81100 32.57700
H  -0.51400 15.98800 33.77800
N  -2.12800 19.36700 25.85300
C  -2.26500 20.16100 26.92000
C  -2.25600 21.47900 26.39700
C  -2.39400 21.37500 25.01500
C  -2.22500 20.03800 24.65800
C  -2.23200 22.74200 27.38100
C  -2.63800 22.54000 23.94400
O  -2.83900 22.37700 22.69700
C  -2.57900 23.89800 24.42100
N  -1.85700 17.01600 23.92300
C  -1.91700 18.06900 23.05700
C  -1.88100 17.58300 21.59100
C  -1.52600 16.11800 21.66800
C  -1.62300 15.92100 23.23100
C  -3.10200 17.85700 20.72700
C  -0.13400 15.69900 21.14600
C  -0.13100 14.67000 20.04000
N  -2.12500 15.21700 26.10200
C  -2.11900 14.24300 25.06200
C  -2.48300 12.94300 25.57800
C  -2.66900 13.17000 26.98600
C  -2.48000 14.55000 27.17400
C  -2.70500 11.65600 24.93000
C  -2.93700 12.52500 28.21900
O  -3.18700 11.37200 28.48700
C  -2.98700 13.63900 29.26400
C  -2.07100 13.20600 30.38000
O  -0.88500 13.36000 30.39000
O  -2.66700 12.44400 31.31600
C  -1.79300 11.77200 32.31500
H  -2.32600 20.53900 29.12300
H  -2.19800 20.00600 22.49900
H  -1.74400 13.75100 23.10300
H  -3.42500 16.23300 30.87300
H  -1.71700 18.72100 30.81100
H  -3.58700 19.71400 31.88200
H  -4.45800 18.22600 31.50800
H  -4.59900 19.42000 30.42000
H  -0.39600 15.97200 30.59500
H  -1.53900 15.23300 31.65600
H  -1.53400 17.66300 32.77600
H  0.07900 17.23400 32.29100
H  -2.04700 22.44000 28.41200
H  -3.16700 23.28800 27.25900
H  -1.51900 23.50600 27.06900
H  -3.38900 24.12500 25.11500
H  -2.98200 24.53800 23.63600
H  -1.62700 24.31300 24.75000
H  -1.00800 18.14400 21.25900
H  -2.26000 15.44300 21.22900
H  -2.81300 18.64300 20.02900
H  -3.92100 18.19300 21.36300
H  -3.46000 16.94100 20.25700
H  0.49000 15.23900 21.91200
H  0.41700 16.61000 20.91300
H  0.73900 14.85200 19.40900
H  -1.00400 14.63200 19.38800
H  -0.11300 13.64400 20.40800
H  -3.78600 11.55800 24.82900
H  -2.29100 10.88200 25.57600
H  -2.27900 11.70000 23.92700
H  -3.93500 13.73100 29.79300
H  -1.32400 10.95500 31.76900
H  -2.41500 11.43200 33.14300
H  -1.01100 12.41400 32.72200
Mg -11.58900 16.17500 41.48100
C  -8.45300 14.66400 41.18500
C  -10.09400 19.05600 40.45200
C  -14.65100 17.42200 40.87800
C  -13.02300 13.06700 42.16900
N  -9.55600 16.70400 40.60700
C  -8.38600 15.94600 40.71000
C  -7.14800 16.72300 40.32100
C  -7.63700 18.17200 40.46000
C  -9.18900 17.98900 40.50600
C  -7.09700 18.94000 41.74100
C  -6.58100 16.42400 38.88400
C  -5.05600 16.43400 38.76200
H  -4.64500 16.93500 37.40300
N  -12.33800 17.91600 40.86700
C  -11.54700 19.02200 40.58300
C  -12.41400 20.14400 40.25500
C  -13.78500 19.76500 40.33800
C  -13.60800 18.31100 40.71800
C  -11.89700 21.46900 39.94500
C  -15.02500 20.49600 39.91600
O  -14.89900 21.62600 39.49200
C  -16.43000 19.96700 40.06300
N  -13.63100 15.32100 41.46100
C  -14.67700 16.03700 41.26400
C  -15.97200 15.22800 41.48300
C  -15.44300 13.82300 41.94200
C  -13.93700 14.10900 41.96900
C  -16.94900 15.92800 42.51800
C  -15.72700 12.70800 40.96600
C  -16.18500 11.36200 41.63100
N  -10.90500 14.24500 41.82900
C  -11.55700 13.09400 42.19500
C  -10.57800 12.05600 42.48900
C  -9.33200 12.62800 42.13400
C  -9.60800 13.90900 41.63600
C  -10.90700 10.63000 42.96400
C  -7.87400 12.43800 42.10500
O  -7.08600 11.62400 42.60700
C  -7.29300 13.71600 41.40200
C  -6.29300 14.28300 42.39300
O  -6.57700 14.84200 43.45000
O  -5.02500 14.01300 41.98800
C  -3.98600 14.55800 42.82300
H  -9.66800 20.03900 40.24100
H  -15.63900 17.87400 40.77500
H  -13.51700 12.10600 42.32800
H  -6.32500 16.50800 41.00400
H  -7.49000 18.73500 39.53800
H  -7.95300 19.09200 42.39900
H  -6.87000 19.99100 41.56200
H  -6.35200 18.31700 42.23500
H  -6.87100 17.03800 38.03200
H  -6.80500 15.38300 38.65200
H  -4.66200 15.42200 38.85800
H  -4.56700 17.03400 39.53000
H  -12.14800 21.66000 38.90200
H  -10.84700 21.70200 40.11800
H  -12.33900 22.25200 40.56100
H  -17.24700 20.68100 39.96400
H  -16.47700 19.65600 41.10700
H  -16.59500 19.08400 39.44500
H  -16.42500 15.20100 40.49100
H  -15.86300 13.52200 42.90100
H  -17.89100 16.16200 42.02100
H  -16.45700 16.85400 42.81700
H  -17.16300 15.25200 43.34600
H  -14.99700 12.42200 40.20900
H  -16.63900 12.94700 40.41900
H  -16.21400 11.47000 42.71500
H  -15.47700 10.61600 41.27200
H  -17.22700 11.06700 41.50600
H  -11.84500 10.68300 43.51600
H  -10.10400 10.12800 43.50400
H  -11.07100 10.15500 41.99700
H  -6.83200 13.40800 40.46300
H  -4.17100 15.63200 42.83400
H  -3.00800 14.19500 42.50600
H  -4.18100 14.24200 43.84800

