158

Mg -2.17500 17.40500 26.33500
C  -2.14100 15.04900 28.83500
C  -3.40900 19.73300 28.64700
C  -2.19000 19.59700 23.85500
C  -1.55300 14.76300 24.00900
N  -2.67900 17.45600 28.47100
C  -2.36500 16.39200 29.29900
C  -2.52300 16.77000 30.79300
C  -3.18900 18.18900 30.70000
C  -3.07800 18.50100 29.20700
C  -4.66800 18.14000 31.08800
C  -1.13800 16.73600 31.43200
C  -0.77800 17.44400 32.70800
H  -0.89700 16.61400 34.05700
N  -2.74500 19.38000 26.26200
C  -3.26500 20.18500 27.26200
C  -3.59900 21.42700 26.75600
C  -3.27200 21.44300 25.35800
C  -2.69300 20.07700 25.11600
C  -4.35300 22.49000 27.49600
C  -3.40700 22.55300 24.29700
O  -3.00200 22.50200 23.11300
C  -3.81700 23.89900 24.82400
N  -1.87700 17.14300 24.19000
C  -1.78400 18.30200 23.43500
C  -1.31700 18.01000 21.97900
C  -0.87500 16.50000 22.14800
C  -1.49700 16.09800 23.48100
C  -2.38700 18.23800 20.77800
C  0.67700 16.20100 22.01100
C  0.89200 14.92100 21.09800
N  -1.90800 15.34600 26.38500
C  -1.75300 14.43100 25.37200
C  -1.79300 13.07400 25.89500
C  -1.93600 13.26500 27.26100
C  -2.01400 14.64400 27.52700
C  -1.84900 11.84700 25.05100
C  -2.26100 12.60700 28.48600
O  -2.51000 11.43200 28.65400
C  -2.43800 13.72200 29.56000
C  -1.56700 13.45100 30.67300
O  -0.32200 13.51000 30.67200
O  -2.32000 13.14800 31.76900
C  -1.59500 12.64800 32.90800
H  -3.85000 20.44200 29.35100
H  -2.23800 20.27400 23.00000
H  -1.34600 13.92400 23.34200
H  -3.02400 15.89600 31.21100
H  -2.66700 18.93400 31.30200
H  -5.21300 17.86300 30.18500
H  -4.94900 19.12700 31.45500
H  -4.86800 17.41100 31.87200
H  -0.28100 16.78700 30.76000
H  -1.21200 15.77200 31.93500
H  -1.43500 18.29000 32.90800
H  0.19700 17.93000 32.67200
H  -4.46900 22.21300 28.54400
H  -5.36100 22.64200 27.11100
H  -3.77700 23.41500 27.51700
H  -4.85800 23.96100 25.14200
H  -3.58000 24.60200 24.02500
H  -3.21400 24.11900 25.70500
H  -0.41900 18.59500 21.78300
H  -1.41500 15.88400 21.42800
H  -3.22500 18.63400 21.35300
H  -2.65600 17.37600 20.16800
H  -1.84100 18.94700 20.15700
H  1.18800 16.00000 22.95300
H  1.21900 16.95200 21.43700
H  1.62100 14.23200 21.52400
H  1.18100 14.99300 20.05000
H  -0.03500 14.35000 21.16200
H  -1.94100 10.97500 25.69900
H  -0.84200 11.82700 24.63300
H  -2.58100 11.94100 24.24900
H  -3.48100 13.65400 29.87000
H  -1.61800 13.42500 33.67200
H  -0.57000 12.34700 32.69400
H  -2.04200 11.75100 33.33700
Mg 24.32700 -5.58900 46.16000
C  26.90600 -3.53800 44.80800
C  22.06700 -4.07000 44.02600
C  22.18600 -8.13100 46.68600
C  26.81900 -7.47300 47.79600
N  24.58100 -4.09000 44.51900
C  25.68100 -3.36100 44.17900
C  25.31100 -2.42500 42.94200
C  23.71600 -2.36800 42.95100
C  23.40500 -3.60500 43.96200
C  23.18900 -0.94200 43.30200
C  25.90100 -2.96700 41.68200
C  26.96400 -2.14400 40.82300
H  26.93000 -2.30300 39.36300
N  22.31600 -5.89900 45.61100
C  21.56800 -5.16300 44.69600
C  20.23400 -5.70800 44.64600
C  20.26900 -6.89400 45.46400
C  21.66700 -7.03000 45.92400
C  19.05700 -5.15200 43.86700
C  19.04000 -7.70700 45.76900
O  17.93400 -7.34100 45.30000
C  19.05200 -8.95200 46.64500
N  24.47900 -7.55400 47.08700
C  23.40700 -8.37900 47.23400
C  23.73900 -9.72300 48.04100
C  25.22600 -9.37900 48.39300
C  25.54300 -8.05600 47.73200
C  22.82700 -9.95200 49.22900
C  26.13700 -10.52100 47.87900
C  26.81400 -11.30700 48.95200
N  26.43300 -5.55400 46.35200
C  27.24200 -6.24000 47.19200
C  28.53300 -5.63200 47.23500
C  28.41100 -4.54000 46.33100
C  27.14900 -4.57900 45.77100
C  29.70000 -6.04300 48.08500
C  29.17700 -3.44600 45.71900
O  30.27400 -3.01400 45.86000
C  28.18000 -2.71000 44.66500
C  27.81900 -1.35500 45.09800
O  28.04200 -0.31800 44.41800
O  27.14100 -1.37800 46.25800
C  26.24100 -0.17200 46.59100
H  21.31600 -3.48500 43.49000
H  21.46100 -8.81200 47.13800
H  27.62700 -7.97600 48.33200
H  25.70100 -1.41700 43.07700
H  23.26600 -2.48700 41.96500
H  22.23300 -1.01200 42.78400
H  23.70100 -0.18300 42.71000
H  23.24500 -0.74400 44.37200
H  25.07200 -3.15400 41.00000
H  26.35900 -3.94400 41.83900
H  27.94900 -2.25900 41.27500
H  26.69900 -1.12800 41.11300
H  19.34000 -4.34000 43.19700
H  18.26300 -4.80500 44.52800
H  18.69100 -5.98000 43.25900
H  19.46500 -9.80800 46.11200
H  17.98200 -9.00000 46.84800
H  19.56800 -8.70300 47.57200
H  23.64200 -10.49600 47.27800
H  25.36400 -9.16300 49.45200
H  21.78700 -9.80400 48.93700
H  23.11400 -9.27400 50.03200
H  22.83500 -10.99500 49.54700
H  26.97000 -10.12500 47.29700
H  25.71500 -11.30400 47.24800
H  26.19700 -12.17600 49.17900
H  26.81700 -10.73200 49.87800
H  27.82000 -11.51700 48.58900
H  29.58200 -6.02400 49.16900
H  30.54400 -5.37200 47.92800
H  30.03800 -7.01300 47.72000
H  28.56500 -2.64100 43.64800
H  25.41000 0.02200 45.91300
H  26.77800 0.77500 46.63600
H  25.69400 -0.38600 47.50900

