158

Mg 44.03700 3.31300 47.56600
C  42.15800 6.28900 47.43400
C  41.03600 1.55300 47.62900
C  45.85300 0.56800 47.32800
C  46.92500 5.30300 47.00000
N  41.89100 3.90400 47.35700
C  41.34200 5.16000 47.49100
C  39.78100 5.11300 47.46900
C  39.53200 3.55000 47.63600
C  40.92600 2.96400 47.70600
C  38.63300 3.08100 48.77000
C  39.05900 5.69300 46.31200
C  39.62100 5.14200 44.98400
H  40.05000 6.32200 43.99800
N  43.49400 1.27500 47.45800
C  42.19200 0.75600 47.63100
C  42.31000 -0.67300 47.49300
C  43.65900 -1.02500 47.25500
C  44.42500 0.25100 47.33300
C  41.13000 -1.55300 47.67200
C  44.17700 -2.42000 46.98600
O  43.39300 -3.40600 47.01700
C  45.62200 -2.60600 46.65900
N  46.03800 3.02200 47.33900
C  46.56900 1.76000 47.27300
C  48.13700 1.70300 47.07300
C  48.41400 3.21100 46.90700
C  47.01600 3.91400 47.11600
C  48.83700 0.96300 48.23100
C  49.12600 3.49300 45.48100
C  50.63300 3.77000 45.51000
N  44.51000 5.33600 47.37400
C  45.70100 5.98300 47.11500
C  45.47700 7.38600 47.17100
C  44.12300 7.54200 47.28400
C  43.53800 6.28500 47.37200
C  46.53800 8.41900 46.96100
C  43.04000 8.54800 47.31000
O  43.06400 9.77900 47.34300
C  41.72100 7.74200 47.52800
C  41.11700 8.15300 48.87700
O  41.62900 8.00600 49.99800
O  39.79500 8.54200 48.66000
C  39.01100 8.69000 49.85600
H  40.10500 0.98800 47.71400
H  46.49600 -0.31200 47.28200
H  47.87200 5.80700 46.79800
H  39.36000 5.54600 48.37700
H  39.03300 3.14500 46.75600
H  39.36700 2.93800 49.56300
H  38.10200 2.13300 48.69300
H  37.98700 3.89900 49.08700
H  39.20000 6.77300 46.35600
H  38.00300 5.49000 46.49400
H  38.95500 4.42000 44.51200
H  40.48600 4.48200 45.06400
H  40.97600 -2.14500 46.77000
H  40.16700 -1.05400 47.77900
H  41.26100 -2.28100 48.47300
H  46.21400 -2.44200 47.55900
H  45.77700 -1.82300 45.91700
H  45.74000 -3.58600 46.19800
H  48.34000 1.21400 46.12100
H  49.14700 3.60100 47.61400
H  49.70700 1.54200 48.54100
H  49.15200 -0.04400 47.95700
H  48.14900 0.82100 49.06500
H  48.65000 4.39700 45.10100
H  48.96500 2.67900 44.77400
H  51.05300 3.30300 46.40100
H  50.85500 4.83700 45.46800
H  51.02100 3.22600 44.64900
H  47.38800 8.25800 47.62400
H  45.99500 9.29400 47.31800
H  46.91100 8.48200 45.93900
H  41.05700 7.99000 46.70100
H  37.98000 8.96400 49.63200
H  39.33500 9.40700 50.61000
H  38.99200 7.72500 50.36100
Mg -9.67800 41.16600 42.44100
C  -8.94600 37.96800 41.39700
C  -6.81700 42.27500 41.04900
C  -11.03900 44.40300 42.32700
C  -12.98100 39.95900 43.07700
N  -8.21500 40.27400 40.93400
C  -8.04200 38.89800 40.81400
C  -6.68200 38.63200 40.33000
C  -5.90300 39.92400 40.67100
C  -7.00400 40.93800 40.82100
C  -4.84800 39.95500 41.81000
C  -6.63100 38.14400 38.81200
C  -5.95800 36.87300 38.44300
H  -4.94300 37.05400 37.25900
N  -8.92800 43.10000 42.02200
C  -7.70900 43.33800 41.45700
C  -7.42400 44.83300 41.49800
C  -8.65100 45.39900 41.93800
C  -9.62100 44.31800 42.08600
C  -6.21200 45.55600 40.96200
C  -8.83000 46.87200 42.16600
O  -7.96700 47.71200 42.01900
C  -10.08800 47.54300 42.77600
N  -11.70000 42.10900 42.64100
C  -12.01000 43.40800 42.57200
C  -13.48600 43.66000 42.72800
C  -14.02700 42.25700 42.98800
C  -12.84300 41.35000 42.89000
C  -14.02400 44.67900 43.72700
C  -15.12200 41.86200 41.95500
C  -16.45300 41.25100 42.42600
N  -10.71900 39.30200 42.62900
C  -11.97600 38.94800 43.01200
C  -12.12800 37.46200 42.98500
C  -10.94700 37.05600 42.38900
C  -10.13900 38.19900 42.11600
C  -13.33800 36.59900 43.27700
C  -10.23700 35.89200 41.92500
O  -10.50700 34.68500 41.94100
C  -8.86100 36.44700 41.34000
C  -7.85100 35.89800 42.19900
O  -7.45800 36.39400 43.28600
O  -7.18200 34.92500 41.42900
C  -5.83300 34.45700 41.96500
H  -5.83000 42.73600 40.96500
H  -11.36400 45.42500 42.12100
H  -14.00600 39.67400 43.32600
H  -6.25300 37.86600 40.97600
H  -5.20800 40.13600 39.85900
H  -4.26700 39.03300 41.80900
H  -5.39800 39.94800 42.75100
H  -4.22400 40.84600 41.74000
H  -6.35400 38.96000 38.14500
H  -7.70600 38.01200 38.68900
H  -6.74200 36.13700 38.26500
H  -5.55600 36.45300 39.36400
H  -6.49600 45.99300 40.00400
H  -5.39300 44.89800 40.67200
H  -5.83800 46.29900 41.66500
H  -10.49600 47.01400 43.63700
H  -10.89800 47.57000 42.04700
H  -9.79100 48.54900 43.07200
H  -13.82700 43.81100 41.70400
H  -14.46700 42.09800 43.97200
H  -14.18200 45.57500 43.12600
H  -13.40600 44.95100 44.58200
H  -15.05300 44.37200 43.91200
H  -14.51800 41.21300 41.32100
H  -15.45400 42.62600 41.25200
H  -17.21700 41.98700 42.17300
H  -16.44800 41.05300 43.49800
H  -16.69700 40.27300 42.01300
H  -14.00000 37.25400 43.84400
H  -13.09100 35.74000 43.90000
H  -13.84100 36.28100 42.36300
H  -8.79200 36.10900 40.30600
H  -5.01800 35.08500 41.60500
H  -5.60700 33.43400 41.66400
H  -5.80200 34.64200 43.03900

