158

Mg 48.95500 35.48000 27.25200
C  47.09700 33.97000 29.73600
C  49.38200 38.25700 29.39100
C  50.34800 37.20600 24.72200
C  47.94400 33.04300 24.86700
N  48.27400 36.09000 29.27700
C  47.69800 35.17100 30.14200
C  47.84200 35.59800 31.62300
C  48.22900 37.13700 31.44100
C  48.68900 37.24800 29.96900
C  46.96600 38.02800 31.68000
C  49.01600 34.90400 32.37600
C  48.91300 34.89500 33.93000
H  48.03900 36.03000 34.47900
N  49.85000 37.39400 27.10600
C  49.90500 38.37900 28.10700
C  50.73400 39.48900 27.66000
C  51.15700 39.18600 26.30300
C  50.47000 37.86200 26.00800
C  50.98400 40.75600 28.43500
C  52.12500 39.95800 25.38600
O  52.46300 39.50400 24.29100
C  52.67600 41.32400 25.73600
N  49.08200 35.19700 25.08500
C  49.74900 36.05300 24.24200
C  49.67000 35.69900 22.80500
C  49.14700 34.23800 22.92100
C  48.59800 34.13100 24.36900
C  48.85300 36.59400 21.93600
C  50.24100 33.21900 22.52700
C  50.08200 32.25200 21.40100
N  47.83900 33.83400 27.25100
C  47.59900 32.85500 26.21500
C  46.75100 31.83300 26.80400
C  46.50300 32.23800 28.18300
C  47.19600 33.49400 28.37100
C  46.36100 30.50700 26.13700
C  45.84100 31.86800 29.40100
O  45.20100 30.82300 29.62900
C  45.97100 33.11900 30.31700
C  46.16000 32.71400 31.74800
O  47.22400 32.30200 32.24500
O  45.01000 32.93000 32.46200
C  45.09200 33.01800 33.96200
H  49.60800 39.07000 30.08500
H  50.73800 37.67600 23.81700
H  47.68100 32.30400 24.10700
H  46.86600 35.54800 32.10400
H  49.06600 37.46800 32.05600
H  46.77200 38.43900 32.67100
H  46.12900 37.44800 31.29000
H  47.01400 38.86600 30.98500
H  49.98000 35.39100 32.22300
H  49.12100 33.89500 31.97800
H  49.94700 34.97100 34.26700
H  48.54100 33.92900 34.26900
H  51.07900 41.63300 27.79500
H  51.88500 40.87500 29.03600
H  50.11100 40.91900 29.06800
H  51.88000 42.01600 25.46100
H  53.60400 41.53700 25.20500
H  52.88500 41.32500 26.80600
H  50.65900 35.79200 22.35800
H  48.26300 34.08200 22.30200
H  48.03300 36.10000 21.41300
H  49.53300 36.91800 21.14800
H  48.38400 37.43500 22.44500
H  50.45500 32.67400 23.44600
H  51.11800 33.77900 22.20300
H  50.85800 32.26100 20.63600
H  49.14000 32.43500 20.88400
H  50.02500 31.25100 21.82900
H  45.35600 30.53900 25.71600
H  46.48900 29.65400 26.80400
H  47.01000 30.30500 25.28400
H  45.09500 33.75500 30.19300
H  46.04400 33.45700 34.25900
H  45.14700 32.02200 34.40000
H  44.20900 33.48200 34.40300
Mg -11.02200 38.27400 42.58000
C  -8.73900 35.56800 41.68400
C  -8.77000 40.32300 40.93200
C  -13.29200 40.68200 42.68800
C  -13.26600 35.82800 43.43900
N  -8.95500 37.98700 41.58200
C  -8.27600 36.81700 41.25200
C  -7.11600 37.05500 40.40300
C  -6.89300 38.60900 40.48700
C  -8.27000 39.06700 41.08300
C  -5.64800 39.09900 41.23100
C  -7.13600 36.40600 39.02900
C  -6.02900 35.36900 38.68100
H  -5.03900 35.71100 37.58200
N  -11.01300 40.20600 41.97200
C  -9.98300 40.89200 41.40000
C  -10.39700 42.25000 41.17300
C  -11.70300 42.42100 41.64100
C  -12.04200 41.13100 42.20600
C  -9.47500 43.34800 40.66000
C  -12.56400 43.64800 41.42300
O  -12.07500 44.67700 40.97300
C  -13.99700 43.70400 41.74300
N  -13.12100 38.21600 42.78600
C  -13.74300 39.34300 42.98500
C  -15.11100 39.09700 43.58100
C  -15.23800 37.50300 43.64400
C  -13.82500 37.14200 43.33100
C  -15.35000 39.79400 44.96500
C  -16.39800 36.78200 42.79200
C  -17.29300 35.81900 43.43800
N  -11.00700 36.15100 42.73800
C  -11.94300 35.34000 43.26700
C  -11.42900 33.98700 43.32100
C  -10.15900 34.05000 42.64000
C  -9.96000 35.35600 42.29200
C  -12.06600 32.72000 43.80000
C  -9.04300 33.26800 42.17200
O  -8.82200 32.08000 42.34700
C  -8.15300 34.17600 41.46200
C  -6.79400 34.06700 42.09800
O  -5.82000 33.55000 41.64400
O  -6.79500 34.64800 43.30400
C  -5.46000 34.75800 43.96400
H  -8.00700 40.98300 40.51400
H  -14.06300 41.41600 42.93300
H  -14.08000 35.13400 43.65600
H  -6.38800 36.53800 41.02700
H  -6.74400 38.89600 39.44600
H  -5.14900 38.30700 41.78800
H  -5.91000 39.92900 41.88700
H  -4.89100 39.46400 40.53600
H  -7.07700 37.07000 38.16600
H  -8.05600 35.82400 38.97600
H  -6.44300 34.39600 38.41700
H  -5.40600 35.19500 39.55800
H  -9.24200 43.93400 41.54900
H  -9.93600 43.98700 39.90700
H  -8.61000 42.90600 40.16500
H  -14.01700 43.49300 42.81200
H  -14.41400 42.84000 41.22500
H  -14.41800 44.64800 41.39700
H  -15.82800 39.41100 42.82200
H  -15.51300 37.13700 44.63300
H  -14.57100 40.54800 45.08400
H  -15.19600 38.97800 45.67200
H  -16.30600 40.29500 45.11400
H  -15.86700 36.16000 42.07100
H  -17.16000 37.43600 42.36700
H  -17.41300 36.22300 44.44300
H  -16.87500 34.81200 43.41600
H  -18.21300 35.80200 42.85400
H  -11.25900 32.03000 44.04400
H  -12.75400 32.27600 43.08200
H  -12.67000 32.90900 44.68800
H  -8.09200 33.96800 40.39400
H  -4.68700 35.27100 43.39100
H  -4.97700 33.81100 44.20500
H  -5.64500 35.15800 44.96100

