158

Mg 1.64400 -0.98300 43.23800
C  5.16000 -0.54400 42.69000
C  1.20900 2.01200 41.65200
C  -1.62600 -1.75800 43.15500
C  2.39300 -4.34500 44.28000
N  2.99500 0.43300 42.20600
C  4.39300 0.44200 42.15000
C  4.85600 1.46400 41.18200
C  3.68500 2.49600 41.21400
C  2.56100 1.57400 41.70000
C  3.87200 3.71500 42.21200
C  5.12100 0.90000 39.73600
C  6.50300 1.24200 39.17200
H  6.55000 1.71200 37.71000
N  -0.06600 0.00800 42.56800
C  0.01600 1.31200 42.03200
C  -1.28700 1.76400 41.79300
C  -2.13500 0.70700 42.37100
C  -1.33900 -0.41400 42.72400
C  -1.64900 3.12600 41.16100
C  -3.66300 0.83900 42.44100
O  -4.18800 1.93900 42.26700
C  -4.57900 -0.24800 42.81700
N  0.52800 -2.79100 43.75600
C  -0.78000 -2.82900 43.56800
C  -1.30300 -4.21400 43.82300
C  -0.07000 -5.04300 44.25300
C  1.06000 -4.02900 44.10600
C  -2.34700 -4.26900 44.94600
C  0.30300 -6.20900 43.35900
C  0.73600 -7.45700 44.09300
N  3.40400 -2.21200 43.61000
C  3.52400 -3.52300 44.03700
C  4.93600 -3.84000 44.20700
C  5.60300 -2.67400 43.68900
C  4.65900 -1.74400 43.32300
C  5.42500 -5.13400 44.75500
C  6.91500 -2.09700 43.44700
O  7.99800 -2.52600 43.73400
C  6.71400 -0.67000 42.69300
C  7.49200 0.36300 43.37900
O  7.63300 0.42800 44.59200
O  7.93500 1.21900 42.41200
C  8.53400 2.41400 42.97000
H  1.09700 2.99600 41.19200
H  -2.70300 -1.93100 43.19600
H  2.72100 -5.28400 44.73000
H  5.74300 2.00000 41.52000
H  3.43000 2.92900 40.24700
H  4.33900 3.40000 43.14600
H  2.87400 4.07300 42.46700
H  4.44100 4.53700 41.77800
H  4.31600 1.26100 39.09500
H  4.99300 -0.17900 39.82000
H  7.12600 0.34800 39.15300
H  6.98600 1.99500 39.79500
H  -0.83000 3.61700 40.63600
H  -2.03200 3.81500 41.91400
H  -2.53900 3.01800 40.54100
H  -5.58600 0.11900 42.61800
H  -4.51400 -0.49100 43.87800
H  -4.53400 -1.08200 42.11800
H  -1.63100 -4.52600 42.83100
H  -0.04600 -5.35300 45.29700
H  -2.08800 -3.67600 45.82400
H  -2.34400 -5.31000 45.27100
H  -3.32200 -4.12600 44.48200
H  1.05100 -5.88400 42.63600
H  -0.61700 -6.48600 42.84300
H  0.42600 -8.43500 43.72500
H  0.40400 -7.34500 45.12400
H  1.82600 -7.45400 44.07600
H  5.12600 -6.04100 44.23000
H  5.08100 -5.18100 45.78900
H  6.51400 -5.09400 44.76900
H  7.08500 -0.74400 41.67100
H  9.40300 2.14300 43.57000
H  7.86900 3.02900 43.57600
H  8.79100 3.00300 42.09000
Mg 17.23100 -2.09500 27.69100
C  15.86100 0.04800 30.23600
C  18.64400 -3.84300 30.23000
C  18.62900 -3.94800 25.40400
C  15.95000 0.09100 25.36000
N  17.35700 -1.76300 30.01900
C  16.66900 -0.89000 30.78100
C  16.87900 -1.15800 32.27800
C  17.87600 -2.32500 32.24100
C  18.06600 -2.63200 30.73000
C  19.27900 -2.08000 32.86200
C  15.54300 -1.53800 32.94300
C  15.22100 -0.80500 34.28900
H  16.36000 -0.25200 35.03500
N  18.41100 -3.70100 27.78400
C  18.86400 -4.31200 28.93100
C  19.54000 -5.50800 28.54800
C  19.54600 -5.56400 27.10500
C  18.90300 -4.31700 26.69800
C  20.04100 -6.50700 29.63200
C  20.27800 -6.48300 26.17500
O  20.49800 -6.27100 25.00600
C  20.88000 -7.75200 26.68100
N  17.36800 -1.87200 25.69100
C  17.93600 -2.79700 24.93700
C  17.65600 -2.51200 23.40100
C  16.67100 -1.19700 23.40600
C  16.61100 -1.00500 24.94100
C  18.91000 -2.27800 22.52500
C  15.15500 -1.50900 22.84800
C  14.41900 -0.33700 22.16500
N  16.18500 -0.27200 27.72300
C  15.71700 0.45400 26.68900
C  14.82200 1.49700 27.14500
C  14.83400 1.37100 28.56600
C  15.69900 0.30900 28.85000
C  14.07300 2.49400 26.31000
C  14.34900 1.94800 29.79200
O  13.52200 2.85400 30.01700
C  15.07400 1.11000 30.88900
C  15.83700 2.11400 31.73900
O  17.04000 2.33500 31.72000
O  15.00000 2.67600 32.60000
C  15.62500 3.80500 33.34000
H  18.79100 -4.41700 31.14700
H  18.90400 -4.67000 24.63300
H  15.51600 0.77000 24.62300
H  17.32500 -0.23100 32.63800
H  17.48400 -3.20800 32.74500
H  19.52100 -2.65800 33.75400
H  19.33300 -1.02800 33.14100
H  20.09500 -2.29500 32.17200
H  15.52300 -2.57100 33.29100
H  14.73700 -1.40900 32.22100
H  14.87600 -1.55400 35.00100
H  14.38700 -0.10500 34.23200
H  21.13000 -6.49200 29.60500
H  19.78200 -7.54200 29.41200
H  19.64900 -6.31400 30.63000
H  20.14600 -8.37300 27.19600
H  21.68000 -7.38000 27.32100
H  21.35900 -8.33000 25.89100
H  17.10400 -3.35500 22.98500
H  17.12800 -0.32200 22.94400
H  19.76800 -2.60300 23.11300
H  18.99700 -1.27200 22.11300
H  18.81300 -2.86300 21.61000
H  14.50400 -1.93800 23.60900
H  15.29500 -2.27200 22.08200
H  14.31400 -0.41600 21.08300
H  14.88700 0.63000 22.34800
H  13.42400 -0.20700 22.58900
H  13.58800 3.28200 26.88600
H  13.26100 1.97100 25.80400
H  14.77300 3.01700 25.65800
H  14.14300 0.77000 31.34100
H  14.97600 4.50900 33.86100
H  16.08600 4.48600 32.62400
H  16.33500 3.36400 34.04000

