158

Mg 17.09700 -1.32700 28.05700
C  16.06300 0.64200 30.88200
C  19.03200 -3.09000 29.98300
C  18.46400 -2.66500 25.17700
C  15.35300 0.89400 26.07800
N  17.56800 -1.02500 30.11700
C  17.06100 -0.31000 31.15500
C  17.49300 -0.79800 32.57600
C  18.63700 -1.77900 32.14900
C  18.36500 -1.99000 30.65500
C  20.06100 -1.34600 32.52700
C  16.35200 -1.38400 33.45600
C  16.64100 -1.46500 35.01200
H  17.89400 -0.84500 35.63700
N  18.42500 -2.80800 27.63600
C  19.05300 -3.46000 28.62000
C  19.80500 -4.53400 28.03600
C  19.73200 -4.43200 26.64300
C  18.85200 -3.24600 26.42600
C  20.43500 -5.59800 28.96300
C  20.36300 -5.19100 25.55900
O  20.13800 -4.95700 24.35500
C  21.25300 -6.37800 25.89800
N  16.90300 -0.93600 25.91200
C  17.47200 -1.68900 24.94700
C  17.16900 -1.11900 23.52400
C  16.15600 0.02700 23.79400
C  16.05600 -0.05000 25.35900
C  18.44200 -0.76100 22.75100
C  14.81700 0.02100 23.05700
C  14.87700 0.73700 21.64100
N  15.84800 0.40700 28.28100
C  15.18500 1.14200 27.43800
C  14.40400 2.13300 28.11000
C  14.77100 2.00500 29.48700
C  15.59500 0.91400 29.57300
C  13.72600 3.30200 27.40500
C  14.66300 2.60500 30.88900
O  14.15700 3.65100 31.31500
C  15.44000 1.58900 31.83800
C  16.31500 2.51100 32.63800
O  17.32200 3.02000 32.24100
O  15.72300 2.84900 33.76900
C  16.48400 3.83900 34.56800
H  19.73500 -3.62700 30.62300
H  18.81900 -3.03000 24.21100
H  14.83100 1.55100 25.37900
H  17.94400 0.06200 33.07200
H  18.55100 -2.73100 32.67300
H  20.69800 -1.49900 31.65500
H  20.40600 -2.00400 33.32400
H  20.09200 -0.33000 32.92100
H  16.07500 -2.35800 33.05300
H  15.49400 -0.71900 33.34900
H  16.51400 -2.52000 35.25600
H  15.84100 -0.85600 35.43200
H  21.43400 -5.25000 29.22200
H  20.38000 -6.60000 28.53500
H  19.81900 -5.69000 29.85700
H  22.06800 -5.97500 26.49900
H  21.72600 -6.84500 25.03400
H  20.77100 -7.10900 26.54700
H  16.67100 -1.93600 23.00100
H  16.61300 0.99100 23.57100
H  18.42800 0.31900 22.60000
H  18.58400 -1.28500 21.80700
H  19.25500 -0.93400 23.45700
H  13.98000 0.22300 23.72500
H  14.61700 -1.01500 22.78400
H  14.55800 -0.00100 20.90600
H  15.90200 0.95400 21.34200
H  14.26900 1.63500 21.52900
H  14.34300 3.39100 26.51200
H  13.86400 4.17400 28.04500
H  12.68300 3.16800 27.12000
H  14.66000 1.09000 32.41300
H  15.98100 4.04100 35.51300
H  16.49200 4.78700 34.02900
H  17.53300 3.57300 34.69700
Mg -10.46400 38.93300 41.11600
C  -8.64300 36.04400 40.38800
C  -8.00500 40.76200 39.42000
C  -12.42700 41.57400 41.00700
C  -13.00000 36.98200 42.45400
N  -8.58200 38.56200 40.04400
C  -8.10800 37.25100 39.84800
C  -7.02100 37.21400 38.76800
C  -6.60000 38.69900 38.74200
C  -7.85300 39.42400 39.34900
C  -5.24200 39.09300 39.47900
C  -7.47300 36.61900 37.38500
C  -6.71300 35.52000 36.78500
H  -6.13100 35.70400 35.41600
N  -10.19400 40.91000 40.53300
C  -9.13600 41.43600 39.78800
C  -9.33500 42.85200 39.71700
C  -10.59900 43.13500 40.21300
C  -11.15000 41.86600 40.62200
C  -8.32800 43.69700 39.05900
C  -11.16300 44.56900 40.40500
O  -10.54900 45.50400 40.01600
C  -12.42500 44.78100 41.17300
N  -12.44300 39.22500 41.49100
C  -13.00300 40.38600 41.42000
C  -14.46000 40.35000 41.98700
C  -14.78900 38.80100 42.06900
C  -13.31700 38.26300 42.05700
C  -14.52700 41.18600 43.37900
C  -15.42400 38.12000 40.78100
C  -16.49100 37.08000 41.04000
N  -10.77400 36.90800 41.52600
C  -11.81600 36.25400 42.21400
C  -11.40900 34.88000 42.35200
C  -10.22700 34.72500 41.65300
C  -9.86700 36.01300 41.15200
C  -12.15300 33.79700 43.10800
C  -9.18100 33.81500 41.17200
O  -9.08900 32.60200 41.34500
C  -8.19200 34.59700 40.29300
C  -6.80400 34.42500 40.89300
O  -6.02800 33.55200 40.52100
O  -6.55200 35.33900 41.86600
C  -5.15800 35.44600 42.20000
H  -7.16100 41.28600 38.96700
H  -13.13400 42.40500 40.94900
H  -13.82900 36.39500 42.85500
H  -6.24600 36.59500 39.21900
H  -6.52200 39.03200 37.70700
H  -4.50200 38.29300 39.50500
H  -5.40300 39.33600 40.53000
H  -4.65000 39.88000 39.01200
H  -7.25900 37.41500 36.67200
H  -8.55500 36.49200 37.35900
H  -7.30300 34.60400 36.75100
H  -5.94200 35.23800 37.50200
H  -8.16700 44.62700 39.60400
H  -8.62100 43.94500 38.03900
H  -7.33400 43.25300 39.11900
H  -12.41200 45.82200 41.49800
H  -12.41700 44.16000 42.06800
H  -13.32100 44.63000 40.57100
H  -15.14900 40.78800 41.26500
H  -15.17600 38.63900 43.07500
H  -13.54200 41.61900 43.55100
H  -14.77200 40.58300 44.25300
H  -15.26400 41.98100 43.26300
H  -14.59200 37.67800 40.23400
H  -15.85900 38.94200 40.21300
H  -16.84800 37.27500 42.05100
H  -16.16700 36.04000 40.98200
H  -17.25700 37.23100 40.28000
H  -12.71500 33.13100 42.45300
H  -12.88000 34.31100 43.73800
H  -11.41200 33.32200 43.75000
H  -8.15700 34.20300 39.27700
H  -4.99000 36.51300 42.05200
H  -4.54200 34.84100 41.53400
H  -4.98200 35.24100 43.25600

