158

Mg 30.11100 58.58200 40.01300
C  27.29700 56.41400 39.19200
C  32.29100 56.06200 39.16600
C  32.52500 60.83100 40.31600
C  27.77600 61.10600 40.32100
N  29.83600 56.51100 39.39900
C  28.63500 55.80900 39.23300
C  28.87300 54.36400 38.76400
C  30.44100 54.30600 38.68200
C  30.91600 55.69900 39.13000
C  30.94400 53.14700 39.40300
C  28.07600 53.79300 37.45100
C  28.15900 54.85800 36.29900
H  29.20000 54.67100 35.12700
N  32.21000 58.42700 39.77100
C  32.86200 57.30900 39.46000
C  34.25400 57.66100 39.49200
C  34.43700 58.95800 40.03500
C  33.01600 59.52200 40.07600
C  35.42500 56.73700 39.16400
C  35.60800 59.74900 40.46100
O  36.71200 59.30200 40.31800
C  35.51600 61.00100 41.21000
N  30.14600 60.74500 40.10900
C  31.24000 61.39200 40.37000
C  31.00700 62.88200 40.69700
C  29.46500 62.99100 40.77100
C  29.10200 61.50200 40.44500
C  31.69800 63.32100 42.05600
C  28.90700 63.91200 39.64500
C  28.43900 65.33600 40.10100
N  27.93300 58.83300 39.73600
C  27.16400 59.93200 39.91100
C  25.78800 59.55100 39.71200
C  25.87200 58.20300 39.33000
C  27.14500 57.78900 39.51000
C  24.62200 60.47600 39.76800
C  25.01500 57.11700 38.90500
O  23.77800 57.05400 38.72100
C  25.95300 55.91400 38.85300
C  25.53900 54.68600 39.54400
O  25.96000 54.28300 40.59100
O  24.62400 53.90600 38.74100
C  24.37700 52.55300 39.25300
H  33.00300 55.25000 39.00600
H  33.26600 61.61300 40.49500
H  27.04200 61.86400 40.60300
H  28.36500 53.90800 39.61300
H  30.68800 54.23100 37.62300
H  31.61500 53.38800 40.22600
H  31.54700 52.60700 38.67300
H  30.09100 52.63800 39.85100
H  27.10300 53.35900 37.68200
H  28.81800 53.01500 37.26800
H  28.38800 55.82400 36.74800
H  27.12800 54.95400 35.95700
H  36.22600 57.15300 38.55400
H  35.11300 55.91900 38.51500
H  35.86300 56.36400 40.09000
H  35.49200 61.76300 40.43000
H  36.48200 61.18500 41.68000
H  34.84100 61.03300 42.06600
H  31.36600 63.47400 39.85500
H  29.11200 63.34100 41.74200
H  30.94800 63.75700 42.71500
H  32.38300 64.13500 41.81800
H  32.11200 62.45300 42.56900
H  28.11700 63.37600 39.11900
H  29.65600 64.27400 38.94000
H  28.46800 65.39000 41.18900
H  27.41100 65.54800 39.80900
H  29.07000 66.12800 39.69700
H  23.74100 59.98100 40.17700
H  24.51300 60.80400 38.73400
H  24.75100 61.38900 40.35000
H  25.94400 55.74800 37.77600
H  24.17200 52.40000 40.31300
H  25.05000 51.76100 38.92400
H  23.49400 52.27800 38.67700
Mg -0.82200 33.35500 27.35300
C  -2.93600 31.99200 29.75700
C  0.66300 35.44800 29.69800
C  0.70400 34.98200 24.86600
C  -2.73800 31.57600 24.94200
N  -1.07800 33.66200 29.44600
C  -1.90600 32.87700 30.25700
C  -1.73300 33.22200 31.75500
C  -0.62000 34.30300 31.67800
C  -0.33400 34.51200 30.15700
C  -1.05200 35.61900 32.36900
C  -1.52500 32.02000 32.64200
C  -0.66100 32.13000 33.88600
H  -1.18200 31.50600 35.16500
N  0.45600 35.01100 27.29500
C  1.02100 35.65000 28.38900
C  2.01600 36.61000 27.96100
C  1.98300 36.57500 26.48500
C  1.00100 35.50800 26.16000
C  2.84400 37.42800 28.98900
C  2.76700 37.39400 25.44500
O  2.66800 37.20600 24.25400
C  3.64600 38.39100 25.97500
N  -0.97100 33.29400 25.20000
C  -0.12300 33.89900 24.44900
C  -0.21900 33.45500 22.99600
C  -1.10900 32.20900 23.01400
C  -1.66000 32.34400 24.48900
C  -0.78300 34.50700 21.99100
C  -0.41600 30.88900 22.68300
C  -0.89000 30.00600 21.55200
N  -2.45300 31.93100 27.29800
C  -3.12100 31.38800 26.28600
C  -4.21000 30.51900 26.72300
C  -4.20300 30.75000 28.15600
C  -3.10400 31.59100 28.42200
C  -5.09500 29.57000 25.87700
C  -4.88800 30.37300 29.41300
O  -5.92800 29.75800 29.62900
C  -3.99800 31.11200 30.53000
C  -4.84200 32.07100 31.25300
O  -5.02600 33.22400 30.95900
O  -5.42400 31.36100 32.28300
C  -6.40400 32.11400 33.10100
H  1.19900 35.93000 30.51800
H  1.24200 35.41600 24.02100
H  -3.27900 30.91800 24.26000
H  -2.66600 33.73000 32.00300
H  0.29900 33.85300 32.05200
H  -0.89100 35.60000 33.44700
H  -2.10700 35.76600 32.13600
H  -0.39100 36.34300 31.89300
H  -1.13900 31.12700 32.15200
H  -2.50200 31.70100 33.00500
H  -0.59000 33.19600 34.10200
H  0.34600 31.77900 33.66200
H  2.19500 37.83300 29.76600
H  3.34800 38.29300 28.55700
H  3.50700 36.74600 29.52100
H  4.48400 37.91200 26.48200
H  3.08600 38.99500 26.68800
H  4.15300 38.97800 25.20800
H  0.82500 33.19300 22.82500
H  -2.01400 32.34200 22.42200
H  0.04900 34.81300 21.35600
H  -1.02400 35.44900 22.48300
H  -1.54800 34.19100 21.28200
H  -0.61200 30.26900 23.55900
H  0.64600 31.07400 22.52200
H  -1.90000 30.32800 21.30100
H  -1.05600 28.95400 21.78300
H  -0.32200 30.18400 20.63800
H  -4.61100 29.14800 24.99600
H  -5.93900 30.12900 25.47400
H  -5.61400 28.90100 26.56300
H  -3.44300 30.55100 31.28200
H  -5.87700 32.88900 33.65800
H  -6.77500 31.41500 33.85000
H  -7.24000 32.47500 32.50200

