158

Mg 17.15100 53.23800 26.58300
C  19.23300 51.56900 28.74700
C  14.72700 53.28700 28.99500
C  15.14400 54.46500 24.29800
C  19.33400 52.21900 23.88000
N  17.00300 52.55000 28.68400
C  18.01600 51.97800 29.37400
C  17.59500 51.94100 30.89800
C  16.04200 52.26300 30.84400
C  15.89500 52.70000 29.44600
C  15.09800 51.13200 31.32300
C  18.43900 52.98900 31.76800
C  19.12100 52.51700 33.03200
H  18.16800 51.93100 34.08800
N  15.28300 54.05800 26.72600
C  14.43600 53.87900 27.76500
C  13.12100 54.46000 27.39500
C  13.19000 54.82800 26.05200
C  14.59400 54.49000 25.63300
C  11.87600 54.19400 28.19900
C  12.19400 55.42300 25.16500
O  12.50100 55.66200 24.02400
C  10.82300 55.71700 25.66700
N  17.15000 53.23100 24.44200
C  16.31100 53.97900 23.81700
C  16.52300 54.05000 22.23900
C  17.92700 53.45200 22.11000
C  18.22100 53.00100 23.59200
C  15.46700 53.22700 21.41500
C  19.01600 54.28200 21.41700
C  19.48200 55.49700 22.23200
N  18.94300 52.20300 26.35000
C  19.76100 51.91400 25.21800
C  20.89100 51.19400 25.61600
C  20.76800 51.09800 27.03400
C  19.57100 51.66300 27.40300
C  21.95200 50.71900 24.66100
C  21.44900 50.48800 28.19200
O  22.51100 49.90600 28.43600
C  20.43300 50.91600 29.38600
C  20.13200 49.65000 30.14300
O  19.34500 48.73300 29.81500
O  20.70600 49.79500 31.37700
C  20.52900 48.83000 32.44100
H  13.96000 53.30500 29.77100
H  14.59600 54.94900 23.48700
H  19.92000 52.02900 22.97800
H  17.76300 50.91700 31.23100
H  15.78600 53.17600 31.38100
H  14.35400 51.69200 31.89000
H  15.67600 50.41600 31.90700
H  14.63800 50.67300 30.44800
H  17.76700 53.77500 32.11400
H  19.15100 53.50100 31.12100
H  19.75100 53.30300 33.44900
H  19.77300 51.67900 32.78700
H  11.61500 55.05300 28.81800
H  12.04600 53.33600 28.85000
H  11.02400 53.97700 27.55600
H  10.26700 56.18600 24.85500
H  10.89100 56.37600 26.53300
H  10.33000 54.74900 25.75000
H  16.44300 55.12500 22.08000
H  17.88200 52.49600 21.58900
H  15.92100 52.53700 20.70400
H  14.94500 53.93300 20.76900
H  14.75600 52.72900 22.07400
H  18.77800 54.59900 20.40100
H  19.91100 53.70400 21.18500
H  19.85400 56.32200 21.62500
H  20.23800 55.10000 22.91000
H  18.67200 55.95800 22.79700
H  21.92000 51.39900 23.81000
H  21.84200 49.65300 24.46100
H  22.91900 50.73400 25.16600
H  20.93700 51.62500 30.04200
H  19.46500 48.62500 32.55500
H  20.83600 49.42900 33.29900
H  21.03100 47.88700 32.22600
Mg 10.09800 48.26300 26.09700
C  8.02100 48.02700 28.89100
C  12.50300 49.38200 27.90200
C  11.79100 48.74500 23.12400
C  7.21300 47.29900 23.94400
N  10.13800 48.76700 28.16300
C  9.32800 48.37300 29.16000
C  10.02600 48.58100 30.56000
C  11.22500 49.44200 30.12100
C  11.32000 49.20500 28.66100
C  11.23100 50.99300 30.44700
C  10.33500 47.40700 31.38300
C  9.82400 47.40700 32.79800
H  10.34600 46.36000 33.85400
N  11.92500 48.84600 25.62000
C  12.84600 49.26800 26.58500
C  14.07400 49.51200 25.97300
C  13.86600 49.37000 24.56200
C  12.46600 49.03000 24.33500
C  15.34900 49.96000 26.72100
C  14.81300 49.52800 23.42600
O  14.63500 49.42800 22.23700
C  16.19900 49.86000 23.76700
N  9.48600 48.15800 23.89000
C  10.46000 48.50800 22.91100
C  9.76800 48.37800 21.51500
C  8.55800 47.34600 21.81700
C  8.43300 47.59600 23.31600
C  9.28700 49.76500 20.93100
C  8.95100 45.89300 21.38000
C  9.01000 44.79200 22.38900
N  8.00800 47.80800 26.28200
C  7.00500 47.51400 25.35200
C  5.79900 47.36400 26.14200
C  6.17800 47.39200 27.46300
C  7.45600 47.77600 27.52700
C  4.50200 47.04600 25.57800
C  5.68200 47.24800 28.80800
O  4.50000 47.04900 29.14800
C  6.78700 47.63100 29.82300
C  7.13000 46.45800 30.61800
O  7.72800 45.49700 30.17700
O  6.67200 46.44200 31.88900
C  6.81800 45.21400 32.69400
H  13.34600 49.73200 28.50200
H  12.35700 48.76300 22.19000
H  6.38300 46.90600 23.35300
H  9.35900 49.22800 31.13000
H  12.14100 49.09400 30.59800
H  12.24500 51.38300 30.35000
H  10.81900 51.32700 31.39900
H  10.74300 51.44000 29.58100
H  11.41300 47.27700 31.48300
H  9.95700 46.48400 30.94300
H  8.75800 47.29100 32.60200
H  9.85400 48.40900 33.22700
H  15.61300 50.99800 26.52100
H  16.15400 49.25300 26.52000
H  15.26700 49.86500 27.80400
H  16.76000 50.14100 22.87600
H  16.68100 48.93100 24.06900
H  16.42400 50.70500 24.41700
H  10.47400 47.96300 20.79600
H  7.69800 47.79900 21.32300
H  9.33200 50.61400 21.61200
H  8.28300 49.69900 20.51000
H  9.97500 49.94900 20.10700
H  9.96000 45.97100 20.97600
H  8.39200 45.53500 20.51600
H  8.33300 45.09700 23.18700
H  10.00300 44.53000 22.75600
H  8.54600 43.85300 22.08600
H  4.61800 46.43900 24.68000
H  3.98500 47.95500 25.27000
H  3.91300 46.50500 26.31800
H  6.40400 48.45600 30.42400
H  7.59700 45.26200 33.45500
H  6.90200 44.27800 32.14200
H  5.87400 45.18000 33.23700

