158

Mg 2.01400 -1.35300 45.51000
C  5.37000 -0.34700 44.65100
C  0.87000 1.42400 43.67600
C  -0.93900 -2.78200 45.31300
C  3.42700 -4.36600 46.71100
N  2.98000 0.36000 44.28300
C  4.36800 0.59100 44.22700
C  4.66600 1.92200 43.52900
C  3.26100 2.50800 43.42000
C  2.31800 1.38500 43.83800
C  3.07400 3.76800 44.36300
C  5.34300 1.77900 42.06200
C  6.77700 2.18400 41.68800
H  7.06000 2.65800 40.21900
N  0.22800 -0.75000 44.54500
C  -0.09400 0.48200 43.95700
C  -1.51900 0.61700 43.81500
C  -2.11700 -0.56000 44.36500
C  -0.96900 -1.49100 44.74300
C  -2.19700 1.79000 43.21700
C  -3.64600 -0.96400 44.49200
O  -4.50300 -0.19600 44.13500
C  -4.18700 -2.24400 44.90900
N  1.40900 -3.37000 45.67600
C  0.12000 -3.58000 45.82100
C  -0.18900 -4.87800 46.61700
C  1.19800 -5.47200 46.87500
C  2.08000 -4.38900 46.31700
C  -1.05100 -4.65700 47.87300
C  1.48500 -6.83600 46.09200
C  0.52400 -8.07500 46.42500
N  3.90900 -2.22200 45.72500
C  4.30500 -3.42000 46.28900
C  5.80200 -3.39600 46.37600
C  6.21900 -2.20200 45.76700
C  5.05800 -1.54200 45.33000
C  6.84500 -4.46700 46.92600
C  7.42900 -1.48300 45.29400
O  8.67700 -1.63100 45.42000
C  6.89600 -0.20400 44.69200
C  7.33700 1.00300 45.51300
O  7.07700 1.25100 46.68700
O  8.17100 1.82700 44.72200
C  8.61000 3.11200 45.35000
H  0.60800 2.43100 43.34300
H  -1.84200 -3.38500 45.42600
H  3.91200 -5.13800 47.31200
H  5.40200 2.40900 44.16700
H  3.00200 2.85400 42.41900
H  2.72400 4.58800 43.73600
H  3.98600 4.08500 44.86900
H  2.25900 3.67600 45.08100
H  4.74900 2.23700 41.27100
H  5.39500 0.72300 41.79800
H  7.40100 1.30900 41.87200
H  7.02200 3.01900 42.34400
H  -3.18300 1.63300 42.78200
H  -1.59000 2.23900 42.43100
H  -2.31100 2.57800 43.96100
H  -4.08500 -2.56200 45.94700
H  -3.73400 -2.93000 44.19400
H  -5.24000 -2.16600 44.63600
H  -0.63100 -5.61100 45.94200
H  1.44600 -5.61300 47.92700
H  -0.56800 -4.76200 48.84400
H  -1.93900 -5.29000 47.87100
H  -1.41300 -3.63200 47.94900
H  2.51500 -7.11400 46.31400
H  1.54500 -6.57400 45.03600
H  0.33500 -8.45600 45.42100
H  -0.40800 -7.71800 46.86400
H  1.05000 -8.87800 46.94200
H  7.81300 -3.97200 47.00600
H  6.85400 -5.27100 46.19100
H  6.39000 -4.90900 47.81200
H  7.28900 -0.13000 43.67800
H  8.45800 3.89300 44.60500
H  9.69600 3.05300 45.41600
H  8.15500 3.40000 46.29800
Mg 16.44400 -1.76300 27.32600
C  15.29100 0.43800 29.80700
C  18.43400 -3.23300 29.58000
C  17.73900 -3.49500 24.81100
C  14.82400 0.34800 25.03600
N  16.67000 -1.47400 29.41800
C  16.13000 -0.53600 30.27500
C  16.58100 -0.79900 31.68400
C  17.75400 -1.89400 31.49700
C  17.62600 -2.25800 30.07900
C  19.09200 -1.38900 31.98200
C  15.49300 -1.14200 32.71800
C  15.36600 -0.40500 34.07100
H  16.65100 -0.08700 34.86500
N  17.77800 -3.28400 27.26400
C  18.51500 -3.79200 28.25300
C  19.38700 -4.82500 27.76100
C  19.13400 -4.96000 26.36900
C  18.17700 -3.91000 26.07500
C  20.33100 -5.67500 28.62200
C  19.65300 -5.99700 25.38500
O  19.27400 -6.08700 24.25700
C  20.66600 -7.10400 25.77900
N  16.15900 -1.71900 25.17800
C  16.81800 -2.48700 24.37100
C  16.56000 -2.18000 22.90100
C  15.56700 -0.97200 23.00900
C  15.51600 -0.74700 24.54700
C  17.84100 -1.81000 22.05100
C  14.06700 -1.21200 22.46000
C  13.63400 -0.42100 21.24800
N  15.18500 -0.06700 27.33200
C  14.58900 0.70900 26.37200
C  13.81800 1.78800 26.90800
C  14.00900 1.70700 28.33000
C  14.93700 0.65900 28.47000
C  12.96400 2.77300 26.11600
C  13.70100 2.31600 29.56200
O  13.00000 3.27500 29.81000
C  14.50700 1.48700 30.67100
C  15.47300 2.37100 31.29100
O  16.59300 2.64500 30.89800
O  15.00500 2.77100 32.54000
C  15.76800 3.69200 33.39500
H  19.18600 -3.71800 30.20700
H  18.25500 -3.94700 23.96100
H  14.27400 0.98700 24.34200
H  17.02800 0.14200 32.00300
H  17.47000 -2.75600 32.10200
H  19.09200 -0.38800 32.41200
H  19.76400 -1.49400 31.13000
H  19.50100 -2.08900 32.71000
H  15.69300 -2.17900 32.98600
H  14.49700 -0.99300 32.30200
H  14.85400 -1.11200 34.72300
H  14.75900 0.48000 33.88500
H  21.37100 -5.51700 28.33700
H  20.00600 -6.68900 28.39000
H  20.16800 -5.50300 29.68500
H  20.24700 -7.70000 26.59000
H  21.58800 -6.60500 26.07800
H  21.07100 -7.67500 24.94400
H  16.07100 -3.05000 22.46300
H  16.03300 -0.05000 22.66300
H  18.14700 -2.69700 21.49700
H  18.48300 -1.40700 22.83400
H  17.64000 -0.98100 21.37100
H  13.41800 -1.04600 23.32000
H  14.09800 -2.26600 22.18200
H  13.09100 -1.13100 20.62500
H  14.36600 -0.01000 20.55300
H  12.98400 0.33100 21.69500
H  12.52600 2.37600 25.20100
H  13.29600 3.80700 26.02400
H  12.12500 2.91400 26.79800
H  13.90200 1.05500 31.46800
H  15.80800 4.70500 32.99400
H  16.73400 3.26500 33.66300
H  15.22100 3.86000 34.32300

