158

Mg 53.63100 24.93100 45.03700
C  51.19800 27.28500 44.01200
C  51.60400 22.36600 43.97000
C  56.32900 22.78800 44.76400
C  55.82300 27.57900 45.57300
N  51.65100 24.87700 43.90500
C  50.79800 25.95500 43.76500
C  49.37900 25.44400 43.39300
C  49.42000 23.91200 43.77700
C  50.94500 23.63300 43.95800
C  48.63400 23.41000 45.02900
C  49.10100 25.70900 41.83800
C  47.62700 25.66900 41.38800
H  47.23800 25.39700 39.92600
N  53.95600 22.91000 44.38800
C  52.93400 22.03600 44.02900
C  53.45200 20.69100 43.84800
C  54.85300 20.74100 44.19500
C  55.11100 22.15600 44.42900
C  52.63600 19.55700 43.45200
C  55.77500 19.56700 44.03700
O  55.30400 18.42300 43.96400
C  57.20700 19.77300 43.87000
N  55.73000 25.20700 44.87500
C  56.62600 24.13100 45.03000
C  58.03000 24.53900 45.28000
C  57.91700 26.11100 45.29800
C  56.35200 26.34900 45.28000
C  58.69400 23.88200 46.61000
C  58.64400 26.90300 44.15100
C  60.11600 27.35900 44.56600
N  53.50500 27.00300 45.19100
C  54.44100 27.92600 45.46500
C  53.80200 29.23500 45.45900
C  52.54500 29.01300 44.82200
C  52.42600 27.65300 44.63000
C  54.49400 30.46400 45.78600
C  51.37000 29.71900 44.26200
O  51.02900 30.88900 44.12000
C  50.47600 28.61200 43.68300
C  50.24800 28.89700 42.23900
O  51.01900 28.78100 41.33800
O  48.91200 29.30600 42.05000
C  48.31700 29.57900 40.73300
H  50.99000 21.48500 43.77100
H  57.15100 22.08000 44.89100
H  56.54700 28.38900 45.68400
H  48.61300 25.95100 43.98000
H  49.06500 23.33800 42.92100
H  48.00100 24.17400 45.48100
H  49.34700 22.91700 45.69000
H  47.93200 22.62800 44.74000
H  49.59100 24.91700 41.27100
H  49.59500 26.56500 41.37900
H  47.15300 26.63200 41.57800
H  47.17300 24.97700 42.09800
H  53.19900 18.75000 42.98300
H  51.81700 19.76900 42.76500
H  52.16500 19.19200 44.36400
H  57.57600 18.81200 43.50900
H  57.73100 20.05100 44.78400
H  57.30400 20.47600 43.04200
H  58.69300 24.22900 44.47200
H  58.20200 26.57500 46.24200
H  59.78000 23.79800 46.59800
H  58.25700 22.90700 46.82700
H  58.50500 24.52100 47.47300
H  58.20100 27.78400 43.68500
H  58.68100 26.18800 43.33000
H  60.27100 27.15500 45.62500
H  60.24000 28.43200 44.41900
H  60.91700 26.81200 44.06800
H  54.62100 30.66700 46.84900
H  53.89300 31.25400 45.33500
H  55.50000 30.56500 45.37900
H  49.56300 28.68700 44.27300
H  48.95100 29.45700 39.85500
H  47.97000 30.60700 40.62500
H  47.50700 28.90000 40.46900
Mg -10.33800 38.39800 40.95400
C  -8.45200 35.41900 40.70900
C  -8.05600 40.13800 39.18200
C  -12.58600 40.87000 40.62800
C  -12.93000 36.34000 42.42400
N  -8.66600 37.70600 39.78700
C  -7.95300 36.51800 39.96700
C  -6.61000 36.53300 39.34000
C  -6.54900 38.05100 38.82700
C  -7.86100 38.71400 39.27000
C  -5.18400 38.75500 39.27100
C  -6.38700 35.58000 38.16200
C  -4.95800 35.10200 38.21000
H  -3.95200 35.53900 37.10000
N  -10.26000 40.34800 40.13200
C  -9.19100 40.93300 39.47800
C  -9.49200 42.29600 39.15000
C  -10.86300 42.49400 39.52100
C  -11.25700 41.20500 40.15900
C  -8.59900 43.15800 38.36700
C  -11.65000 43.77800 39.26100
O  -11.20000 44.65600 38.51000
C  -13.07800 43.98300 39.78900
N  -12.46300 38.48600 41.38200
C  -13.17400 39.67100 41.13700
C  -14.71600 39.49400 41.38100
C  -14.77200 37.97600 41.83700
C  -13.27200 37.56000 41.94100
C  -15.24400 40.47500 42.46500
C  -15.57500 36.93600 40.92200
C  -16.91600 36.35800 41.58000
N  -10.64500 36.32300 41.49400
C  -11.72600 35.67700 42.09500
C  -11.31600 34.28200 42.36700
C  -9.98900 34.21200 41.92800
C  -9.64000 35.41600 41.34100
C  -12.12700 33.25200 43.05600
C  -8.87300 33.30100 41.86500
O  -8.85800 32.16700 42.31700
C  -7.78500 34.02600 41.05500
C  -6.53100 34.14600 41.88000
O  -5.74800 33.24500 42.12400
O  -6.30800 35.43100 42.31000
C  -5.16500 35.80700 43.14400
H  -7.25000 40.77800 38.81800
H  -13.31200 41.67800 40.51500
H  -13.73300 35.79400 42.92300
H  -5.82200 36.42800 40.08600
H  -6.64300 38.12200 37.74300
H  -4.38300 38.01800 39.21700
H  -5.23700 39.11700 40.29800
H  -5.03800 39.62600 38.63200
H  -6.71200 36.13400 37.28100
H  -7.02000 34.69400 38.21700
H  -5.07100 34.02300 38.10600
H  -4.42500 35.30200 39.14000
H  -7.75100 42.67100 37.88600
H  -8.21000 44.01600 38.91400
H  -9.18200 43.61100 37.56500
H  -13.02600 43.72400 40.84600
H  -13.62100 43.24500 39.19900
H  -13.36200 45.00600 39.54000
H  -15.17600 39.47300 40.39300
H  -15.16800 37.94400 42.85200
H  -14.39000 40.95600 42.94100
H  -15.84600 39.93900 43.19900
H  -15.88700 41.18900 41.95000
H  -14.92500 36.10500 40.64900
H  -15.81100 37.33700 39.93700
H  -17.66800 37.07400 41.24700
H  -16.83800 36.24200 42.66100
H  -17.27700 35.44200 41.11200
H  -12.28700 32.33600 42.48800
H  -13.04400 33.79700 43.27800
H  -11.79500 32.91800 44.03900
H  -7.41300 33.42800 40.22200
H  -4.26500 35.76100 42.53100
H  -5.01400 35.21600 44.04700
H  -5.41600 36.81500 43.47300

