158

Mg -11.36700 37.23300 41.80900
C  -9.36800 34.41800 40.91800
C  -8.72500 39.11000 40.35100
C  -13.24900 39.85300 41.87300
C  -13.99000 35.22600 42.40400
N  -9.29500 36.75600 40.73300
C  -8.73500 35.54600 40.52800
C  -7.29200 35.66900 39.99100
C  -7.06800 37.25800 40.06200
C  -8.44600 37.76500 40.41400
C  -5.98900 37.65400 41.09500
C  -7.04700 34.97000 38.59800
C  -5.54700 35.08600 38.15800
H  -5.30800 35.59400 36.76300
N  -11.03300 39.17900 41.35200
C  -9.90500 39.73000 40.72300
C  -10.02900 41.10700 40.49100
C  -11.26400 41.44600 41.05700
C  -11.91700 40.14800 41.45600
C  -9.10000 42.01400 39.68200
C  -11.92400 42.90300 41.19400
O  -11.30800 43.91100 40.74200
C  -13.29500 43.13300 41.74100
N  -13.48400 37.44400 41.55200
C  -13.95900 38.67000 41.86900
C  -15.38300 38.59900 42.46600
C  -15.75000 37.04500 42.23000
C  -14.33500 36.56100 42.04500
C  -15.33500 39.13900 43.95600
C  -16.66600 36.82900 40.92100
C  -16.78600 35.43900 40.34600
N  -11.68000 35.24900 41.71900
C  -12.76200 34.53100 42.15500
C  -12.48000 33.13800 42.15500
C  -11.13800 33.02300 41.75600
C  -10.67400 34.37800 41.48400
C  -13.51600 32.14800 42.50000
C  -10.01100 32.12300 41.49900
O  -9.86500 30.95500 41.75900
C  -8.91900 32.99700 40.75500
C  -7.59300 32.70500 41.35000
O  -6.60400 32.27700 40.71800
O  -7.59700 33.12500 42.65000
C  -6.24300 32.92700 43.27100
H  -7.81200 39.56800 39.96400
H  -13.81300 40.75500 42.11800
H  -14.76100 34.61000 42.87200
H  -6.69400 35.04100 40.65100
H  -6.84000 37.58700 39.04800
H  -5.36600 36.77100 41.23800
H  -6.42300 37.96400 42.04600
H  -5.37100 38.43900 40.65800
H  -7.68300 35.24600 37.75700
H  -7.18400 33.94400 38.93800
H  -4.94400 34.18700 38.28500
H  -5.03500 35.84800 38.74500
H  -8.73000 42.71700 40.42700
H  -9.63500 42.60100 38.93500
H  -8.31600 41.50200 39.12400
H  -13.44600 44.20700 41.85300
H  -13.33800 42.67800 42.73000
H  -14.06800 42.78500 41.05500
H  -16.15300 39.14800 41.92400
H  -16.26800 36.48500 43.00800
H  -15.81800 40.09900 44.13800
H  -14.33800 39.30600 44.36200
H  -15.81500 38.36300 44.55200
H  -16.31200 37.59000 40.22500
H  -17.64100 37.19500 41.24400
H  -17.42400 34.81600 40.97300
H  -15.86400 34.86300 40.42100
H  -17.09600 35.40400 39.30100
H  -14.25200 32.63200 43.14300
H  -13.00700 31.36600 43.06400
H  -13.97900 31.64400 41.65200
H  -8.87900 32.68200 39.71200
H  -5.91500 33.92200 43.57000
H  -5.38300 32.54700 42.71900
H  -6.54500 32.38300 44.16600
Mg -6.12100 24.67300 25.83800
C  -4.65300 26.30600 28.57300
C  -7.99400 22.78200 28.09500
C  -7.18900 22.83600 23.25200
C  -3.84600 26.29300 23.81000
N  -6.27100 24.65500 28.03000
C  -5.63600 25.37700 28.95900
C  -6.06200 24.98900 30.35700
C  -6.85200 23.67500 30.24200
C  -7.10200 23.69300 28.68600
C  -6.09600 22.50900 30.90600
C  -6.87100 26.14900 31.05600
C  -6.64200 26.49900 32.59000
H  -5.80500 25.52600 33.51100
N  -7.54000 23.16700 25.66500
C  -8.20800 22.55000 26.69700
C  -9.17900 21.64100 26.12900
C  -8.93300 21.61300 24.70800
C  -7.82800 22.54200 24.50100
C  -10.28700 21.03100 26.90200
C  -9.74000 20.87000 23.61300
O  -9.43600 20.88000 22.39200
C  -10.89000 20.08900 24.03600
N  -5.62500 24.56600 23.87000
C  -6.12800 23.67400 22.96600
C  -5.70100 23.87500 21.51300
C  -4.61000 24.99200 21.66500
C  -4.68000 25.34400 23.20100
C  -5.27900 22.52400 20.81400
C  -4.92900 26.22400 20.77600
C  -3.72200 26.70600 20.08600
N  -4.55700 26.05300 26.16000
C  -3.76900 26.66200 25.19400
C  -2.82700 27.65800 25.77700
C  -3.16900 27.56200 27.17400
C  -4.23200 26.61100 27.34300
C  -1.91600 28.54700 25.04100
C  -2.78400 28.05900 28.44900
O  -2.01300 28.91100 28.78000
C  -3.78300 27.27300 29.44700
C  -2.91900 26.52300 30.35700
O  -2.51700 25.34600 30.18300
O  -2.51400 27.28300 31.36100
C  -1.62900 26.72400 32.39500
H  -8.62700 22.15400 28.72600
H  -7.58800 22.27100 22.40700
H  -3.23400 26.80400 23.06400
H  -5.10800 24.80200 30.85000
H  -7.85100 23.65600 30.67700
H  -6.50200 22.43800 31.91500
H  -5.01200 22.62100 30.94900
H  -6.44700 21.60600 30.40800
H  -7.93400 25.92900 30.95200
H  -6.64400 27.03900 30.47000
H  -7.62800 26.56200 33.05100
H  -6.30300 27.52900 32.70100
H  -10.27800 21.51000 27.88200
H  -10.14000 19.98700 27.17800
H  -11.31700 21.12300 26.55700
H  -10.60900 19.31000 24.74500
H  -11.11200 19.40100 23.22000
H  -11.75700 20.68300 24.32400
H  -6.58200 24.21100 20.96600
H  -3.64800 24.54300 21.41500
H  -4.22400 22.64300 20.56700
H  -5.94700 22.31200 19.97900
H  -5.29900 21.76500 21.59700
H  -5.36200 27.05000 21.34100
H  -5.72100 26.02400 20.05400
H  -3.80600 27.25900 19.15000
H  -2.90800 26.02400 19.84100
H  -3.30700 27.45800 20.75700
H  -2.41400 29.45200 24.69400
H  -1.48000 27.90800 24.27300
H  -1.12100 28.73700 25.76100
H  -4.47400 27.98400 29.89900
H  -1.30200 27.61000 32.93900
H  -0.74800 26.26300 31.94700
H  -2.20900 25.97900 32.93900

