158

Mg 44.76700 5.03200 47.85000
C  42.47600 7.58500 47.69300
C  42.21200 2.76500 47.78000
C  46.97500 2.64600 47.33300
C  47.35700 7.49400 47.25600
N  42.67300 5.22500 47.50800
C  41.87400 6.36000 47.56900
C  40.34800 6.05600 47.28100
C  40.35100 4.46100 47.58400
C  41.85900 4.10900 47.63800
C  39.34200 3.93400 48.70900
C  39.81300 6.43900 45.89500
C  40.72800 7.06400 44.78500
H  40.39000 6.56200 43.33400
N  44.59600 2.92200 47.58900
C  43.46400 2.21300 47.65700
C  43.82700 0.81900 47.51400
C  45.25900 0.69100 47.58900
C  45.68600 2.12000 47.49000
C  42.84300 -0.21600 47.37500
C  45.97700 -0.68800 47.56900
O  45.37700 -1.76200 47.53700
C  47.49800 -0.80900 47.60400
N  46.91800 5.06800 47.53500
C  47.57300 3.88200 47.35000
C  49.05700 4.16600 47.12500
C  49.19900 5.72600 46.95100
C  47.77300 6.16100 47.33100
C  49.95900 3.68700 48.20700
C  49.64200 6.14200 45.51400
C  48.92000 5.45700 44.33500
N  44.96000 7.15900 47.65500
C  46.04600 8.00800 47.50100
C  45.61700 9.32800 47.45700
C  44.19900 9.25600 47.63000
C  43.89500 7.89400 47.68600
C  46.51700 10.47400 47.12900
C  42.99500 10.02800 47.68300
O  42.69400 11.24300 47.62100
C  41.81700 8.94100 47.75800
C  40.96400 9.26000 48.97600
O  40.93800 8.67600 50.07700
O  40.10700 10.25100 48.58900
C  38.98400 10.46900 49.48100
H  41.35800 2.09900 47.63500
H  47.77600 1.90600 47.26500
H  48.13100 8.21700 46.99300
H  39.73300 6.53800 48.04100
H  39.94700 3.92700 46.72300
H  38.49500 4.58600 48.92000
H  39.90800 3.64300 49.59400
H  39.02800 2.98200 48.28100
H  39.05500 7.19200 46.11100
H  39.39900 5.52300 45.47500
H  41.69200 6.66500 45.10100
H  40.70000 8.15400 44.79400
H  42.76800 -0.85300 48.25600
H  43.12100 -1.04500 46.72400
H  41.79700 0.00100 47.15700
H  47.86000 -0.26200 48.47500
H  47.88000 -0.34500 46.69400
H  47.79300 -1.85800 47.57000
H  49.29600 3.67300 46.18300
H  49.92900 6.12600 47.65400
H  49.36800 3.58100 49.11700
H  50.70100 4.38400 48.59500
H  50.38400 2.71200 47.97100
H  50.72200 5.99100 45.52300
H  49.53500 7.21300 45.34600
H  47.95000 5.02100 44.57200
H  49.42900 4.60300 43.88800
H  48.67200 6.09300 43.48500
H  47.23900 10.10400 46.40000
H  47.00700 10.79100 48.04900
H  45.92000 11.28300 46.70900
H  41.17300 8.96800 46.87900
H  39.28400 10.64600 50.51400
H  38.28600 9.63300 49.44200
H  38.35200 11.31100 49.19600
Mg -3.40400 35.22200 26.67700
C  -4.95300 33.90800 29.39400
C  -2.69100 38.07300 28.71300
C  -1.49500 36.47900 24.22100
C  -4.71800 32.87400 24.62000
N  -3.62100 35.76000 28.85200
C  -4.30300 35.05800 29.76900
C  -4.28700 35.69200 31.12900
C  -3.88800 37.13900 30.85600
C  -3.34200 37.01100 29.37400
C  -5.09700 38.13200 30.93400
C  -3.37600 34.90000 32.07600
C  -3.41800 35.29600 33.55800
H  -3.43400 34.11400 34.53100
N  -2.28000 37.04600 26.47600
C  -2.10200 38.09900 27.37500
C  -1.27400 39.15600 26.83100
C  -0.86400 38.66100 25.53500
C  -1.58900 37.35300 25.37000
C  -0.94500 40.31600 27.62700
C  0.06200 39.35500 24.52800
O  0.34000 38.90700 23.42800
C  0.77900 40.65900 24.96400
N  -3.24100 34.83400 24.60400
C  -2.24100 35.36500 23.86400
C  -2.09300 34.76400 22.53800
C  -3.11000 33.56700 22.65200
C  -3.72500 33.69700 24.04100
C  -2.36000 35.65500 21.24700
C  -2.43200 32.21300 22.37000
C  -3.33400 31.05900 21.91600
N  -4.62600 33.70700 26.86500
C  -5.18200 32.86400 25.95300
C  -6.14200 31.99400 26.57500
C  -6.07300 32.32600 27.92600
C  -5.10000 33.36200 28.05000
C  -7.01800 30.93300 25.98900
C  -6.48000 31.96000 29.29400
O  -7.18300 31.12100 29.78600
C  -5.81600 33.02100 30.25100
C  -6.93900 33.59000 31.03000
O  -7.75600 34.42300 30.57400
O  -6.96900 33.11500 32.28500
C  -7.99100 33.66700 33.19500
H  -2.71600 38.94300 29.37100
H  -0.71700 36.88300 23.57000
H  -5.18600 32.11900 23.98400
H  -5.28800 35.62100 31.55600
H  -3.10300 37.29800 31.59500
H  -5.19400 38.64800 31.88900
H  -6.01200 37.55200 30.81400
H  -4.98300 38.80000 30.08100
H  -2.34100 35.15800 31.85200
H  -3.34500 33.81900 31.94300
H  -4.34600 35.80700 33.81600
H  -2.68300 36.07800 33.74900
H  -1.48600 41.14600 27.17300
H  0.10300 40.61700 27.63500
H  -1.17800 40.21000 28.68600
H  0.11300 41.42500 25.36200
H  1.31900 41.04700 24.10000
H  1.54700 40.25600 25.62500
H  -1.05300 34.43900 22.49900
H  -4.00900 33.73600 22.06000
H  -3.01400 35.15400 20.53400
H  -1.46000 36.10900 20.83300
H  -3.02600 36.45500 21.57000
H  -2.00400 31.75900 23.26400
H  -1.66100 32.39000 21.62000
H  -3.30500 30.26500 22.66100
H  -3.00700 30.71900 20.93300
H  -4.39300 31.30800 21.84100
H  -7.81200 30.73900 26.71000
H  -6.40100 30.04300 25.86600
H  -7.47400 31.29000 25.06600
H  -5.25000 32.33700 30.88300
H  -8.95700 33.73500 32.69500
H  -7.66400 34.59900 33.65800
H  -8.16300 32.96200 34.00800

