158

Mg 36.61800 1.18600 29.77100
C  34.17800 2.26200 32.12900
C  38.96600 1.50000 32.23700
C  38.82500 0.74300 27.32400
C  34.05400 1.15700 27.35600
N  36.47900 1.79200 31.97300
C  35.42500 2.19400 32.71400
C  35.79600 2.29200 34.16400
C  37.39600 2.40000 34.13800
C  37.64600 1.86200 32.69700
C  38.05700 3.84100 34.39200
C  35.21000 1.13100 35.00200
C  34.76200 1.54300 36.38300
H  35.18900 2.89900 36.95100
N  38.63200 1.25200 29.80500
C  39.42200 1.29700 30.89700
C  40.81600 0.97300 30.43800
C  40.80400 0.80000 28.97700
C  39.37500 0.95500 28.66800
C  41.98100 0.81000 31.46100
C  41.91000 0.50800 28.06200
O  41.78800 0.35100 26.86100
C  43.33500 0.32300 28.66500
N  36.51500 0.88200 27.68300
C  37.53600 0.76100 26.84800
C  37.14900 0.60000 25.37200
C  35.63300 0.63000 25.48200
C  35.37500 0.85300 26.96000
C  37.63900 1.69400 24.44600
C  34.86800 -0.66700 25.00000
C  34.34800 -0.64800 23.52900
N  34.52100 1.46600 29.77400
C  33.64100 1.46400 28.70100
C  32.28300 1.85900 29.13700
C  32.50900 2.14600 30.47700
C  33.88900 1.93200 30.80400
C  31.04600 2.06100 28.31400
C  31.90400 2.76300 31.65600
O  30.78500 3.25200 31.78400
C  32.91200 2.70900 32.81500
C  32.92900 4.04800 33.46900
O  33.60800 4.99200 33.08000
O  32.08500 4.00700 34.55600
C  31.91400 5.29100 35.23500
H  39.67200 1.42200 33.06600
H  39.57900 0.59100 26.54900
H  33.24400 1.31300 26.64100
H  35.37400 3.28000 34.34600
H  37.87000 1.76200 34.88500
H  38.83300 3.70500 35.14500
H  37.36700 4.62800 34.69700
H  38.51000 4.16700 33.45600
H  35.95700 0.34600 35.11800
H  34.43600 0.65400 34.40000
H  35.03100 0.83200 37.16500
H  33.69900 1.73600 36.24500
H  42.42400 -0.17200 31.29700
H  41.73800 1.02500 32.50100
H  42.57300 1.66500 31.13200
H  43.60900 1.13000 29.34500
H  43.98100 0.49400 27.80500
H  43.47100 -0.66400 29.10800
H  37.61200 -0.33500 25.05500
H  35.27600 1.51100 24.94800
H  38.46600 1.45000 23.78000
H  37.85600 2.67400 24.87100
H  36.92300 1.90100 23.65100
H  34.02500 -0.94500 25.63300
H  35.64100 -1.42500 25.12700
H  33.28900 -0.39200 23.54800
H  34.47600 -1.58100 22.98000
H  34.95200 0.08300 22.99200
H  30.15900 1.58300 28.73000
H  31.16600 1.77500 27.26900
H  30.95200 3.14600 28.30300
H  32.50300 1.96900 33.50300
H  31.39300 5.92100 34.51400
H  32.82900 5.82000 35.50200
H  31.33800 5.10900 36.14300
Mg 40.67600 8.69200 29.30700
C  42.38300 9.88700 32.06800
C  38.63200 6.93500 31.44300
C  38.97800 7.38200 26.59600
C  43.01600 10.12900 27.14900
N  40.54700 8.40300 31.55200
C  41.27800 9.07600 32.44200
C  40.70800 9.01200 33.87900
C  39.63500 7.88800 33.67800
C  39.53400 7.73700 32.12400
C  39.79600 6.67300 34.56200
C  40.36800 10.31500 34.62200
C  39.25600 10.29600 35.66300
H  39.46500 11.22600 36.82000
N  39.11900 7.32700 29.02800
C  38.41300 6.69700 30.07300
C  37.41100 5.83400 29.49600
C  37.48100 5.94400 28.08900
C  38.62300 6.84000 27.80700
C  36.52500 4.94700 30.28900
C  36.58200 5.33100 27.05100
O  36.75100 5.55100 25.87300
C  35.45300 4.47900 27.33700
N  40.99900 8.61300 27.16100
C  40.05500 8.20600 26.24200
C  40.35000 8.66900 24.87900
C  41.65900 9.55100 25.07100
C  41.89700 9.51800 26.63400
C  40.51000 7.54600 23.77800
C  41.56200 10.90400 24.36400
C  40.39100 11.82000 24.82100
N  42.34900 9.72500 29.52500
C  43.21000 10.25900 28.57200
C  44.29900 10.97900 29.28900
C  43.91300 10.91000 30.64700
C  42.75300 10.10300 30.73200
C  45.32500 11.73000 28.49500
C  44.29500 11.38400 31.93400
O  45.18600 12.13400 32.28300
C  43.28400 10.77600 32.92000
C  44.08200 10.10700 34.10700
O  44.66400 9.00400 34.09000
O  44.12700 11.02600 35.20400
C  44.55900 10.41700 36.54300
H  37.93100 6.49400 32.15600
H  38.39900 7.01000 25.74900
H  43.60400 10.73300 26.45400
H  41.62900 8.69500 34.36700
H  38.62200 8.23400 33.88500
H  40.58200 6.81800 35.30300
H  40.06900 5.77400 34.01000
H  38.84000 6.58700 35.08000
H  40.02700 11.08000 33.92400
H  41.25000 10.74800 35.09400
H  39.10700 9.30800 36.09800
H  38.40800 10.64900 35.07600
H  35.53800 5.40700 30.26900
H  36.83300 4.92900 31.33400
H  36.39400 3.93400 29.90800
H  34.71800 4.87800 28.03600
H  35.73500 3.48400 27.68100
H  34.98400 4.20300 26.39200
H  39.49500 9.20700 24.47100
H  42.50900 9.02600 24.63700
H  41.23800 7.80900 23.01000
H  39.64000 7.31000 23.16500
H  40.94800 6.62500 24.16300
H  41.53400 10.70200 23.29300
H  42.49200 11.43900 24.56100
H  39.69800 11.35000 25.51900
H  39.91700 12.07700 23.87400
H  40.80700 12.71100 25.29200
H  44.87600 12.21500 27.62800
H  46.15600 11.06000 28.27500
H  45.62500 12.44900 29.25800
H  42.63600 11.54500 33.33900
H  44.44400 9.33600 36.62400
H  43.88400 10.74400 37.33400
H  45.54400 10.74200 36.87900

