158

Mg 47.99400 25.57800 29.98000
C  48.81500 28.03300 32.33000
C  46.77200 23.68200 32.60000
C  47.37700 23.19700 27.79100
C  49.45800 27.50800 27.53200
N  47.83500 25.90000 32.27400
C  48.20400 26.92100 33.00900
C  47.80000 26.77900 34.48500
C  47.35500 25.29100 34.51600
C  47.36000 24.90900 32.99800
C  48.29500 24.40000 35.31900
C  46.81200 27.79600 35.04600
C  47.33000 28.45300 36.39800
H  46.18800 28.60600 37.43400
N  47.12900 23.81100 30.19100
C  46.66800 23.18500 31.29900
C  45.95800 21.96900 30.94500
C  46.04600 21.85500 29.57200
C  46.94300 22.94900 29.12100
C  45.20600 21.12500 32.07000
C  45.43900 20.84800 28.71300
O  45.64100 20.84800 27.48800
C  44.58200 19.78600 29.29700
N  48.19800 25.45200 27.91900
C  48.01600 24.30300 27.27300
C  48.45500 24.38300 25.85900
C  48.81000 25.93900 25.72800
C  48.83200 26.33900 27.14100
C  49.59600 23.45100 25.44700
C  47.73700 26.87300 24.96300
C  48.44700 28.02000 24.19400
N  48.91800 27.37300 29.90500
C  49.55300 28.05600 28.84400
C  50.05700 29.32600 29.31700
C  49.81600 29.31500 30.63800
C  49.09600 28.13700 30.97200
C  50.85300 30.32500 28.45800
C  50.01600 30.10500 31.82200
O  50.52700 31.17600 31.99300
C  49.37000 29.30000 32.97400
C  50.45300 29.04100 34.00500
O  51.53700 28.48300 33.84300
O  50.03300 29.58600 35.22800
C  51.02200 29.71900 36.31500
H  46.65800 22.95200 33.40400
H  47.16000 22.38700 27.09100
H  49.83200 28.20200 26.77600
H  48.72200 26.72300 35.06400
H  46.33200 25.10900 34.84500
H  47.99700 23.35400 35.37400
H  48.50800 24.76800 36.32200
H  49.22600 24.46000 34.75400
H  45.86000 27.26500 35.06700
H  46.59800 28.57700 34.31600
H  47.62500 29.43300 36.02400
H  48.20800 28.01000 36.86800
H  45.61500 20.13400 32.26400
H  44.21800 20.89200 31.67200
H  44.93500 21.74200 32.92700
H  43.56100 20.08100 29.53700
H  45.06200 19.31800 30.15600
H  44.51400 18.99500 28.54900
H  47.60600 24.18300 25.20600
H  49.77700 26.08000 25.24500
H  50.49300 23.93800 25.06300
H  49.24300 22.81400 24.63500
H  49.91600 22.88800 26.32400
H  47.01500 27.37500 25.60800
H  47.24100 26.15000 24.31600
H  48.23100 28.01600 23.12600
H  49.52800 27.89700 24.24500
H  48.17500 28.98500 24.62300
H  50.89800 29.97100 27.42800
H  51.85000 30.50100 28.86200
H  50.34300 31.28400 28.36600
H  48.58500 29.93400 33.38600
H  52.03900 29.58500 35.94700
H  50.80100 28.95600 37.06100
H  50.87900 30.71900 36.72500
Mg 29.01800 56.96000 40.27600
C  26.80300 54.17000 39.68000
C  31.67700 54.89900 39.43400
C  30.89000 59.68200 39.86100
C  26.12000 58.96500 40.37000
N  29.19300 54.82800 39.30100
C  28.13900 53.89300 39.38600
C  28.79000 52.48000 39.07900
C  30.33000 52.66700 39.26700
C  30.41200 54.23000 39.35600
C  30.89300 51.98300 40.53900
C  28.46300 52.06900 37.62300
C  29.09100 52.74400 36.37000
H  28.13800 53.30600 35.27100
N  31.02400 57.28600 39.90400
C  31.94800 56.31100 39.71400
C  33.22600 56.87000 39.72600
C  33.06700 58.29300 39.73800
C  31.63100 58.53400 39.89500
C  34.46900 56.03700 39.51800
C  34.12300 59.30800 39.50200
O  35.29700 58.97100 39.26500
C  33.83600 60.74900 39.48600
N  28.60200 59.08200 40.36000
C  29.54400 59.97400 40.02400
C  28.83700 61.39700 40.06500
C  27.36000 61.11400 39.99200
C  27.33800 59.61400 40.32600
C  29.19300 62.16000 41.34900
C  26.71600 61.19800 38.55600
C  25.94600 62.49000 38.49900
N  26.82900 56.67000 40.18500
C  25.82800 57.58400 40.40400
C  24.60300 56.88700 40.54700
C  24.91500 55.54700 40.24000
C  26.29800 55.50600 40.02200
C  23.17500 57.44600 40.77000
C  24.38900 54.24400 39.96600
O  23.25200 53.80600 39.90200
C  25.53700 53.25700 39.69500
C  25.55300 52.34700 40.82600
O  25.89300 52.68200 41.92200
O  25.12800 51.02600 40.54400
C  24.93200 50.20600 41.71800
H  32.48500 54.16600 39.38800
H  31.49700 60.56100 39.63200
H  25.23500 59.60000 40.44500
H  28.42400 51.77300 39.82300
H  30.82000 52.38900 38.33300
H  31.87300 51.57300 40.29600
H  30.32000 51.15400 40.95500
H  31.21200 52.66800 41.32400
H  27.37700 52.11400 37.55200
H  28.75900 51.02000 37.67200
H  29.66400 51.91700 35.95100
H  29.79200 53.47100 36.78000
H  34.50600 55.54500 38.54600
H  34.50400 55.24800 40.27000
H  35.24400 56.74600 39.80600
H  33.31100 61.08900 38.59300
H  34.84600 61.13100 39.63700
H  33.42400 61.05700 40.44600
H  29.07800 61.95100 39.15800
H  26.67100 61.57400 40.70000
H  30.26200 62.37000 41.36100
H  29.06200 61.51600 42.21900
H  28.77000 63.15800 41.46500
H  26.15800 60.33800 38.18400
H  27.50700 61.39200 37.83100
H  26.62900 63.28300 38.80400
H  24.96600 62.38000 38.96300
H  25.82300 62.57200 37.41900
H  22.80400 57.84300 39.82500
H  23.29600 58.26100 41.48400
H  22.48700 56.70400 41.17600
H  25.32800 52.75600 38.74900
H  23.99800 49.66100 41.58000
H  24.67300 50.66100 42.67400
H  25.73900 49.48600 41.85500

