158

Mg 54.48100 23.68600 44.27600
C  51.65800 25.68500 43.40100
C  52.75700 21.03700 42.78400
C  57.23100 21.87300 44.43100
C  55.97300 26.52000 45.48800
N  52.48800 23.47900 43.01100
C  51.56100 24.40900 42.82200
C  50.33600 23.84100 42.11900
C  50.47000 22.31900 42.42800
C  51.99300 22.25900 42.75900
C  49.61000 21.74200 43.65000
C  50.29800 24.04600 40.53700
C  48.82300 23.95300 39.96500
H  48.52200 23.31500 38.66700
N  54.92100 21.74600 43.75100
C  54.02100 20.77000 43.21400
C  54.75000 19.52700 43.08300
C  56.09200 19.77800 43.42000
C  56.13400 21.21300 43.84000
C  54.12300 18.21500 42.67400
C  57.30200 18.77200 43.24200
O  57.03800 17.58700 42.99900
C  58.74800 19.10100 43.55500
N  56.42100 24.07100 44.82300
C  57.40100 23.18900 44.95700
C  58.73200 23.87600 45.35300
C  58.37400 25.46000 45.34200
C  56.80800 25.38800 45.26100
C  59.09100 23.39800 46.76900
C  58.96500 26.18000 44.07700
C  58.06000 26.40300 42.81600
N  53.92400 25.73000 44.55800
C  54.58500 26.72100 45.14700
C  53.70500 27.86000 45.33900
C  52.49100 27.45800 44.70000
C  52.67800 26.19800 44.24700
C  54.07000 29.19400 45.98000
C  51.13800 27.92200 44.33900
O  50.43000 28.90500 44.62900
C  50.54900 26.68100 43.44300
C  50.04700 27.24100 42.15500
O  50.56300 27.88700 41.30000
O  48.68800 27.15300 42.13000
C  47.92700 28.06800 41.22400
H  52.10200 20.17800 42.61900
H  58.20400 21.37700 44.44300
H  56.39900 27.38000 46.00700
H  49.46200 24.29000 42.58900
H  50.27100 21.64400 41.59500
H  49.01000 20.86400 43.40800
H  49.12500 22.56800 44.17100
H  50.44700 21.28100 44.17400
H  50.87500 23.30000 39.99000
H  50.68600 25.04900 40.35900
H  48.52500 25.00100 39.92200
H  48.21300 23.42900 40.70200
H  54.49000 17.97300 41.67600
H  53.05500 18.37200 42.52900
H  54.39200 17.38400 43.32600
H  59.13500 19.91800 42.94600
H  59.30200 18.18700 43.33700
H  58.82800 19.37800 44.60600
H  59.39100 23.60500 44.52900
H  58.73300 25.96300 46.24000
H  58.97000 22.31900 46.86700
H  58.27500 23.76200 47.39300
H  60.10900 23.62800 47.08100
H  59.84200 25.65100 43.70300
H  59.39500 27.12700 44.40300
H  57.78500 27.45800 42.81800
H  57.10800 25.87200 42.84000
H  58.47900 26.05500 41.87200
H  54.57900 29.07500 46.93600
H  53.12000 29.72900 46.00100
H  54.72400 29.58400 45.20000
H  49.65800 26.30000 43.94200
H  48.37500 29.04100 41.42300
H  46.91000 28.14400 41.61000
H  47.84800 27.76500 40.18000
Mg 8.91900 47.70900 27.90700
C  6.95000 47.20000 30.82400
C  11.67500 47.71900 29.90100
C  10.69600 48.47100 25.10700
C  5.95400 47.80700 25.92400
N  9.26300 47.44300 30.13700
C  8.33900 47.28300 31.10600
C  8.93000 47.20400 32.49800
C  10.46000 47.44200 32.25600
C  10.50400 47.45700 30.67300
C  11.09100 48.61900 33.05300
C  8.49400 45.95600 33.37000
C  9.51600 45.33700 34.38400
H  8.95500 44.78600 35.72400
N  10.84900 48.02200 27.54800
C  11.86800 48.00300 28.52700
C  13.14100 48.20700 27.83300
C  12.88300 48.55300 26.43200
C  11.40800 48.35800 26.30500
C  14.51300 48.03900 28.52600
C  13.86600 48.82300 25.25400
O  13.44700 49.25300 24.16300
C  15.19500 48.62600 25.43000
N  8.37600 47.83400 25.69800
C  9.33400 48.33600 24.85100
C  8.67400 48.70400 23.45500
C  7.15000 48.18700 23.67800
C  7.15600 47.97100 25.16600
C  8.58500 50.24100 23.19600
C  6.73000 46.99800 22.75300
C  5.77300 47.28900 21.53600
N  6.92500 47.67100 28.23600
C  5.82200 47.67000 27.36000
C  4.60300 47.52100 28.04400
C  4.99200 47.44400 29.40100
C  6.44600 47.39300 29.51300
C  3.32100 47.41300 27.28000
C  4.51600 47.24700 30.71700
O  3.34600 47.29000 31.10100
C  5.72100 47.00400 31.73200
C  5.60800 45.67600 32.23700
O  5.87300 44.61200 31.65800
O  5.12700 45.70300 33.48600
C  4.99500 44.34000 34.13100
H  12.54800 47.75900 30.55700
H  11.21300 48.66700 24.16600
H  5.09300 47.68800 25.26300
H  8.51600 48.06600 33.02000
H  11.02800 46.60900 32.67000
H  11.40800 49.37500 32.33500
H  11.93000 48.18900 33.60000
H  10.43000 49.15000 33.73900
H  8.11800 45.28300 32.60000
H  7.62800 46.19800 33.98700
H  10.25400 46.13500 34.45900
H  10.01700 44.56700 33.79700
H  14.90100 47.07500 28.19500
H  14.53900 47.99300 29.61400
H  15.16300 48.86900 28.25200
H  15.56200 49.30900 26.19600
H  15.77300 48.72900 24.51100
H  15.29500 47.59600 25.77300
H  9.13900 48.13600 22.65000
H  6.36400 48.87600 23.36700
H  7.68300 50.49800 22.64000
H  9.44600 50.57200 22.61500
H  8.64600 50.74400 24.16100
H  6.13100 46.33100 23.37400
H  7.64600 46.47300 22.48400
H  4.75700 46.91400 21.66100
H  6.23900 46.76100 20.70500
H  5.64100 48.34000 21.27800
H  2.39700 47.66200 27.80200
H  3.23300 46.40500 26.87600
H  3.27200 48.06500 26.40800
H  5.72000 47.62000 32.63100
H  5.91300 43.85500 34.46500
H  4.41900 43.63500 33.53100
H  4.43700 44.44200 35.06200

