158

Mg 44.39800 2.61000 46.94600
C  42.48500 5.43700 47.08900
C  41.55600 0.64800 46.62200
C  46.38200 -0.12800 46.62800
C  47.23100 4.63900 46.84700
N  42.31200 2.98400 46.65900
C  41.74600 4.23700 46.81300
C  40.25900 4.11800 46.59900
C  39.85400 2.66900 46.58500
C  41.33400 2.03200 46.61700
C  39.06700 2.21800 47.84800
C  39.86300 4.71500 45.20500
C  38.59100 5.56900 45.15200
H  37.80400 5.43400 43.80800
N  43.97100 0.51800 46.81000
C  42.75500 -0.06400 46.74000
C  42.94800 -1.53000 46.61200
C  44.38100 -1.75300 46.45800
C  44.95700 -0.40300 46.65500
C  41.79800 -2.49700 46.38000
C  45.00800 -3.24900 46.24400
O  44.35600 -4.31200 46.27900
C  46.53300 -3.40700 46.09500
N  46.47100 2.29400 46.72400
C  47.06000 1.09300 46.58800
C  48.59700 1.11700 46.39500
C  48.86700 2.68600 46.43100
C  47.44300 3.28300 46.76300
C  49.31700 0.32500 47.50700
C  49.52000 3.44400 45.21200
C  50.98900 3.75300 45.41500
N  44.82400 4.62900 46.83400
C  46.02800 5.36300 46.90600
C  45.75400 6.74500 47.07200
C  44.36300 6.79600 47.13600
C  43.83900 5.51100 47.07800
C  46.74800 7.88700 46.99100
C  43.26600 7.74900 47.23300
O  43.23300 8.93700 47.35100
C  41.92800 6.80700 47.32500
C  41.15900 6.96800 48.60100
O  41.54800 6.95200 49.75400
O  39.85700 7.10200 48.27000
C  38.96700 7.40200 49.38100
H  40.65300 0.07000 46.41200
H  47.08500 -0.96100 46.56400
H  48.08700 5.31100 46.94700
H  39.69600 4.60800 47.39400
H  39.33000 2.36200 45.68000
H  38.25300 2.92600 48.00000
H  39.71500 2.23800 48.72400
H  38.62800 1.22700 47.73200
H  39.78800 3.87200 44.51800
H  40.64700 5.35100 44.79600
H  38.86800 6.60900 45.32600
H  38.01900 5.15000 45.97900
H  41.58700 -2.61500 45.31700
H  40.88600 -1.97700 46.67500
H  41.81000 -3.42200 46.95700
H  46.97400 -2.99700 47.00400
H  46.99300 -2.75000 45.35600
H  46.87900 -4.40800 45.83900
H  48.87800 0.76000 45.40400
H  49.40600 2.96700 47.33600
H  48.77900 0.41800 48.45000
H  50.33500 0.69600 47.63100
H  49.33800 -0.68200 47.08800
H  49.04500 4.39200 44.95900
H  49.33200 2.76900 44.37700
H  51.28300 3.81700 46.46300
H  51.07000 4.74100 44.96100
H  51.39100 2.87900 44.90300
H  47.71500 7.59900 46.57900
H  46.87800 8.22600 48.01900
H  46.32300 8.63900 46.32700
H  41.22800 7.07300 46.53300
H  39.37100 8.20000 50.00200
H  38.76300 6.46700 49.90300
H  38.04700 7.78700 48.94000
Mg 25.22100 50.40700 26.21400
C  23.40900 51.52400 29.02500
C  27.40900 48.87700 28.49500
C  27.38700 50.03000 23.69600
C  22.92800 51.90300 24.18200
N  25.36700 50.33700 28.48600
C  24.50500 50.80400 29.39200
C  24.93200 50.45700 30.80200
C  26.30700 49.73200 30.58000
C  26.32000 49.50900 29.10800
C  27.58500 50.58900 31.01000
C  23.89200 49.52800 31.54400
C  23.33000 50.06200 32.86300
H  24.23000 50.87000 33.79800
N  27.13900 49.63000 26.11400
C  27.83400 48.97900 27.11500
C  28.95300 48.34100 26.54800
C  29.04800 48.72100 25.18600
C  27.83800 49.54200 24.95000
C  29.94500 47.54300 27.41800
C  30.06500 48.26800 24.23100
O  30.00400 48.56000 23.02800
C  31.34400 47.60900 24.73300
N  25.20000 50.89200 24.30300
C  26.20300 50.65000 23.39900
C  25.83700 50.89800 21.85400
C  24.32400 51.29100 22.06800
C  24.04700 51.27200 23.55700
C  26.69500 52.06400 21.19200
C  23.24600 50.35600 21.44300
C  23.18100 50.47800 19.95100
N  23.46700 51.33900 26.48000
C  22.67500 51.98500 25.59500
C  21.47000 52.46500 26.19300
C  21.76500 52.32200 27.59300
C  23.02100 51.69600 27.67200
C  20.32300 53.10900 25.51500
C  21.33900 52.67100 28.93500
O  20.42000 53.36600 29.33400
C  22.36200 52.12200 29.83800
C  22.89500 53.30200 30.67800
O  23.70500 54.16600 30.36600
O  22.23500 53.27800 31.88500
C  22.32600 54.53600 32.71600
H  28.00300 48.31100 29.21600
H  28.02500 49.75300 22.85400
H  22.20000 52.40500 23.54100
H  24.98400 51.44400 31.26200
H  26.37100 48.83200 31.19100
H  27.93500 51.28200 30.24400
H  28.33700 49.95400 31.47900
H  27.23000 51.18400 31.85100
H  24.26500 48.53000 31.77200
H  23.08300 49.47700 30.81500
H  22.95300 49.23600 33.46600
H  22.38100 50.59800 32.88100
H  30.92700 48.01200 27.47000
H  29.98900 46.54200 26.98800
H  29.67500 47.43600 28.46900
H  31.89700 48.30300 25.36500
H  31.91600 47.31500 23.85300
H  31.21600 46.63400 25.20400
H  25.91000 50.08300 21.13300
H  24.05800 52.22900 21.58100
H  27.03400 52.79700 21.92500
H  26.04200 52.46500 20.41600
H  27.61400 51.69500 20.73800
H  22.30200 50.59900 21.93000
H  23.56700 49.36600 21.76500
H  23.37800 49.50600 19.49900
H  23.65600 51.30600 19.42500
H  22.10300 50.54900 19.80100
H  20.14300 52.48000 24.64300
H  20.49300 54.18000 25.41000
H  19.38600 53.05900 26.07000
H  21.81300 51.51000 30.55300
H  23.29500 54.54400 33.21500
H  21.43700 54.54000 33.34600
H  22.17700 55.36100 32.01900

