158

Mg 36.41900 49.83800 24.75300
C  36.52600 47.72300 27.70100
C  35.03100 52.19600 26.78100
C  35.63300 51.43800 21.89100
C  37.49700 47.03300 22.87800
N  35.84600 49.90500 27.02200
C  36.09600 49.05000 28.01300
C  35.80000 49.67600 29.44500
C  35.08600 51.06100 29.03800
C  35.33400 51.05600 27.54700
C  33.59000 51.26100 29.41400
C  36.96600 49.68100 30.48000
C  36.55200 49.84000 32.00800
H  35.06700 49.85900 32.39000
N  35.53700 51.64400 24.38600
C  35.07900 52.46100 25.40300
C  34.94100 53.76500 24.68900
C  34.96100 53.52400 23.26700
C  35.31500 52.13000 23.11800
C  34.54700 54.90400 25.47300
C  34.54700 54.47000 22.15700
O  34.48200 54.10500 20.97100
C  34.15800 55.86700 22.44700
N  36.45000 49.32600 22.70100
C  36.19200 50.21700 21.69400
C  36.61700 49.65500 20.39200
C  37.49400 48.45100 20.78900
C  37.13100 48.22700 22.21600
C  35.55200 49.29900 19.36100
C  39.05800 48.60800 20.56100
C  39.62100 47.67400 19.40500
N  37.00700 47.87500 25.13300
C  37.35200 46.88000 24.26600
C  37.69800 45.64600 25.03700
C  37.38400 45.97000 26.32700
C  36.95800 47.32600 26.37200
C  38.19600 44.26700 24.46300
C  37.39200 45.43900 27.69800
O  37.76700 44.40400 28.12900
C  36.88900 46.58700 28.64700
C  35.76700 46.03500 29.43100
O  34.99600 45.16400 28.96500
O  35.67800 46.51200 30.71200
C  34.68000 45.84600 31.55300
H  34.55700 52.97100 27.38600
H  35.41900 51.99800 20.97800
H  37.99100 46.33300 22.20100
H  35.08800 48.93000 29.79900
H  35.69000 51.85100 29.48400
H  32.90600 50.94800 28.62400
H  33.46100 52.27100 29.80200
H  33.22900 50.62200 30.22000
H  37.71000 50.45700 30.30500
H  37.55800 48.77300 30.36500
H  37.04500 50.72100 32.41900
H  36.94000 48.94200 32.49000
H  34.86600 55.86100 25.05900
H  35.06300 54.90600 26.43300
H  33.47200 54.92800 25.64900
H  35.00400 56.45800 22.80000
H  33.33000 55.78900 23.15100
H  33.79000 56.28900 21.51200
H  37.22800 50.43000 19.93000
H  37.18000 47.56200 20.24300
H  35.94800 48.57200 18.65200
H  35.27200 50.21700 18.84500
H  34.65800 48.84600 19.78900
H  39.49800 48.20400 21.47200
H  39.40100 49.61200 20.31300
H  40.04300 46.79300 19.88900
H  40.39500 48.18300 18.83100
H  38.79600 47.25700 18.82700
H  38.81800 43.71500 25.16800
H  38.63400 44.43100 23.47900
H  37.34900 43.60300 24.29000
H  37.73300 46.64500 29.33500
H  35.04100 45.99400 32.57100
H  34.51800 44.77200 31.45600
H  33.69600 46.28700 31.40000
Mg -1.45300 33.81900 26.87800
C  -3.43800 32.27800 29.34100
C  -0.05600 35.83200 29.21000
C  0.38500 35.26300 24.45000
C  -3.19300 31.99500 24.33600
N  -1.98300 34.16400 29.02100
C  -2.67900 33.30800 29.85200
C  -2.37200 33.63600 31.31500
C  -1.43000 34.90700 31.29800
C  -1.12200 34.98300 29.72000
C  -2.01000 36.23600 31.86100
C  -1.72500 32.37200 32.07300
C  -2.36700 31.96100 33.43200
H  -1.44500 31.91700 34.71800
N  -0.10000 35.42000 26.81800
C  0.41800 36.05900 27.91500
C  1.57300 36.87500 27.43700
C  1.65500 36.79800 26.04600
C  0.62300 35.82300 25.70800
C  2.40200 37.70900 28.36500
C  2.59200 37.47300 25.10100
O  2.45600 37.31700 23.93500
C  3.70200 38.41500 25.42300
N  -1.56800 33.84200 24.64900
C  -0.59900 34.48600 23.88500
C  -0.79800 34.12700 22.37700
C  -1.89100 33.02400 22.42800
C  -2.24700 32.97100 23.90100
C  -1.19300 35.49100 21.54800
C  -1.35600 31.67300 21.89000
C  -0.95400 30.62300 22.93200
N  -3.07800 32.55200 26.79700
C  -3.58300 31.90300 25.71500
C  -4.61300 31.06800 26.20200
C  -4.56400 31.06300 27.58400
C  -3.60800 32.00700 27.90600
C  -5.56400 30.20600 25.35600
C  -5.15700 30.54800 28.82200
O  -6.07800 29.75500 29.01400
C  -4.34000 31.23100 30.02400
C  -5.38900 31.85500 30.87800
O  -5.94200 32.90900 30.65000
O  -5.64300 31.01200 31.88300
C  -6.54800 31.60600 32.84700
H  0.31900 36.34200 30.09900
H  1.07100 35.59400 23.66700
H  -3.62500 31.26800 23.64500
H  -3.35500 33.89500 31.70700
H  -0.56500 34.62100 31.89700
H  -1.91700 36.97100 31.06200
H  -1.27800 36.50000 32.62400
H  -3.01200 36.22000 32.28900
H  -0.66400 32.53700 32.26200
H  -1.86600 31.58900 31.32900
H  -2.82600 30.99100 33.23800
H  -3.19500 32.61200 33.71400
H  2.49800 37.01500 29.20000
H  1.81300 38.60300 28.56900
H  3.40500 37.86200 27.96500
H  3.38000 39.28300 25.99800
H  4.14100 38.69800 24.46600
H  4.45900 37.86800 25.98600
H  0.10800 33.69800 21.95000
H  -2.82400 33.30300 21.93900
H  -0.60800 35.67900 20.64800
H  -1.07000 36.28400 22.28500
H  -2.18600 35.17100 21.23000
H  -0.54400 31.77300 21.17000
H  -2.19500 31.18700 21.39200
H  -0.77300 31.13500 23.87700
H  0.02100 30.27700 22.58800
H  -1.74100 29.87200 23.00700
H  -4.91900 29.35500 25.13700
H  -5.86900 30.73700 24.45400
H  -6.40900 29.77800 25.89400
H  -3.81800 30.59900 30.74200
H  -6.04200 32.48800 33.24100
H  -6.83200 30.93000 33.65300
H  -7.45400 31.92400 32.33200

