158

Mg 47.24900 14.49800 27.65700
C  45.39800 14.73800 30.70900
C  49.46900 16.74000 28.92300
C  48.61100 14.81300 24.60100
C  44.49800 12.88000 26.41200
N  47.43500 15.59800 29.64700
C  46.54800 15.48800 30.65300
C  47.13400 16.28000 31.87500
C  48.19600 17.23000 31.16200
C  48.43200 16.52500 29.83300
C  47.80500 18.69400 30.90700
C  47.75600 15.23600 32.92900
C  47.03500 15.18200 34.31200
H  48.01300 15.11900 35.49700
N  48.98500 15.42800 26.94800
C  49.80300 16.23900 27.63000
C  50.89000 16.67500 26.79400
C  50.59400 16.17300 25.50600
C  49.37800 15.41900 25.60000
C  51.99600 17.59600 27.19300
C  51.29500 16.37300 24.18800
O  51.04300 15.74700 23.14900
C  52.36200 17.45900 24.07600
N  46.60800 14.00000 25.80400
C  47.36300 14.16800 24.68900
C  46.68000 13.51300 23.48400
C  45.54900 12.64200 24.15600
C  45.59300 13.18900 25.60000
C  46.18300 14.61700 22.43800
C  45.72500 11.10200 23.97500
C  46.97100 10.43400 24.68600
N  45.37200 13.81200 28.36900
C  44.27600 13.24100 27.72800
C  43.27700 12.90200 28.64700
C  43.65900 13.38700 29.88200
C  44.90100 14.00900 29.62200
C  41.97600 12.22000 28.35600
C  43.35600 13.58900 31.29200
O  42.33100 13.31100 31.94800
C  44.49700 14.48800 31.89200
C  43.89800 15.62500 32.57500
O  43.55500 16.71200 32.07300
O  43.66000 15.34900 33.93800
C  43.00000 16.37100 34.63000
H  50.06300 17.56500 29.32300
H  48.94700 14.88300 23.56400
H  43.70000 12.26600 25.99000
H  46.34300 16.84200 32.37000
H  49.05000 17.41800 31.81400
H  46.72300 18.71000 31.03800
H  47.82200 18.97100 29.85300
H  48.39600 19.38900 31.50400
H  48.79100 15.50100 33.14500
H  47.75200 14.22600 32.51800
H  46.55600 14.21000 34.42900
H  46.29200 15.96300 34.47500
H  52.11500 17.50700 28.27300
H  51.68100 18.59800 26.90300
H  52.98600 17.44400 26.76200
H  53.28900 17.33600 24.63600
H  51.92800 18.41600 24.36600
H  52.69900 17.52700 23.04200
H  47.39500 12.89800 22.93700
H  44.62400 12.93500 23.65900
H  45.44300 15.25800 22.91800
H  45.84600 14.07700 21.55300
H  46.99600 15.27600 22.13000
H  45.82000 10.97500 22.89600
H  44.80800 10.61000 24.30100
H  46.53600 9.81500 25.47100
H  47.57600 11.23100 25.12000
H  47.43700 9.72900 23.99800
H  41.59700 12.09100 29.37000
H  41.94700 11.21500 27.93600
H  41.36600 12.86400 27.72100
H  45.00400 13.82600 32.59500
H  43.51400 16.37800 35.59100
H  42.02500 16.04400 34.99000
H  43.00400 17.39700 34.26100
Mg 30.34700 59.69200 40.05500
C  27.61000 57.88500 38.65500
C  32.36100 56.88200 39.34100
C  33.10400 61.57400 40.63600
C  28.30300 62.48200 40.14300
N  29.99200 57.77300 38.91100
C  28.81500 57.25800 38.51500
C  29.03200 55.89400 37.90100
C  30.33700 55.46700 38.64000
C  30.96500 56.78900 38.96100
C  30.21900 54.62100 39.94300
C  29.15300 55.93900 36.36400
C  28.14100 55.03600 35.57400
H  27.28200 55.91900 34.69100
N  32.43300 59.29100 40.00700
C  33.05300 58.08400 39.78000
C  34.46300 58.31400 39.95300
C  34.65300 59.60900 40.33400
C  33.37700 60.19100 40.37900
C  35.35800 57.11400 39.93600
C  35.96500 60.12100 40.76500
O  37.01000 59.47300 40.56400
C  36.18900 61.36200 41.49800
N  30.67000 61.74900 40.12100
C  31.89500 62.29600 40.48000
C  31.76100 63.80800 40.68700
C  30.24500 64.07200 40.44800
C  29.69700 62.65200 40.27800
C  32.32800 64.44100 42.04500
C  30.00000 65.00400 39.25100
C  29.51300 66.43100 39.51200
N  28.28800 60.05900 39.67700
C  27.62300 61.23400 39.87800
C  26.14700 61.02000 39.52600
C  26.10100 59.68600 39.07100
C  27.44200 59.20500 39.12900
C  25.01400 61.95700 39.65000
C  25.19800 58.67500 38.65500
O  23.98600 58.65000 38.52300
C  26.09700 57.43800 38.37400
C  25.67800 56.27800 39.24300
O  26.34600 55.97500 40.17700
O  24.49800 55.70100 38.78200
C  23.82500 54.80900 39.68000
H  32.91500 55.94900 39.21400
H  33.91500 62.20200 41.01200
H  27.69000 63.38300 40.07300
H  28.21300 55.27200 38.26500
H  30.94000 54.86900 37.95700
H  30.25700 53.54600 39.76900
H  29.23700 54.79900 40.38200
H  30.94100 54.88800 40.71500
H  30.10300 55.61500 35.93800
H  28.83200 56.95000 36.11400
H  27.64700 54.33100 36.24300
H  28.68100 54.31000 34.96600
H  35.01100 56.27400 39.33500
H  35.30600 56.80500 40.98000
H  36.40600 57.26400 39.67700
H  37.19400 61.44000 41.91200
H  35.54400 61.33800 42.37600
H  36.01300 62.25600 40.90000
H  32.41700 64.21900 39.91900
H  29.73800 64.40200 41.35400
H  31.49100 64.75500 42.66900
H  32.91200 65.32800 41.79800
H  32.94400 63.77500 42.64900
H  29.15600 64.51300 38.76600
H  30.85100 65.04500 38.57200
H  28.57400 66.78300 39.08300
H  30.31800 67.08800 39.18400
H  29.34300 66.36500 40.58700
H  24.79600 62.31300 38.64300
H  25.26400 62.85800 40.21000
H  24.17400 61.44700 40.12300
H  25.84700 57.13400 37.35800
H  23.40000 54.14500 38.92600
H  23.09200 55.36300 40.26600
H  24.51300 54.28500 40.34300

