158

Mg 54.04100 24.55100 44.49700
C  51.36100 26.69400 44.00400
C  51.94600 21.95200 43.50200
C  56.75800 22.61300 44.18500
C  56.06200 27.24300 45.37100
N  51.92900 24.34500 43.80200
C  51.00600 25.37600 43.83700
C  49.52800 24.82600 43.71000
C  49.79200 23.30400 43.95100
C  51.30600 23.18900 43.65500
C  49.37000 22.68400 45.47100
C  48.75700 25.02200 42.40300
C  49.66200 24.93800 41.14000
H  49.02700 24.74600 39.72900
N  54.31500 22.54200 43.80400
C  53.34600 21.65600 43.52000
C  53.99600 20.35500 43.20000
C  55.35700 20.51700 43.55600
C  55.54800 21.92300 43.83800
C  53.30800 19.12300 42.69900
C  56.36900 19.31000 43.38400
O  55.95600 18.21400 42.93100
C  57.78400 19.34300 43.67400
N  56.17900 24.90000 44.69800
C  57.13500 23.92000 44.58600
C  58.59900 24.44400 44.85600
C  58.25600 25.78700 45.59000
C  56.72400 26.04200 45.19900
C  59.32600 23.42100 45.76300
C  59.17400 26.98700 45.11000
C  59.63600 27.90400 46.21600
N  53.87400 26.61800 44.66100
C  54.76900 27.62200 45.04400
C  54.00400 28.87500 45.15400
C  52.71500 28.56100 44.70200
C  52.69600 27.17200 44.38400
C  54.43700 30.19500 45.57600
C  51.44000 29.14800 44.50700
O  51.05800 30.28600 44.70100
C  50.52300 27.99100 43.99900
C  50.00000 28.23400 42.64600
O  50.78100 28.24100 41.67400
O  48.68600 28.67300 42.65800
C  48.03100 28.93400 41.33200
H  51.22500 21.19000 43.20000
H  57.63400 21.97000 44.07900
H  56.76300 28.03700 45.63700
H  49.02000 25.26300 44.56900
H  49.26000 22.67900 43.23400
H  49.23400 23.53100 46.14400
H  50.07100 21.94700 45.86100
H  48.38100 22.22900 45.42100
H  48.37600 26.04100 42.46000
H  47.96200 24.27800 42.45200
H  50.33000 24.10400 41.35700
H  50.21600 25.87300 41.22300
H  53.76400 18.64900 41.83000
H  52.41600 19.51200 42.20900
H  53.06500 18.37800 43.45700
H  58.27800 18.37200 43.69400
H  57.97300 19.80600 44.64300
H  58.00800 20.00800 42.84000
H  59.14600 24.66900 43.94100
H  58.35500 25.67200 46.67000
H  59.73500 23.82100 46.69100
H  60.23800 23.13200 45.23900
H  58.79700 22.49300 45.97900
H  58.65000 27.62800 44.40100
H  60.05300 26.67900 44.54500
H  60.13600 27.36000 47.01700
H  58.87100 28.54000 46.66200
H  60.35700 28.63600 45.85100
H  54.44500 30.14700 46.66500
H  53.64700 30.91000 45.35000
H  55.43900 30.43500 45.21900
H  49.68000 27.87500 44.68000
H  48.28100 29.87800 40.84700
H  46.96200 28.97000 41.54100
H  48.31000 28.17300 40.60400
Mg -12.31600 16.64600 41.01700
C  -9.65600 14.41600 40.83700
C  -10.55000 19.04500 39.19500
C  -15.10300 18.39700 40.75900
C  -14.12900 13.87200 42.46900
N  -10.34900 16.69200 40.06000
C  -9.39800 15.70000 40.17900
C  -8.08500 16.13700 39.59500
C  -8.35800 17.71300 39.35400
C  -9.85600 17.87600 39.47000
C  -7.60900 18.69900 40.17900
C  -7.65300 15.42600 38.25700
C  -6.10300 15.36200 37.96400
H  -5.61000 16.13900 36.73300
N  -12.79000 18.51700 40.14800
C  -11.88600 19.35000 39.45900
C  -12.67900 20.42600 38.92400
C  -13.97400 20.31200 39.48100
C  -14.03700 19.00900 40.08900
C  -12.26200 21.41800 37.97100
C  -15.03500 21.56500 39.45200
O  -14.66100 22.63400 39.01600
C  -16.48100 21.45000 39.98900
N  -14.23400 16.18800 41.57500
C  -15.24100 17.12100 41.37500
C  -16.57000 16.73000 42.14200
C  -16.20400 15.36400 42.79300
C  -14.80200 15.05200 42.23100
C  -16.99800 17.78600 43.17700
C  -17.22000 14.27700 42.45000
C  -17.77600 13.57800 43.77800
N  -11.97600 14.57600 41.58400
C  -12.82600 13.59800 42.07700
C  -12.06700 12.44600 42.46900
C  -10.77400 12.70900 42.04500
C  -10.82300 14.01800 41.42600
C  -12.57900 11.16700 43.15000
C  -9.40200 12.25500 41.83100
O  -8.90800 11.18700 42.21300
C  -8.64000 13.33200 41.02700
C  -7.41300 13.87200 41.80400
O  -7.57900 14.57000 42.80700
O  -6.22600 13.58400 41.15900
C  -4.99600 14.22200 41.68000
H  -9.98900 19.71000 38.53500
H  -16.04700 18.94100 40.68300
H  -14.74700 13.15100 43.00800
H  -7.24800 16.15300 40.29200
H  -8.12600 17.96900 38.32100
H  -7.46400 19.63300 39.63500
H  -6.64300 18.24500 40.40100
H  -8.14700 18.87100 41.11100
H  -8.19000 15.82800 37.39700
H  -8.03800 14.41400 38.38400
H  -5.69900 14.34900 37.97900
H  -5.63600 15.87900 38.80200
H  -12.82500 21.41100 37.03800
H  -11.17600 21.39400 37.87700
H  -12.23400 22.37800 38.48500
H  -17.06900 20.62300 39.59200
H  -17.08900 22.34300 39.84700
H  -16.43000 21.31200 41.06900
H  -17.43300 16.71800 41.47500
H  -16.21400 15.50300 43.87400
H  -17.66400 18.52100 42.72400
H  -16.15700 18.43700 43.41500
H  -17.51200 17.45100 44.07800
H  -16.74000 13.53500 41.81200
H  -18.04200 14.76900 41.92900
H  -18.61200 14.15500 44.17200
H  -17.08000 13.47100 44.61000
H  -18.00100 12.54500 43.51200
H  -12.80500 10.48100 42.33300
H  -13.49500 11.34600 43.71300
H  -11.81100 10.73600 43.79300
H  -8.35200 13.08000 40.00700
H  -4.11000 13.62600 41.46300
H  -4.92400 14.29100 42.76500
H  -4.68900 15.17600 41.25100

