158

Mg 45.36300 5.48300 48.32300
C  43.44300 8.14500 47.45000
C  42.92700 3.30000 47.21400
C  47.60700 2.83400 48.43400
C  48.08400 7.58900 48.73700
N  43.56700 5.72700 47.27900
C  42.86800 6.90600 47.12800
C  41.59900 6.70200 46.41100
C  41.28900 5.19900 46.69000
C  42.67500 4.68400 47.11700
C  40.16100 4.91500 47.67500
C  41.60700 7.09200 44.86800
C  40.50100 7.94600 44.30800
H  39.90700 7.54700 43.00100
N  45.26100 3.35200 48.03200
C  44.09800 2.66300 47.64600
C  44.34600 1.22900 47.67200
C  45.67200 1.08500 48.15400
C  46.26300 2.48000 48.23400
C  43.33200 0.23800 47.48500
C  46.34000 -0.30600 48.50800
O  45.67200 -1.33000 48.44700
C  47.66700 -0.54200 49.01500
N  47.57100 5.27700 48.51700
C  48.20000 4.11900 48.57800
C  49.70900 4.20700 48.85000
C  49.86100 5.79200 48.91200
C  48.38000 6.29100 48.70900
C  50.18700 3.60400 50.22800
C  50.82900 6.37400 47.88400
C  51.58400 7.59500 48.48900
N  45.77200 7.52900 48.28600
C  46.89400 8.20400 48.40000
C  46.63500 9.61800 48.12900
C  45.25200 9.66400 47.84500
C  44.77300 8.32900 47.96200
C  47.62400 10.75100 48.06700
C  44.14100 10.49200 47.48800
O  44.02200 11.65900 47.36000
C  42.92600 9.50200 47.28700
C  41.73100 9.82400 48.13800
O  41.63400 9.41400 49.32100
O  40.85900 10.55700 47.44400
C  39.69000 11.00800 48.11700
H  42.21300 2.56600 46.83600
H  48.41600 2.10600 48.51400
H  48.80200 8.35800 49.03100
H  40.82200 7.26700 46.92600
H  41.03000 4.62800 45.79800
H  39.76700 5.80800 48.15900
H  40.56100 4.36000 48.52300
H  39.38100 4.33300 47.18400
H  41.65600 6.20900 44.23100
H  42.56700 7.60300 44.79900
H  40.82300 8.98600 44.26200
H  39.65800 7.91800 44.99800
H  43.48400 -0.40900 46.62100
H  42.34500 0.55800 47.15100
H  43.18400 -0.37100 48.37700
H  48.01200 -1.55000 49.24800
H  47.66800 -0.00000 49.96100
H  48.37000 -0.14200 48.28500
H  50.29300 3.75700 48.04800
H  50.02200 6.07100 49.95400
H  50.93700 4.26700 50.65700
H  50.51000 2.58200 50.03000
H  49.32700 3.43800 50.87700
H  50.26000 6.86000 47.09100
H  51.58300 5.65300 47.56700
H  52.29900 7.97000 47.75700
H  52.07700 7.10900 49.33100
H  50.83600 8.35000 48.73200
H  48.58200 10.39900 47.68500
H  47.68500 11.03500 49.11800
H  47.18500 11.50700 47.41500
H  42.65300 9.58400 46.23500
H  39.53700 12.03700 47.79300
H  39.77800 10.97300 49.20300
H  38.85400 10.35600 47.86500
Mg -5.95100 25.54300 26.18800
C  -5.06600 27.05800 29.13800
C  -7.59100 23.08600 28.03400
C  -6.33500 23.72900 23.39500
C  -3.96300 27.89400 24.42000
N  -6.20200 25.09400 28.33700
C  -5.81900 25.90600 29.34600
C  -6.37300 25.38900 30.72000
C  -6.94600 23.98100 30.31800
C  -6.91400 24.08600 28.78700
C  -6.19500 22.61100 30.85700
C  -7.47800 26.28100 31.30800
C  -7.54700 26.35300 32.85600
H  -6.84300 25.28000 33.65500
N  -6.98100 23.73200 25.74700
C  -7.66400 22.95800 26.58400
C  -8.29900 21.93100 25.87900
C  -7.82200 22.03200 24.51600
C  -6.99000 23.18600 24.50900
C  -9.19600 20.93400 26.51300
C  -8.06800 21.08600 23.34900
O  -7.66100 21.25300 22.17500
C  -8.97900 19.90700 23.47200
N  -5.45100 25.90000 24.15300
C  -5.61000 24.89400 23.20100
C  -4.88300 25.27900 21.86700
C  -4.19200 26.68700 22.17800
C  -4.50700 26.79800 23.70100
C  -3.91000 24.22500 21.19400
C  -4.78900 27.85400 21.26200
C  -3.66500 28.57400 20.40500
N  -4.76500 27.18400 26.65500
C  -4.05000 28.09300 25.79700
C  -3.29400 28.97000 26.71200
C  -3.72300 28.67600 27.99400
C  -4.57400 27.57500 27.92400
C  -2.21400 29.96000 26.20000
C  -3.69900 29.07300 29.36900
O  -3.12500 30.04300 29.89100
C  -4.48600 27.97800 30.21200
C  -3.50700 27.32800 31.18000
O  -2.70600 26.44200 30.76600
O  -3.68300 27.77400 32.46400
C  -2.69600 27.20400 33.37300
H  -8.26200 22.50100 28.66700
H  -6.38400 23.18400 22.44900
H  -3.23500 28.56200 23.95500
H  -5.51200 25.27700 31.38000
H  -7.98800 23.85100 30.60800
H  -5.74400 22.16400 29.97000
H  -6.83000 21.78900 31.18600
H  -5.45500 22.71800 31.65000
H  -8.45300 26.06500 30.87200
H  -7.32900 27.24300 30.81900
H  -8.60500 26.41700 33.11100
H  -7.11500 27.33000 33.07100
H  -8.94300 20.81500 27.56700
H  -9.15800 20.00400 25.94500
H  -10.22600 21.28100 26.43900
H  -9.30700 19.62600 22.47100
H  -9.92500 20.10700 23.97700
H  -8.46100 19.11800 24.01900
H  -5.74400 25.29200 21.19900
H  -3.11800 26.50900 22.11800
H  -2.88400 24.55700 21.03300
H  -4.23500 24.08600 20.16400
H  -4.02600 23.25900 21.68400
H  -5.25300 28.67900 21.80300
H  -5.42000 27.39500 20.50100
H  -2.67200 28.25200 20.71700
H  -3.74500 29.63800 20.62700
H  -3.86400 28.49200 19.33600
H  -1.51900 29.46600 25.52100
H  -1.64200 30.25600 27.08000
H  -2.73100 30.71500 25.60700
H  -5.14700 28.47300 30.92400
H  -1.74300 27.71200 33.22200
H  -2.46200 26.15200 33.21100
H  -3.01000 27.33700 34.40800

