158

Mg 0.88300 7.68900 26.30200
C  1.80300 9.81500 28.98200
C  1.36600 5.03900 28.38600
C  0.29800 5.67300 23.72100
C  1.20200 10.49100 24.18500
N  1.44400 7.51200 28.46300
C  1.64800 8.46900 29.38100
C  1.84000 7.89200 30.82200
C  1.95700 6.34300 30.59800
C  1.50100 6.22600 29.01400
C  3.47600 5.88000 30.84300
C  0.74000 8.35100 31.87100
C  1.24000 8.70600 33.20100
H  2.29500 7.85800 33.95700
N  0.82800 5.62900 26.02800
C  1.13000 4.71000 26.99000
C  1.00400 3.39300 26.35300
C  0.56500 3.52000 25.04800
C  0.44000 4.97100 24.88100
C  1.21200 2.19800 27.15800
C  0.20100 2.49800 23.96000
O  -0.35300 2.67100 22.86900
C  0.38700 1.11200 24.38800
N  0.73900 8.02200 24.27400
C  0.39900 7.03100 23.41900
C  0.37800 7.51600 21.96000
C  0.53800 9.09100 22.12100
C  0.89800 9.24600 23.60300
C  1.53300 6.92400 21.10800
C  -0.75700 9.88900 21.64000
C  -0.61200 11.08700 20.65400
N  1.33000 9.78700 26.50900
C  1.40300 10.83800 25.53500
C  1.78500 12.05400 26.19100
C  1.92200 11.70400 27.58500
C  1.65300 10.35400 27.68200
C  1.89300 13.38000 25.59400
C  2.43600 12.21100 28.85500
O  2.94800 13.28100 29.12900
C  2.13800 11.04000 29.85400
C  3.49700 10.87000 30.55800
O  4.42600 10.08700 30.22600
O  3.46200 11.67300 31.65500
C  4.44800 11.34800 32.63600
H  1.59800 4.22200 29.07300
H  0.17300 4.97200 22.89300
H  1.26100 11.33600 23.49500
H  2.80200 8.29400 31.14000
H  1.31400 5.66100 31.15600
H  4.00700 6.53200 31.53600
H  4.19100 5.74900 30.03100
H  3.40600 4.89000 31.29200
H  -0.16100 7.73800 31.91700
H  0.28300 9.24500 31.44800
H  0.41900 8.77800 33.91500
H  1.73000 9.68000 33.20700
H  1.90600 2.47700 27.95000
H  1.86000 1.50200 26.62400
H  0.22900 1.80100 27.41000
H  1.41600 0.76500 24.29000
H  -0.01200 0.43800 23.62900
H  -0.01100 0.73300 25.32900
H  -0.63400 7.16600 21.75800
H  1.35400 9.39200 21.46400
H  1.12700 5.93600 20.89300
H  2.43900 6.77600 21.69600
H  1.62400 7.39400 20.12900
H  -1.27600 10.17800 22.55400
H  -1.38200 9.20600 21.06400
H  0.47300 11.19100 20.66900
H  -1.06300 11.95300 21.13800
H  -0.86900 10.68100 19.67600
H  1.61000 14.15400 26.30800
H  1.19000 13.57400 24.78400
H  2.91500 13.57000 25.26600
H  1.25800 11.16000 30.48600
H  5.43300 11.26400 32.17800
H  4.18100 10.36800 33.02900
H  4.47200 12.06000 33.46200
Mg 15.63100 51.84600 25.94100
C  17.60500 50.77000 28.63900
C  13.02500 52.42300 28.10700
C  13.71800 52.66100 23.32200
C  18.24400 50.91400 23.71400
N  15.43000 51.66000 28.11000
C  16.41700 51.42100 29.04000
C  15.93200 51.77400 30.49700
C  14.34500 51.85600 30.26400
C  14.20800 51.97400 28.73800
C  13.52200 50.66900 30.81900
C  16.49600 53.10600 31.00300
C  16.42700 53.35400 32.54400
H  15.44300 52.55400 33.41600
N  13.68100 52.55900 25.71800
C  12.76700 52.61500 26.73200
C  11.45000 53.00100 26.14300
C  11.64100 53.24200 24.75200
C  13.07100 52.82900 24.55700
C  10.12600 53.14500 26.92000
C  10.74200 53.79800 23.71400
O  11.18400 54.02300 22.61700
C  9.24200 54.03000 23.98700
N  15.95000 51.83700 23.79800
C  14.96700 52.20000 22.92300
C  15.45900 52.16800 21.48700
C  16.92500 51.67300 21.56800
C  17.06800 51.47200 23.11600
C  14.61300 51.25500 20.67800
C  18.11200 52.59300 21.22800
C  19.43900 51.97100 20.58600
N  17.54700 50.93100 26.05000
C  18.48200 50.54100 25.05400
C  19.65900 49.89300 25.71900
C  19.26400 49.91200 27.11400
C  18.04700 50.61000 27.26100
C  21.00200 49.52600 25.05400
C  19.75400 49.56700 28.41300
O  20.82100 49.00500 28.82000
C  18.76700 50.24000 29.47400
C  18.40600 49.22600 30.54700
O  17.58200 48.30700 30.38700
O  19.05700 49.50900 31.71400
C  18.71600 48.59400 32.77400
H  12.25800 52.70800 28.83000
H  13.11100 52.94000 22.45900
H  19.08400 50.70100 23.05000
H  16.32400 51.04600 31.20600
H  13.93400 52.79300 30.64100
H  13.00200 50.32600 29.92400
H  12.83000 50.93500 31.61800
H  14.16800 49.87000 31.18200
H  16.01800 53.90800 30.44000
H  17.56000 53.16000 30.77200
H  16.13600 54.39400 32.69200
H  17.41000 53.10900 32.94500
H  9.81100 54.18900 26.91500
H  10.30200 52.67800 27.88900
H  9.41700 52.45700 26.46100
H  9.22500 54.93200 24.59900
H  8.79600 53.15300 24.45700
H  8.81700 54.09300 22.98600
H  15.37300 53.22500 21.23200
H  17.15500 50.74800 21.03900
H  15.16200 50.51700 20.09200
H  14.20600 51.92300 19.91900
H  13.67800 50.95700 21.15300
H  18.55400 53.05900 22.10900
H  17.67300 53.44600 20.71000
H  20.16600 51.79200 21.37900
H  19.91000 52.60500 19.83400
H  19.00900 51.03700 20.22700
H  21.83900 49.76400 25.71200
H  21.16400 50.01600 24.09500
H  21.13400 48.45500 24.89500
H  19.31500 51.11200 29.83100
H  19.00900 47.62900 32.35900
H  17.67300 48.71700 33.06500
H  19.43600 48.61000 33.59200

