158

Mg 43.90200 3.28200 47.03300
C  42.07200 6.21600 46.50600
C  41.06600 1.45600 46.54800
C  45.85100 0.51000 47.09100
C  46.87500 5.07300 46.94700
N  41.79100 3.89200 46.52000
C  41.27500 5.09700 46.43500
C  39.73700 5.04100 46.36700
C  39.47800 3.50600 46.63400
C  40.86500 2.87700 46.52400
C  38.91500 3.05700 48.01400
C  39.09500 5.36900 44.98900
C  39.49100 4.63700 43.77000
H  39.76800 5.49300 42.63600
N  43.49600 1.28500 46.83200
C  42.31000 0.77200 46.69400
C  42.38200 -0.63900 46.69800
C  43.76100 -1.04100 46.86200
C  44.45100 0.28700 46.94200
C  41.28000 -1.68200 46.59400
C  44.30500 -2.37700 46.88400
O  43.57000 -3.32500 46.82100
C  45.80900 -2.64700 46.79300
N  46.10700 2.78100 46.74900
C  46.56500 1.62400 47.03600
C  48.14900 1.57800 47.26200
C  48.44000 3.04700 47.05000
C  47.09300 3.66800 46.89700
C  48.68300 0.94200 48.54900
C  49.33700 3.14900 45.72200
C  50.18300 4.49900 45.47500
N  44.42300 5.23100 46.83100
C  45.68000 5.81100 46.89700
C  45.44800 7.24300 47.01600
C  44.12300 7.51500 46.86400
C  43.48400 6.17500 46.75600
C  46.53300 8.27000 47.02100
C  43.02400 8.49600 46.74500
O  43.06600 9.71600 46.88400
C  41.70700 7.66700 46.32700
C  40.68600 8.03500 47.29200
O  40.48300 7.68000 48.41000
O  39.78100 8.79700 46.59100
C  38.48300 9.02500 47.26300
H  40.14800 0.88600 46.39400
H  46.46800 -0.36400 47.30600
H  47.77400 5.61800 47.24500
H  39.25600 5.67100 47.11500
H  38.80100 3.15800 45.85300
H  39.21800 2.03400 48.23900
H  37.83300 3.18300 48.00800
H  39.31000 3.67500 48.82000
H  39.43400 6.39500 44.84500
H  38.02600 5.49200 45.16600
H  38.69600 3.97600 43.42400
H  40.40400 4.04400 43.82300
H  41.39800 -2.17800 45.63100
H  40.23900 -1.36000 46.59200
H  41.42800 -2.52100 47.27400
H  46.47200 -2.60100 47.65800
H  46.20100 -1.97100 46.03400
H  45.97600 -3.60600 46.30300
H  48.57100 1.02700 46.42200
H  49.08600 3.46000 47.82500
H  49.50300 1.58500 48.86900
H  49.10400 -0.04600 48.36400
H  47.95100 0.94700 49.35600
H  48.73600 2.97100 44.83000
H  50.08000 2.35200 45.73100
H  49.60500 5.39100 45.23200
H  50.86700 4.29200 44.65100
H  50.81500 4.73800 46.33000
H  47.46700 7.87200 47.42000
H  46.26500 9.02300 47.76300
H  46.56300 8.72800 46.03200
H  41.51300 7.83500 45.26700
H  38.38400 10.10200 47.12100
H  38.33100 8.82600 48.32400
H  37.77100 8.43300 46.68900
Mg 49.14400 45.33000 42.62100
C  45.73800 45.77100 41.71000
C  48.80700 42.02000 42.03400
C  52.49100 45.03100 42.49600
C  49.46900 48.87900 42.38600
N  47.42000 44.12400 41.84600
C  46.13100 44.42100 41.61800
C  45.29200 43.17900 41.19600
C  46.26000 41.96200 41.54300
C  47.58700 42.75600 41.80000
C  45.91500 41.08800 42.75100
C  44.54900 43.24800 39.80700
C  45.32400 44.10200 38.69200
H  45.67900 43.27100 37.42600
N  50.50300 43.77000 42.44000
C  50.13100 42.46900 42.34400
C  51.30200 41.64200 42.28600
C  52.44400 42.47200 42.42800
C  51.82400 43.80500 42.43100
C  51.22600 40.18000 42.24200
C  53.96800 42.04200 42.54900
O  54.30000 40.87800 42.48500
C  55.06400 43.01700 42.86100
N  50.68800 46.73100 42.28200
C  51.99900 46.36800 42.47200
C  52.89400 47.60400 42.64300
C  51.98000 48.82000 42.50400
C  50.61800 48.11800 42.34500
C  53.70000 47.54200 43.93700
C  52.31000 49.84000 41.39300
C  51.93500 51.27300 41.71400
N  47.86900 47.05500 42.37400
C  48.10400 48.40200 42.33300
C  46.85700 49.12400 42.26500
C  45.92500 48.13500 42.04200
C  46.60400 46.82500 42.06300
C  46.76500 50.62800 42.36900
C  44.55000 47.92200 41.72500
O  43.67000 48.77700 41.68600
C  44.37800 46.40600 41.34200
C  43.25200 45.85300 42.17800
O  42.36500 45.10600 41.72900
O  43.26300 46.23800 43.49500
C  42.14600 45.77900 44.42600
H  48.64500 40.94100 41.98300
H  53.56300 44.88900 42.64900
H  49.58400 49.96500 42.38600
H  44.54900 43.12900 41.99100
H  46.32100 41.26900 40.70400
H  46.05000 40.02300 42.56000
H  44.88100 41.26300 43.04800
H  46.56200 41.27900 43.60700
H  43.53600 43.59900 40.00500
H  44.43100 42.20900 39.49900
H  46.33200 44.44100 38.93300
H  44.71500 44.96500 38.42300
H  51.03400 40.06000 41.17600
H  50.40300 39.71600 42.78600
H  52.16800 39.66200 42.42200
H  54.88100 43.52800 43.80600
H  55.13200 43.70800 42.02100
H  56.07000 42.59700 42.86800
H  53.60300 47.61800 41.81500
H  51.78300 49.39000 43.41200
H  53.64700 46.62400 44.52200
H  53.39600 48.40600 44.52900
H  54.69900 47.86500 43.64700
H  51.84700 49.49200 40.47000
H  53.39200 49.80200 41.26200
H  52.74700 51.98500 41.57000
H  51.45600 51.44300 42.67900
H  51.25700 51.45600 40.88000
H  47.17000 51.06100 43.28300
H  45.74300 51.00700 42.36600
H  47.24700 51.14400 41.53800
H  44.15800 46.16700 40.30100
H  41.22000 45.89800 43.86300
H  42.15500 46.38500 45.33200
H  42.21100 44.72700 44.70300

