158

Mg 47.05300 16.38700 28.26800
C  45.32600 15.85200 31.46300
C  49.25400 18.40500 30.00500
C  48.33400 17.39900 25.34800
C  44.35800 14.96800 26.66400
N  47.25300 16.98400 30.50800
C  46.48100 16.64000 31.62700
C  46.99600 17.31500 32.93300
C  48.14800 18.33800 32.37600
C  48.15400 17.97700 30.79100
C  47.90200 19.82000 32.62700
C  47.45100 16.18500 33.97600
C  47.58700 16.63900 35.48700
H  47.10500 18.04600 35.97000
N  48.67000 17.49000 27.81100
C  49.50800 18.16200 28.67300
C  50.68700 18.68100 27.90000
C  50.38700 18.53300 26.46400
C  49.05000 17.81900 26.47300
C  51.97900 19.23300 28.60500
C  51.27100 18.89800 25.16500
O  50.90500 18.73700 24.00400
C  52.46200 19.83300 25.40200
N  46.37400 16.28400 26.31900
C  47.13400 16.65100 25.24100
C  46.48000 16.32100 23.86500
C  45.38200 15.28800 24.31600
C  45.33600 15.51100 25.86400
C  46.00900 17.52200 23.04000
C  45.51400 13.75100 23.99100
C  46.83800 13.18100 24.42900
N  45.26300 15.52500 28.87100
C  44.27400 14.93500 28.06900
C  43.29900 14.26800 28.89200
C  43.69200 14.61800 30.19400
C  44.86700 15.38500 30.17300
C  42.04400 13.60100 28.36800
C  43.15300 14.61300 31.53600
O  42.07000 14.21600 32.01900
C  44.17600 15.45000 32.40500
C  43.42400 16.61000 33.02500
O  43.23900 17.72100 32.57100
O  43.04000 16.29900 34.33500
C  42.27300 17.33700 35.06300
H  49.95000 18.96800 30.63000
H  48.86600 17.69700 24.44200
H  43.55700 14.50300 26.08400
H  46.13300 17.84200 33.34200
H  49.09100 17.95200 32.76100
H  47.04600 19.96300 33.28800
H  47.69700 20.21600 31.63300
H  48.74300 20.45800 32.89800
H  48.34800 15.69100 33.60100
H  46.69600 15.40500 33.88600
H  48.62200 16.42600 35.75200
H  47.07100 15.86300 36.05300
H  52.83300 18.59200 28.38500
H  51.86400 19.10100 29.68000
H  52.18400 20.27900 28.37300
H  52.80000 20.47700 24.59100
H  53.32500 19.27400 25.76300
H  52.28900 20.54800 26.20600
H  47.23800 15.82800 23.25700
H  44.37900 15.56600 23.99200
H  45.21600 17.38500 22.30600
H  46.89300 17.73600 22.44000
H  45.72100 18.33500 23.70700
H  45.33200 13.72500 22.91700
H  44.63100 13.27600 24.41900
H  46.70100 12.22900 24.94200
H  47.30400 13.80600 25.19000
H  47.45300 12.85300 23.59000
H  42.38400 12.78200 27.73400
H  41.45300 14.18700 27.66400
H  41.52700 13.23100 29.25300
H  44.70600 14.90900 33.18900
H  42.92400 18.10400 35.48400
H  41.77400 16.81700 35.88000
H  41.51000 17.87700 34.50100
Mg 16.85700 52.71500 26.83400
C  18.74300 51.31900 29.14100
C  14.51900 53.79200 29.25500
C  15.08000 54.28400 24.40200
C  18.94400 51.45600 24.33900
N  16.60600 52.55200 29.00200
C  17.55000 51.97700 29.70600
C  17.29600 52.20700 31.24500
C  15.80200 52.59300 31.17700
C  15.60100 53.07300 29.72000
C  14.90900 51.36000 31.52400
C  18.23800 53.27700 31.87800
C  18.60200 52.93100 33.31600
H  17.63900 52.11900 34.14800
N  15.04500 53.80800 26.88400
C  14.28000 54.23900 27.95400
C  13.07300 54.94800 27.42500
C  13.26400 55.14300 26.01300
C  14.51900 54.35600 25.73100
C  12.04000 55.44900 28.31300
C  12.35600 55.86400 24.98500
O  12.51800 55.83400 23.74200
C  11.15400 56.67800 25.47600
N  16.95100 52.74600 24.61300
C  16.18600 53.54500 23.90300
C  16.61300 53.48100 22.42000
C  17.68400 52.48300 22.35400
C  17.86900 52.15600 23.88300
C  15.43300 53.31300 21.37300
C  18.94000 53.02500 21.56300
C  19.91100 53.98500 22.28000
N  18.53500 51.52900 26.68700
C  19.31100 51.14300 25.70300
C  20.45600 50.43300 26.17600
C  20.24900 50.43500 27.55300
C  19.09600 51.09300 27.81400
C  21.49600 49.82600 25.34100
C  20.77800 49.97300 28.78500
O  21.61500 49.07600 29.00600
C  19.85500 50.67000 29.91100
C  19.46800 49.58700 30.81600
O  18.48800 48.81400 30.68700
O  20.24700 49.59400 31.90300
C  20.10400 48.59400 32.92300
H  13.80400 53.91700 30.07000
H  14.68200 54.89500 23.58900
H  19.69000 51.18500 23.58900
H  17.40700 51.26400 31.78000
H  15.44300 53.50100 31.66200
H  15.56000 50.49300 31.63700
H  14.10700 51.20500 30.80200
H  14.38000 51.52400 32.46300
H  17.85100 54.29500 31.83400
H  19.12200 53.26900 31.24100
H  18.60600 53.89400 33.82600
H  19.60700 52.50900 33.28800
H  11.13800 55.07900 27.82500
H  11.99200 56.53700 28.30300
H  11.97900 55.06300 29.33000
H  10.38800 55.94000 25.71500
H  10.60900 57.11800 24.64100
H  11.38400 57.42100 26.24000
H  16.99800 54.49500 22.30900
H  17.37700 51.56400 21.85500
H  15.53700 52.49200 20.66300
H  15.22100 54.22400 20.81500
H  14.53600 53.11400 21.95900
H  18.45900 53.66300 20.82200
H  19.47700 52.20400 21.08800
H  20.86700 53.46700 22.35600
H  19.49600 54.05900 23.28500
H  20.07300 54.93000 21.76200
H  22.29000 49.52100 26.02200
H  21.75500 50.34500 24.41800
H  21.12200 48.87900 24.95100
H  20.49700 51.36100 30.45700
H  19.81000 47.64900 32.46600
H  19.32300 48.84700 33.64000
H  21.10300 48.61200 33.35800

