158

Mg 36.27700 1.98600 30.72100
C  33.91700 2.83300 33.20100
C  38.73900 2.17300 33.11000
C  38.60200 1.44200 28.32000
C  33.92600 2.37200 28.28500
N  36.26800 2.46400 32.95400
C  35.14400 2.66600 33.75200
C  35.56400 2.78500 35.22400
C  37.14200 2.67400 35.12100
C  37.42400 2.41200 33.66500
C  37.94200 3.89000 35.73300
C  34.98200 1.60500 36.08700
C  34.41400 2.13500 37.44200
H  35.30600 3.17800 38.17300
N  38.40200 1.86000 30.69900
C  39.22700 1.95400 31.76000
C  40.58300 1.74300 31.33600
C  40.62000 1.45700 29.95100
C  39.18200 1.51900 29.64300
C  41.71100 1.90700 32.36100
C  41.74700 1.08900 28.94200
O  41.63300 0.87600 27.74800
C  43.21900 0.93500 29.44100
N  36.30800 1.94600 28.54200
C  37.36800 1.68300 27.81200
C  37.05700 1.78000 26.32300
C  35.47500 1.92000 26.31800
C  35.18900 2.02400 27.81300
C  37.87600 2.87300 25.66100
C  34.66200 0.78000 25.54100
C  33.35300 1.11600 24.85200
N  34.27600 2.50700 30.63500
C  33.44600 2.66900 29.58200
C  32.10200 3.04100 30.07300
C  32.21300 3.17700 31.48900
C  33.59000 2.82000 31.80000
C  30.85500 3.18300 29.24200
C  31.54600 3.35800 32.69400
O  30.37700 3.64200 32.93600
C  32.60900 3.15300 33.82400
C  32.62100 4.41900 34.65600
O  33.03200 5.49800 34.28300
O  32.03600 4.25200 35.90000
C  31.97700 5.43100 36.82300
H  39.51900 2.13600 33.87200
H  39.34800 1.30900 27.53400
H  33.13800 2.31800 27.53100
H  35.26200 3.78000 35.54900
H  37.46500 1.79300 35.67500
H  37.32000 4.45000 36.43100
H  38.33200 4.49400 34.91400
H  38.84200 3.59600 36.27400
H  35.71100 0.81400 36.26300
H  34.06300 1.20700 35.65600
H  34.30300 1.32400 38.16200
H  33.36700 2.41700 37.32800
H  41.30600 2.71100 32.97500
H  42.57600 2.22000 31.77700
H  42.03500 1.00700 32.88400
H  43.14000 0.29700 30.32100
H  43.56600 1.95800 29.58200
H  43.98800 0.63100 28.73100
H  37.34400 0.78000 25.99700
H  35.13700 2.82300 25.80900
H  37.32300 3.62400 25.09700
H  38.64100 2.42000 25.03100
H  38.39200 3.52300 26.36800
H  34.39900 0.14200 26.38500
H  35.42800 0.31000 24.92400
H  32.81800 0.18500 24.66100
H  33.49800 1.58800 23.88100
H  32.66600 1.75800 25.40400
H  30.34600 2.22700 29.37000
H  31.10700 3.57800 28.25800
H  30.16700 3.90300 29.68600
H  32.23700 2.38400 34.50100
H  30.92800 5.72600 36.84900
H  32.65500 6.25700 36.60700
H  32.26900 5.12800 37.82800
Mg 34.90500 47.84100 25.95800
C  35.03200 45.78700 28.83100
C  33.63700 50.28000 27.90300
C  34.22900 49.38300 23.11900
C  35.62000 44.90000 24.10400
N  34.22000 47.95800 28.16300
C  34.54400 47.07100 29.11000
C  34.53100 47.70600 30.48600
C  33.74500 49.03800 30.19000
C  33.83900 49.13000 28.63600
C  32.22300 49.00500 30.68100
C  35.90000 47.79600 31.15700
C  36.02700 47.24600 32.61500
H  36.37000 48.23600 33.68400
N  33.94000 49.65900 25.52700
C  33.60500 50.53900 26.49900
C  33.17400 51.72300 25.81400
C  33.42700 51.57900 24.39900
C  33.92000 50.20500 24.22500
C  32.66000 52.94000 26.51200
C  33.17300 52.53200 23.23700
O  33.26100 52.15600 22.09400
C  32.99000 54.09000 23.44400
N  35.05400 47.27500 23.93800
C  34.64400 48.06300 22.95200
C  34.76400 47.44500 21.60500
C  35.41700 46.06400 21.87500
C  35.33200 46.02500 23.41300
C  33.42500 47.48200 20.73100
C  36.82700 45.86400 21.22200
C  36.96100 44.82200 20.05600
N  35.36600 45.72700 26.36000
C  35.65300 44.67300 25.52300
C  36.03300 43.48800 26.24400
C  35.78000 43.91800 27.59000
C  35.29900 45.24600 27.56700
C  36.43900 42.25800 25.67700
C  35.85900 43.47800 28.97800
O  36.28900 42.48300 29.51600
C  35.46600 44.70600 29.87200
C  34.34300 44.23900 30.76700
O  33.23200 43.85100 30.44400
O  34.73500 44.37500 32.03100
C  33.68300 44.40400 32.99800
H  33.47400 51.11600 28.58700
H  33.98800 49.80600 22.14200
H  35.70700 44.00800 23.47900
H  33.92800 47.11400 31.17500
H  34.26800 49.92800 30.53900
H  31.45600 48.90000 29.91400
H  32.02800 49.93900 31.20800
H  32.06800 48.14400 31.33200
H  36.29900 48.80200 31.28600
H  36.61300 47.31000 30.49100
H  36.80200 46.48500 32.52900
H  35.08000 46.75900 32.84400
H  32.28500 53.72200 25.85100
H  33.60300 53.29800 26.92500
H  31.92700 52.71100 27.28600
H  31.92000 54.24900 23.57500
H  33.28300 54.64600 22.55300
H  33.47700 54.37100 24.37700
H  35.44800 48.07300 21.03400
H  34.76600 45.26600 21.52000
H  32.66300 48.00500 21.30800
H  33.18800 46.51500 20.28900
H  33.52400 48.23800 19.95100
H  37.57200 45.62300 21.98000
H  37.14700 46.78100 20.72800
H  35.97800 44.49500 19.71800
H  37.62800 44.02900 20.39500
H  37.43200 45.37200 19.24100
H  35.66300 41.50100 25.78200
H  37.25800 41.99400 26.34700
H  36.75400 42.31100 24.63500
H  36.31800 44.98600 30.49100
H  33.05300 45.28900 32.91900
H  34.21200 44.47900 33.94900
H  33.05300 43.51500 32.98900

