158

Mg 47.14600 35.19100 28.51700
C  45.40100 33.37400 31.19600
C  47.46200 37.82300 30.68000
C  48.17800 36.92300 25.92300
C  46.82800 32.31700 26.51800
N  46.57100 35.47500 30.69200
C  45.97800 34.64000 31.55100
C  46.04100 35.20800 32.97700
C  46.17700 36.73600 32.69400
C  46.79000 36.71300 31.23600
C  44.94100 37.55500 32.96000
C  47.25300 34.62300 33.76900
C  47.06800 34.34700 35.35000
H  46.23800 35.35600 36.19000
N  47.83900 37.06800 28.28600
C  47.97500 38.01700 29.34900
C  48.57300 39.22300 28.81400
C  48.82400 39.03500 27.44800
C  48.33100 37.57800 27.13500
C  48.48400 40.50800 29.58000
C  49.35400 40.02200 26.47200
O  49.38200 39.74900 25.27100
C  49.83900 41.37400 26.85600
N  47.34300 34.71700 26.46100
C  47.85800 35.61600 25.65400
C  48.14900 34.99200 24.28000
C  47.73300 33.49200 24.39600
C  47.40100 33.41900 25.94700
C  47.48700 35.62100 23.02000
C  48.85000 32.46200 24.00400
C  48.27000 31.21800 23.20700
N  46.32200 33.21500 28.77800
C  46.25400 32.16600 27.83700
C  45.49000 31.06500 28.41700
C  45.08900 31.53700 29.64100
C  45.64400 32.79200 29.87800
C  45.07700 29.78000 27.83200
C  44.37200 31.14600 30.83700
O  43.81700 30.06900 31.01100
C  44.40700 32.40700 31.84800
C  44.93200 31.84800 33.07500
O  46.11600 31.71000 33.46100
O  43.82100 31.53700 33.79800
C  44.11900 30.81500 35.08200
H  47.42100 38.75100 31.25500
H  48.55700 37.50500 25.08000
H  46.61500 31.49000 25.83700
H  45.10700 34.81900 33.38500
H  46.94200 37.09000 33.38500
H  44.75300 38.14500 32.06300
H  44.96600 38.18800 33.84700
H  44.06300 36.91300 33.02100
H  48.06900 35.34300 33.71200
H  47.66000 33.76400 33.23600
H  47.97900 34.14300 35.91200
H  46.57600 33.39500 35.54900
H  47.84400 41.22300 29.06300
H  49.49500 40.91400 29.53000
H  48.21500 40.60600 30.63100
H  49.05300 42.12400 26.76700
H  50.51600 41.47900 26.00800
H  50.46600 41.40800 27.74800
H  49.22100 35.01800 24.08900
H  46.73700 33.27600 24.00800
H  46.76000 34.93400 22.58600
H  48.28200 35.88500 22.32200
H  46.88200 36.49200 23.27200
H  49.41600 32.09700 24.86100
H  49.54100 32.94800 23.31500
H  47.21300 31.18300 23.47300
H  48.76900 30.30500 23.53100
H  48.26800 31.43200 22.13800
H  45.96700 29.17000 27.67500
H  44.57000 29.94100 26.88100
H  44.47600 29.19100 28.52500
H  43.44000 32.89100 31.98000
H  44.87300 30.02900 35.07500
H  43.22300 30.24600 35.33100
H  44.48300 31.48800 35.85900
Mg -10.07100 40.65500 42.97700
C  -8.64100 37.59300 42.13200
C  -7.44000 42.21700 41.30900
C  -11.75500 43.55700 43.23400
C  -12.78600 38.95600 44.39900
N  -8.33700 39.99800 41.67300
C  -7.97200 38.64600 41.44800
C  -6.66400 38.58700 40.67300
C  -6.19700 40.09500 40.68500
C  -7.44300 40.81500 41.13800
C  -4.98200 40.40900 41.49600
C  -7.00400 38.10500 39.24100
C  -6.39800 36.79900 38.66600
H  -5.23300 37.10600 37.59100
N  -9.61300 42.59100 42.46400
C  -8.47900 43.04200 41.82900
C  -8.53500 44.44400 41.56100
C  -9.81900 44.87600 42.16200
C  -10.48800 43.66800 42.67200
C  -7.53200 45.26300 40.70200
C  -10.29000 46.33900 41.97000
O  -9.50500 47.20700 41.60700
C  -11.75000 46.68900 42.28400
N  -12.05300 41.20200 43.48500
C  -12.52400 42.43400 43.59500
C  -13.88300 42.50200 44.24600
C  -14.18300 41.02000 44.52700
C  -12.92000 40.32300 44.14900
C  -13.86800 43.29700 45.52700
C  -15.33400 40.40700 43.80400
C  -16.60800 40.18200 44.67300
N  -10.60100 38.66100 43.34200
C  -11.66300 38.16500 44.00400
C  -11.54500 36.72000 44.04500
C  -10.32400 36.43300 43.35800
C  -9.82400 37.66100 42.88300
C  -12.40700 35.73700 44.77500
C  -9.37400 35.44800 42.86400
O  -9.32200 34.22800 42.89500
C  -8.27000 36.16600 42.07800
C  -6.92600 35.89100 42.72200
O  -6.46100 36.44600 43.63900
O  -6.27700 34.92600 41.92700
C  -4.86500 34.82700 41.93400
H  -6.46900 42.63700 41.03800
H  -12.39500 44.43900 43.30600
H  -13.61000 38.45500 44.91200
H  -6.02200 37.87600 41.19300
H  -6.06100 40.44800 39.66300
H  -4.40400 41.17700 40.98300
H  -4.30000 39.55900 41.53000
H  -5.29600 40.73000 42.48900
H  -6.72200 38.86500 38.51100
H  -8.08300 37.96000 39.18600
H  -7.20300 36.23300 38.19700
H  -5.96200 36.20600 39.47000
H  -6.77400 44.68600 40.17200
H  -7.04000 45.96500 41.37500
H  -8.14100 45.61700 39.87000
H  -11.84800 46.86000 43.35600
H  -12.36500 45.85200 41.95500
H  -12.01400 47.45400 41.55400
H  -14.54100 43.08900 43.60500
H  -14.18800 40.82000 45.59900
H  -14.76800 42.94000 46.02800
H  -13.97700 44.38100 45.48000
H  -12.94300 43.18800 46.09300
H  -15.07400 39.45700 43.33600
H  -15.54600 40.94800 42.88300
H  -16.59000 40.91000 45.48500
H  -16.51900 39.16500 45.05500
H  -17.54300 40.28800 44.12300
H  -13.39200 35.66300 44.31400
H  -12.54200 35.97100 45.83100
H  -11.91500 34.76500 44.73600
H  -8.27200 35.75000 41.07100
H  -4.57100 34.14300 41.13800
H  -4.43900 34.30500 42.79000
H  -4.35900 35.78600 41.82500

