158

Mg 44.13000 4.33700 47.36900
C  42.13900 7.08400 47.05000
C  41.47100 2.36000 47.04600
C  46.24000 1.73400 46.89800
C  46.82000 6.57800 47.77400
N  42.02300 4.73900 46.88700
C  41.48200 5.91700 46.85900
C  39.94600 5.78200 46.69500
C  39.71000 4.28500 46.96600
C  41.13900 3.76700 46.98300
C  39.03100 3.81700 48.33100
C  39.39100 6.23800 45.32100
C  40.37500 6.36700 44.21400
H  39.95700 6.26400 42.74200
N  43.87900 2.30500 47.09400
C  42.63800 1.71400 46.92200
C  42.90200 0.30800 46.68700
C  44.30500 0.08600 46.69900
C  44.92600 1.38000 46.88500
C  41.76600 -0.70500 46.72700
C  44.95600 -1.24700 46.62500
O  44.40600 -2.28900 46.35900
C  46.48400 -1.34300 46.83000
N  46.22800 4.18600 47.30000
C  46.84000 2.97200 47.21200
C  48.35200 3.16600 47.23700
C  48.52600 4.64300 47.80100
C  47.12500 5.19600 47.62900
C  48.98700 2.13000 48.14600
C  49.67600 5.43300 47.14700
C  51.03400 4.80500 46.73000
N  44.50600 6.39500 47.29600
C  45.57500 7.15800 47.58500
C  45.25800 8.57200 47.71000
C  43.90000 8.57300 47.52700
C  43.51600 7.25600 47.23200
C  46.12900 9.70400 48.18400
C  42.70100 9.49100 47.32600
O  42.63200 10.73600 47.30900
C  41.57000 8.53900 47.03500
C  40.59000 8.72000 48.12000
O  40.81700 8.30000 49.26200
O  39.41900 9.30700 47.70800
C  38.36200 9.23100 48.62700
H  40.54300 1.79900 46.91900
H  46.99700 0.99900 46.61700
H  47.59100 7.31000 48.02300
H  39.45300 6.36100 47.47600
H  39.24000 3.82700 46.09600
H  38.74500 4.81300 48.66900
H  39.75200 3.44800 49.06000
H  38.15200 3.17500 48.28600
H  38.87900 7.19900 45.36200
H  38.63700 5.56200 44.91600
H  41.08100 5.54900 44.35400
H  40.89900 7.32100 44.27600
H  41.91600 -1.44000 45.93600
H  40.76400 -0.27700 46.75600
H  41.84900 -1.09500 47.74100
H  47.05700 -0.89200 46.02000
H  46.76700 -2.39600 46.86200
H  46.64600 -0.88900 47.80700
H  48.69500 3.02200 46.21300
H  48.57400 4.64800 48.89000
H  48.18800 1.48700 48.51700
H  49.45300 2.69700 48.95200
H  49.69500 1.57100 47.53500
H  49.84900 6.28800 47.80000
H  49.27100 5.85200 46.22600
H  51.35500 5.21900 45.77400
H  50.76400 3.77400 46.50500
H  51.93400 5.00100 47.31400
H  46.73800 9.99500 47.32900
H  46.69800 9.43600 49.07400
H  45.52900 10.58000 48.42900
H  41.11400 8.75100 46.06800
H  37.38400 9.03900 48.18500
H  38.26800 10.23200 49.04800
H  38.55400 8.51600 49.42700
Mg 17.45600 51.67600 26.43700
C  19.20100 50.32800 29.15800
C  14.86800 52.61200 28.62400
C  15.59500 52.57500 23.77900
C  19.86100 50.38800 24.33000
N  17.15000 51.49800 28.63100
C  18.03600 51.04000 29.53500
C  17.58800 51.36500 30.99200
C  16.05400 51.71500 30.76800
C  15.98600 51.93700 29.23300
C  15.10900 50.63500 31.15200
C  18.46400 52.44600 31.65300
C  19.06800 52.06500 33.05400
H  18.17400 51.26200 33.99500
N  15.52200 52.52700 26.22200
C  14.59100 52.79700 27.21600
C  13.42700 53.42100 26.60200
C  13.52300 53.28600 25.18600
C  14.88400 52.72200 24.99600
C  12.30200 54.04500 27.43200
C  12.60100 53.86200 24.06000
O  12.84000 53.73600 22.86200
C  11.29300 54.61700 24.46100
N  17.65600 51.41300 24.31200
C  16.82500 52.04400 23.47900
C  17.42500 52.14000 22.13000
C  18.92200 51.73800 22.34500
C  18.87400 51.22600 23.75900
C  16.61900 51.15300 21.12700
C  19.97400 52.90300 22.27200
C  21.09100 52.57500 21.33400
N  19.14700 50.59200 26.67600
C  20.00900 50.09400 25.75000
C  21.08700 49.31500 26.39100
C  20.81700 49.49500 27.75700
C  19.61500 50.17300 27.84000
C  22.08100 48.42700 25.76100
C  21.37800 49.17400 29.05000
O  22.43400 48.61200 29.37600
C  20.30600 49.68000 30.03300
C  19.75700 48.50900 30.81600
O  19.16200 47.57900 30.34800
O  20.12300 48.73900 32.12400
C  19.93400 47.59000 33.01800
H  14.08000 52.83600 29.34600
H  15.18900 53.02800 22.87200
H  20.63600 50.03400 23.64600
H  17.68200 50.48700 31.63100
H  15.82200 52.61800 31.33200
H  14.59800 50.21900 30.28400
H  14.29500 50.91800 31.81900
H  15.58300 49.81000 31.68300
H  17.96800 53.40700 31.79000
H  19.30400 52.72300 31.01600
H  19.30200 52.96600 33.62100
H  20.01000 51.51700 33.02900
H  11.83900 54.94500 27.02600
H  12.61300 54.06400 28.47700
H  11.62800 53.21600 27.64900
H  10.53500 54.74300 23.68800
H  11.54800 55.57400 24.91700
H  10.77300 53.97300 25.17000
H  17.23800 53.18700 21.89000
H  19.16500 50.98600 21.59500
H  15.63100 50.84700 21.47000
H  17.15800 50.22000 20.96700
H  16.51700 51.66500 20.17100
H  20.29600 53.28900 23.23900
H  19.36900 53.68700 21.81700
H  21.97900 52.98200 21.81700
H  21.00400 52.87600 20.29000
H  21.31400 51.50800 21.32800
H  23.02300 48.97300 25.71700
H  21.92700 47.91300 24.81300
H  22.20200 47.56400 26.41600
H  20.74600 50.48100 30.62700
H  19.31100 47.97000 33.82800
H  20.83000 47.18000 33.48300
H  19.35500 46.78500 32.56500

