158

Mg -1.24300 17.94700 27.35300
C  -2.21800 15.80400 30.08100
C  -1.53800 20.63200 29.31900
C  -0.95500 19.70500 24.56300
C  -1.46400 14.85000 25.34200
N  -1.85400 18.15300 29.41400
C  -2.05800 17.21200 30.40300
C  -2.37800 17.80600 31.76900
C  -2.31800 19.32900 31.39800
C  -1.82500 19.39700 29.99200
C  -3.68300 20.16100 31.74700
C  -1.27600 17.53700 32.87300
C  -1.71800 17.10000 34.20400
H  -0.61400 16.48100 35.14300
N  -1.16200 19.85800 27.01800
C  -1.27100 20.88000 27.96700
C  -1.04000 22.19600 27.31300
C  -0.91600 21.94300 25.93100
C  -0.97500 20.47600 25.76800
C  -1.20500 23.57700 27.98500
C  -0.82200 22.90000 24.68700
O  -0.87900 22.44500 23.52000
C  -0.67900 24.37800 24.89300
N  -1.53700 17.35100 25.23300
C  -1.17500 18.29500 24.33200
C  -0.90300 17.62300 22.91500
C  -0.88400 16.11600 23.27500
C  -1.33200 16.06500 24.74300
C  -1.80500 18.05700 21.75600
C  0.41800 15.34600 23.01100
C  1.68600 15.82900 23.77500
N  -1.79100 15.78200 27.59200
C  -1.68500 14.69800 26.73500
C  -2.00100 13.46000 27.40600
C  -2.26200 13.89100 28.73800
C  -2.15500 15.25300 28.80700
C  -2.07400 11.96800 26.81800
C  -2.70500 13.31600 30.03300
O  -3.00700 12.14900 30.34900
C  -2.67000 14.61600 30.91700
C  -1.66300 14.32700 32.01700
O  -0.46000 14.43700 31.82800
O  -2.22200 13.72000 33.10800
C  -1.27100 13.06000 34.08000
H  -1.71300 21.45100 30.02000
H  -0.82000 20.20700 23.60200
H  -1.63300 13.97400 24.71300
H  -3.33800 17.39100 32.07600
H  -1.64700 19.86400 32.07000
H  -3.90800 20.82000 30.90900
H  -3.44000 20.80500 32.59200
H  -4.48500 19.45100 31.95000
H  -0.78600 18.46200 33.17600
H  -0.42900 16.90900 32.59600
H  -2.40700 16.26800 34.05900
H  -2.29400 17.86100 34.73100
H  -1.86600 23.52400 28.85000
H  -1.72100 24.28200 27.33400
H  -0.25600 24.03100 28.27200
H  0.11800 24.38700 25.63600
H  -1.62200 24.77800 25.26500
H  -0.44300 24.84400 23.93600
H  0.07300 18.01000 22.62200
H  -1.64200 15.52400 22.76100
H  -2.86900 17.86400 21.88900
H  -1.61900 17.39100 20.91300
H  -1.57300 19.07900 21.45700
H  0.59600 15.43100 21.93900
H  0.22900 14.27900 23.12000
H  2.12300 14.84700 23.95800
H  1.44700 16.38900 24.67900
H  2.29800 16.35000 23.03800
H  -1.31200 11.35000 27.29300
H  -1.87500 11.99900 25.74700
H  -3.02600 11.53900 27.13000
H  -3.58300 14.77900 31.48900
H  -1.91300 13.07800 34.96100
H  -0.29200 13.49800 34.27600
H  -1.15100 12.02100 33.77500
Mg -4.58400 25.30900 26.06900
C  -3.49400 26.54200 29.12100
C  -6.78300 23.25200 27.71600
C  -5.54800 24.23600 23.01100
C  -2.23600 27.34200 24.46900
N  -5.02300 24.85400 28.27100
C  -4.46900 25.53800 29.30900
C  -5.14700 25.08800 30.67100
C  -6.13300 23.95900 30.14900
C  -5.90800 23.90600 28.65100
C  -6.14600 22.63400 30.95800
C  -5.88600 26.23600 31.38900
C  -5.50100 26.35500 32.86000
H  -4.97700 25.18900 33.69900
N  -5.94400 23.91200 25.50800
C  -6.78800 23.26800 26.29800
C  -7.80600 22.62800 25.48700
C  -7.42500 22.82600 24.09600
C  -6.25400 23.68500 24.18200
C  -9.12200 21.96500 26.06700
C  -8.13700 22.30300 22.85900
O  -7.71800 22.55600 21.73100
C  -9.45100 21.65300 23.01900
N  -3.90400 25.68600 24.06100
C  -4.52500 25.14700 22.91900
C  -3.85800 25.44700 21.56100
C  -2.76600 26.51000 22.09400
C  -2.98800 26.57100 23.66800
C  -3.31300 24.16500 20.72000
C  -2.78000 27.86300 21.27100
C  -1.46000 28.43500 20.63700
N  -3.12800 26.68500 26.65900
C  -2.27000 27.37400 25.88600
C  -1.48700 28.21100 26.72200
C  -1.87000 27.92400 28.03600
C  -2.87000 26.95100 27.96300
C  -0.54200 29.29300 26.24600
C  -1.73500 28.29500 29.40200
O  -1.09500 29.18500 29.93500
C  -2.71500 27.31600 30.17700
C  -1.68800 26.58400 31.03200
O  -1.07500 25.67200 30.54900
O  -1.61200 27.10300 32.29800
C  -0.67400 26.33800 33.19700
H  -7.49400 22.58800 28.21100
H  -5.74400 23.79600 22.03100
H  -1.41200 27.86900 23.98200
H  -4.29000 24.72000 31.23500
H  -7.11800 24.33100 30.43100
H  -5.28400 22.52500 31.61600
H  -6.16000 21.76100 30.30500
H  -7.00800 22.39700 31.58000
H  -6.97600 26.21600 31.37000
H  -5.64300 27.17100 30.88600
H  -6.33300 26.75100 33.44100
H  -4.71400 27.10500 32.77700
H  -9.02200 20.88000 26.05000
H  -10.05600 22.28800 25.60600
H  -9.21800 22.25700 27.11300
H  -9.65100 21.29300 22.01000
H  -10.29000 22.28100 23.31800
H  -9.28600 20.78000 23.65100
H  -4.58800 26.03600 21.00700
H  -1.79200 26.04100 21.95500
H  -4.05200 23.65800 20.09800
H  -2.92700 23.35900 21.34400
H  -2.43100 24.50800 20.18000
H  -3.18100 28.58800 21.97900
H  -3.53400 27.91700 20.48500
H  -1.14700 29.34500 21.14900
H  -1.75000 28.67900 19.61500
H  -0.68900 27.66400 20.62500
H  -1.16400 30.18800 26.28100
H  -0.15900 29.14000 25.23700
H  0.27400 29.31300 26.96900
H  -3.26800 27.99600 30.82600
H  -0.58900 25.29000 32.90800
H  -1.07800 26.41200 34.20700
H  0.29700 26.81900 33.08000

