158

Mg 35.42400 2.49000 29.84600
C  33.35500 3.41000 32.50400
C  38.19200 2.75300 32.01500
C  37.43700 1.73200 27.36100
C  32.67000 2.74700 27.72600
N  35.69800 2.98800 31.96300
C  34.69300 3.15800 32.91100
C  35.24700 3.21000 34.32700
C  36.79100 3.23900 34.14400
C  36.91300 2.90000 32.65000
C  37.46100 4.54100 34.67300
C  34.67300 1.99800 35.14300
C  34.17700 2.24100 36.63700
H  34.80500 3.49100 37.26000
N  37.60900 2.24300 29.63800
C  38.55200 2.41900 30.65900
C  39.86300 2.09900 30.12200
C  39.67300 1.79500 28.77100
C  38.19200 1.95200 28.49900
C  41.18900 2.29500 30.88200
C  40.70100 1.51000 27.66500
O  40.35600 1.08600 26.56600
C  42.24000 1.46700 27.90000
N  35.15000 2.36900 27.90200
C  36.13800 1.99300 26.98100
C  35.60900 1.89500 25.53300
C  34.04900 1.80900 25.77600
C  33.91700 2.39800 27.26800
C  35.98700 3.02000 24.61900
C  33.38500 0.45000 25.52700
C  32.57900 0.29100 24.29500
N  33.37600 3.01200 30.03000
C  32.40800 3.16400 29.05500
C  31.20600 3.69300 29.70500
C  31.45300 3.73200 31.06300
C  32.81900 3.33600 31.17400
C  29.97100 4.01100 28.83500
C  30.88200 4.04700 32.35400
O  29.78600 4.49600 32.58100
C  32.14800 3.71100 33.38100
C  32.15700 4.77400 34.40900
O  32.94800 5.75100 34.31100
O  31.17400 4.57700 35.34800
C  31.07100 5.72200 36.33500
H  39.06000 2.86100 32.66900
H  38.07900 1.71900 26.47800
H  31.78300 2.83600 27.09600
H  34.92600 4.10400 34.86200
H  37.33500 2.47700 34.70000
H  38.50800 4.41000 34.94600
H  36.86900 4.95800 35.48900
H  37.49900 5.35800 33.95300
H  35.48200 1.26800 35.18800
H  33.89800 1.57000 34.50700
H  34.31100 1.34600 37.24400
H  33.09700 2.37900 36.69100
H  41.87100 1.45500 30.74400
H  41.09300 2.22700 31.96500
H  41.74100 3.20500 30.64500
H  42.40900 0.69300 28.64800
H  42.46700 2.48000 28.23200
H  42.63900 1.21600 26.91800
H  35.94900 1.01500 24.98800
H  33.48000 2.50400 25.15900
H  36.33600 2.67700 23.64500
H  36.77700 3.65600 25.01600
H  35.13200 3.68500 24.49200
H  32.83000 0.27200 26.44800
H  34.19200 -0.28300 25.54000
H  32.79400 1.05000 23.54200
H  31.52000 0.27600 24.55300
H  32.74600 -0.67800 23.82700
H  30.13700 4.24100 27.78200
H  29.32900 4.75500 29.30700
H  29.31500 3.14200 28.79700
H  31.88300 2.79500 33.90900
H  30.69900 6.53600 35.71300
H  32.04500 5.96500 36.75900
H  30.28400 5.44800 37.03800
Mg -11.81800 37.91700 42.83100
C  -9.66900 35.32100 41.90200
C  -9.57700 40.15700 41.45200
C  -14.06200 40.42300 43.26600
C  -14.31600 35.52600 43.63300
N  -9.89700 37.76300 41.57500
C  -9.18500 36.57200 41.42300
C  -7.89500 36.86200 40.63900
C  -7.81300 38.41900 40.64100
C  -9.12700 38.82500 41.35600
C  -6.60000 39.11500 41.35300
C  -7.88900 36.17000 39.14000
C  -6.68800 35.31600 38.76300
H  -6.52400 34.81000 37.34700
N  -11.75600 39.95700 42.49900
C  -10.75200 40.69100 41.93500
C  -11.05700 42.00200 41.95100
C  -12.42100 42.15100 42.40000
C  -12.79400 40.78800 42.82400
C  -10.14400 43.12600 41.30500
C  -13.26100 43.42200 42.34300
O  -12.77100 44.42600 41.90300
C  -14.75200 43.52200 42.79800
N  -13.85000 37.88800 43.25000
C  -14.53400 39.11000 43.46900
C  -15.91100 38.86700 44.12700
C  -16.04800 37.32600 44.00700
C  -14.71500 36.88400 43.54100
C  -15.87000 39.41200 45.54700
C  -17.24600 36.82700 43.04100
C  -18.39000 36.09700 43.80800
N  -12.05500 35.89800 42.70200
C  -13.05300 35.07000 43.18100
C  -12.62800 33.68400 43.15400
C  -11.29700 33.78500 42.68700
C  -11.01700 35.10200 42.36900
C  -13.47600 32.45800 43.56800
C  -10.06600 33.00700 42.42000
O  -9.81600 31.79500 42.59900
C  -8.99200 33.95600 41.94500
C  -7.86200 33.89900 42.92900
O  -7.98100 34.20500 44.09600
O  -6.71100 33.52400 42.34600
C  -5.61000 33.25000 43.33600
H  -8.83300 40.89000 41.13300
H  -14.76400 41.17100 43.64100
H  -15.06000 34.80800 43.98500
H  -7.15600 36.47300 41.34000
H  -7.78600 38.72200 39.59400
H  -5.94200 39.28500 40.50000
H  -6.15900 38.32900 41.96700
H  -6.89900 40.00600 41.90300
H  -7.90200 36.99900 38.43300
H  -8.83600 35.66300 38.95500
H  -6.64500 34.39800 39.35000
H  -5.81400 35.80900 39.18700
H  -10.23600 42.90000 40.24300
H  -9.16000 42.96100 41.74400
H  -10.34200 44.18500 41.46600
H  -15.41400 42.73500 42.43600
H  -15.27600 44.34900 42.31900
H  -14.78000 43.51100 43.88700
H  -16.65500 39.33800 43.48400
H  -16.18600 36.95400 45.02300
H  -16.26500 40.42500 45.61900
H  -14.88700 39.15500 45.94400
H  -16.62600 38.85000 46.09500
H  -16.79400 36.06600 42.40600
H  -17.62800 37.64000 42.42300
H  -19.34800 36.60700 43.70400
H  -18.16700 35.96300 44.86600
H  -18.46500 35.10600 43.36000
H  -12.80600 31.61300 43.72300
H  -14.24700 32.12700 42.87200
H  -13.91100 32.70900 44.53500
H  -8.62600 33.84800 40.92400
H  -4.73900 32.89800 42.78400
H  -5.92500 32.49300 44.05500
H  -5.23900 34.07600 43.94300

