158

Mg 37.10600 49.92000 24.50900
C  37.40500 48.38300 27.55800
C  35.56100 52.52300 26.12100
C  36.58500 51.18100 21.47900
C  38.67900 47.08400 22.98200
N  36.65000 50.46400 26.67700
C  36.83700 49.63900 27.71100
C  36.37400 50.35300 29.05800
C  35.77300 51.69100 28.52600
C  36.00600 51.59000 27.04500
C  34.30200 51.91600 28.75400
C  37.64200 50.50500 29.95400
C  37.53000 49.81400 31.35400
H  36.24600 49.86800 32.16100
N  36.16400 51.64700 23.85100
C  35.61200 52.60600 24.66000
C  35.07800 53.67500 23.87100
C  35.33100 53.31000 22.50800
C  35.98100 51.95200 22.51900
C  34.55500 54.96600 24.43300
C  34.97300 54.09400 21.25000
O  35.23100 53.69800 20.09200
C  34.51400 55.56400 21.24300
N  37.44600 49.09400 22.38800
C  37.24700 49.90400 21.36600
C  37.64400 49.18400 20.02700
C  38.55600 48.06500 20.62700
C  38.24200 48.08600 22.12000
C  36.36800 48.79700 19.25800
C  39.99900 48.12800 20.29800
C  40.98700 48.60900 21.38100
N  37.80900 48.12700 25.08800
C  38.46700 47.10200 24.42300
C  38.95500 46.12800 25.32600
C  38.53800 46.56200 26.53500
C  37.90600 47.79900 26.34800
C  39.62100 44.87000 25.13800
C  38.53700 46.15300 27.91200
O  39.01100 45.25900 28.50900
C  37.78800 47.29500 28.60400
C  36.61300 46.72900 29.42200
O  35.42100 46.65800 29.02900
O  37.08900 46.43800 30.66100
C  36.32100 45.56200 31.54800
H  35.01700 53.36200 26.56000
H  36.44200 51.59900 20.48100
H  39.34200 46.28500 22.64300
H  35.64300 49.63200 29.42600
H  36.34900 52.57200 28.80700
H  34.18800 52.78500 29.40200
H  33.91000 51.11200 29.37700
H  33.67200 52.11600 27.88700
H  37.66100 51.56500 30.20800
H  38.50700 50.18200 29.37600
H  38.17700 50.41000 31.99800
H  37.89500 48.79300 31.24300
H  35.03300 55.81700 23.94700
H  34.80700 55.11800 25.48300
H  33.47200 54.92200 24.31700
H  33.43600 55.40300 21.21200
H  34.72600 55.99300 20.26400
H  34.95800 56.20300 22.00500
H  38.20400 49.92500 19.45600
H  38.22600 47.10100 20.23900
H  35.48400 49.06900 19.83400
H  36.34300 47.74400 18.97800
H  36.40800 49.41300 18.36000
H  40.17900 48.63500 19.35000
H  40.32200 47.09300 20.18600
H  41.28400 47.79200 22.03700
H  40.49900 49.34900 22.01600
H  41.81400 49.08900 20.85700
H  40.36400 45.06700 24.36500
H  38.91800 44.07800 24.87600
H  40.17800 44.68200 26.05500
H  38.53100 47.80300 29.21900
H  35.77000 44.80800 30.98700
H  35.54100 46.03600 32.14400
H  37.02200 44.96700 32.13400
Mg 27.68900 50.51600 27.00700
C  25.52200 51.02400 29.63500
C  30.12900 49.72400 29.19300
C  29.56300 50.03400 24.35800
C  25.07700 51.72200 24.78300
N  27.80300 50.30100 29.19200
C  26.79000 50.55400 30.03200
C  27.23600 50.30500 31.44700
C  28.79300 50.15900 31.39600
C  28.92200 49.96000 29.84100
C  29.55700 51.37200 31.96000
C  26.46900 49.22200 32.36800
C  27.03800 49.08400 33.77600
H  26.10200 49.41100 35.00200
N  29.52600 49.80600 26.84100
C  30.38600 49.50100 27.84500
C  31.57700 49.05200 27.25600
C  31.41900 49.10200 25.88300
C  30.12800 49.61200 25.61700
C  32.85100 48.47100 27.95200
C  32.36600 48.69100 24.83300
O  32.16300 48.78800 23.66700
C  33.77300 48.18600 25.22700
N  27.40500 51.11900 24.89800
C  28.31100 50.61800 24.04100
C  27.88300 50.78100 22.54000
C  26.36300 51.17600 22.69300
C  26.27500 51.35100 24.19400
C  28.79400 51.83300 21.83300
C  25.34800 50.11900 22.11300
C  25.36800 48.68400 22.69600
N  25.76700 51.41700 27.12300
C  24.86200 51.72800 26.14900
C  23.60100 52.15000 26.84200
C  23.80200 51.88300 28.25700
C  25.13900 51.41700 28.31000
C  22.45100 52.65200 26.02900
C  23.14800 51.90700 29.58100
O  22.04300 52.34600 29.96300
C  24.35500 51.42200 30.49500
C  24.61000 52.56200 31.43300
O  25.08600 53.62300 30.94300
O  24.21300 52.38500 32.74100
C  24.63700 53.40400 33.68800
H  30.98400 49.47800 29.82800
H  30.22200 50.08200 23.48800
H  24.25400 51.71100 24.06500
H  26.86100 51.22800 31.89000
H  29.05800 49.21800 31.87900
H  30.17200 51.73400 31.13600
H  30.15100 51.14100 32.84400
H  28.95700 52.26100 32.15800
H  26.45200 48.25400 31.86600
H  25.43900 49.57400 32.43400
H  27.84100 49.80000 33.95300
H  27.48600 48.11000 33.97300
H  33.05400 47.40100 27.98700
H  32.72300 48.80700 28.98100
H  33.77600 49.04700 27.89500
H  34.16300 49.03600 25.78800
H  34.41000 48.06400 24.35100
H  33.63000 47.20700 25.68300
H  28.02700 49.88300 21.94000
H  26.17600 52.18000 22.31200
H  29.53000 52.22100 22.53700
H  28.17400 52.65500 21.47600
H  29.25600 51.39200 20.94900
H  25.59100 49.99600 21.05700
H  24.32500 50.47900 22.21500
H  25.99100 48.70200 23.59100
H  25.83300 48.00100 21.98500
H  24.40900 48.29500 23.03900
H  21.56500 52.59800 26.66200
H  22.25300 52.08600 25.11900
H  22.84200 53.65600 25.86000
H  24.02700 50.50700 30.98800
H  24.19400 54.34000 33.34900
H  25.70700 53.59400 33.60300
H  24.40700 53.27800 34.74600

