158

Mg 35.07900 48.29300 25.81500
C  35.10600 46.38800 28.88900
C  33.82400 50.97000 27.67100
C  34.61900 50.02900 22.94900
C  35.54000 45.37200 24.18400
N  34.57800 48.58300 28.01100
C  34.87000 47.79000 29.06500
C  34.82700 48.53900 30.42700
C  33.99400 49.78900 29.96700
C  34.17300 49.85000 28.46700
C  32.50200 49.82200 30.49700
C  36.24000 48.56100 31.18100
C  36.36300 48.09500 32.64500
H  36.34100 49.19400 33.68800
N  34.49400 50.25500 25.37000
C  34.09800 51.18900 26.24300
C  33.81100 52.45400 25.55400
C  34.14000 52.16700 24.20500
C  34.44300 50.71900 24.13500
C  33.34400 53.73700 26.25800
C  34.14900 53.12800 23.00900
O  34.70300 52.84900 21.93500
C  33.63000 54.49400 23.09500
N  35.17800 47.78300 23.80800
C  34.91900 48.67800 22.75900
C  34.89700 47.93300 21.41400
C  35.46700 46.50000 21.85500
C  35.32800 46.52200 23.37300
C  33.57400 47.93200 20.68900
C  36.86600 46.14700 21.40100
C  37.05700 44.89300 20.49900
N  35.25000 46.21800 26.33400
C  35.51400 45.13000 25.55400
C  35.74800 43.91100 26.40600
C  35.61500 44.44400 27.73600
C  35.22800 45.76300 27.63300
C  36.10700 42.53400 25.97800
C  35.66700 44.11200 29.09800
O  36.10100 43.07500 29.57800
C  35.51500 45.38500 29.92100
C  34.45800 45.03200 30.96200
O  33.39400 44.45000 30.72700
O  34.97500 45.22700 32.20500
C  34.18500 44.87400 33.40900
H  33.35600 51.80000 28.20500
H  34.31200 50.52500 22.02500
H  35.72800 44.43200 23.66100
H  34.16600 47.94100 31.05400
H  34.36400 50.73000 30.37400
H  32.45000 50.51900 31.33400
H  32.29100 48.83700 30.91400
H  31.76300 50.05200 29.72900
H  36.51200 49.61600 31.22100
H  36.98400 47.94700 30.67300
H  37.22400 47.42700 32.64000
H  35.52300 47.46400 32.93900
H  34.03000 54.48700 25.86300
H  33.44700 53.85200 27.33700
H  32.31300 53.94500 25.97400
H  32.70400 54.45400 23.66900
H  33.54700 54.73700 22.03500
H  34.47400 54.99700 23.56700
H  35.65800 48.46200 20.84000
H  34.69900 45.77600 21.58600
H  32.80100 48.33400 21.34500
H  33.16900 46.97700 20.35400
H  33.60000 48.52600 19.77600
H  37.47400 45.83500 22.25000
H  37.42800 46.96100 20.94400
H  37.78300 44.20600 20.93500
H  37.41600 45.23400 19.52900
H  36.04400 44.50100 20.41200
H  35.21600 41.91400 26.08400
H  36.94800 42.13200 26.54300
H  36.47100 42.61600 24.95400
H  36.54300 45.50800 30.26300
H  33.20900 45.35000 33.50300
H  34.68200 45.22800 34.31200
H  34.05000 43.79200 33.37400
Mg -2.36000 35.31700 26.19600
C  -4.08900 33.72700 28.83000
C  -1.12200 37.48400 28.43000
C  -0.95200 36.78300 23.66800
C  -4.06400 33.05200 24.03000
N  -2.69900 35.67200 28.38700
C  -3.29500 34.84100 29.24700
C  -2.99900 35.24400 30.67500
C  -2.15400 36.58100 30.51100
C  -1.97000 36.62600 29.03700
C  -2.63200 37.90700 31.12400
C  -2.39700 34.16900 31.61500
C  -2.10300 34.61200 33.03900
H  -2.52100 33.87700 34.30100
N  -1.11700 36.93800 26.03000
C  -0.63000 37.67300 27.09500
C  0.24900 38.80400 26.52100
C  0.24100 38.57700 25.09500
C  -0.65100 37.37600 24.83000
C  0.90300 39.83000 27.37500
C  1.03700 39.37700 23.95100
O  1.07800 38.98000 22.77800
C  2.02900 40.31700 24.41000
N  -2.50900 34.96400 24.13800
C  -1.70700 35.67800 23.27000
C  -1.87700 35.27500 21.76000
C  -2.78500 34.04000 21.97300
C  -3.24200 34.03400 23.43100
C  -2.42500 36.27700 20.73000
C  -1.94600 32.75400 21.60100
C  -1.08200 32.14200 22.72600
N  -3.79600 33.73100 26.35200
C  -4.31100 32.87500 25.35900
C  -5.19800 31.92600 25.99600
C  -5.07500 32.18800 27.38600
C  -4.27000 33.27900 27.52200
C  -5.97400 30.83400 25.31000
C  -5.58300 31.78500 28.67800
O  -6.33000 30.86400 29.00500
C  -4.91700 32.78700 29.64800
C  -6.02200 33.40400 30.45000
O  -6.96900 33.93200 30.00600
O  -5.86100 33.07400 31.76300
C  -7.00200 33.27300 32.65600
H  -0.57700 38.05900 29.18100
H  -0.45600 37.15200 22.76800
H  -4.50400 32.26900 23.41000
H  -3.96600 35.56100 31.06400
H  -1.14500 36.46800 30.90800
H  -1.81200 38.27500 31.74100
H  -3.54300 37.66300 31.67100
H  -2.70700 38.61900 30.30300
H  -1.47800 33.78000 31.17700
H  -3.11600 33.35200 31.66900
H  -2.29900 35.68200 33.09300
H  -1.02700 34.49200 33.16500
H  0.47500 40.82300 27.23900
H  1.96000 39.92200 27.12400
H  0.78900 39.58100 28.43000
H  2.62100 40.84800 23.66500
H  2.74400 39.70000 24.95400
H  1.62500 41.01800 25.14000
H  -0.90000 34.99900 21.36300
H  -3.61500 33.94500 21.27400
H  -3.07300 36.93800 21.30600
H  -2.86700 35.66100 19.94700
H  -1.57000 36.80800 20.31200
H  -1.16800 33.00200 20.87900
H  -2.58800 31.93900 21.26600
H  -1.51900 31.21300 23.09400
H  -1.05200 32.75400 23.62700
H  -0.09700 31.94000 22.30500
H  -5.64300 30.72000 24.27800
H  -7.04300 31.04000 25.35900
H  -5.80100 29.93700 25.90600
H  -4.41100 32.21300 30.42500
H  -6.51200 33.91800 33.38500
H  -7.38700 32.35000 33.09000
H  -7.78500 33.92400 32.26800

