158

Mg 26.14500 51.42500 26.35300
C  23.79800 52.40000 28.88500
C  28.40500 50.98200 28.85200
C  28.47800 51.13200 23.88000
C  23.73100 52.29000 24.00400
N  26.11900 51.72200 28.66900
C  24.94200 51.90800 29.47700
C  25.17600 51.54200 30.92300
C  26.75600 51.09200 30.90000
C  27.12500 51.25200 29.42700
C  27.77900 51.88500 31.88900
C  24.24700 50.46300 31.43900
C  23.76800 50.70300 32.90900
H  24.64300 50.17700 34.11200
N  28.16300 51.10500 26.37200
C  28.95000 50.88100 27.52100
C  30.21600 50.47500 27.11800
C  30.31800 50.62700 25.73600
C  28.91800 50.85900 25.25500
C  31.37900 50.10300 28.01000
C  31.56600 50.52300 24.79000
O  31.56600 50.89500 23.62900
C  32.83000 49.96700 25.26500
N  26.13900 51.78100 24.19900
C  27.18900 51.43500 23.36400
C  26.75600 51.63300 21.89800
C  25.19500 51.63100 21.99600
C  24.98100 51.94300 23.49500
C  27.34100 52.77200 21.13700
C  24.48700 50.31400 21.57600
C  24.76500 48.97200 22.31500
N  24.14200 52.13500 26.40200
C  23.26300 52.39400 25.33400
C  22.02100 52.83100 25.80900
C  22.15700 52.91300 27.18700
C  23.49000 52.44900 27.48900
C  20.84300 53.24900 25.04600
C  21.48800 53.23500 28.42900
O  20.31000 53.61700 28.66400
C  22.48500 52.89300 29.58000
C  22.75300 54.13600 30.38500
O  23.22600 55.16500 29.96600
O  22.34400 53.88800 31.64800
C  22.54900 54.91800 32.67000
H  29.22200 50.77900 29.54700
H  29.21600 51.05300 23.07900
H  22.95800 52.27900 23.23300
H  25.06900 52.47200 31.48200
H  26.90000 50.03200 31.11200
H  28.69000 52.25700 31.42000
H  27.98500 51.23200 32.73700
H  27.30300 52.68500 32.45600
H  24.82400 49.53800 31.42400
H  23.39700 50.31500 30.77300
H  22.82900 50.15600 32.99400
H  23.55300 51.75400 33.10100
H  31.51800 49.02300 27.98200
H  31.23800 50.25800 29.08000
H  32.19000 50.78500 27.75400
H  32.58700 49.13600 25.92700
H  33.45000 50.68100 25.80600
H  33.46800 49.52400 24.50000
H  26.99000 50.70100 21.38400
H  24.86600 52.51800 21.45600
H  27.66600 53.50200 21.87800
H  26.67700 53.29400 20.44800
H  28.25700 52.50200 20.61000
H  24.93900 50.03900 20.62300
H  23.47300 50.56600 21.26500
H  25.05700 48.19100 21.61300
H  23.86200 48.58900 22.79000
H  25.50900 49.03300 23.10900
H  19.84900 52.93400 25.36100
H  21.00600 53.15100 23.97300
H  20.66500 54.29800 25.28400
H  22.01900 52.17800 30.25800
H  23.11400 54.47900 33.49100
H  21.58400 55.17800 33.10400
H  23.07800 55.83700 32.41400
Mg 6.95500 57.12700 42.11300
C  6.12000 53.65300 42.30600
C  10.09500 56.11400 41.12700
C  7.60400 60.24900 41.64900
C  3.65400 57.77400 43.30300
N  7.99900 55.09400 41.72000
C  7.38700 53.85900 41.78600
C  8.42800 52.77000 41.41200
C  9.69500 53.47600 41.56900
C  9.30700 54.96700 41.49800
C  10.38500 53.23000 43.00300
C  8.40400 52.18500 39.97300
C  8.14900 53.15700 38.81800
H  7.07000 52.88000 37.67200
N  8.63500 58.10200 41.38600
C  9.83000 57.48000 40.97100
C  10.68100 58.50400 40.45100
C  10.03000 59.76600 40.57000
C  8.69600 59.41900 41.22800
C  12.02900 58.24300 39.77800
C  10.45600 61.11400 40.14200
O  11.60800 61.36700 39.81100
C  9.57300 62.26700 40.21900
N  5.75700 58.77200 42.29300
C  6.33100 59.96900 42.17700
C  5.43400 61.08100 42.68800
C  4.18900 60.29300 43.32600
C  4.57500 58.79300 43.01900
C  6.04800 62.01300 43.83900
C  2.81900 60.57400 42.59100
C  1.70200 60.77100 43.66200
N  5.18100 56.04000 42.57300
C  3.95200 56.38900 43.06800
C  3.12800 55.24800 43.50900
C  3.92400 54.12400 43.14000
C  5.14100 54.62200 42.64300
C  1.84800 55.25200 44.21100
C  3.87200 52.78800 43.07400
O  3.00300 51.97900 43.32300
C  5.35000 52.31800 42.46800
C  5.05700 51.64400 41.15600
O  5.24000 52.14400 40.08500
O  4.73900 50.34200 41.33300
C  4.88700 49.40100 40.19600
H  11.07600 55.77000 40.79300
H  7.70200 61.33600 41.62500
H  2.75000 58.00000 43.87100
H  8.29400 51.95100 42.11800
H  10.45600 53.35900 40.79800
H  11.35400 52.73700 42.93400
H  9.76200 52.61700 43.65500
H  10.47400 54.20800 43.47800
H  7.69100 51.36100 39.93600
H  9.37400 51.78800 39.67500
H  9.07700 53.29800 38.26300
H  7.85700 54.10900 39.26000
H  12.17800 58.70100 38.80000
H  12.15500 57.17100 39.62100
H  12.80500 58.44300 40.51700
H  9.34400 62.64600 41.21500
H  8.62000 62.04900 39.73600
H  10.06100 63.07600 39.67500
H  5.16300 61.58200 41.75800
H  4.18800 60.31900 44.41600
H  5.56500 61.96500 44.81500
H  5.91900 63.02200 43.44800
H  7.10900 61.77300 43.90500
H  2.53800 59.88500 41.79500
H  2.86700 61.50000 42.01800
H  1.97200 60.54300 44.69300
H  0.88900 60.10800 43.36700
H  1.41000 61.82100 43.63700
H  1.58400 56.21300 44.65100
H  1.68600 54.45700 44.93800
H  1.08000 55.08900 43.45400
H  5.82600 51.69700 43.22700
H  4.14700 49.59600 39.42000
H  4.73200 48.35800 40.47200
H  5.89800 49.51100 39.80300

