158

Mg 48.76600 35.85300 28.22400
C  46.59600 34.33900 30.30000
C  48.77300 38.69800 30.26500
C  50.61800 37.54200 25.89100
C  48.48400 33.15400 26.01100
N  47.83800 36.37800 30.02100
C  47.19800 35.50500 30.79800
C  47.13800 35.91000 32.27400
C  47.24900 37.47900 32.12000
C  47.97700 37.57700 30.68700
C  46.04200 38.38500 32.17100
C  48.16300 35.15200 33.11800
C  49.49000 35.85200 33.63600
H  49.79200 35.86400 35.16200
N  49.64000 37.87700 28.12800
C  49.44900 38.89400 29.02800
C  50.22300 40.07900 28.63900
C  50.81600 39.72100 27.39500
C  50.39300 38.32200 27.12600
C  50.21500 41.33700 29.41200
C  51.65200 40.60200 26.37100
O  52.07200 40.19000 25.34200
C  51.82900 42.03800 26.71400
N  49.46000 35.44300 26.24100
C  50.20200 36.30100 25.51000
C  50.55200 35.69600 24.07500
C  49.97000 34.20100 24.17200
C  49.26400 34.27000 25.55300
C  50.28300 36.61600 22.81600
C  50.96500 32.97400 23.92900
C  50.52400 31.80500 23.12400
N  47.70900 34.13200 28.10500
C  47.71200 33.10800 27.18300
C  46.79400 32.03500 27.60000
C  46.25800 32.52100 28.78700
C  46.86500 33.78100 29.02400
C  46.46500 30.66200 26.98300
C  45.32800 32.24000 29.91000
O  44.56600 31.30600 30.12200
C  45.59000 33.43700 30.95500
C  45.80100 32.82500 32.31100
O  46.66400 31.94000 32.50800
O  44.87100 33.27300 33.27200
C  44.94200 32.74100 34.60000
H  48.87700 39.47300 31.02700
H  51.25400 37.96400 25.11000
H  48.48600 32.26200 25.38000
H  46.20500 35.55500 32.71200
H  47.91100 37.96500 32.83700
H  45.93800 38.72200 33.20300
H  45.19300 37.75300 31.91300
H  46.13500 39.23200 31.49100
H  48.51700 34.26100 32.59900
H  47.57100 34.88400 33.99400
H  49.68100 36.86400 33.27900
H  50.22300 35.14200 33.25300
H  51.11500 41.50600 30.00200
H  49.44300 41.21500 30.17200
H  50.03000 42.22300 28.80400
H  52.40100 42.58500 25.96400
H  52.38000 42.09900 27.65200
H  50.85700 42.47500 26.94500
H  51.63000 35.55100 24.14100
H  49.10100 34.00200 23.54400
H  49.77000 37.51800 23.15000
H  49.65900 36.10400 22.08300
H  51.25600 36.95900 22.46600
H  51.08700 32.53300 24.91800
H  51.89900 33.39600 23.55600
H  49.49600 31.98900 22.81000
H  50.56000 30.90200 23.73400
H  51.25600 31.86900 22.32000
H  47.33800 30.34500 26.41300
H  45.52500 30.69800 26.43400
H  46.42900 29.95300 27.81000
H  44.61000 33.90700 31.03500
H  45.92100 33.05100 34.96700
H  45.11800 31.66900 34.69400
H  44.02400 33.04200 35.10400
Mg 42.70700 42.28300 26.19200
C  41.73100 44.45600 28.75200
C  43.89600 40.21200 28.71800
C  43.83900 40.15600 23.78400
C  42.13000 44.76900 23.86600
N  42.60900 42.22300 28.47800
C  42.19400 43.26200 29.25900
C  42.22600 42.84400 30.75000
C  42.92100 41.46400 30.69800
C  43.12200 41.25400 29.17000
C  44.07900 41.08200 31.75600
C  40.84900 42.87800 31.46900
C  40.89600 43.66800 32.80900
H  40.08600 43.08900 33.92300
N  43.59400 40.43300 26.20800
C  44.13000 39.82600 27.33400
C  44.78600 38.60300 26.87600
C  44.78100 38.53800 25.46100
C  44.05200 39.78200 25.05600
C  45.26300 37.54000 27.90300
C  45.34000 37.47500 24.55600
O  45.24800 37.53400 23.36000
C  46.06700 36.25500 25.18400
N  42.90600 42.41600 24.11400
C  43.27100 41.40700 23.31200
C  43.23000 41.76000 21.85000
C  42.50300 43.18100 21.91600
C  42.49700 43.49300 23.41400
C  44.58100 41.75300 21.13900
C  41.12600 43.11700 21.39100
C  40.23700 41.97100 21.98100
N  42.13100 44.23700 26.26000
C  41.87900 45.07500 25.22200
C  41.45200 46.34100 25.68300
C  41.32200 46.21500 27.12100
C  41.73900 44.86100 27.40300
C  41.33600 47.53300 24.82700
C  41.00900 46.89800 28.42200
O  40.65300 48.05200 28.70300
C  41.38400 45.76500 29.52200
C  42.49900 46.29400 30.31400
O  43.71400 46.10200 30.19600
O  41.95200 47.03600 31.31700
C  42.78100 47.61100 32.30100
H  44.38000 39.63900 29.51100
H  44.14400 39.48000 22.98300
H  41.98800 45.50900 23.07600
H  42.84600 43.64700 31.14700
H  42.17400 40.69500 30.89200
H  43.85100 41.77700 32.56400
H  45.07600 41.14500 31.31800
H  43.97000 40.04700 32.07900
H  40.58000 41.86600 31.77400
H  40.04000 43.25700 30.84400
H  40.52400 44.67400 32.61400
H  41.90600 43.81900 33.19100
H  44.74900 36.63400 27.58100
H  44.94000 37.77600 28.91700
H  46.34600 37.42800 27.96100
H  45.26100 35.77600 25.73900
H  46.79000 36.68600 25.87800
H  46.42900 35.63700 24.36300
H  42.64300 40.95500 21.40800
H  43.05400 43.85800 21.26300
H  45.33900 41.89500 21.90900
H  44.57100 42.54900 20.39500
H  44.77800 40.83400 20.58700
H  41.19800 42.84400 20.33900
H  40.60800 44.07500 21.43100
H  39.96200 41.28600 21.17900
H  39.28000 42.32400 22.36500
H  40.78900 41.37000 22.70300
H  40.43700 47.59500 24.21300
H  42.30100 47.58700 24.32400
H  41.23100 48.40300 25.47500
H  40.50100 45.69000 30.15600
H  43.09400 48.60500 31.98400
H  43.62200 46.97700 32.58000
H  42.19900 47.76200 33.21000

