158

Mg -2.38000 17.15800 26.24700
C  -2.75400 15.12900 29.15900
C  -2.72500 19.88300 28.15100
C  -2.70500 19.16300 23.39500
C  -2.51600 14.28000 24.24600
N  -2.65700 17.41300 28.37900
C  -2.70400 16.52200 29.42000
C  -2.89400 17.18600 30.80800
C  -2.85800 18.68600 30.35600
C  -2.69100 18.67700 28.87100
C  -4.05600 19.46600 31.02200
C  -1.87700 16.77700 31.89600
C  -1.74800 17.85900 32.97100
H  -1.26200 17.27000 34.31100
N  -2.55900 19.29500 25.90100
C  -2.71700 20.21700 26.84100
C  -2.79900 21.55700 26.27000
C  -2.75800 21.37200 24.88800
C  -2.64700 19.89500 24.67400
C  -2.83300 22.77200 27.09200
C  -2.80500 22.39500 23.74600
O  -2.67800 21.96300 22.55300
C  -2.90100 23.88300 23.96600
N  -2.67700 16.75200 24.14400
C  -2.65300 17.77400 23.17400
C  -2.59200 17.12800 21.70100
C  -2.43700 15.61000 22.05000
C  -2.54000 15.51000 23.58800
C  -3.71800 17.48200 20.73500
C  -1.11200 14.92500 21.45100
C  -1.26000 14.01800 20.22100
N  -2.48100 15.06500 26.57200
C  -2.58600 14.03700 25.67000
C  -2.68200 12.81000 26.43300
C  -2.85600 13.18300 27.76500
C  -2.65800 14.58400 27.82900
C  -2.73400 11.38300 25.83500
C  -3.03700 12.74200 29.17700
O  -3.02800 11.62100 29.64000
C  -2.99300 13.99600 30.08400
C  -1.89800 13.75700 31.03600
O  -0.75700 14.12000 30.83100
O  -2.32000 13.16100 32.17300
C  -1.37500 13.01000 33.26000
H  -2.79600 20.75600 28.80200
H  -2.95600 19.72700 22.49400
H  -2.48200 13.37600 23.63500
H  -3.94900 16.99400 31.00700
H  -1.94800 19.17400 30.70600
H  -4.56800 20.18600 30.38300
H  -3.68200 20.04400 31.86700
H  -4.82600 18.84100 31.47400
H  -0.94900 16.49500 31.39800
H  -2.30200 15.92700 32.42900
H  -2.65100 18.45800 33.08900
H  -0.95400 18.46000 32.52700
H  -2.14900 22.58700 27.92100
H  -3.82400 22.85800 27.53900
H  -2.49400 23.63600 26.52100
H  -3.66700 23.98900 24.73400
H  -3.05600 24.42400 23.03300
H  -1.99900 24.33700 24.37700
H  -1.68600 17.46000 21.19300
H  -3.37400 15.09500 21.83800
H  -4.10200 16.61100 20.20500
H  -3.47300 18.24100 19.99200
H  -4.55900 17.90400 21.28600
H  -0.94100 14.15800 22.20700
H  -0.34100 15.66700 21.24400
H  -1.10000 14.64800 19.34600
H  -2.25600 13.57600 20.19800
H  -0.43700 13.30400 20.20900
H  -1.77300 10.91600 26.04900
H  -2.91900 11.36200 24.76100
H  -3.63100 11.01000 26.32900
H  -3.91800 14.13400 30.64400
H  -1.55300 12.00500 33.64400
H  -1.53100 13.71300 34.07900
H  -0.35800 13.01800 32.87000
Mg 27.17800 50.63600 26.26800
C  25.16000 51.53600 29.05100
C  29.42000 49.29600 28.45300
C  29.13000 49.66800 23.56400
C  24.82300 51.99000 24.21800
N  27.34500 50.57700 28.58000
C  26.36700 50.82000 29.51700
C  26.88800 50.63600 30.94600
C  28.25400 49.98300 30.69700
C  28.35600 49.89300 29.14800
C  29.54300 50.69300 31.30900
C  25.89800 49.81400 31.79800
C  25.40900 50.52600 33.00800
H  24.89100 49.75400 34.24400
N  28.99800 49.55100 26.00100
C  29.80300 49.18300 27.06000
C  31.08900 48.71700 26.47800
C  30.85600 48.65600 25.08000
C  29.59600 49.31100 24.79700
C  32.18600 48.09500 27.38200
C  31.89600 48.12800 24.05500
O  31.67500 47.99100 22.86100
C  33.31600 47.80300 24.53000
N  27.11000 50.98900 24.16800
C  27.94800 50.41900 23.28300
C  27.55700 50.89200 21.87600
C  26.14100 51.45500 22.07500
C  25.99100 51.48500 23.55900
C  28.60700 51.75700 21.14100
C  24.93000 50.67300 21.37000
C  24.05400 49.66600 22.12500
N  25.38400 51.70100 26.51600
C  24.54700 52.20000 25.60600
C  23.29300 52.64000 26.22900
C  23.49800 52.51500 27.63500
C  24.82900 51.95400 27.69700
C  22.03800 53.13000 25.53000
C  23.02900 52.73300 28.95400
O  21.94300 53.16200 29.33400
C  24.03000 52.17800 29.91100
C  24.59100 53.23500 30.80800
O  25.64700 53.79600 30.67400
O  23.64400 53.55300 31.76700
C  23.98400 54.68300 32.60100
H  30.16400 48.91100 29.15400
H  29.62000 49.40500 22.62500
H  24.12800 52.51200 23.55800
H  26.99100 51.61400 31.41600
H  28.18700 48.94800 31.03300
H  29.14000 51.33600 32.09100
H  29.91100 51.35800 30.52600
H  30.26300 49.96900 31.69000
H  26.25800 48.84500 32.14400
H  25.10800 49.51200 31.11000
H  24.58000 51.14800 32.67200
H  26.12300 51.16000 33.53300
H  32.21800 47.00500 27.36300
H  32.02100 48.33900 28.43200
H  33.18600 48.48100 27.18500
H  33.79700 48.76100 24.73000
H  33.71100 47.31200 23.64100
H  33.29600 47.03800 25.30500
H  27.43500 49.97800 21.29600
H  26.15900 52.48800 21.72700
H  29.55900 51.72600 21.67100
H  28.18600 52.73900 20.92600
H  28.88000 51.34000 20.17200
H  25.34000 50.19100 20.48300
H  24.31400 51.46000 20.93500
H  23.99600 48.78700 21.48300
H  23.06000 50.04500 22.36300
H  24.46600 49.41000 23.10100
H  21.14400 52.73700 26.01500
H  21.98000 52.72200 24.52100
H  22.05700 54.21700 25.46400
H  23.53400 51.41500 30.51100
H  23.16600 55.04700 33.22300
H  24.39600 55.50800 32.01900
H  24.76400 54.35400 33.28800

