158

Mg 34.59700 3.23500 29.85200
C  32.29200 3.68400 32.35900
C  37.15800 3.35500 32.06700
C  36.70100 2.49300 27.25200
C  31.90000 3.38300 27.52700
N  34.65500 3.44600 31.96900
C  33.61000 3.58200 32.83300
C  34.15200 3.43900 34.23200
C  35.68900 3.52000 34.10300
C  35.86400 3.50700 32.60400
C  36.39900 4.60500 35.04600
C  33.52400 2.27300 35.09400
C  33.19100 2.43200 36.63400
H  33.95800 3.53400 37.35900
N  36.63500 3.01100 29.69200
C  37.55700 3.08000 30.73100
C  38.96300 2.83200 30.21700
C  38.78300 2.52200 28.84600
C  37.31400 2.60600 28.52000
C  40.21400 3.05600 31.17500
C  39.85600 2.16700 27.90300
O  39.65100 1.96800 26.66400
C  41.23100 2.15900 28.34600
N  34.37700 2.80500 27.69100
C  35.35200 2.60300 26.83200
C  34.82400 2.87700 25.38800
C  33.31900 2.87800 25.53100
C  33.13600 3.06700 27.05300
C  35.38100 4.13900 24.75600
C  32.40900 1.84900 24.75700
C  32.43100 0.43300 25.28000
N  32.56100 3.49200 29.79800
C  31.59100 3.59100 28.80700
C  30.26700 3.87700 29.48000
C  30.57100 3.88500 30.80500
C  31.89900 3.61700 30.98700
C  28.93600 4.00800 28.69100
C  29.90600 4.09100 32.16200
O  28.70600 4.29200 32.43000
C  31.01000 3.87600 33.15700
C  30.96000 5.10800 34.07400
O  31.59400 6.13900 33.93800
O  30.25700 4.79800 35.19500
C  30.39300 5.79200 36.27000
H  37.91700 3.18800 32.83400
H  37.32000 2.45300 26.35400
H  31.02400 3.50800 26.88700
H  33.88500 4.34500 34.77600
H  36.01300 2.49300 34.26900
H  36.72400 5.41700 34.39600
H  37.21100 4.07200 35.54200
H  35.67100 5.00500 35.75100
H  34.17600 1.40000 35.08700
H  32.52500 2.00900 34.74700
H  33.35800 1.47800 37.13500
H  32.11500 2.61100 36.64400
H  40.57300 4.06600 30.97800
H  41.12200 2.50800 30.92200
H  40.01200 3.07800 32.24600
H  41.92000 1.98700 27.51900
H  41.25600 1.22100 28.90100
H  41.67700 2.93800 28.96300
H  35.16100 2.03700 24.78000
H  32.92800 3.82300 25.15500
H  36.01900 4.58800 25.51700
H  34.65400 4.86100 24.38300
H  35.91200 3.85300 23.84700
H  32.71000 1.92000 23.71200
H  31.39100 2.23500 24.80400
H  31.43900 -0.01100 25.19900
H  32.77600 0.37300 26.31200
H  33.15800 -0.09500 24.66300
H  28.21300 3.27800 29.05200
H  29.14600 3.73900 27.65500
H  28.68000 5.06800 28.68900
H  30.68600 2.99600 33.71200
H  29.73600 6.63800 36.06700
H  31.33800 6.23600 36.58200
H  29.88300 5.31300 37.10600
Mg 9.96900 47.78400 26.05000
C  8.20900 47.67400 28.88500
C  12.48400 49.30700 27.76400
C  11.85000 47.74500 23.21100
C  7.30800 46.49300 24.27500
N  10.17000 48.46600 28.04200
C  9.42500 48.21800 29.09200
C  9.92800 48.77200 30.38700
C  11.06500 49.65200 29.87600
C  11.29200 49.08000 28.45000
C  10.82000 51.21100 29.86200
C  10.36700 47.74500 31.49500
C  9.79100 47.72400 32.90900
H  9.77200 46.36800 33.65100
N  11.89500 48.37500 25.55700
C  12.83500 48.85600 26.42500
C  14.07600 48.94500 25.77000
C  13.98000 48.35700 24.45300
C  12.53000 48.13400 24.34700
C  15.38900 49.46800 26.43900
C  15.03300 48.06300 23.28000
O  14.71700 47.74600 22.15100
C  16.45900 48.29400 23.51900
N  9.50400 47.59600 23.96100
C  10.47300 47.46800 23.04700
C  9.94100 47.28400 21.59700
C  8.59600 46.51200 21.93400
C  8.42500 46.82700 23.47700
C  9.77800 48.61500 20.87600
C  8.75400 45.06500 21.50200
C  9.94200 44.34500 22.21100
N  8.07700 47.33700 26.44200
C  7.09400 46.82300 25.64000
C  5.87400 46.66000 26.29700
C  6.24400 46.93300 27.65500
C  7.60300 47.30300 27.65400
C  4.51400 46.24800 25.84400
C  5.79500 47.05300 29.03100
O  4.67100 46.94500 29.53400
C  7.11400 47.35000 29.89200
C  7.39800 46.06100 30.59600
O  8.12600 45.19000 30.16500
O  6.75600 46.01200 31.83700
C  6.89500 44.77300 32.57000
H  13.21500 49.81200 28.39800
H  12.42000 47.69900 22.28100
H  6.50800 45.99800 23.72000
H  9.13700 49.39200 30.81000
H  12.00200 49.44700 30.39300
H  9.89000 51.39600 30.40000
H  10.76900 51.61000 28.84900
H  11.64400 51.72200 30.36000
H  11.45300 47.76200 31.58300
H  10.17000 46.82300 30.94700
H  8.83600 48.25000 32.92700
H  10.48800 48.32200 33.49600
H  15.10600 49.67500 27.47100
H  15.85200 50.31200 25.92800
H  16.11100 48.65200 26.47900
H  17.07100 48.36900 22.62000
H  16.85400 47.54200 24.20200
H  16.47900 49.26800 24.00800
H  10.60300 46.68800 20.97000
H  7.68800 46.93300 21.50100
H  10.29700 49.36700 21.47000
H  8.76000 48.96600 20.70600
H  10.22900 48.52100 19.88800
H  8.98900 45.00300 20.43900
H  7.81900 44.56500 21.75500
H  10.42100 43.62300 21.55000
H  9.50100 43.79200 23.04000
H  10.75000 44.97900 22.57700
H  3.73900 46.76000 26.41400
H  4.37100 45.18100 26.02000
H  4.38000 46.50400 24.79300
H  6.89200 48.14400 30.60600
H  7.01600 45.04100 33.61900
H  7.67000 44.08400 32.23200
H  5.92700 44.32000 32.35500

