158

Mg 50.54500 44.94200 42.59700
C  47.43300 46.44600 41.79300
C  49.54500 41.99400 41.04900
C  53.66900 43.89800 42.89900
C  51.58100 48.21900 43.78600
N  48.73400 44.35500 41.56400
C  47.54300 45.07400 41.36400
C  46.50700 44.17500 40.76000
C  47.19000 42.76600 40.80000
C  48.62300 43.05900 41.07100
C  46.52400 41.87400 41.96400
C  46.14200 44.66300 39.30900
C  44.57100 44.59000 39.01300
H  44.03000 43.53100 37.99800
N  51.47800 43.13600 42.12800
C  50.88100 42.01800 41.55600
C  51.87800 41.00900 41.53100
C  53.05000 41.52500 42.15000
C  52.80500 42.91800 42.40000
C  51.62400 39.61200 40.85300
C  54.32600 40.72300 42.50200
O  54.27300 39.53900 42.22000
C  55.65600 41.27200 42.89200
N  52.36500 45.97000 43.23300
C  53.53200 45.23100 43.30000
C  54.65600 46.18100 43.76700
C  53.96300 47.55200 44.02700
C  52.56000 47.24000 43.71800
C  55.54400 45.59200 44.91900
C  54.53100 48.71800 43.12500
C  56.01600 49.09700 43.33300
N  49.66400 46.90500 42.93500
C  50.24200 48.06400 43.35500
C  49.19700 49.06900 43.31000
C  48.11600 48.47700 42.71500
C  48.43500 47.15300 42.43500
C  49.28400 50.46900 43.77600
C  46.82500 48.73300 42.10600
O  46.15500 49.73900 42.19200
C  46.33900 47.39700 41.48200
C  45.08700 47.01300 42.14100
O  45.03400 46.70100 43.32500
O  44.03500 47.17100 41.25000
C  42.66800 47.14300 41.86300
H  49.13900 41.07000 40.63400
H  54.66800 43.56800 43.19200
H  51.86700 49.23800 44.05300
H  45.61500 44.14700 41.38700
H  47.14500 42.21100 39.86300
H  45.47300 41.79800 41.68400
H  46.67800 42.36800 42.92300
H  47.03400 40.91100 41.96800
H  46.67600 44.06500 38.57100
H  46.51000 45.68900 39.29000
H  44.30000 45.53600 38.54400
H  43.97900 44.68300 39.92400
H  52.48100 38.99800 40.57700
H  51.15300 39.71200 39.87600
H  51.05000 38.92600 41.47600
H  55.68900 41.73100 43.88000
H  55.86600 42.03300 42.14000
H  56.27600 40.39000 42.73200
H  55.22400 46.33300 42.84900
H  54.11600 47.69900 45.09600
H  55.86300 46.30600 45.67700
H  56.49400 45.31900 44.46100
H  55.22600 44.69200 45.44500
H  54.06100 49.67000 43.36900
H  54.39300 48.48000 42.07000
H  56.36600 49.73200 42.52000
H  56.67900 48.26000 43.55000
H  56.00100 49.70400 44.23900
H  50.27500 50.72200 44.15300
H  48.42200 50.62500 44.42500
H  49.11800 51.01800 42.84900
H  46.17600 47.50000 40.41000
H  42.38400 46.12900 42.14400
H  41.94900 47.52100 41.13600
H  42.51300 47.82400 42.70100
Mg 9.07500 48.16100 25.05000
C  6.75300 49.02300 27.39900
C  11.61600 49.53000 26.87100
C  11.17300 47.45600 22.49000
C  6.37200 47.79400 22.64000
N  9.17700 49.08300 26.95400
C  8.09700 49.21900 27.83900
C  8.62200 49.63300 29.17100
C  10.06200 50.24100 28.81200
C  10.32200 49.61700 27.43600
C  10.10900 51.72200 28.70200
C  8.83300 48.36800 30.19000
C  9.29200 48.65500 31.66900
H  8.77000 47.81000 32.82600
N  11.13800 48.31700 24.80200
C  12.02900 48.82200 25.76100
C  13.35600 48.70700 25.24100
C  13.22000 48.02600 24.01800
C  11.78000 47.89600 23.71900
C  14.54900 49.18100 26.05700
C  14.32600 47.74500 22.98000
O  14.11000 47.23500 21.88200
C  15.69200 48.14100 23.26000
N  8.70800 47.88700 22.86100
C  9.81700 47.48400 22.12900
C  9.41600 47.05000 20.67600
C  7.86000 47.36700 20.69600
C  7.58000 47.58400 22.14200
C  10.09800 47.73900 19.49300
C  7.00900 46.29800 19.91100
C  6.32800 46.80500 18.69000
N  6.98300 48.15800 25.05500
C  6.06400 47.97900 24.04800
C  4.70600 47.99500 24.59900
C  4.90200 48.41800 25.91600
C  6.29400 48.57100 26.14200
C  3.43000 47.85700 23.86300
C  4.29300 48.83100 27.15600
O  3.09000 48.92400 27.41600
C  5.47000 49.34700 28.11900
C  5.29500 48.72100 29.43100
O  4.97500 47.56800 29.63300
O  5.39300 49.66600 30.42200
C  5.12200 49.37700 31.79600
H  12.44900 49.95800 27.43300
H  11.81500 47.13100 21.66800
H  5.47600 47.75700 22.01700
H  7.91200 50.33100 29.61500
H  10.81500 49.96900 29.55200
H  10.67300 52.18400 29.51200
H  9.10200 52.13900 28.66400
H  10.65300 51.86300 27.76800
H  9.56900 47.69200 29.75600
H  7.91500 47.78100 30.18400
H  9.05100 49.69500 31.88500
H  10.37700 48.58400 31.74800
H  14.96400 50.06900 25.58000
H  15.33500 48.42600 26.08800
H  14.28900 49.43000 27.08600
H  15.90900 47.37700 24.00700
H  15.62800 49.15400 23.65700
H  16.33200 48.03200 22.38500
H  9.78800 46.02500 20.66900
H  7.66000 48.37200 20.32300
H  10.23300 48.80400 19.68100
H  9.55800 47.61300 18.55500
H  11.07400 47.35300 19.19700
H  6.26100 46.05500 20.66600
H  7.57800 45.37200 19.83100
H  5.25000 46.70600 18.81300
H  6.70900 46.27400 17.81800
H  6.55400 47.86300 18.56100
H  2.68400 47.38100 24.49900
H  3.44600 47.37500 22.88500
H  3.03600 48.87200 23.81100
H  5.23100 50.40400 28.23600
H  6.03900 49.57500 32.35200
H  4.79900 48.35200 31.97800
H  4.32000 50.06200 32.07000

