158

Mg 44.39900 4.15300 47.11300
C  42.63300 7.16500 47.50400
C  41.44400 2.67500 46.32400
C  46.10100 1.33900 46.37400
C  47.31200 6.07300 46.90100
N  42.28100 4.93000 46.78000
C  41.76800 6.14300 47.05700
C  40.24400 6.19200 46.70200
C  39.93300 4.70900 46.28200
C  41.26900 4.08100 46.58500
C  38.60700 4.11100 47.00000
C  39.91200 7.12000 45.53200
C  40.74800 7.14800 44.16700
H  39.97400 6.96500 42.85200
N  43.81500 2.19400 46.56800
C  42.54400 1.80000 46.32100
C  42.54700 0.41300 45.97400
C  43.84800 -0.11600 45.90000
C  44.68000 1.13900 46.27300
C  41.26000 -0.37000 45.60300
C  44.36300 -1.49000 45.64800
O  43.55800 -2.42500 45.50800
C  45.80800 -1.83100 45.69300
N  46.34700 3.80200 46.48700
C  46.84000 2.50300 46.48300
C  48.40300 2.55000 46.41200
C  48.75500 4.01000 46.68500
C  47.42900 4.69400 46.66000
C  49.08200 1.49500 47.35500
C  49.72100 4.64800 45.58400
C  51.13100 4.70900 46.15900
N  44.92300 6.20600 47.18400
C  46.12000 6.80700 47.14000
C  45.98300 8.24700 47.42500
C  44.59600 8.44300 47.57900
C  44.01800 7.16300 47.37100
C  47.09600 9.26900 47.62400
C  43.54300 9.44100 47.79200
O  43.60300 10.66300 47.89800
C  42.25000 8.58200 47.67300
C  41.54100 8.78400 48.91200
O  41.52900 8.07800 49.95000
O  40.91600 10.03200 48.81700
C  40.15700 10.48000 49.92900
H  40.52400 2.12100 46.12600
H  46.74000 0.45600 46.31500
H  48.16800 6.74200 47.00400
H  39.69900 6.59800 47.55400
H  39.74800 4.48700 45.23100
H  38.07900 4.80300 47.65600
H  38.86900 3.24500 47.60900
H  37.82100 3.94200 46.26300
H  39.95300 8.13500 45.92600
H  38.88500 7.00500 45.18400
H  41.45300 6.31700 44.14600
H  41.41800 8.00700 44.17300
H  40.27100 0.03500 45.81700
H  41.21300 -1.38500 45.99700
H  41.31800 -0.38600 44.51500
H  46.05000 -2.89200 45.63800
H  46.03600 -1.42500 46.67900
H  46.39200 -1.31700 44.93000
H  48.67400 2.29300 45.38900
H  48.98100 4.13800 47.74400
H  48.35900 1.12100 48.08000
H  49.93000 1.79400 47.97100
H  49.38200 0.57900 46.84600
H  49.32500 5.59400 45.21400
H  49.67700 4.07900 44.65500
H  51.73800 3.91500 45.72500
H  51.09600 4.47500 47.22300
H  51.59800 5.64600 45.85500
H  47.89500 9.13600 46.89500
H  47.64600 9.10500 48.55100
H  46.68900 10.27900 47.57300
H  41.75700 9.02200 46.80600
H  39.67400 9.63300 50.41600
H  39.45600 11.26900 49.65200
H  40.88800 10.87600 50.63300
Mg 9.92400 46.89000 25.71100
C  7.18400 47.16200 28.13900
C  12.03100 48.12400 27.89400
C  12.14600 46.92700 23.17900
C  7.36700 46.42600 23.30700
N  9.64900 47.42500 27.86500
C  8.49000 47.41800 28.67200
C  8.89000 47.88800 30.10000
C  10.42600 48.29600 30.01000
C  10.71700 48.00500 28.51300
C  10.79900 49.77200 30.40500
C  8.60300 46.84900 31.33400
C  9.28400 46.88300 32.69500
H  8.38500 46.57600 33.88600
N  11.77300 47.32400 25.62700
C  12.52900 47.78600 26.64500
C  13.85300 47.83700 26.32600
C  13.97100 47.41800 24.95100
C  12.58300 47.26000 24.42700
C  15.00800 48.27200 27.20500
C  15.21000 47.13800 24.03800
O  15.07600 46.78600 22.87700
C  16.58500 47.15900 24.56400
N  9.75500 46.65500 23.52200
C  10.82200 46.69300 22.73900
C  10.48800 46.31800 21.24500
C  8.92100 46.22000 21.38800
C  8.65700 46.41200 22.84200
C  11.12400 47.26900 20.13900
C  8.38000 44.78200 20.83400
C  7.01800 44.91100 20.00000
N  7.71100 46.83100 25.72800
C  6.91800 46.58600 24.60900
C  5.54800 46.53900 25.08300
C  5.58800 46.78300 26.51400
C  6.92700 46.87000 26.79600
C  4.36700 46.44700 24.17700
C  4.77000 46.91700 27.72700
O  3.57300 46.75200 27.92100
C  5.78000 47.30300 28.75800
C  5.64600 46.34600 29.87300
O  5.88300 45.15300 29.80600
O  5.19500 47.00600 30.98900
C  4.72200 46.15800 32.07000
H  12.65200 48.47500 28.72100
H  12.90300 46.92500 22.39200
H  6.58400 46.46000 22.54700
H  8.30200 48.78900 30.27800
H  11.01200 47.56300 30.56500
H  9.90700 50.35900 30.62900
H  11.16900 50.33600 29.54800
H  11.41500 49.87300 31.29800
H  8.83000 45.85500 30.94800
H  7.52300 46.96100 31.43200
H  9.85900 47.78800 32.89400
H  9.95600 46.02600 32.73100
H  14.60500 48.77800 28.08100
H  15.53500 49.05500 26.65900
H  15.61400 47.49200 27.66800
H  16.55100 48.00200 25.25400
H  17.26300 47.41900 23.75100
H  16.87100 46.17700 24.94200
H  11.04700 45.38300 21.22100
H  8.53800 47.05500 20.80100
H  10.33000 47.94500 19.82300
H  11.38100 46.57400 19.33900
H  11.99100 47.81700 20.50900
H  8.23300 44.09200 21.66600
H  9.05400 44.31200 20.11800
H  6.94600 44.27100 19.12000
H  6.83900 45.92800 19.65200
H  6.25300 44.67900 20.74200
H  4.68600 45.89500 23.29300
H  3.88000 47.38100 23.89700
H  3.65700 45.86400 24.76400
H  5.67500 48.26600 29.25800
H  4.13800 46.78100 32.74800
H  5.43500 45.59100 32.66700
H  4.02700 45.48700 31.56500

