158

Mg 2.08600 -0.66000 44.23200
C  5.41500 0.44700 44.04300
C  1.15200 2.10400 42.32500
C  -0.80100 -2.15300 43.63000
C  3.34700 -3.74200 45.35700
N  3.19400 1.07100 43.24100
C  4.50900 1.30400 43.30100
C  4.84400 2.64700 42.63600
C  3.41700 3.21000 42.34800
C  2.53900 2.10300 42.61200
C  3.10500 4.50800 43.11700
C  5.67100 2.39500 41.31300
C  6.98100 3.21400 41.27300
H  7.90700 2.89500 40.03100
N  0.40000 -0.02400 43.30100
C  0.16200 1.14400 42.61100
C  -1.18700 1.22300 42.26600
C  -1.84900 0.03200 42.75200
C  -0.71900 -0.80200 43.24600
C  -1.75100 2.46000 41.56200
C  -3.37700 -0.21200 42.73200
O  -4.09100 0.65300 42.17400
C  -3.98700 -1.45600 43.32700
N  1.32500 -2.69800 44.42000
C  0.09100 -3.04800 44.15200
C  -0.18400 -4.53500 44.39500
C  1.19800 -4.98700 44.99400
C  2.06000 -3.75800 44.89400
C  -1.35100 -4.86700 45.33000
C  1.94800 -6.26900 44.43100
C  2.53600 -7.25300 45.46900
N  4.00400 -1.47600 44.65300
C  4.31500 -2.66600 45.27300
C  5.66400 -2.66500 45.60600
C  6.20100 -1.45900 45.11300
C  5.17200 -0.81800 44.53300
C  6.47900 -3.76100 46.23600
C  7.36100 -0.60900 45.05400
O  8.49000 -0.76500 45.55200
C  6.88400 0.70100 44.32500
C  7.18500 1.86400 45.17400
O  6.43900 2.34600 46.01700
O  8.37200 2.39700 44.61400
C  8.71600 3.75700 45.11200
H  0.93700 2.99300 41.72800
H  -1.78200 -2.50900 43.30900
H  3.72900 -4.67700 45.77200
H  5.41500 3.31200 43.28400
H  3.29600 3.44400 41.29100
H  3.92800 4.90000 43.71400
H  2.24800 4.50900 43.79000
H  2.85500 5.34700 42.46800
H  5.05500 2.69600 40.46600
H  5.82400 1.32800 41.15200
H  7.48100 2.98100 42.21300
H  6.86900 4.29800 41.25300
H  -2.76500 2.69800 41.88100
H  -1.88300 2.16900 40.52000
H  -1.18000 3.35100 41.82400
H  -5.03200 -1.21800 43.12900
H  -3.75200 -1.50100 44.39000
H  -3.75300 -2.26600 42.63700
H  -0.34600 -5.10000 43.47700
H  1.09900 -5.08700 46.07500
H  -1.08700 -5.07000 46.36800
H  -1.97400 -5.66600 44.92700
H  -1.96400 -3.97600 45.46800
H  2.68000 -6.01900 43.66200
H  1.09300 -6.78800 43.99800
H  2.28200 -8.28600 45.23200
H  2.21800 -7.05600 46.49300
H  3.61500 -7.13600 45.36400
H  6.71300 -4.41800 45.39800
H  5.95700 -4.35100 46.98900
H  7.37900 -3.37400 46.71500
H  7.44200 0.95100 43.42300
H  9.73000 4.04300 44.83500
H  8.58400 3.91400 46.18300
H  8.07100 4.39400 44.50700
Mg 56.00300 23.36300 44.56900
C  53.83100 25.93400 43.13300
C  53.69700 21.09900 43.67500
C  58.27200 21.06000 45.25300
C  58.20500 25.93500 45.29300
N  53.99600 23.53400 43.46300
C  53.28400 24.65600 42.97000
C  51.91900 24.20900 42.36600
C  51.80200 22.72000 42.74200
C  53.23800 22.43900 43.41900
C  50.52400 22.42900 43.60900
C  51.68800 24.56300 40.85700
C  50.32800 25.18300 40.48200
H  49.81900 24.43800 39.23900
N  55.99800 21.35300 44.31700
C  54.93700 20.55700 44.00100
C  55.32100 19.16400 43.98700
C  56.66500 19.15000 44.53500
C  57.03400 20.58400 44.70000
C  54.47400 17.97700 43.63300
C  57.53900 17.87300 44.82600
O  57.03100 16.76000 44.84000
C  58.94800 17.90600 45.25600
N  58.02000 23.49200 44.91100
C  58.73600 22.36900 45.34700
C  60.03300 22.78500 45.88200
C  60.01500 24.32800 45.97400
C  58.63500 24.63700 45.41100
C  60.72400 22.10300 47.15500
C  61.08500 25.17100 45.26700
C  61.77200 26.21900 46.13800
N  55.94200 25.48000 44.54600
C  56.95000 26.40900 44.88100
C  56.49800 27.75200 44.70600
C  55.26000 27.63600 44.06200
C  55.04300 26.19100 43.87000
C  57.14500 29.01900 45.10600
C  54.22400 28.37000 43.49300
O  53.92700 29.55600 43.51900
C  53.26000 27.30800 42.84400
C  53.26200 27.63800 41.39800
O  54.13600 27.29800 40.64200
O  52.14900 28.26600 41.02800
C  51.77200 28.31300 39.58200
H  52.88400 20.39100 43.50100
H  59.07800 20.43600 45.64600
H  58.87000 26.69100 45.71500
H  51.24300 24.86500 42.91300
H  51.67600 22.11000 41.84700
H  50.69600 22.68700 44.65400
H  50.46800 21.34300 43.54100
H  49.61700 22.90500 43.23600
H  51.80800 23.67600 40.23500
H  52.48100 25.25000 40.56200
H  50.32600 26.27300 40.48500
H  49.78200 24.91500 41.38600
H  53.47300 18.32800 43.38000
H  54.36600 17.38200 44.54000
H  54.82800 17.43500 42.75600
H  59.01200 18.46100 46.19100
H  59.50300 18.40100 44.45900
H  59.32800 16.89700 45.41700
H  60.70600 22.61400 45.04200
H  60.06100 24.60300 47.02800
H  60.22700 21.15200 47.34600
H  60.97800 22.76100 47.98500
H  61.69000 21.90900 46.69000
H  60.68300 25.63400 44.36600
H  61.90100 24.49100 45.02500
H  61.84700 25.88700 47.17400
H  61.21900 27.13500 46.34500
H  62.78900 26.47600 45.84400
H  56.43800 29.84900 45.11600
H  58.05600 29.12900 44.51800
H  57.52700 28.92900 46.12300
H  52.25100 27.34600 43.25700
H  52.61000 28.84400 39.13100
H  50.87400 28.88300 39.34500
H  51.74600 27.37000 39.03500

