158

Mg 5.22100 54.91100 41.60100
C  3.99300 51.58200 41.19500
C  8.31100 53.91000 40.37700
C  6.22200 58.18700 41.69900
C  1.95400 55.74000 42.69300
N  6.09900 52.97400 40.91300
C  5.36400 51.83300 40.70000
C  6.17100 50.88900 39.85800
C  7.65800 51.38000 40.10700
C  7.37400 52.83700 40.41600
C  8.48100 50.56100 41.14600
C  5.77100 51.02200 38.37700
C  5.54400 49.75800 37.47000
H  6.08900 49.76300 36.06100
N  6.85200 55.91000 40.94200
C  8.06400 55.27000 40.68600
C  9.12300 56.23100 40.55600
C  8.61600 57.54100 40.94400
C  7.17000 57.26400 41.23400
C  10.54800 55.89000 40.16800
C  9.45600 58.76000 41.16700
O  10.63800 58.65900 40.90000
C  8.83500 60.05900 41.68400
N  4.21700 56.68500 41.86700
C  4.87500 57.88300 42.01800
C  3.99200 58.98200 42.63800
C  2.58800 58.15300 42.83100
C  2.94600 56.75700 42.45300
C  4.51600 59.85600 43.86700
C  1.36300 58.74100 42.10800
C  0.11300 59.16400 42.98000
N  3.37700 53.88600 41.97700
C  2.16200 54.34000 42.45100
C  1.22500 53.24500 42.68800
C  1.92600 52.14300 42.29300
C  3.18900 52.58500 41.78800
C  -0.16900 53.34300 43.26900
C  1.86800 50.70800 42.09200
O  0.98600 49.89800 42.33200
C  3.26100 50.25200 41.43200
C  2.96700 49.26000 40.26700
O  2.43900 49.58700 39.21600
O  3.35300 48.01700 40.63900
C  2.77200 46.89100 39.84800
H  9.27400 53.51100 40.05200
H  6.54800 59.22100 41.83100
H  0.94400 55.90900 43.07400
H  6.15300 49.89700 40.30900
H  8.24500 51.31900 39.19100
H  9.41100 50.18000 40.72500
H  7.93100 49.68900 41.50100
H  8.77800 51.11600 42.03500
H  6.41400 51.79100 37.95100
H  4.83400 51.57900 38.40200
H  4.48800 49.61200 37.24400
H  6.12000 48.98300 37.97600
H  11.18200 55.73900 41.04100
H  10.89700 56.75100 39.59600
H  10.60500 55.03000 39.50100
H  9.70300 60.71400 41.77000
H  8.48700 59.94800 42.71100
H  8.12400 60.53100 41.00700
H  3.81800 59.73100 41.86600
H  2.37900 58.06900 43.89800
H  3.77000 59.85200 44.66200
H  4.71300 60.87300 43.52900
H  5.49400 59.48700 44.17500
H  1.05900 58.04700 41.32400
H  1.72300 59.69600 41.72700
H  0.13500 58.59300 43.90800
H  -0.83200 59.14400 42.43700
H  0.10500 60.20700 43.29800
H  -0.16300 52.81700 44.22400
H  -0.92400 52.90600 42.61500
H  -0.33200 54.37400 43.58200
H  3.84100 49.64900 42.13000
H  1.83600 46.55400 40.29500
H  3.44000 46.03000 39.86200
H  2.47300 47.27500 38.87300
Mg -1.80100 34.66300 27.19400
C  -3.51000 32.69500 29.59500
C  -0.52000 36.50100 29.84300
C  -0.42900 36.50800 24.85600
C  -3.52600 32.79700 24.71600
N  -2.08700 34.61100 29.49500
C  -2.82600 33.76900 30.26100
C  -2.61300 33.91200 31.75600
C  -1.88600 35.31100 31.75600
C  -1.50600 35.53700 30.26700
C  -2.81700 36.58000 32.19700
C  -1.80400 32.76800 32.42800
C  -2.42200 32.13500 33.67500
H  -1.74100 32.47200 35.00900
N  -0.59400 36.20800 27.34400
C  -0.08800 36.80800 28.50000
C  0.98700 37.77300 28.03900
C  0.95100 37.81400 26.64100
C  -0.06400 36.78400 26.23400
C  1.82200 38.65200 28.97900
C  1.68100 38.77200 25.66500
O  1.52200 38.75100 24.47100
C  2.83500 39.69800 26.20900
N  -1.95400 34.64400 25.07200
C  -1.20400 35.49700 24.31000
C  -1.49100 35.32700 22.78400
C  -2.27900 34.01600 22.78500
C  -2.68900 33.83200 24.30500
C  -2.31900 36.54000 22.01800
C  -1.57400 32.72900 22.16500
C  -0.14200 32.46800 22.63800
N  -3.20300 33.09200 27.09900
C  -3.79500 32.37800 26.03300
C  -4.60000 31.31800 26.52100
C  -4.62400 31.48300 27.90500
C  -3.63100 32.47000 28.24400
C  -5.44300 30.43500 25.66700
C  -5.15300 30.93600 29.07800
O  -5.96100 30.07600 29.32100
C  -4.38000 31.66600 30.25300
C  -5.46000 32.23900 31.13000
O  -6.23000 33.12300 30.81200
O  -5.45100 31.57900 32.30300
C  -6.54100 31.76600 33.18800
H  0.05800 36.90000 30.67900
H  -0.14400 37.06900 23.96400
H  -4.07400 32.25600 23.94200
H  -3.58900 33.96100 32.23900
H  -0.99800 35.18000 32.37400
H  -2.60200 37.48300 31.62500
H  -2.52700 36.70700 33.24000
H  -3.88800 36.38600 32.15700
H  -0.96600 33.21900 32.96100
H  -1.59500 31.87900 31.83200
H  -2.44700 31.05400 33.53300
H  -3.42200 32.51700 33.88000
H  1.44700 39.66000 28.80100
H  2.89200 38.64500 28.77000
H  1.69100 38.37300 30.02500
H  3.39400 40.08100 25.35500
H  3.62000 39.12200 26.69800
H  2.41800 40.53400 26.77000
H  -0.54900 35.15500 22.26300
H  -3.23600 34.09900 22.26900
H  -2.68500 37.31100 22.69600
H  -3.23500 36.19400 21.53900
H  -1.67000 36.97000 21.25500
H  -1.59900 32.87900 21.08600
H  -2.21300 31.89100 22.44500
H  -0.02000 31.42500 22.93200
H  0.06100 32.96300 23.58800
H  0.62500 32.78800 21.93200
H  -4.77500 29.72200 25.18300
H  -5.81100 31.07100 24.86200
H  -6.28200 29.95000 26.16600
H  -3.86800 30.85200 30.76700
H  -6.78400 30.85300 33.73100
H  -7.41800 32.09500 32.63000
H  -6.26800 32.52000 33.92700

