158

Mg 1.81300 -2.68800 44.68700
C  4.90600 -1.21900 43.79800
C  0.23800 -0.16500 42.97700
C  -0.98800 -4.48900 45.05800
C  3.77000 -5.56200 45.79100
N  2.58500 -0.98800 43.50200
C  3.82300 -0.48400 43.33900
C  3.87500 0.84600 42.50600
C  2.40800 1.29600 42.69900
C  1.64800 -0.03700 43.00800
C  2.19300 2.39800 43.81900
C  4.42400 0.78600 41.05000
C  5.77400 1.59600 40.83000
H  6.91400 0.76100 40.33200
N  -0.04800 -2.39300 44.03000
C  -0.51900 -1.30600 43.40300
C  -1.89200 -1.40300 43.13600
C  -2.32600 -2.62200 43.74800
C  -1.10300 -3.21800 44.33800
C  -2.70300 -0.55400 42.27300
C  -3.70900 -3.18600 43.75900
O  -4.60900 -2.53000 43.28900
C  -4.06100 -4.55800 44.35100
N  1.44900 -4.80700 45.24900
C  0.10400 -5.20000 45.43100
C  0.07300 -6.61300 45.99200
C  1.57600 -6.90400 46.33800
C  2.36200 -5.73700 45.76500
C  -0.83400 -6.85400 47.30100
C  2.06400 -8.22200 45.65400
C  3.13200 -9.06700 46.40400
N  3.82800 -3.29200 44.93800
C  4.48500 -4.44600 45.42300
C  5.84900 -4.19800 45.51600
C  6.07600 -2.94800 44.83400
C  4.82800 -2.45800 44.52800
C  6.81000 -5.10400 46.21200
C  7.10900 -2.00500 44.37700
O  8.33500 -1.96900 44.46900
C  6.35700 -0.75700 43.76100
C  6.64100 0.51900 44.60400
O  6.14800 0.88400 45.62900
O  7.50300 1.21600 43.90500
C  8.08100 2.44600 44.49300
H  -0.19300 0.66400 42.41300
H  -1.85700 -5.14500 45.14600
H  4.33900 -6.36600 46.26100
H  4.40900 1.50300 43.19300
H  2.07600 1.64700 41.72200
H  2.44700 3.36500 43.38300
H  2.85900 2.23400 44.66500
H  1.21100 2.39700 44.29200
H  3.80000 1.24300 40.28100
H  4.49500 -0.26700 40.77900
H  6.09200 2.01000 41.78600
H  5.68900 2.41800 40.11900
H  -2.09600 0.15800 41.71600
H  -3.40100 0.03200 42.87200
H  -3.29600 -1.15300 41.58200
H  -3.49800 -5.24300 43.71700
H  -5.13800 -4.57600 44.18200
H  -3.85900 -4.63200 45.42000
H  -0.28700 -7.25700 45.19000
H  1.68200 -6.97900 47.42000
H  -0.92400 -7.90700 47.56800
H  -1.82400 -6.40900 47.20500
H  -0.41400 -6.30900 48.14700
H  2.45300 -7.98400 44.66400
H  1.19800 -8.87800 45.56400
H  3.69300 -9.55000 45.60300
H  2.76900 -9.88500 47.02600
H  3.72500 -8.51700 47.13500
H  7.08100 -5.85000 45.46500
H  6.41900 -5.59900 47.10000
H  7.66400 -4.44300 46.35700
H  6.70700 -0.75600 42.72800
H  8.07200 3.20600 43.71200
H  9.12100 2.20700 44.71800
H  7.63400 2.76600 45.43500
Mg 47.23000 16.20800 28.67000
C  45.25000 16.30200 31.50700
C  49.59200 18.01700 30.40300
C  48.81900 16.71000 25.77600
C  44.55700 14.78300 26.91300
N  47.31900 17.16400 30.59800
C  46.51600 16.86200 31.65500
C  47.06300 17.28700 33.00400
C  48.32500 18.11700 32.49900
C  48.39900 17.83800 31.04500
C  48.21500 19.64200 32.94700
C  47.50500 16.07000 33.91200
C  47.29400 16.16800 35.42900
H  46.83300 17.56200 36.09000
N  49.02000 17.04700 28.16600
C  49.90000 17.71500 29.04400
C  51.15900 17.97500 28.39300
C  50.86000 17.83000 27.02300
C  49.52800 17.22400 26.92200
C  52.36600 18.44200 29.04300
C  51.73000 18.34500 25.81800
O  51.43900 18.10000 24.66100
C  53.02100 19.16000 26.00500
N  46.66800 15.91100 26.53100
C  47.58100 16.10500 25.53400
C  47.14400 15.49000 24.26100
C  45.74300 14.81400 24.64600
C  45.65800 15.14000 26.13200
C  47.03800 16.51400 23.03000
C  45.70200 13.22700 24.53800
C  45.00500 12.69000 23.28200
N  45.35200 15.58000 29.09200
C  44.36200 14.97200 28.30100
C  43.26200 14.63500 29.10000
C  43.52100 15.16800 30.36500
C  44.78500 15.77500 30.30400
C  42.00400 13.91700 28.68200
C  42.94700 15.26400 31.70600
O  41.96700 14.88200 32.23600
C  44.13400 16.03400 32.51900
C  43.45700 17.11200 33.33500
O  43.39300 18.29400 33.06100
O  42.88100 16.60500 34.44300
C  42.30700 17.53000 35.39000
H  50.31600 18.57000 31.00600
H  49.35100 16.80600 24.82700
H  43.72400 14.29400 26.40300
H  46.22600 17.72500 33.54800
H  49.25900 17.73500 32.91200
H  47.30200 19.86000 33.50200
H  48.50600 20.28600 32.11700
H  48.95600 19.66500 33.74600
H  48.56500 15.87700 33.74800
H  46.96300 15.20000 33.54000
H  48.16200 15.92100 36.04000
H  46.59900 15.38100 35.72200
H  53.16100 17.84100 28.60000
H  52.28500 18.13800 30.08600
H  52.60500 19.50300 28.96800
H  52.93200 20.15200 26.44800
H  53.46600 19.23200 25.01300
H  53.68600 18.47400 26.52900
H  47.90500 14.75300 24.00400
H  44.81000 15.18400 24.22300
H  46.03900 16.91800 22.86000
H  47.36400 16.09800 22.07700
H  47.52500 17.44200 23.32900
H  45.19200 12.78200 25.39100
H  46.69400 12.77700 24.55900
H  44.00600 12.37400 23.58300
H  45.55400 11.81300 22.93900
H  44.93000 13.41700 22.47400
H  41.24700 14.51200 29.19200
H  42.03900 12.86000 28.94700
H  41.83600 13.96900 27.60700
H  44.50100 15.32600 33.26300
H  41.56400 18.10800 34.84100
H  43.10500 18.18900 35.73100
H  41.83000 16.97300 36.19700

