158

Mg 43.30100 41.93000 26.65100
C  42.24900 44.17000 29.01800
C  44.20100 39.72200 29.01200
C  44.08400 39.85800 24.18200
C  42.97900 44.55500 24.22200
N  43.24000 41.96400 28.73200
C  42.62400 42.96000 29.53300
C  42.68900 42.56900 31.06000
C  43.51300 41.23400 31.02500
C  43.66100 40.95900 29.50500
C  44.90300 41.31200 31.67900
C  41.25100 42.37800 31.71200
C  40.97300 43.28100 32.94100
H  40.20100 42.70200 34.08200
N  44.04600 40.03200 26.57000
C  44.38100 39.25500 27.72800
C  44.84000 38.03500 27.31400
C  44.93000 38.04400 25.87800
C  44.31900 39.33300 25.46900
C  45.12400 36.91100 28.20900
C  45.46700 36.93500 24.93500
O  45.46100 37.12900 23.72600
C  45.96700 35.59200 25.33700
N  43.60500 42.21900 24.51000
C  43.82400 41.11100 23.73700
C  43.85800 41.51400 22.26600
C  43.38200 43.01100 22.21200
C  43.34800 43.30500 23.71900
C  45.28900 41.35900 21.67900
C  42.00400 43.23400 21.45300
C  42.16000 43.99400 20.07700
N  42.76300 43.94900 26.58800
C  42.71500 44.86100 25.54800
C  42.22600 46.12100 26.09900
C  42.00200 45.90200 27.40100
C  42.34600 44.57100 27.66900
C  41.99400 47.29600 25.35800
C  41.50200 46.47000 28.59000
O  40.93000 47.51500 28.81800
C  41.68000 45.41800 29.67600
C  42.62100 45.91000 30.79400
O  43.82900 46.11600 30.64600
O  41.98700 46.08700 32.01600
C  42.92900 46.46000 33.16400
H  44.41100 38.99300 29.79800
H  44.46500 39.16900 23.42500
H  42.67200 45.34100 23.52900
H  43.12800 43.42900 31.56500
H  42.88600 40.39200 31.31800
H  45.70500 41.39500 30.94500
H  44.89600 40.31200 32.11300
H  44.97500 42.08200 32.44600
H  40.96700 41.34700 31.91900
H  40.43500 42.69800 31.06400
H  40.55000 44.21600 32.57300
H  41.91200 43.47800 33.45900
H  44.53500 36.02600 27.96800
H  44.82500 37.09700 29.24000
H  46.17900 36.66200 28.09500
H  46.65800 35.17700 24.60300
H  45.19900 34.82400 25.42700
H  46.61000 35.51100 26.21400
H  43.14400 40.95300 21.66300
H  44.18400 43.59800 21.76500
H  45.68200 42.25200 21.19400
H  45.40800 40.51600 20.99900
H  46.05200 41.13700 22.42500
H  41.33600 43.69600 22.18000
H  41.62100 42.23400 21.25300
H  41.25300 44.57200 19.89900
H  42.41600 43.44600 19.17000
H  42.97500 44.69900 20.23800
H  41.22300 47.08700 24.61700
H  42.91200 47.60200 24.85500
H  41.76900 48.09900 26.06100
H  40.72800 45.19200 30.15700
H  42.69800 47.41500 33.63500
H  43.98200 46.52100 32.88700
H  42.75000 45.71300 33.93700
Mg 6.62200 52.61700 41.32800
C  5.84500 49.18200 41.14600
C  9.84200 51.94300 40.42200
C  7.02600 55.96900 40.58500
C  3.16600 53.22500 41.75700
N  7.65600 50.76800 40.61500
C  7.17700 49.48300 40.83800
C  8.34200 48.51200 40.72300
C  9.59700 49.42200 40.74600
C  9.03800 50.77500 40.50100
C  10.37400 49.37100 42.10900
C  8.45600 47.62900 39.36300
C  8.39200 48.33500 37.95000
H  7.34300 47.87600 36.90400
N  8.29400 53.74200 40.69200
C  9.54600 53.28800 40.37000
C  10.39200 54.46400 40.01200
C  9.51900 55.60200 40.13400
C  8.16400 55.11000 40.41000
C  11.85600 54.32900 39.69500
C  10.03100 57.03600 39.98100
O  11.19300 57.16400 39.68500
C  9.22900 58.30300 40.18800
N  5.29300 54.32700 41.08100
C  5.76800 55.56400 40.96700
C  4.65500 56.63300 40.96300
C  3.36400 55.66800 40.84400
C  3.94100 54.34900 41.33200
C  4.58400 57.66100 42.20500
C  2.68100 55.64800 39.35900
C  1.34100 56.35800 39.26500
N  4.90600 51.48300 41.58500
C  3.52700 51.87400 41.86000
C  2.70100 50.62500 42.00900
C  3.67300 49.63800 41.72500
C  4.92600 50.15800 41.42900
C  1.31900 50.54500 42.53900
C  3.79500 48.16800 41.78400
O  2.92700 47.38500 42.16300
C  5.22000 47.79900 41.21900
C  4.99600 47.08000 39.91500
O  4.48700 47.64700 38.94100
O  5.36200 45.77100 39.96100
C  5.15900 45.04900 38.76700
H  10.91100 51.73800 40.33200
H  7.01100 57.05500 40.70000
H  2.07800 53.26400 41.83900
H  8.42100 47.86800 41.59800
H  10.28800 49.12300 39.95800
H  11.36000 48.92700 41.97300
H  9.79900 48.87500 42.89100
H  10.52600 50.37300 42.51100
H  7.59700 46.95900 39.37700
H  9.31200 46.97300 39.52500
H  9.43400 48.26500 37.63600
H  8.19700 49.38700 38.15500
H  12.07700 54.65100 38.67800
H  12.30200 53.34600 39.84600
H  12.51500 55.00500 40.24200
H  9.88400 59.17400 40.19400
H  8.78300 58.28900 41.18300
H  8.44300 58.34200 39.43300
H  4.61100 57.11200 39.98500
H  2.68300 56.13900 41.55300
H  4.42400 58.65300 41.78300
H  5.49800 57.63900 42.79800
H  3.80000 57.43500 42.92700
H  2.45700 54.59400 39.19800
H  3.35200 56.02500 38.58700
H  0.47300 55.71700 39.11500
H  1.27200 56.89200 38.31800
H  1.06500 57.08500 40.02800
H  1.00400 49.50200 42.51900
H  0.64100 51.18000 41.96900
H  1.35900 50.82400 43.59200
H  5.67800 47.16300 41.97700
H  4.42300 44.32500 39.11800
H  5.99400 44.40000 38.50500
H  4.82700 45.42500 37.79900

