158

Mg 35.89600 1.80000 29.32600
C  33.90200 3.15400 31.81200
C  38.64700 1.99600 31.60400
C  38.07500 1.55900 26.72300
C  33.34000 2.36700 27.06000
N  36.18900 2.39600 31.50400
C  35.18100 2.84200 32.27800
C  35.67700 2.89900 33.74800
C  37.26800 2.80800 33.65800
C  37.37800 2.37300 32.16400
C  38.13400 4.03500 33.99700
C  34.99900 1.88600 34.69300
C  34.27300 2.46200 35.89200
H  35.05200 3.49000 36.67000
N  38.00500 1.49800 29.23100
C  38.92800 1.62000 30.24600
C  40.21000 1.21200 29.72600
C  40.10600 1.21800 28.26900
C  38.67200 1.36800 27.96600
C  41.44400 0.85700 30.56200
C  41.17200 1.13300 27.26300
O  40.92800 1.22100 26.09600
C  42.56000 1.29100 27.62400
N  35.70300 1.81200 27.18900
C  36.77300 1.66100 26.35500
C  36.33900 1.58300 24.89000
C  34.78600 1.56400 25.03000
C  34.54400 1.88100 26.50400
C  36.95400 2.72700 23.98600
C  34.14600 0.24300 24.64500
C  33.24600 0.08400 23.33900
N  34.04600 2.56000 29.38000
C  33.08700 2.70600 28.38900
C  31.90200 3.30700 28.93200
C  32.13800 3.42200 30.29100
C  33.48500 2.96500 30.48800
C  30.62800 3.60900 28.14400
C  31.55700 3.79000 31.54600
O  30.45900 4.27200 31.71700
C  32.69400 3.62800 32.55800
C  32.90500 4.95100 33.26300
O  33.62200 5.84300 32.92600
O  32.04200 5.05000 34.32900
C  32.19800 6.13900 35.26300
H  39.41400 1.87500 32.37200
H  38.58900 1.53600 25.76100
H  32.43500 2.34100 26.45000
H  35.39200 3.92800 33.96500
H  37.60100 2.02200 34.33600
H  37.56500 4.68200 34.66500
H  38.65100 4.47500 33.14300
H  39.00400 3.65900 34.53600
H  35.72200 1.27000 35.22800
H  34.34700 1.21700 34.13300
H  33.93600 1.66500 36.55400
H  33.34500 2.93600 35.57100
H  41.74100 -0.19200 30.56100
H  41.23000 0.99700 31.62100
H  42.28800 1.50700 30.33300
H  42.83700 0.43400 28.23800
H  42.81800 2.21800 28.13600
H  43.14300 1.27500 26.70300
H  36.66000 0.59000 24.57300
H  34.31300 2.37800 24.48000
H  37.95900 2.44400 23.67200
H  37.02100 3.65800 24.54800
H  36.36800 2.96200 23.09700
H  33.44900 -0.08900 25.41400
H  34.94300 -0.49500 24.55600
H  32.20500 0.25200 23.61600
H  33.33300 -0.86900 22.81700
H  33.47200 0.99000 22.77600
H  30.05200 2.71800 27.89400
H  30.79200 4.25700 27.28400
H  30.01900 4.09100 28.90800
H  32.35500 2.84200 33.23300
H  31.26500 6.05300 35.82000
H  32.14700 7.12200 34.79400
H  32.97700 6.02600 36.01700
Mg 46.67000 16.73100 28.06000
C  44.70700 16.12100 30.85200
C  48.91800 18.36600 29.94500
C  48.12400 17.93700 25.25100
C  44.02200 15.41100 26.01600
N  46.68000 17.28100 30.11100
C  45.79200 16.93500 31.13500
C  46.36600 17.27500 32.49200
C  47.63700 18.10800 32.13200
C  47.79400 17.85200 30.61100
C  47.73100 19.52600 32.69700
C  46.57200 16.06300 33.51000
C  45.88500 16.16300 34.87200
H  45.43100 17.59500 35.43300
N  48.50000 17.78600 27.68500
C  49.23600 18.42000 28.57900
C  50.33600 19.12600 27.96000
C  50.18900 18.95400 26.55000
C  48.93500 18.15100 26.39500
C  51.30600 19.91100 28.79900
C  50.97200 19.48200 25.33300
O  50.65300 19.24000 24.18600
C  52.11100 20.32600 25.62300
N  46.12100 16.70800 25.94800
C  46.90600 17.27900 25.01900
C  46.33400 17.04700 23.60000
C  45.31700 15.96200 23.80300
C  45.11700 16.01300 25.32700
C  45.84900 18.33800 22.94600
C  45.77700 14.53600 23.33200
C  44.71700 13.94500 22.39200
N  44.84700 15.86200 28.33100
C  43.89300 15.33200 27.41500
C  42.73700 14.87800 28.16300
C  43.09300 15.13700 29.48200
C  44.30900 15.69100 29.52200
C  41.44500 14.27300 27.57200
C  42.54200 15.06000 30.83600
O  41.42400 14.61700 31.21100
C  43.61500 15.67000 31.90200
C  42.90900 16.74300 32.63600
O  42.63800 17.83300 32.11900
O  42.57800 16.37000 33.94000
C  41.50500 17.16200 34.56700
H  49.53900 18.98100 30.60000
H  48.54100 18.31200 24.31400
H  43.22500 15.14300 25.31900
H  45.59100 17.97600 32.80100
H  48.52300 17.60500 32.51900
H  47.90200 20.10900 31.79200
H  48.53000 19.61900 33.43200
H  46.80000 19.96700 33.05400
H  47.65000 15.90400 33.52700
H  46.11000 15.21200 33.01000
H  46.45300 15.70000 35.67800
H  44.94400 15.61400 34.84400
H  51.95000 20.62500 28.28600
H  51.84300 19.19900 29.42500
H  50.70900 20.51500 29.48200
H  51.63600 21.19700 26.07600
H  52.60500 20.70200 24.72700
H  52.78100 19.80100 26.30400
H  47.02700 16.61800 22.87500
H  44.32600 16.24300 23.44600
H  46.42500 19.16000 23.37200
H  44.78200 18.49200 23.10500
H  45.98500 18.16900 21.87800
H  45.94000 14.02300 24.28000
H  46.66200 14.55500 22.69500
H  43.74500 14.43800 22.41300
H  44.51700 12.95700 22.80700
H  45.16600 13.87000 21.40200
H  41.70200 13.21800 27.48000
H  41.34200 14.60200 26.53800
H  40.56800 14.42900 28.19900
H  43.98700 14.84600 32.51000
H  41.12000 18.03800 34.04500
H  41.93800 17.63300 35.45000
H  40.64300 16.58700 34.90600

