158

Mg -1.10200 17.76700 26.85000
C  -1.66100 15.23600 29.40300
C  -1.74600 20.10800 29.30000
C  -0.50300 19.88000 24.47100
C  -1.27600 15.15500 24.52700
N  -1.75300 17.65000 29.11400
C  -1.69300 16.52400 29.94000
C  -2.18900 16.97300 31.38300
C  -2.23800 18.52700 31.27700
C  -1.91800 18.81500 29.80600
C  -3.57400 19.25600 31.63300
C  -1.18900 16.44400 32.53800
C  -1.20400 17.24800 33.89900
H  -0.72600 16.50200 35.11900
N  -1.02400 19.64400 26.87200
C  -1.31200 20.50900 27.96500
C  -1.16600 21.84200 27.58300
C  -0.81600 21.79600 26.18700
C  -0.72800 20.39500 25.79600
C  -1.32100 23.00600 28.59100
C  -0.56600 22.93300 25.29600
O  -0.07800 22.83700 24.21200
C  -0.91100 24.28800 25.68600
N  -1.09300 17.58400 24.74900
C  -0.63200 18.60000 24.02800
C  -0.50200 18.14000 22.53200
C  -0.53000 16.60500 22.65000
C  -1.00900 16.40700 24.04300
C  -1.60700 18.75300 21.62500
C  0.85400 15.96000 22.29700
C  1.99900 16.12000 23.30600
N  -1.39600 15.68800 26.89900
C  -1.46200 14.77300 25.87300
C  -1.70500 13.47100 26.35500
C  -1.64000 13.56900 27.74900
C  -1.57100 14.94400 28.05800
C  -1.89300 12.22400 25.52200
C  -1.82700 12.78500 28.96300
O  -2.07600 11.62100 29.19100
C  -1.79600 13.90800 30.13500
C  -0.62500 13.56400 30.91100
O  0.52000 13.69100 30.43500
O  -0.93600 13.03000 32.13300
C  0.21100 12.82200 33.07300
H  -1.78100 20.78900 30.15300
H  -0.24400 20.60400 23.69500
H  -1.37900 14.31200 23.84000
H  -3.15200 16.47100 31.47900
H  -1.47400 19.00900 31.88700
H  -4.15600 18.56100 32.23700
H  -4.08100 19.50500 30.70100
H  -3.22400 20.16500 32.12100
H  -0.18100 16.22500 32.18700
H  -1.60000 15.47800 32.83000
H  -2.11800 17.79400 34.13300
H  -0.46600 18.02700 33.70700
H  -0.52300 23.74100 28.48800
H  -1.28300 22.77100 29.65500
H  -2.27100 23.53500 28.50200
H  -1.92400 24.35000 26.08500
H  -0.84600 25.05800 24.91700
H  -0.15400 24.60900 26.40000
H  0.36400 18.38700 21.91800
H  -1.18500 16.05400 21.97500
H  -2.08500 17.92000 21.10900
H  -1.28400 19.53900 20.94200
H  -2.36800 19.19400 22.26900
H  1.15900 16.51700 21.41100
H  0.79600 14.88800 22.10700
H  1.74400 15.67100 24.26600
H  2.19100 17.16800 23.53600
H  2.95800 15.69000 23.01800
H  -0.95900 11.82700 25.12500
H  -2.56800 12.50000 24.71200
H  -2.38000 11.43300 26.09200
H  -2.72500 13.90800 30.70600
H  1.09500 13.41100 32.82800
H  0.44400 11.76600 33.20800
H  -0.13500 13.26800 34.00600
Mg 48.16100 34.54200 26.50300
C  45.94200 33.67900 29.22000
C  48.61400 37.63500 27.97500
C  49.62300 35.46900 23.71400
C  47.02000 31.60700 24.80700
N  47.29900 35.57400 28.42600
C  46.57100 34.94700 29.42000
C  46.36700 35.95500 30.58200
C  46.80100 37.33700 29.97300
C  47.61800 36.86900 28.70100
C  45.55700 38.20200 29.62900
C  47.35000 35.49400 31.81000
C  46.67500 35.61100 33.19400
H  46.09500 36.94300 33.68500
N  49.10700 36.26600 25.98800
C  49.34300 37.36000 26.79300
C  50.23700 38.23400 26.09500
C  50.56200 37.66300 24.81800
C  49.74500 36.36700 24.75600
C  50.66600 39.55800 26.72500
C  51.55400 38.15900 23.71800
O  51.72400 37.54000 22.65400
C  52.37200 39.46200 23.96100
N  48.03500 33.72400 24.47900
C  48.84200 34.31500 23.57300
C  49.10600 33.40300 22.28400
C  48.36900 32.12200 22.68700
C  47.76400 32.46100 24.03700
C  48.66100 34.05000 20.90700
C  49.35900 30.88700 22.93200
C  48.62400 29.49600 22.75100
N  46.78400 33.02700 26.86800
C  46.49200 31.92400 26.10900
C  45.51600 31.14400 26.77600
C  45.37800 31.69700 28.02100
C  46.11700 32.89900 28.04400
C  44.81500 29.89900 26.28500
C  44.67900 31.55200 29.34200
O  43.85400 30.70200 29.70500
C  44.99500 32.89900 30.18500
C  45.62000 32.49600 31.45500
O  46.76000 32.03800 31.51300
O  44.67100 32.60700 32.50000
C  45.07800 31.92400 33.70300
H  48.69500 38.64200 28.38900
H  50.17800 35.72200 22.80800
H  46.92700 30.57700 24.45800
H  45.34300 35.97600 30.95600
H  47.46100 37.89100 30.64100
H  45.38300 38.35200 28.56300
H  45.73400 39.20900 30.00600
H  44.67200 37.77700 30.10400
H  48.27100 36.07100 31.73200
H  47.66900 34.45500 31.72600
H  47.39800 35.21800 33.90800
H  45.86900 34.87700 33.20100
H  50.43500 40.37800 26.04500
H  51.72100 39.53200 26.99700
H  50.32800 39.68300 27.75300
H  51.60800 40.20900 24.17800
H  52.93200 39.65400 23.04600
H  53.09800 39.27600 24.75200
H  50.18000 33.25700 22.16800
H  47.62700 31.87300 21.92900
H  47.78200 33.69000 20.37100
H  49.56700 33.94700 20.30900
H  48.51000 35.12600 20.99800
H  49.73900 30.89400 23.95400
H  50.24300 30.99200 22.30400
H  47.62700 29.45600 22.31300
H  48.68800 28.88100 23.64800
H  49.15200 28.94600 21.97200
H  45.07900 29.66000 25.25500
H  43.76600 30.19500 26.30100
H  45.08700 29.09800 26.97300
H  44.03200 33.36700 30.38500
H  44.85100 32.45400 34.62800
H  46.12000 31.60700 33.65900
H  44.50500 31.01300 33.87500

