158

Mg 49.89000 44.22200 43.00500
C  46.55900 44.66200 41.85500
C  49.66700 40.88400 42.40800
C  53.21900 44.09600 43.30800
C  50.19800 47.84800 42.90400
N  48.31400 42.95800 42.13000
C  46.97200 43.28400 41.82400
C  46.17800 42.04400 41.36000
C  47.21000 40.85400 41.55200
C  48.45200 41.56000 42.19700
C  46.78800 39.59200 42.40200
C  45.84900 42.23400 39.82700
C  44.32500 42.33500 39.61100
H  44.01400 43.19700 38.37900
N  51.20300 42.71000 43.00700
C  50.95300 41.38700 42.73800
C  52.19800 40.59300 42.80700
C  53.24500 41.52600 43.07500
C  52.59800 42.83900 43.11700
C  52.33900 39.06300 42.49800
C  54.73200 41.12400 43.21000
O  55.01600 39.94900 43.25900
C  55.83700 42.15600 43.34100
N  51.44200 45.82600 42.99600
C  52.74200 45.44600 43.21600
C  53.67500 46.65500 43.42900
C  52.72500 47.83900 43.38700
C  51.38400 47.18200 42.98200
C  54.66100 46.57000 44.59600
C  53.15300 49.05700 42.51300
C  53.22600 50.34200 43.32500
N  48.66600 45.95300 42.58500
C  48.89500 47.28300 42.68400
C  47.71900 47.94600 42.39000
C  46.76200 46.99400 42.14500
C  47.38200 45.75600 42.23500
C  47.56000 49.45500 42.59300
C  45.34500 46.81800 41.76400
O  44.37900 47.57200 41.70500
C  45.18600 45.23200 41.60300
C  44.13800 44.73300 42.56100
O  44.33500 44.34000 43.71800
O  42.92800 45.12200 42.09000
C  41.86000 44.84200 43.01300
H  49.71400 39.84200 42.08400
H  54.29300 44.10400 43.50500
H  50.12900 48.89500 42.60100
H  45.32400 41.87900 42.01600
H  47.57400 40.51600 40.58200
H  45.70600 39.60000 42.53300
H  47.22500 39.59900 43.40100
H  47.14200 38.73100 41.83600
H  46.17300 41.37600 39.23700
H  46.30700 43.14900 39.45300
H  43.88600 42.72700 40.52800
H  43.90300 41.33100 39.55100
H  53.31500 38.68600 42.19100
H  51.61800 38.91300 41.69500
H  51.93500 38.55200 43.37200
H  55.64100 42.75800 42.45400
H  56.82900 41.71000 43.42200
H  55.59300 42.63000 44.29200
H  54.28200 46.67600 42.52400
H  52.52500 48.23500 44.38300
H  54.83000 45.53200 44.88100
H  54.44600 47.17300 45.47800
H  55.57400 46.93100 44.12200
H  52.54500 49.16400 41.61400
H  54.17400 48.87300 42.18200
H  54.22600 50.72800 43.12600
H  53.12400 50.24400 44.40600
H  52.43600 51.04800 43.07100
H  48.13000 49.91400 43.40100
H  46.51400 49.69500 42.78200
H  47.97600 49.99100 41.73900
H  44.88800 45.00600 40.57900
H  41.84800 43.76000 43.14400
H  40.95800 45.12100 42.46700
H  41.93800 45.52200 43.86100
Mg -12.50200 38.90200 42.55800
C  -10.91500 35.87600 41.34500
C  -9.93600 40.68000 41.00200
C  -14.26100 41.65000 43.13600
C  -15.27400 36.85800 43.35200
N  -10.66300 38.35600 41.32500
C  -10.19400 37.07800 41.04100
C  -8.84900 37.14900 40.21800
C  -8.41400 38.62900 40.37900
C  -9.71400 39.29500 40.95900
C  -7.19400 38.84200 41.27700
C  -9.01500 36.65100 38.75200
C  -7.79600 35.88100 38.11600
H  -6.82600 36.64000 37.27200
N  -12.08500 40.90900 42.20300
C  -10.99700 41.45100 41.51200
C  -11.22500 42.87400 41.40800
C  -12.45900 43.17000 42.01600
C  -13.00500 41.90500 42.54900
C  -10.24400 43.79900 40.72400
C  -13.06200 44.52800 41.98000
O  -12.46600 45.46200 41.38800
C  -14.38000 44.79000 42.57500
N  -14.38000 39.16900 43.31400
C  -14.85600 40.46500 43.48800
C  -16.36600 40.45700 44.00600
C  -16.73900 38.91900 43.98200
C  -15.42200 38.27500 43.50200
C  -16.52100 41.30200 45.29600
C  -18.04500 38.73000 43.09600
C  -19.03300 37.53700 43.56400
N  -12.97300 36.75200 42.51900
C  -14.15600 36.13800 42.83300
C  -13.97100 34.68100 42.69700
C  -12.75100 34.53700 42.03100
C  -12.20600 35.83600 41.90800
C  -14.93500 33.58300 42.94900
C  -11.77900 33.61000 41.52300
O  -11.74900 32.41100 41.47100
C  -10.54800 34.48000 40.95000
C  -9.24900 34.15800 41.62200
O  -8.82500 34.59700 42.64400
O  -8.61700 33.28100 40.74800
C  -7.29100 32.76700 41.12300
H  -9.18900 41.28500 40.48400
H  -14.89600 42.53200 43.24000
H  -16.17000 36.31500 43.65800
H  -8.07700 36.49200 40.62000
H  -7.94800 39.00200 39.46700
H  -7.44800 39.42700 42.16200
H  -6.52500 39.50300 40.72500
H  -6.73900 37.86300 41.42800
H  -9.30100 37.49100 38.11900
H  -9.88800 36.00400 38.66400
H  -8.25900 35.16200 37.44000
H  -7.24200 35.47900 38.96400
H  -10.64900 44.36800 39.88600
H  -9.40300 43.20900 40.36100
H  -9.79300 44.44400 41.47900
H  -15.14900 44.18700 42.09300
H  -14.61000 45.85100 42.48500
H  -14.30000 44.43100 43.60200
H  -16.94900 41.05100 43.30200
H  -16.94200 38.63900 45.01600
H  -17.11400 40.74900 46.02400
H  -16.86500 42.31400 45.08500
H  -15.56400 41.54400 45.75900
H  -17.86000 38.53900 42.04000
H  -18.65600 39.63200 43.04600
H  -18.67300 36.62200 43.09500
H  -20.06900 37.84400 43.42200
H  -18.93000 37.36200 44.63500
H  -14.38500 32.72000 43.32400
H  -15.69900 33.32900 42.21500
H  -15.51800 33.83300 43.83500
H  -10.39600 34.39700 39.87400
H  -7.36300 32.16600 42.02900
H  -6.66100 33.63200 41.32600
H  -6.82700 32.08900 40.40500

