158

Mg 47.10300 34.57000 27.74300
C  45.37000 32.91900 30.15400
C  47.59800 37.24000 29.93100
C  48.32800 36.45200 25.24400
C  46.41700 32.06400 25.50000
N  46.59100 35.02400 29.81000
C  45.86700 34.11500 30.61500
C  46.02700 34.57100 32.14300
C  46.23500 36.11300 31.90000
C  46.82500 36.17300 30.44400
C  44.91800 36.97200 32.04800
C  47.17200 33.81900 32.82200
C  47.02500 33.68200 34.35500
H  46.02800 34.54300 35.13900
N  47.91100 36.57600 27.59100
C  48.05600 37.45700 28.63400
C  48.66600 38.65900 28.06900
C  48.81100 38.42700 26.70600
C  48.30700 37.17200 26.45800
C  49.02400 39.78000 28.97900
C  49.40300 39.31500 25.67900
O  49.28200 39.17300 24.47700
C  49.94800 40.59300 26.17700
N  47.22600 34.35300 25.63800
C  47.86400 35.20300 24.86800
C  48.15200 34.68700 23.46100
C  47.72800 33.19600 23.64300
C  47.06800 33.15600 25.02900
C  47.43500 35.46600 22.38500
C  48.79100 32.13900 23.68800
C  48.67300 30.90500 22.72800
N  46.03100 32.82200 27.73100
C  45.84100 31.84300 26.75500
C  45.24800 30.69400 27.32400
C  44.91700 31.15600 28.64900
C  45.45400 32.38900 28.89100
C  45.04700 29.35600 26.72500
C  44.33800 30.70800 29.84700
O  43.73900 29.67600 30.17500
C  44.44200 31.89400 30.83000
C  44.77900 31.40100 32.21500
O  45.68400 30.57200 32.47700
O  43.94600 31.85000 33.09900
C  44.15600 31.46500 34.46700
H  47.65800 38.02100 30.69200
H  48.67500 36.93000 24.32600
H  46.33500 31.23200 24.79800
H  45.09100 34.53000 32.70000
H  47.00200 36.45300 32.59600
H  43.94300 36.49300 31.97100
H  44.88300 37.72800 31.26300
H  45.00100 37.58900 32.94300
H  48.11000 34.32500 32.59600
H  47.24900 32.82400 32.38500
H  48.00400 34.01500 34.69900
H  46.90600 32.63200 34.62500
H  50.05800 40.12200 28.91900
H  48.68900 39.68800 30.01200
H  48.42300 40.67600 28.82700
H  49.21200 41.11400 26.78800
H  50.02200 41.19700 25.27300
H  50.93300 40.57400 26.64500
H  49.23300 34.68900 23.32100
H  47.05200 32.91600 22.83400
H  46.83500 36.23700 22.86900
H  46.71400 34.89200 21.80200
H  48.11600 35.71000 21.57000
H  48.99600 31.64300 24.63700
H  49.69000 32.65900 23.35600
H  47.74000 30.87500 22.16500
H  48.70800 29.92400 23.20200
H  49.49000 31.02100 22.01700
H  45.67800 29.08200 25.87900
H  44.01800 29.26000 26.38000
H  45.23400 28.73400 27.60100
H  43.47000 32.38800 30.83400
H  44.14600 30.41700 34.76800
H  43.41000 31.96800 35.08200
H  45.15400 31.76800 34.78500
Mg -9.52000 18.41900 42.39600
C  -6.06400 18.17600 42.65600
C  -9.20200 21.81000 41.77300
C  -12.80700 18.61400 41.75100
C  -9.68700 14.95400 42.77400
N  -7.87000 19.72400 42.08700
C  -6.50400 19.45000 42.25500
C  -5.67800 20.68900 41.96700
C  -6.68400 21.90500 41.98900
C  -8.00500 21.12400 42.01800
C  -6.47800 22.89600 43.22400
C  -4.85500 20.54500 40.64300
C  -5.57900 19.82700 39.46800
H  -5.34300 20.30800 38.00900
N  -10.82500 20.03100 41.83500
C  -10.54100 21.34500 41.67600
C  -11.76700 22.14000 41.40800
C  -12.82400 21.17700 41.46800
C  -12.17500 19.84700 41.70900
C  -11.84000 23.54800 41.04800
C  -14.27700 21.42800 41.44600
O  -14.62600 22.60200 41.23900
C  -15.36200 20.47600 41.63000
N  -10.97900 17.06500 42.07400
C  -12.25500 17.38500 41.98900
C  -13.16500 16.24600 42.31700
C  -12.20600 14.98100 42.30100
C  -10.83600 15.67400 42.41200
C  -14.03200 16.33700 43.59600
C  -12.26500 14.04300 41.02000
C  -13.17600 12.79400 41.05100
N  -8.16000 16.83600 42.73500
C  -8.38400 15.47400 42.96700
C  -7.13800 14.84300 43.34700
C  -6.16700 15.89000 43.20300
C  -6.88200 17.07300 42.88300
C  -6.99000 13.40300 43.66700
C  -4.74400 16.16600 43.26800
O  -3.73300 15.48100 43.49600
C  -4.62200 17.65300 42.94400
C  -3.92000 18.33300 44.05100
O  -2.94500 19.06600 43.89300
O  -4.38300 17.98400 45.26600
C  -3.45800 18.22000 46.39400
H  -9.10800 22.89400 41.67800
H  -13.89900 18.60100 41.76000
H  -9.95000 13.90100 42.89400
H  -4.93800 20.73500 42.76600
H  -6.70400 22.54700 41.10900
H  -7.21800 22.66000 43.98900
H  -6.60700 23.95700 43.00900
H  -5.50600 22.90200 43.71800
H  -3.93200 20.02100 40.89200
H  -4.57300 21.51900 40.24400
H  -6.65900 19.75600 39.59600
H  -5.11600 18.84100 39.43000
H  -10.87900 24.04700 41.18000
H  -12.43900 24.13300 41.74600
H  -12.13200 23.85900 40.04500
H  -15.27800 19.85600 42.52300
H  -15.38600 19.93400 40.68500
H  -16.31800 20.97700 41.78000
H  -13.86300 16.02800 41.50900
H  -12.39100 14.34700 43.16800
H  -14.92300 16.87000 43.26400
H  -13.55900 17.00500 44.31500
H  -14.40000 15.37700 43.96100
H  -11.27400 13.66900 40.76200
H  -12.52100 14.62800 40.13600
H  -13.44100 12.54000 42.07800
H  -12.52200 11.96500 40.77800
H  -14.06600 12.91600 40.43500
H  -6.00700 13.14300 43.27400
H  -7.72700 12.78100 43.15900
H  -7.01500 13.14600 44.72600
H  -4.01700 17.70000 42.03900
H  -3.35500 17.18300 46.71600
H  -3.92200 18.82800 47.17100
H  -2.47900 18.62700 46.14200

