158

Mg 2.10500 -1.84600 44.69800
C  5.38100 -0.66600 44.38500
C  0.99000 0.92100 43.03000
C  -0.82300 -3.45600 44.16300
C  3.48200 -4.94400 45.79400
N  3.10500 -0.22500 43.72500
C  4.39400 0.15600 43.80000
C  4.54900 1.59900 43.31800
C  3.15900 2.12000 43.35100
C  2.37400 0.84500 43.31600
C  2.65400 2.91400 44.55800
C  5.35500 1.71400 41.96200
C  6.88800 2.06900 41.99100
H  7.82300 1.40500 41.08200
N  0.32200 -1.38000 43.69800
C  0.05300 -0.10600 43.11600
C  -1.23900 -0.11200 42.54700
C  -1.78700 -1.41200 42.87100
C  -0.74200 -2.15100 43.58500
C  -1.74600 1.09500 41.77600
C  -3.25200 -1.81000 42.59200
O  -3.98300 -1.14900 41.86300
C  -3.92000 -2.96400 43.27000
N  1.39300 -4.05800 44.72400
C  0.12300 -4.37400 44.65200
C  -0.09200 -5.87100 45.03200
C  1.32000 -6.36300 45.53100
C  2.11000 -5.01400 45.35300
C  -1.09500 -6.11300 46.14100
C  1.86600 -7.54100 44.73800
C  2.53700 -8.75600 45.41600
N  4.03500 -2.60400 45.26700
C  4.41800 -3.86000 45.65400
C  5.89500 -3.90300 45.86800
C  6.30700 -2.57800 45.46900
C  5.15100 -1.93500 44.98000
C  6.70500 -5.03700 46.21400
C  7.44400 -1.63800 45.28200
O  8.63800 -1.80100 45.48200
C  6.81300 -0.37400 44.72200
C  7.01000 0.74000 45.85300
O  6.15600 1.09800 46.66700
O  8.08500 1.40900 45.47500
C  8.16200 2.78500 46.05500
H  0.60900 1.86400 42.63300
H  -1.76100 -3.99700 44.02100
H  3.86900 -5.92000 46.09700
H  5.11500 2.05600 44.13000
H  3.05000 2.65100 42.40500
H  1.79400 3.51700 44.26600
H  3.43300 3.56400 44.95500
H  2.33400 2.23600 45.34900
H  4.88600 2.57300 41.48200
H  5.21500 0.74700 41.47700
H  7.30100 1.96400 42.99400
H  7.02600 3.12400 41.75200
H  -1.35400 1.01300 40.76200
H  -1.50400 2.03400 42.27400
H  -2.83200 1.07900 41.68700
H  -3.62100 -3.87000 42.74200
H  -5.00500 -2.87300 43.22700
H  -3.61100 -2.93400 44.31500
H  -0.39600 -6.39500 44.12600
H  1.29100 -6.59600 46.59500
H  -0.74800 -6.93700 46.76300
H  -2.02500 -6.47000 45.69900
H  -1.22600 -5.15600 46.64600
H  2.61100 -7.17200 44.03300
H  1.06000 -7.92700 44.11400
H  2.08400 -8.83000 46.40400
H  3.62700 -8.73300 45.43800
H  2.25600 -9.66400 44.88100
H  6.57900 -5.72100 45.37400
H  6.25500 -5.35200 47.15500
H  7.77600 -4.85600 46.30700
H  7.36000 0.02600 43.86700
H  9.20800 3.01700 45.85400
H  7.82000 3.00900 47.06600
H  7.53000 3.32800 45.35300
Mg 9.26000 47.85800 26.44700
C  7.37200 47.52100 29.45100
C  11.97200 48.70500 28.29100
C  10.91500 47.88300 23.61000
C  6.18000 47.21300 24.65900
N  9.56700 48.16800 28.58300
C  8.67900 48.01700 29.66200
C  9.34900 48.40000 30.99600
C  10.77700 48.83500 30.57800
C  10.80700 48.58900 29.04700
C  11.14900 50.30900 30.94800
C  9.36300 47.25300 32.10900
C  10.40200 47.14000 33.18200
H  9.93500 47.11400 34.58600
N  11.10800 48.31000 25.99300
C  12.10300 48.62100 26.86800
C  13.34800 48.71200 26.15900
C  13.12900 48.23800 24.81300
C  11.67800 48.13200 24.68200
C  14.68800 48.91500 26.87500
C  14.16300 48.00000 23.74500
O  13.92500 47.57200 22.65200
C  15.64100 48.30900 23.95000
N  8.57400 47.74700 24.33800
C  9.51500 47.69000 23.38400
C  8.95800 47.53800 21.91400
C  7.51900 46.92500 22.30900
C  7.41100 47.28700 23.84700
C  8.61700 48.92000 21.25000
C  7.39900 45.37400 22.02700
C  7.97400 44.34800 23.01900
N  7.22800 47.42900 26.92200
C  6.10800 47.26600 26.04900
C  4.92800 46.94900 26.83600
C  5.41600 47.03300 28.14700
C  6.77800 47.34600 28.19800
C  3.56000 46.61300 26.36200
C  5.12500 46.89100 29.59400
O  4.07300 46.42200 30.09200
C  6.34400 47.19500 30.46300
C  6.64600 45.89500 31.19800
O  7.16800 44.95700 30.63500
O  6.13900 46.00900 32.45600
C  6.77000 45.14100 33.48900
H  12.71900 49.07700 28.99500
H  11.37000 47.85600 22.61800
H  5.32900 46.79000 24.12200
H  8.87800 49.26700 31.46000
H  11.55500 48.19100 30.98900
H  11.92500 50.16000 31.69900
H  10.32500 50.91300 31.32900
H  11.51100 50.80200 30.04600
H  9.54000 46.30800 31.59500
H  8.35700 47.31500 32.52500
H  11.21600 47.86300 33.15800
H  10.93600 46.23900 32.88000
H  15.30800 49.45000 26.15500
H  15.16500 47.97900 27.16600
H  14.53700 49.51700 27.77200
H  16.31100 48.15600 23.10400
H  16.08800 47.73400 24.76100
H  15.78000 49.37100 24.15400
H  9.46200 46.85200 21.23300
H  6.70000 47.30500 21.69900
H  7.79100 48.74300 20.56200
H  9.44900 49.29800 20.65700
H  8.30000 49.64900 21.99500
H  7.77500 45.17300 21.02300
H  6.31800 45.24500 21.97800
H  8.27800 44.75500 23.98400
H  8.85200 43.92500 22.53100
H  7.10200 43.69800 23.09900
H  3.33100 45.54900 26.41800
H  3.31400 46.93000 25.34900
H  2.98200 47.23300 27.04800
H  6.08200 47.99300 31.15800
H  7.58900 45.73600 33.89400
H  7.20000 44.24700 33.03800
H  6.11900 44.83300 34.30700

