158

Mg 23.74800 -5.31500 46.28800
C  25.81800 -2.73200 45.13100
C  21.24000 -4.04600 44.23200
C  22.18100 -8.21200 46.38100
C  26.57400 -6.73000 47.98100
N  23.56300 -3.53900 44.83900
C  24.54500 -2.72000 44.41800
C  24.00100 -1.63200 43.47200
C  22.48100 -1.83700 43.57100
C  22.39100 -3.17800 44.27900
C  21.80300 -0.71200 44.48000
C  24.52100 -1.70500 42.06800
C  24.76000 -0.34100 41.31400
H  24.04900 -0.14400 39.96400
N  21.87300 -6.01400 45.47700
C  20.99100 -5.37100 44.66500
C  19.83000 -6.20100 44.49700
C  20.04600 -7.49100 45.15700
C  21.40400 -7.26500 45.72800
C  18.66300 -5.76700 43.57500
C  19.12500 -8.75400 45.32700
O  18.09900 -8.79900 44.64600
C  19.38200 -9.90700 46.18300
N  24.39500 -7.17200 46.98400
C  23.46200 -8.17400 47.02700
C  24.06100 -9.46300 47.60600
C  25.53100 -9.02100 47.93500
C  25.52000 -7.53700 47.61900
C  23.14100 -9.94800 48.78100
C  26.75900 -9.85000 47.23600
C  27.75200 -10.43800 48.22500
N  25.71300 -4.74000 46.74100
C  26.76400 -5.41300 47.45700
C  27.85100 -4.46400 47.58600
C  27.50200 -3.41500 46.70300
C  26.24900 -3.64400 46.19100
C  29.17100 -4.71700 48.23400
C  28.00800 -2.17200 46.11100
O  29.02500 -1.50300 46.28800
C  26.87800 -1.68700 45.05800
C  26.57300 -0.30600 45.52400
O  26.19700 0.04700 46.63900
O  26.79100 0.53400 44.43100
C  26.31700 1.89400 44.59900
H  20.36900 -3.65600 43.70100
H  21.91100 -9.24100 46.13700
H  27.37300 -7.24300 48.52100
H  24.35500 -0.70700 43.92700
H  21.95500 -1.89500 42.61900
H  22.47500 0.10100 44.75600
H  21.41300 -1.04800 45.44100
H  20.99300 -0.24100 43.92300
H  23.89500 -2.34100 41.44200
H  25.46200 -2.25500 42.06500
H  25.84500 -0.25200 41.28100
H  24.41800 0.46100 41.96800
H  18.19500 -6.67000 43.18200
H  19.13600 -5.16100 42.80300
H  17.87400 -5.26600 44.13500
H  18.47900 -10.40200 46.54000
H  19.88600 -9.52900 47.07200
H  19.92600 -10.73100 45.72100
H  24.14800 -10.11600 46.73700
H  25.54100 -9.14100 49.01800
H  22.37300 -10.53100 48.27500
H  22.58900 -9.15900 49.29300
H  23.82400 -10.45300 49.46500
H  27.42000 -9.25600 46.60500
H  26.38200 -10.72300 46.70200
H  27.51100 -11.49900 48.28500
H  27.64700 -9.99500 49.21600
H  28.77700 -10.40500 47.85500
H  29.16500 -4.04000 49.08800
H  29.99300 -4.40900 47.58800
H  29.16300 -5.78500 48.45400
H  27.44200 -1.69400 44.12500
H  25.58000 1.93100 45.40000
H  25.92400 2.28000 43.65800
H  27.17000 2.48200 44.93900
Mg -1.54100 34.59900 25.88700
C  -3.17500 32.61800 28.44800
C  -0.18400 36.52000 28.26900
C  -0.21500 36.20800 23.40500
C  -3.49500 32.77900 23.47200
N  -1.57900 34.58500 28.13100
C  -2.34500 33.72900 28.91000
C  -2.12200 34.04300 30.42200
C  -1.36600 35.38600 30.34600
C  -0.98400 35.53700 28.89800
C  -2.18000 36.55300 30.77600
C  -1.28100 32.92600 31.19400
C  -1.98100 32.13100 32.29300
H  -1.23100 32.14000 33.64000
N  -0.26900 36.07800 25.81100
C  0.18200 36.79500 26.89500
C  1.07300 37.79700 26.42400
C  1.21800 37.61800 25.02100
C  0.18900 36.63700 24.68500
C  1.83700 38.69900 27.38200
C  2.21700 38.11700 23.99200
O  2.21600 37.93300 22.73400
C  3.21200 39.01200 24.56000
N  -1.88900 34.60600 23.79100
C  -1.21500 35.42200 22.96600
C  -1.63100 35.33900 21.52800
C  -2.49000 34.07500 21.54700
C  -2.67100 33.78800 23.05000
C  -2.42900 36.60400 21.03800
C  -1.87400 32.86600 20.83700
C  -0.53900 32.46200 21.40200
N  -3.06600 33.08900 25.92400
C  -3.79300 32.46500 24.83800
C  -4.58800 31.41800 25.39300
C  -4.33000 31.38900 26.77300
C  -3.46200 32.44500 27.02200
C  -5.17600 30.33200 24.61300
C  -4.62800 30.71800 28.07200
O  -5.34000 29.76700 28.21900
C  -3.86100 31.43500 29.17600
C  -4.90700 31.73500 30.21700
O  -5.47800 32.77500 30.25300
O  -4.92400 30.80300 31.18300
C  -5.54400 30.99000 32.49400
H  0.27700 37.13600 29.04400
H  -0.15600 36.91600 22.57600
H  -4.09400 32.26900 22.71500
H  -3.14400 34.16500 30.78000
H  -0.41200 35.39600 30.87200
H  -3.04000 36.61000 30.10900
H  -1.57000 37.45200 30.68800
H  -2.47400 36.32900 31.80100
H  -0.37400 33.36900 31.60400
H  -0.99900 32.23600 30.39800
H  -2.14100 31.12200 31.91300
H  -2.92000 32.62000 32.54900
H  2.92400 38.64800 27.32300
H  1.59600 38.67200 28.44400
H  1.77400 39.76600 27.17200
H  3.68100 38.49000 25.39500
H  2.69900 39.91000 24.90300
H  4.06700 39.19700 23.91000
H  -0.75000 35.31200 20.88600
H  -3.47200 34.23000 21.09900
H  -1.75500 37.42100 20.78000
H  -3.12500 36.97300 21.79100
H  -2.95500 36.33600 20.12100
H  -1.68200 33.17500 19.80900
H  -2.53400 32.00700 20.95400
H  0.18000 32.37700 20.58700
H  -0.64000 31.47500 21.85400
H  -0.15800 33.16300 22.14400
H  -4.66500 30.03700 23.69600
H  -6.16000 30.61800 24.24000
H  -5.45500 29.49300 25.25100
H  -3.04800 30.89000 29.65700
H  -4.90200 31.70700 33.00600
H  -5.72400 30.06100 33.03500
H  -6.53800 31.43500 32.53000

