158

Mg 49.58700 46.69600 42.25100
C  46.33200 46.65600 40.97900
C  50.13500 43.60100 40.97900
C  52.79000 47.15100 43.02300
C  48.78800 49.94900 43.53300
N  48.35400 45.33300 41.20200
C  47.13300 45.52700 40.68200
C  46.67500 44.34100 39.76700
C  47.76800 43.30600 39.99000
C  48.81500 44.10800 40.77400
C  47.39400 41.76700 40.36300
C  46.45700 44.76800 38.27400
C  45.04200 44.70300 37.71500
H  44.87300 43.96000 36.36400
N  51.26200 45.47400 42.01700
C  51.28000 44.22200 41.51400
C  52.59700 43.67100 41.67400
C  53.40200 44.59400 42.35100
C  52.51600 45.80300 42.46400
C  52.97700 42.20100 41.35500
C  54.79000 44.35400 42.75100
O  55.31200 43.26600 42.58700
C  55.63100 45.42100 43.32000
N  50.59200 48.34100 43.05400
C  51.98100 48.28300 43.31500
C  52.52500 49.61700 43.92900
C  51.18900 50.44800 44.01800
C  50.10300 49.43300 43.57600
C  53.26100 49.34200 45.24700
C  51.15500 51.76100 43.14000
C  51.22200 53.06700 43.97900
N  47.95100 48.17800 42.25300
C  47.76900 49.41000 42.78900
C  46.50300 49.97300 42.41300
C  45.91600 48.92100 41.68800
C  46.79700 47.82500 41.63000
C  45.84000 51.25700 42.86100
C  44.71200 48.46400 41.09400
O  43.59900 48.91300 41.11300
C  45.01600 47.05700 40.46200
C  43.96700 46.10500 40.85100
O  43.66300 45.70400 41.94800
O  43.20100 45.99800 39.70900
C  41.88500 45.47700 39.87400
H  50.28400 42.66400 40.43900
H  53.84000 47.29100 43.29000
H  48.56500 50.90100 44.01800
H  45.77500 43.93200 40.22600
H  48.27500 43.20600 39.03000
H  47.99100 41.21000 39.64000
H  46.30900 41.67100 40.33400
H  47.86900 41.53000 41.31500
H  47.04600 44.20100 37.55200
H  46.77800 45.79500 38.10200
H  44.65500 45.72200 37.70300
H  44.48900 44.13500 38.46300
H  53.49400 42.19600 40.39500
H  52.00800 41.75500 41.13100
H  53.38300 41.63600 42.19300
H  56.61600 45.12900 43.68400
H  55.08300 45.79000 44.18700
H  55.52100 46.28800 42.67000
H  53.17700 50.10200 43.20200
H  51.05700 50.78000 45.04800
H  52.83300 49.96800 46.03000
H  54.32700 49.53700 45.12400
H  53.27700 48.32100 45.62800
H  50.24800 51.79400 42.53600
H  51.99200 51.70500 42.44500
H  51.88600 52.93700 44.83400
H  50.19700 53.25400 44.29900
H  51.58200 53.95700 43.46300
H  44.79400 51.29700 42.55700
H  46.36300 52.18100 42.61500
H  45.78600 51.31300 43.94900
H  45.05800 47.13200 39.37600
H  41.88600 44.47300 39.45000
H  41.13300 45.98100 39.26700
H  41.53100 45.52400 40.90400
Mg 30.46800 58.19700 41.65500
C  27.61400 56.36700 40.26100
C  32.35100 55.55800 40.56600
C  33.04900 60.17400 41.73400
C  28.23600 60.78300 42.16800
N  30.03400 56.31100 40.39700
C  28.79900 55.69800 40.11500
C  28.99300 54.29100 39.53800
C  30.45500 53.98900 40.10500
C  31.02300 55.36000 40.31600
C  30.42300 53.24400 41.45600
C  28.87300 54.24200 37.96700
C  28.11700 53.02900 37.37800
H  27.13900 53.27500 36.20700
N  32.46100 57.89900 41.31100
C  33.07700 56.74600 40.87700
C  34.51100 56.89000 40.91400
C  34.73900 58.24400 41.20800
C  33.39400 58.88200 41.35900
C  35.41300 55.81000 40.54700
C  36.14400 58.94800 41.23400
O  37.19200 58.31900 41.24500
C  36.20600 60.44200 41.22500
N  30.56600 60.13000 41.89500
C  31.83500 60.73700 42.00800
C  31.69400 62.23500 42.28100
C  30.18400 62.40400 42.66000
C  29.58700 61.00200 42.21300
C  32.70200 62.84400 43.29600
C  29.46500 63.63500 42.04700
C  28.46400 64.44700 42.93300
N  28.32000 58.55400 41.39600
C  27.58000 59.68700 41.62700
C  26.25300 59.48500 41.27500
C  26.17000 58.27800 40.69100
C  27.51300 57.69100 40.87100
C  25.02400 60.40800 41.46100
C  25.34800 57.34900 40.02000
O  24.22600 57.34100 39.59400
C  26.22500 56.11800 39.71500
C  25.68500 54.91400 40.36900
O  26.31300 54.24700 41.21300
O  24.40200 54.63700 40.02300
C  23.84200 53.38200 40.65600
H  33.02600 54.69900 40.57500
H  33.82500 60.93300 41.86000
H  27.60900 61.59400 42.54300
H  28.38000 53.59600 40.11100
H  31.04100 53.32800 39.46600
H  29.41100 53.00200 41.78100
H  30.93000 53.80500 42.24100
H  30.89800 52.27000 41.33300
H  29.88100 54.02400 37.61200
H  28.63000 55.24100 37.60600
H  27.65000 52.51100 38.21500
H  28.80400 52.26400 37.01500
H  35.67600 56.03100 39.51300
H  35.00200 54.80200 40.61100
H  36.33200 55.75600 41.13000
H  37.22000 60.81900 41.09800
H  35.82200 60.73800 42.20100
H  35.59900 60.95700 40.48000
H  31.83700 62.77000 41.34200
H  30.23200 62.41900 43.74900
H  32.33400 63.75200 43.77300
H  33.58200 63.13000 42.71900
H  33.11500 62.16000 44.03700
H  28.79600 63.36900 41.22800
H  30.19300 64.32100 41.61400
H  27.68100 64.77400 42.24800
H  28.98000 65.31500 43.34500
H  28.13100 63.66600 43.61600
H  24.50800 60.21600 42.40200
H  24.30700 60.12900 40.68900
H  25.29500 61.44900 41.28800
H  26.15800 55.95200 38.64000
H  24.65100 52.65400 40.59500
H  23.01500 53.04400 40.03100
H  23.58400 53.59600 41.69300

