158

Mg 8.01100 3.47700 28.17000
C  9.36200 1.99500 30.95800
C  6.23900 5.64300 30.33900
C  6.20100 4.69200 25.62400
C  9.26700 0.97700 26.16400
N  7.67600 3.65800 30.43900
C  8.57800 3.06500 31.35100
C  8.40100 3.66200 32.77400
C  7.28200 4.75600 32.50900
C  7.00300 4.67000 30.97100
C  5.98500 4.44500 33.26900
C  9.69400 4.15000 33.45600
C  9.94900 3.61100 34.90900
H  10.25500 4.59200 36.01900
N  6.56200 5.02900 27.95700
C  6.00800 5.73700 28.95600
C  5.09200 6.68400 28.43700
C  5.10200 6.49700 27.04600
C  6.02800 5.42700 26.78300
C  4.08500 7.47800 29.29100
C  4.25600 7.14700 26.01300
O  4.27200 6.82900 24.81500
C  3.31500 8.21000 26.40100
N  7.68200 2.92300 26.23400
C  7.04400 3.65800 25.35100
C  7.17700 3.07700 23.97900
C  8.42600 2.15500 24.11600
C  8.43600 1.94700 25.61300
C  5.87500 2.46800 23.39600
C  9.72500 2.75100 23.59000
C  10.65600 3.49100 24.57100
N  9.20300 1.90700 28.46700
C  9.62300 0.98600 27.58000
C  10.48100 -0.04000 28.23000
C  10.48500 0.35200 29.56400
C  9.61200 1.53500 29.69100
C  11.23700 -1.23000 27.59300
C  10.94000 0.06900 30.92400
O  11.64100 -0.91600 31.31900
C  10.15600 1.05000 31.84900
C  9.20200 0.34300 32.78200
O  8.12100 -0.11900 32.50900
O  9.89000 0.32600 34.04900
C  9.00500 -0.25400 35.09700
H  5.66800 6.33600 30.96000
H  5.66500 5.10600 24.76700
H  9.87100 0.24600 25.62200
H  8.01000 2.86600 33.40800
H  7.70600 5.73800 32.71800
H  5.22100 4.12900 32.55900
H  5.63600 5.45200 33.49600
H  6.05800 3.91700 34.21900
H  9.70300 5.24000 33.47800
H  10.50700 3.88100 32.78100
H  10.81900 2.95600 34.87900
H  9.12100 3.01300 35.28900
H  4.37800 8.50000 29.05200
H  4.04500 7.32300 30.36900
H  3.13300 7.12400 28.89500
H  2.43500 7.71900 26.81500
H  3.07100 8.71800 25.46800
H  3.77400 8.99100 27.00900
H  7.34000 3.96100 23.36300
H  8.27000 1.21800 23.58100
H  5.99800 1.44200 23.05100
H  5.58400 3.10200 22.55800
H  5.12000 2.53700 24.17900
H  9.37100 3.53800 22.92300
H  10.28700 2.06500 22.95700
H  11.54800 2.90800 24.80100
H  10.10000 3.71500 25.48200
H  11.00900 4.43800 24.16400
H  10.47900 -1.91100 27.20500
H  11.85000 -1.72900 28.34300
H  11.90600 -1.01700 26.75900
H  10.92300 1.61400 32.38000
H  9.71400 -0.40900 35.91000
H  8.51400 -1.19200 34.83700
H  8.30600 0.51000 35.43800
Mg 6.50200 54.96400 40.84100
C  5.29700 51.86100 40.31500
C  9.40700 54.14200 39.06500
C  7.44600 58.17400 40.98800
C  3.42400 55.77300 42.43100
N  7.08800 53.30500 39.49900
C  6.40200 52.11800 39.57900
C  7.21700 51.05100 38.70100
C  8.68300 51.66200 38.83100
C  8.41600 53.15900 39.04900
C  9.79300 50.97600 39.75400
C  6.59700 50.99100 37.19700
C  6.67600 49.54000 36.52900
H  5.53400 48.96000 35.73900
N  8.21500 56.05100 40.11900
C  9.27000 55.46900 39.43200
C  10.18600 56.53400 39.15800
C  9.67300 57.72400 39.80500
C  8.37200 57.40600 40.35200
C  11.48500 56.34500 38.45400
C  10.43700 59.00600 39.95300
O  11.45500 59.29800 39.31000
C  9.97500 60.02100 40.96300
N  5.43300 56.73100 41.45300
C  6.11900 57.92100 41.45100
C  5.13700 59.07700 41.96700
C  3.88800 58.26500 42.48400
C  4.21600 56.84500 42.18400
C  5.61100 60.14900 43.04900
C  2.56900 58.73400 41.83800
C  1.57100 59.42300 42.74800
N  4.63800 54.03200 41.29900
C  3.57300 54.40200 42.06400
C  2.60600 53.29300 42.17000
C  3.32200 52.22000 41.51900
C  4.50200 52.80100 41.01300
C  1.28900 53.24300 42.99000
C  3.19900 50.88200 41.23600
O  2.35000 50.09400 41.49900
C  4.53100 50.53900 40.46700
C  4.05600 49.88400 39.18000
O  3.16100 50.30400 38.40800
O  4.65400 48.66500 39.08200
C  4.01200 47.84500 38.17500
H  10.39300 53.75400 38.80000
H  7.62200 59.25100 40.96700
H  2.48200 56.03700 42.91700
H  7.31800 50.07700 39.18100
H  9.08100 51.64700 37.81600
H  9.87600 51.62700 40.62400
H  10.72700 50.88600 39.19900
H  9.37600 50.03900 40.12100
H  7.17600 51.64700 36.54800
H  5.53700 51.23900 37.24800
H  6.76400 48.83500 37.35500
H  7.50400 49.45600 35.82500
H  11.41200 55.42300 37.87600
H  12.12900 56.33000 39.33300
H  11.86900 57.24900 37.98100
H  10.79100 60.69600 41.22100
H  9.63000 59.43400 41.81300
H  9.14200 60.68900 40.74000
H  4.90000 59.75800 41.15000
H  3.77500 58.35800 43.56400
H  5.67600 61.16800 42.66700
H  6.65800 59.88100 43.19700
H  5.01700 60.14800 43.96300
H  2.02000 57.89400 41.41300
H  2.78400 59.41800 41.01600
H  0.65500 58.84100 42.84100
H  1.44100 60.41800 42.32200
H  1.95800 59.43800 43.76700
H  0.76500 54.19200 42.88300
H  1.46200 52.86000 43.99600
H  0.65000 52.51900 42.48400
H  5.17700 49.93000 41.09800
H  3.37800 47.20200 38.78500
H  4.71900 47.08100 37.85000
H  3.41000 48.24000 37.35700

