158

Mg 2.09600 -0.30100 41.95600
C  5.43200 0.63300 41.63400
C  1.26200 2.87400 40.76800
C  -0.99400 -1.25900 41.84800
C  3.20900 -3.41500 43.04100
N  3.26200 1.43700 41.26600
C  4.60000 1.64600 41.22300
C  5.06100 2.92600 40.54300
C  3.69700 3.73700 40.47700
C  2.64000 2.61200 40.91300
C  3.58900 4.93300 41.37500
C  5.89800 3.02200 39.18800
C  5.84900 1.77600 38.26400
H  5.58000 1.98000 36.81800
N  0.31800 0.68900 41.43200
C  0.15900 1.97900 40.98900
C  -1.14900 2.22700 40.59600
C  -1.85900 1.05300 41.07900
C  -0.86300 0.11900 41.49200
C  -1.61600 3.57400 40.27100
C  -3.34000 0.87200 40.89000
O  -4.02700 1.78400 40.31700
C  -4.05500 -0.41800 41.35100
N  1.21500 -2.10500 42.30300
C  -0.09800 -2.21200 42.22400
C  -0.53600 -3.70600 42.47800
C  0.83300 -4.40200 42.73400
C  1.83500 -3.25500 42.65900
C  -1.72000 -4.00200 43.50700
C  1.19100 -5.69400 41.85100
C  1.28900 -7.04500 42.56900
N  3.96100 -1.25100 42.46700
C  4.23000 -2.47900 42.91600
C  5.64800 -2.63700 43.01200
C  6.18900 -1.49300 42.51700
C  5.10900 -0.65600 42.21300
C  6.37500 -3.78600 43.42700
C  7.34700 -0.77900 42.28700
O  8.51400 -1.10200 42.56400
C  6.94000 0.61600 41.64900
C  7.61600 1.63600 42.44900
O  8.19900 2.61800 41.92200
O  7.49200 1.45200 43.78300
C  8.22800 2.53900 44.61100
H  1.17300 3.93100 40.51300
H  -1.96100 -1.76400 41.80300
H  3.57400 -4.40900 43.30800
H  5.88300 3.35600 41.11500
H  3.57500 4.09000 39.45300
H  2.65300 4.87300 41.93000
H  3.57300 5.77100 40.67900
H  4.50600 5.09500 41.94100
H  6.97600 3.08200 39.33500
H  5.65700 3.98600 38.74000
H  5.13100 1.02600 38.59400
H  6.88100 1.43000 38.19600
H  -1.94100 3.70000 39.23800
H  -0.76900 4.25100 40.38200
H  -2.43100 3.99600 40.86000
H  -3.65500 -0.68300 42.33000
H  -4.10100 -1.20100 40.59400
H  -5.08900 -0.22600 41.64000
H  -0.87500 -4.05100 41.50100
H  0.76200 -4.73100 43.77100
H  -1.27000 -4.58800 44.30800
H  -2.48200 -4.61000 43.02100
H  -1.96500 -3.00900 43.88500
H  2.20100 -5.54500 41.46700
H  0.42500 -5.75400 41.07800
H  1.14600 -6.90300 43.64000
H  2.12800 -7.69500 42.31900
H  0.34600 -7.51400 42.28800
H  6.93800 -4.08600 42.54300
H  5.68500 -4.57500 43.72500
H  7.05900 -3.71900 44.27300
H  7.20200 0.64500 40.59100
H  7.84400 3.52600 44.35100
H  9.30700 2.49000 44.46400
H  8.02200 2.33200 45.66100
Mg -2.47900 34.49100 26.74200
C  -3.81700 32.88700 29.50600
C  -1.02700 36.83600 28.81200
C  -1.55800 36.30700 24.04600
C  -3.92800 32.18900 24.67800
N  -2.53200 34.86000 28.95300
C  -2.94400 33.93100 29.82800
C  -2.43600 34.29300 31.25700
C  -1.61800 35.68600 31.03700
C  -1.77500 35.85200 29.48400
C  -2.01100 36.96600 31.84300
C  -1.61000 33.18500 32.09000
C  -2.25600 32.56700 33.31000
H  -1.36400 32.28700 34.47000
N  -1.45500 36.32000 26.51000
C  -0.84000 37.07500 27.44300
C  -0.17700 38.16400 26.80600
C  -0.29500 37.98400 25.36800
C  -1.16600 36.84300 25.31100
C  0.69200 39.12300 27.55100
C  0.26700 38.84600 24.21100
O  0.10400 38.65100 23.01100
C  1.13600 40.10900 24.49900
N  -2.82200 34.35300 24.63700
C  -2.32300 35.19900 23.71500
C  -2.35800 34.63400 22.26900
C  -2.99800 33.22800 22.50700
C  -3.23200 33.22100 24.03100
C  -3.08800 35.31500 21.12600
C  -2.19200 32.02800 21.91900
C  -0.77400 31.79200 22.52200
N  -3.67300 32.85200 26.96400
C  -4.19200 31.97600 26.03400
C  -4.84700 30.90700 26.69000
C  -4.78300 31.19600 28.09200
C  -4.08600 32.43000 28.17300
C  -5.50300 29.72600 26.12700
C  -5.10000 30.83000 29.46900
O  -5.77800 29.85700 29.83900
C  -4.50300 31.92100 30.44400
C  -5.66800 32.55400 31.21900
O  -6.53700 33.35200 30.83500
O  -5.53500 32.16000 32.50600
C  -6.52800 32.75400 33.44100
H  -0.36700 37.42700 29.45000
H  -0.99200 36.72400 23.21100
H  -4.22400 31.38800 23.99800
H  -3.35100 34.70900 31.67700
H  -0.61700 35.46900 31.41000
H  -2.84300 36.79100 32.52600
H  -2.26400 37.75000 31.12900
H  -1.10500 37.34200 32.31800
H  -0.64000 33.60800 32.35000
H  -1.37700 32.38100 31.39200
H  -2.74700 31.61400 33.11400
H  -3.07900 33.15800 33.71100
H  0.83200 40.09700 27.08300
H  1.66700 38.70700 27.80400
H  0.18200 39.34100 28.48900
H  0.70600 40.76300 25.25700
H  1.11700 40.77600 23.63700
H  2.08400 39.67100 24.81200
H  -1.33500 34.41000 21.96600
H  -4.02000 33.16100 22.13400
H  -3.64100 36.12900 21.59600
H  -3.79600 34.60900 20.69300
H  -2.40800 35.69500 20.36300
H  -1.98500 32.17800 20.85900
H  -2.76500 31.11600 22.08800
H  -0.33500 32.69000 22.95900
H  -0.07700 31.50300 21.73500
H  -0.83700 30.95700 23.22000
H  -4.93500 29.21300 25.35000
H  -6.39200 30.08000 25.60500
H  -5.69600 29.02200 26.93600
H  -3.90500 31.36900 31.16800
H  -6.35500 33.77600 33.77700
H  -6.68900 32.07500 34.27800
H  -7.50600 32.85700 32.97000

