158

Mg 24.26500 -5.95900 45.88700
C  26.38300 -3.48600 44.35000
C  21.68700 -4.73300 43.92900
C  22.48400 -8.55000 46.86000
C  26.99700 -7.08300 47.72900
N  24.07400 -4.25600 44.38400
C  25.07400 -3.37800 43.89800
C  24.46700 -2.40200 42.87400
C  22.92000 -2.67200 42.98100
C  22.87300 -3.98200 43.76100
C  22.09900 -1.62000 43.73700
C  25.02200 -2.64000 41.45100
C  25.51300 -1.41200 40.66200
H  25.36400 -1.41000 39.08600
N  22.33100 -6.63500 45.31600
C  21.47900 -5.96700 44.52300
C  20.24300 -6.75800 44.59900
C  20.34700 -7.73500 45.58400
C  21.74500 -7.71300 45.95200
C  19.00600 -6.31400 43.72100
C  19.22000 -8.66200 46.09300
O  18.14300 -8.57300 45.50800
C  19.31000 -9.59500 47.29400
N  24.77700 -7.73100 46.89900
C  23.81300 -8.61800 47.24500
C  24.45500 -9.70300 48.19000
C  25.69500 -8.91600 48.83700
C  25.84400 -7.90900 47.76800
C  23.58300 -10.35900 49.26000
C  26.94100 -9.74200 49.13200
C  27.76300 -9.27300 50.33300
N  26.31500 -5.38700 46.13800
C  27.31600 -5.96900 46.86900
C  28.55200 -5.17800 46.65800
C  28.19100 -4.26600 45.70500
C  26.83500 -4.42300 45.34200
C  29.80200 -5.46400 47.39700
C  28.72500 -3.21300 44.87000
O  29.89900 -2.89300 44.76900
C  27.58000 -2.71600 43.94600
C  27.40300 -1.27600 44.18800
O  26.92600 -0.80100 45.24200
O  27.68800 -0.50100 43.07400
C  27.42900 0.95800 43.08200
H  20.87000 -4.18800 43.45100
H  21.83600 -9.33800 47.25000
H  27.81400 -7.28900 48.42400
H  24.69700 -1.42100 43.29200
H  22.41200 -2.91700 42.04800
H  22.79100 -0.80000 43.92900
H  21.63100 -1.92400 44.67300
H  21.23400 -1.28700 43.16400
H  24.18300 -2.98800 40.84700
H  25.89000 -3.29600 41.38400
H  26.52400 -1.06000 40.87100
H  24.84100 -0.70400 41.14700
H  18.58500 -7.04100 43.02600
H  19.28600 -5.45900 43.10600
H  18.20500 -5.96700 44.37400
H  19.70000 -10.52200 46.87300
H  18.30800 -9.62000 47.72200
H  19.91100 -9.10900 48.06200
H  24.83700 -10.49700 47.54800
H  25.29900 -8.37200 49.69400
H  24.06400 -10.68500 50.18200
H  23.20100 -11.33300 48.95300
H  22.83700 -9.63000 49.57500
H  27.50600 -9.93700 48.22000
H  26.45100 -10.67000 49.42900
H  28.33400 -10.12400 50.70400
H  27.03100 -8.83900 51.01300
H  28.43500 -8.47300 50.02100
H  30.57900 -4.76100 47.09800
H  30.15700 -6.48800 47.28200
H  29.72200 -5.17100 48.44400
H  27.66900 -2.87600 42.87100
H  28.04400 1.45300 42.33000
H  27.78400 1.37300 44.02600
H  26.35800 1.03000 42.89500
Mg 1.38600 43.12700 25.87400
C  2.92300 43.32900 29.06600
C  -1.41800 41.83400 27.59600
C  0.21100 42.48300 22.90800
C  4.54300 43.95500 24.52100
N  0.79100 42.84300 28.06200
C  1.54600 43.08300 29.18200
C  0.75800 42.78300 30.50700
C  -0.65600 42.28500 29.92900
C  -0.43200 42.35600 28.43200
C  -1.09900 40.88800 30.55100
C  0.71800 43.97600 31.45000
C  0.91300 43.72900 32.94100
H  0.69800 42.34400 33.53300
N  -0.41600 42.42200 25.33900
C  -1.45200 41.86800 26.16800
C  -2.46900 41.41800 25.25600
C  -2.05500 41.61300 23.87500
C  -0.67800 42.14100 24.00300
C  -3.79800 40.71600 25.67700
C  -2.70500 41.42200 22.55500
O  -2.28900 41.74100 21.46300
C  -4.01600 40.73600 22.61000
N  2.26300 43.23600 23.89600
C  1.49900 43.01100 22.84200
C  2.29500 43.35600 21.54800
C  3.47000 44.18900 22.11500
C  3.48800 43.77000 23.57500
C  2.75800 42.07900 20.67100
C  3.36400 45.70900 21.87300
C  4.17500 46.19200 20.64500
N  3.28200 43.49900 26.56400
C  4.48800 43.75000 25.86000
C  5.59200 43.89700 26.76800
C  5.07100 43.71600 28.02800
C  3.65200 43.54200 27.86100
C  6.94600 44.31000 26.43700
C  5.26700 43.60800 29.42600
O  6.32200 43.59700 30.11900
C  3.93400 43.50100 30.13900
C  4.04700 42.25100 31.04400
O  3.78400 41.02400 30.75000
O  4.38600 42.62400 32.36200
C  4.54400 41.58200 33.39100
H  -2.27400 41.46400 28.16400
H  -0.17500 42.26600 21.91000
H  5.53500 44.29400 24.21600
H  1.28300 41.93900 30.95400
H  -1.57100 42.86000 30.07200
H  -0.45500 40.46700 31.32400
H  -0.98800 40.28300 29.65200
H  -2.14800 40.88300 30.84800
H  -0.24400 44.44000 31.23600
H  1.44000 44.78600 31.34100
H  0.24900 44.42500 33.45500
H  1.88700 44.10200 33.25600
H  -3.74300 40.53800 26.75000
H  -3.93200 39.74700 25.19700
H  -4.64800 41.34100 25.40400
H  -4.84800 41.28400 23.05100
H  -3.95100 39.70700 22.96500
H  -4.33400 40.60900 21.57600
H  1.59700 43.91500 20.92500
H  4.39600 43.84000 21.65800
H  2.30100 41.20400 21.13500
H  3.82300 41.84500 20.68000
H  2.47300 42.19100 19.62600
H  3.57900 46.27000 22.78300
H  2.32700 45.93200 21.62200
H  4.84400 46.95900 21.03500
H  3.51600 46.63800 19.90000
H  4.70000 45.34200 20.20900
H  6.97800 45.32700 26.04600
H  7.49900 43.71800 25.70700
H  7.38800 44.51200 27.41200
H  3.79500 44.37600 30.77400
H  5.62900 41.58200 33.49700
H  4.10300 40.58600 33.34800
H  4.07400 41.94500 34.30500

