158

Mg 24.21100 -5.85200 45.68200
C  26.39900 -3.40600 44.23200
C  21.74100 -4.31900 43.77200
C  22.35200 -8.64400 46.14100
C  27.02900 -7.35000 47.19600
N  24.12100 -4.02600 44.24600
C  25.09800 -3.22700 43.75400
C  24.61500 -2.27800 42.69900
C  23.07100 -2.35000 42.92200
C  22.93200 -3.69200 43.69200
C  22.50600 -1.08700 43.61900
C  25.08600 -2.79200 41.32300
C  25.60900 -1.65800 40.39300
H  25.22800 -1.92700 38.89800
N  22.23600 -6.34100 45.20000
C  21.38300 -5.54600 44.47700
C  20.10000 -6.15800 44.32600
C  20.19700 -7.43500 45.01700
C  21.57400 -7.55700 45.56100
C  18.95900 -5.59500 43.56700
C  19.13700 -8.51200 45.12900
O  18.04200 -8.38900 44.58400
C  19.33200 -9.77500 45.98400
N  24.56000 -7.70600 46.63000
C  23.66100 -8.66600 46.64700
C  24.19900 -9.84300 47.48300
C  25.58300 -9.42100 48.06500
C  25.78900 -8.11700 47.27100
C  23.23300 -10.53000 48.51500
C  26.73300 -10.53300 48.04500
C  27.32600 -11.01700 49.33700
N  26.25300 -5.38200 45.89800
C  27.23700 -6.11200 46.53100
C  28.47700 -5.42000 46.35700
C  28.24900 -4.29800 45.50400
C  26.84200 -4.40100 45.18800
C  29.81200 -5.88800 46.86300
C  28.87800 -3.23100 44.76400
O  30.04100 -2.84100 44.66800
C  27.66300 -2.62000 43.98300
C  27.57900 -1.16200 44.16800
O  27.42900 -0.54900 45.23500
O  27.91600 -0.55900 42.99400
C  27.89600 0.87400 42.91600
H  21.01900 -3.74700 43.18500
H  21.91100 -9.64200 46.12800
H  27.98100 -7.68200 47.61400
H  25.10300 -1.36400 43.03800
H  22.57900 -2.57400 41.97500
H  23.13000 -0.19600 43.68900
H  22.19500 -1.32600 44.63600
H  21.55600 -0.91100 43.11300
H  24.24100 -3.28900 40.84700
H  25.79900 -3.61600 41.34300
H  26.68500 -1.54300 40.52300
H  25.17300 -0.73500 40.77600
H  18.93100 -6.14700 42.62800
H  19.00900 -4.52300 43.37600
H  18.04300 -5.79500 44.12400
H  18.32400 -10.07800 46.26600
H  19.89400 -9.60700 46.90200
H  19.66100 -10.56400 45.30800
H  24.32900 -10.71500 46.84200
H  25.36200 -9.17300 49.10300
H  22.43000 -9.84400 48.78500
H  23.79600 -10.75300 49.42100
H  22.87100 -11.51700 48.22800
H  27.55700 -10.13800 47.45000
H  26.45800 -11.40400 47.45100
H  26.93400 -10.39200 50.14000
H  28.39300 -10.79500 49.31400
H  27.20000 -12.08300 49.52400
H  30.10200 -6.78200 46.31100
H  29.79100 -5.95800 47.95000
H  30.45600 -5.04000 46.62900
H  27.89900 -2.75000 42.92700
H  27.04600 1.30500 43.44600
H  28.03500 1.29000 41.91900
H  28.84300 1.10800 43.40200
Mg 7.14000 55.39100 41.68000
C  5.98800 52.27600 40.56700
C  10.14000 54.57800 40.78600
C  7.75200 58.74400 41.52700
C  3.91500 56.18200 42.58500
N  7.91700 53.60800 40.76900
C  7.33000 52.46200 40.43300
C  8.34600 51.38700 40.06100
C  9.73600 52.04600 40.45100
C  9.28400 53.48800 40.70600
C  10.47900 51.25900 41.60900
C  8.29000 50.88100 38.59500
C  8.89200 49.51000 38.39600
H  9.53700 49.44500 36.98500
N  8.75900 56.57600 41.28600
C  9.96900 55.96700 40.90900
C  10.93900 56.99900 40.77100
C  10.21500 58.22400 40.79100
C  8.82600 57.88200 41.20900
C  12.41800 56.69900 40.56400
C  10.71700 59.60900 40.49900
O  11.89700 59.79300 40.12600
C  9.97500 60.89600 40.68300
N  5.96600 57.26700 42.14300
C  6.48000 58.49000 42.02900
C  5.39200 59.49800 42.47700
C  4.24100 58.68500 43.03200
C  4.65100 57.33200 42.47800
C  6.09900 60.47700 43.47100
C  2.80100 59.17000 42.53700
C  1.73100 58.94600 43.59300
N  5.30500 54.43300 41.62900
C  4.08700 54.85300 42.05100
C  3.16400 53.77200 41.99600
C  3.79500 52.69700 41.25200
C  5.12300 53.19400 41.12800
C  1.79800 53.73200 42.61000
C  3.71200 51.30800 40.75300
O  2.83300 50.43300 40.86800
C  5.13400 51.01900 40.17400
C  4.85100 51.00400 38.74000
O  4.47300 52.02000 38.14800
O  5.13100 49.74600 38.15500
C  4.96400 49.70100 36.67900
H  11.20400 54.42500 40.59500
H  7.95000 59.81800 41.51300
H  2.93200 56.23500 43.05700
H  8.17100 50.54000 40.72400
H  10.31200 51.98300 39.52800
H  10.20500 51.57900 42.61400
H  11.50900 51.34900 41.26200
H  10.19900 50.21400 41.47300
H  8.93200 51.58900 38.07000
H  7.26800 50.93900 38.22100
H  8.04300 48.85100 38.57900
H  9.66600 49.29000 39.13100
H  12.45900 56.11200 39.64700
H  12.79000 56.12600 41.41400
H  13.00000 57.62100 40.55400
H  10.00100 61.21400 41.72500
H  8.95500 60.86100 40.29900
H  10.64800 61.60200 40.19700
H  5.29500 60.09600 41.57100
H  4.26400 58.57300 44.11600
H  7.18000 60.35400 43.54100
H  5.52200 60.48200 44.39500
H  5.94400 61.47200 43.05200
H  2.62800 58.46900 41.72100
H  2.90700 60.13600 42.04400
H  1.96300 58.25400 44.40300
H  0.92500 58.38400 43.12200
H  1.20500 59.85900 43.87300
H  1.40100 54.73900 42.73700
H  1.80000 53.22200 43.57400
H  1.13600 53.24400 41.89500
H  5.57100 50.04400 40.38900
H  5.48000 50.53400 36.20100
H  3.89800 49.90900 36.59300
H  5.15600 48.69100 36.31600

