158

Mg 47.00100 25.47300 27.99200
C  47.76200 27.66800 30.46900
C  46.42700 23.01600 30.31400
C  46.10600 23.41800 25.51600
C  47.74600 27.87400 25.66500
N  47.03400 25.39200 30.17900
C  47.27900 26.40800 31.02800
C  47.24000 25.95600 32.47800
C  46.73800 24.50600 32.46300
C  46.73400 24.26000 30.86600
C  47.58300 23.53700 33.32500
C  46.53300 27.04500 33.40500
C  45.72700 26.57700 34.60000
H  45.51600 27.53800 35.83800
N  46.45100 23.48200 27.92800
C  46.27900 22.60800 29.00200
C  45.80400 21.32900 28.54000
C  45.54800 21.48400 27.17200
C  46.12500 22.82200 26.78300
C  45.49400 20.19300 29.57300
C  44.85500 20.61600 26.21200
O  44.46700 20.99100 25.10900
C  44.43300 19.33200 26.64700
N  47.03300 25.61900 25.85000
C  46.51500 24.65500 25.06600
C  46.53400 25.01500 23.58700
C  47.02300 26.49200 23.64500
C  47.24400 26.74100 25.14800
C  47.47200 24.18500 22.67800
C  45.95300 27.52800 23.05300
C  46.38800 28.43300 21.91200
N  47.75200 27.30900 28.00700
C  48.07600 28.18700 26.97900
C  48.45500 29.43800 27.50200
C  48.45100 29.21000 28.88300
C  48.00600 27.96100 29.13600
C  48.76700 30.66800 26.76200
C  48.75800 29.88500 30.15200
O  49.20900 31.00700 30.27500
C  48.19500 28.91900 31.24100
C  49.26300 28.64100 32.15100
O  50.24700 27.90500 31.93000
O  49.12400 29.35100 33.29200
C  50.34500 29.39800 34.16400
H  46.23800 22.30900 31.12500
H  45.88200 22.77300 24.66400
H  47.95800 28.59500 24.87300
H  48.28300 26.04000 32.78400
H  45.69600 24.45400 32.77800
H  48.13900 24.04100 34.11500
H  48.28400 23.07400 32.63100
H  47.01600 22.74700 33.81900
H  45.78100 27.49500 32.75800
H  47.33400 27.71300 33.72300
H  46.16000 25.63100 34.92400
H  44.75900 26.20700 34.26200
H  44.89200 19.35000 29.23500
H  45.13600 20.68500 30.47700
H  46.39800 19.66300 29.87500
H  44.03400 18.75800 25.81100
H  43.69500 19.38400 27.44600
H  45.38200 18.82600 26.82000
H  45.53700 25.02000 23.14700
H  47.94700 26.62000 23.08100
H  48.18300 23.60700 23.26900
H  47.95700 24.79600 21.91700
H  46.92900 23.48400 22.04300
H  45.42700 28.19600 23.73500
H  45.14700 26.95000 22.60000
H  45.70000 28.23800 21.08900
H  47.43100 28.26600 21.64400
H  46.25700 29.48300 22.17400
H  49.16200 31.42200 27.44300
H  47.86900 31.13800 26.36200
H  49.52300 30.40200 26.02300
H  47.27800 29.37700 31.61200
H  49.99700 29.05800 35.13900
H  50.66000 30.43500 34.27900
H  51.21800 28.79200 33.92100
Mg 49.45800 46.00400 42.34900
C  46.02300 46.54000 41.49800
C  49.13400 42.91100 41.01400
C  52.60300 45.74600 42.69700
C  49.63200 49.43900 43.20700
N  47.83100 44.89100 41.22400
C  46.48000 45.28000 41.03400
C  45.66800 44.12900 40.45100
C  46.71800 42.94400 40.40800
C  47.96700 43.58000 40.97800
C  46.31700 41.73400 41.21400
C  45.13100 44.55600 39.05600
C  43.60700 44.26900 38.68600
H  43.47800 43.36000 37.41900
N  50.74600 44.43500 42.02500
C  50.40700 43.24100 41.42800
C  51.65900 42.37200 41.48100
C  52.70100 43.15700 42.05400
C  52.03600 44.50000 42.28400
C  51.65900 40.91700 41.12500
C  54.12300 42.82900 42.09900
O  54.52600 41.79200 41.60100
C  55.19500 43.77100 42.66300
N  50.91700 47.52500 42.77900
C  52.18600 47.05500 42.87400
C  53.16100 48.24800 43.19200
C  52.14300 49.42400 43.61500
C  50.85200 48.80800 43.11600
C  54.09400 47.86100 44.39300
C  52.41200 50.85800 42.97500
C  52.57800 51.99800 44.06100
N  48.12000 47.75900 42.32000
C  48.33300 49.04000 42.72000
C  47.05100 49.76100 42.70300
C  46.10500 48.84000 42.25200
C  46.78200 47.59600 42.03500
C  47.02000 51.22700 43.27700
C  44.66500 48.61700 41.94500
O  43.66500 49.34100 42.04300
C  44.60600 47.19700 41.23300
C  43.43600 46.48000 41.82000
O  42.39900 46.27700 41.25000
O  43.75000 45.99400 43.04700
C  42.59400 45.43800 43.74600
H  49.11300 41.86600 40.69900
H  53.64000 45.54300 42.97300
H  49.66500 50.49400 43.48500
H  44.82800 43.75300 41.03600
H  46.91400 42.56400 39.40600
H  45.29400 41.71600 41.58800
H  47.02600 41.67500 42.04000
H  46.36400 40.88900 40.52700
H  45.58200 43.97600 38.25000
H  45.47400 45.56100 38.80800
H  43.04000 45.18100 38.50100
H  43.23300 43.72900 39.55600
H  52.31600 40.80200 40.26300
H  50.65000 40.57700 40.89000
H  52.07500 40.29100 41.91500
H  54.88200 44.23600 43.59800
H  55.62200 44.35900 41.85100
H  56.11500 43.20700 42.81200
H  53.80100 48.40800 42.32400
H  52.12200 49.51100 44.70100
H  53.80600 46.89900 44.81500
H  54.09900 48.63300 45.16300
H  55.08500 47.95100 43.94900
H  51.51200 51.11300 42.41500
H  53.23800 50.76100 42.27100
H  53.56700 52.43100 43.91200
H  52.48100 51.65300 45.09000
H  51.77100 52.72800 43.99200
H  47.72500 51.77800 42.65500
H  47.34400 51.24900 44.31800
H  46.03000 51.67300 43.17700
H  44.46000 47.38600 40.17000
H  42.87400 45.47100 44.79900
H  42.50100 44.41100 43.39200
H  41.70000 46.04200 43.59100

