158

Mg 2.97000 -1.51600 43.40300
C  6.53900 -0.68700 42.88200
C  2.24400 1.21800 41.44300
C  -0.26200 -2.53700 43.20700
C  3.90500 -4.50400 44.74000
N  4.33200 -0.04200 42.11000
C  5.71400 0.23100 42.26400
C  6.03700 1.62400 41.67100
C  4.65200 2.26900 41.53300
C  3.62600 1.09900 41.73700
C  4.31900 3.43000 42.61600
C  6.64600 1.47300 40.22500
C  6.05500 0.48600 39.19900
H  5.70900 1.17800 37.95500
N  1.29400 -0.74800 42.49500
C  1.18400 0.43400 41.81700
C  -0.19400 0.72500 41.56800
C  -0.98300 -0.25300 42.19900
C  -0.01800 -1.21600 42.76100
C  -0.73200 1.96500 40.84700
C  -2.56400 -0.22900 42.43000
O  -3.18800 0.62000 41.81000
C  -3.28500 -1.19100 43.35800
N  1.91600 -3.35400 43.73600
C  0.60100 -3.49000 43.67300
C  0.20200 -4.91000 44.20400
C  1.52500 -5.56300 44.67000
C  2.49900 -4.42200 44.34700
C  -0.96100 -4.81800 45.26100
C  1.89400 -6.89800 43.90000
C  1.52100 -8.15100 44.65400
N  4.83000 -2.45200 43.81900
C  5.05200 -3.68300 44.42700
C  6.44100 -3.83800 44.66600
C  7.07500 -2.70200 44.16000
C  6.08000 -1.89000 43.54700
C  7.13600 -5.00100 45.37500
C  8.39900 -2.13400 43.84100
O  9.53400 -2.56900 44.02600
C  8.02100 -0.77900 42.99000
C  8.58500 0.48000 43.60600
O  9.25100 1.30400 43.00700
O  8.22700 0.76600 44.91800
C  8.77900 2.01800 45.50400
H  2.03700 2.23500 41.10300
H  -1.25700 -2.98300 43.15400
H  4.09500 -5.52100 45.09100
H  6.68100 2.14900 42.37700
H  4.55000 2.68200 40.52900
H  4.99300 3.41200 43.47200
H  3.29200 3.43400 42.98100
H  4.44100 4.41500 42.16600
H  7.66500 1.14100 40.42000
H  6.73900 2.48300 39.82400
H  5.11900 0.12900 39.62800
H  6.72000 -0.35000 38.98200
H  -0.07900 2.39200 40.08600
H  -0.93500 2.63500 41.68200
H  -1.68400 1.72800 40.37100
H  -2.64200 -1.82400 43.96800
H  -3.93200 -1.77900 42.70700
H  -3.95200 -0.61500 44.00000
H  -0.14200 -5.41800 43.30300
H  1.54300 -5.73500 45.74700
H  -1.59700 -3.94300 45.13000
H  -0.49900 -4.68900 46.24000
H  -1.57100 -5.71800 45.34400
H  2.93700 -6.95800 43.59000
H  1.31800 -7.01700 42.98200
H  0.79400 -8.79400 44.15800
H  1.14800 -7.84800 45.63300
H  2.38600 -8.79100 44.82300
H  7.55900 -5.71300 44.66600
H  6.43600 -5.54300 46.01100
H  7.95800 -4.62700 45.98500
H  8.49900 -0.80500 42.01000
H  8.94300 1.82000 46.56300
H  7.99200 2.75700 45.35600
H  9.64800 2.37200 44.94900
Mg 25.53100 -8.06700 47.36700
C  27.49400 -5.42600 46.58300
C  23.29700 -7.15100 44.85800
C  23.65700 -10.72700 48.13200
C  28.23200 -9.53100 49.35200
N  25.47300 -6.58800 45.84900
C  26.48800 -5.65300 45.66400
C  26.01300 -4.59400 44.52400
C  24.64400 -5.15400 44.08800
C  24.42900 -6.38100 44.97300
C  23.39400 -4.15300 44.21700
C  27.09100 -4.59400 43.51000
C  27.49000 -3.11000 43.07400
H  27.17500 -2.69000 41.63300
N  23.70500 -8.85800 46.59700
C  22.93600 -8.30100 45.57500
C  21.78500 -9.13700 45.42100
C  21.87500 -10.24000 46.35500
C  23.09100 -9.94500 47.14200
C  20.73100 -8.92900 44.37200
C  20.83600 -11.40800 46.43100
O  19.78500 -11.40300 45.78300
C  21.12500 -12.61300 47.18400
N  25.90800 -9.93100 48.54900
C  24.90700 -10.78500 48.79900
C  25.29900 -11.88700 49.78300
C  26.88700 -11.69300 49.83200
C  27.05400 -10.34700 49.22100
C  24.52800 -11.69400 51.15000
C  27.65500 -12.70700 49.03500
C  29.16600 -12.85700 49.42400
N  27.42700 -7.62100 47.90800
C  28.39000 -8.26400 48.65400
C  29.60300 -7.42600 48.70400
C  29.25300 -6.19500 48.03700
C  27.94900 -6.41300 47.48800
C  30.95700 -7.73200 49.32400
C  29.67300 -4.84100 47.66100
O  30.71500 -4.24100 47.84900
C  28.50800 -4.28000 46.74300
C  27.76600 -3.24500 47.47900
O  27.00300 -3.45600 48.45600
O  27.98800 -2.02000 46.85900
C  27.18500 -0.89600 47.42100
H  22.63300 -6.78900 44.07000
H  23.06400 -11.51900 48.59400
H  29.02300 -9.96800 49.96500
H  25.81400 -3.64200 45.01500
H  24.65000 -5.58300 43.08600
H  23.77800 -3.14000 44.09800
H  23.08400 -4.09500 45.26100
H  22.62200 -4.31600 43.46500
H  26.86300 -5.08200 42.56200
H  27.96400 -5.11400 43.90300
H  28.56300 -2.98100 43.21600
H  26.98400 -2.37800 43.70300
H  21.09000 -9.34100 43.42900
H  20.60600 -7.87400 44.13100
H  19.76300 -9.38900 44.57100
H  20.97400 -12.40300 48.24300
H  22.19500 -12.79800 47.08600
H  20.50500 -13.43300 46.82400
H  24.96900 -12.82100 49.32800
H  27.11200 -11.84800 50.88700
H  23.86800 -12.53900 51.34400
H  23.89600 -10.80700 51.10800
H  25.23200 -11.48900 51.95600
H  27.37100 -12.59600 47.98800
H  27.22100 -13.62300 49.43500
H  29.68900 -12.28700 48.65700
H  29.61300 -13.85000 49.36400
H  29.59000 -12.44200 50.33900
H  30.77400 -8.54800 50.02400
H  31.39600 -6.84800 49.78500
H  31.68000 -8.08000 48.58600
H  29.00700 -3.88500 45.85800
H  27.26000 0.07900 46.94000
H  27.35400 -0.79100 48.49300
H  26.14300 -1.20200 47.51600

