158

Mg 49.22000 46.10200 43.72800
C  45.78400 46.63900 42.87100
C  48.94400 43.03500 42.13200
C  52.48000 45.98400 43.82300
C  49.32500 49.55100 44.66900
N  47.64900 45.05400 42.55400
C  46.30100 45.44300 42.35100
C  45.59900 44.54500 41.33300
C  46.49100 43.31300 41.32800
C  47.77500 43.80800 42.12400
C  45.96400 41.90200 41.75200
C  45.22400 45.27100 39.97700
C  43.80300 44.97700 39.40600
H  43.78600 44.76700 37.87700
N  50.51000 44.62500 43.27500
C  50.22300 43.38900 42.66900
C  51.36800 42.58200 42.51200
C  52.43300 43.44300 42.99100
C  51.87000 44.70900 43.48500
C  51.40300 41.12600 41.97500
C  53.91200 42.98200 42.96300
O  54.29500 41.96900 42.38700
C  54.98000 43.84700 43.60600
N  50.71000 47.58300 44.18400
C  52.00500 47.27500 44.11100
C  52.87900 48.46100 44.36700
C  51.85300 49.47900 44.92600
C  50.55400 48.82100 44.58700
C  54.12700 48.27300 45.16600
C  51.97700 51.03400 44.45200
C  51.72700 52.14900 45.53200
N  47.89500 47.80600 43.77900
C  48.06600 49.04400 44.30800
C  46.78700 49.69900 44.28200
C  45.87000 48.79300 43.77400
C  46.52900 47.68000 43.42900
C  46.54100 51.04100 44.84800
C  44.48300 48.67200 43.38600
O  43.47100 49.39200 43.56500
C  44.41000 47.22100 42.83300
C  43.36300 46.45300 43.56700
O  43.14500 46.59300 44.77400
O  42.75100 45.53100 42.76100
C  41.73000 44.75000 43.37700
H  48.88400 42.11100 41.55300
H  53.55700 45.96200 43.64300
H  49.39900 50.61400 44.90900
H  44.68600 44.14500 41.77500
H  46.92500 43.09500 40.35200
H  46.67100 41.48500 42.46900
H  45.77600 41.16100 40.97500
H  44.96600 42.00100 42.17900
H  45.91800 44.95000 39.19900
H  45.35900 46.33400 40.17400
H  43.19700 45.86600 39.58300
H  43.28400 44.16200 39.90900
H  51.02300 40.52000 42.79700
H  52.36300 40.73900 41.63200
H  50.73400 41.06000 41.11700
H  55.90100 43.26700 43.67400
H  54.75800 44.26300 44.58900
H  55.07300 44.72500 42.96700
H  53.21500 48.98000 43.47000
H  51.93800 49.33900 46.00300
H  54.92600 48.43300 44.44400
H  54.23400 47.28700 45.61900
H  54.22900 49.09100 45.88000
H  51.31100 51.15900 43.59800
H  52.94100 51.12300 43.95200
H  51.06400 52.78600 44.94700
H  52.58400 52.68500 45.94000
H  51.00300 51.80200 46.26900
H  46.66200 51.85300 44.13100
H  47.32600 51.20500 45.58700
H  45.62800 51.09700 45.44100
H  44.03500 47.41400 41.82800
H  42.06700 44.18400 44.24600
H  41.65100 43.90800 42.69000
H  40.76500 45.24800 43.47000
Mg 1.53100 41.99300 25.24000
C  2.82900 42.03100 28.62400
C  -1.33900 40.52300 26.45700
C  0.66200 41.51500 22.07200
C  4.80000 42.84000 24.29600
N  0.71000 41.67700 27.37700
C  1.45000 41.59600 28.56200
C  0.56000 41.16500 29.75400
C  -0.71500 40.69100 28.99000
C  -0.43200 40.95400 27.48300
C  -1.09400 39.20100 29.25900
C  0.24000 42.23800 30.83300
C  -0.14200 41.83700 32.22500
H  -1.19800 40.69500 32.41400
N  -0.08100 41.27900 24.32100
C  -1.21300 40.76700 24.99100
C  -2.14100 40.21600 24.03300
C  -1.64500 40.52100 22.72900
C  -0.30200 41.17700 23.00100
C  -3.39900 39.56000 24.49100
C  -2.10200 40.10500 21.35400
O  -1.47700 40.36700 20.29600
C  -3.36100 39.34600 21.22600
N  2.64800 42.05900 23.48300
C  2.02500 41.87800 22.23200
C  2.95100 42.18000 21.07500
C  4.11900 42.85600 21.82600
C  3.86400 42.56700 23.29300
C  3.30700 40.86600 20.24800
C  4.19600 44.34800 21.55300
C  3.04500 45.22400 21.97100
N  3.45100 42.33100 26.22700
C  4.65800 42.68200 25.66800
C  5.72100 42.75900 26.70000
C  5.00300 42.55400 27.91600
C  3.64100 42.26500 27.56100
C  7.18400 42.93600 26.55900
C  5.20600 42.37500 29.30400
O  6.17800 42.49900 30.02800
C  3.75300 42.03200 29.88700
C  3.74200 40.69400 30.55600
O  4.43800 39.71000 30.21200
O  2.90500 40.69600 31.65000
C  2.94400 39.47800 32.45200
H  -2.23600 40.02400 26.83200
H  0.38300 41.23100 21.05500
H  5.72900 43.25300 23.89800
H  0.98200 40.21600 30.08400
H  -1.50700 41.43600 29.06800
H  -0.37700 38.76700 29.95500
H  -0.93300 38.52200 28.42200
H  -2.06900 39.06600 29.72700
H  -0.56500 42.87600 30.47000
H  1.13400 42.85700 30.91100
H  -0.38500 42.73000 32.80000
H  0.79200 41.50800 32.68000
H  -3.66600 39.77600 25.52600
H  -3.28100 38.48200 24.38000
H  -4.27700 39.84500 23.91100
H  -3.25000 38.39700 21.75000
H  -3.39900 39.15600 20.15300
H  -4.26800 39.87500 21.51700
H  2.43100 42.75600 20.30900
H  5.03100 42.32900 21.54800
H  4.31000 40.51100 20.48400
H  3.27800 41.26500 19.23400
H  2.61800 40.03500 20.40300
H  4.45800 44.62400 20.53200
H  5.09200 44.71300 22.05700
H  2.63300 45.69900 21.08100
H  3.39700 45.93400 22.71900
H  2.24000 44.70200 22.48800
H  7.75800 42.12400 27.00600
H  7.38700 43.82100 27.16200
H  7.42200 43.07400 25.50400
H  3.43500 42.84700 30.53800
H  3.61400 38.70100 32.08200
H  1.91400 39.12900 32.51200
H  3.30300 39.64200 33.46800

