158

Mg 16.66700 52.10800 26.21300
C  18.57200 50.57400 28.70300
C  14.25400 52.70400 28.48200
C  14.93800 53.42800 23.66600
C  18.96600 50.71000 23.87600
N  16.49300 51.74500 28.36300
C  17.45600 51.22700 29.19300
C  17.02200 51.47100 30.66600
C  15.52500 51.78100 30.44800
C  15.36100 52.05200 28.98800
C  14.59900 50.60200 30.96400
C  17.91900 52.55100 31.35300
C  18.18200 52.40700 32.95100
H  17.10400 52.02100 33.93800
N  14.88200 53.06000 26.14100
C  14.03800 53.23900 27.19400
C  12.89600 53.97200 26.70900
C  13.01300 54.06700 25.25000
C  14.34500 53.54900 24.96000
C  11.75600 54.32900 27.62900
C  12.02200 54.57400 24.22900
O  12.26600 54.53700 23.06000
C  10.76800 55.27200 24.60900
N  16.82700 51.97500 23.93100
C  16.03800 52.68300 23.14500
C  16.48700 52.61400 21.67000
C  17.86400 51.72800 21.75900
C  17.96000 51.42700 23.27000
C  15.35100 51.91400 20.84500
C  19.15200 52.42200 21.20700
C  19.40600 53.84500 21.67500
N  18.35400 50.86100 26.18900
C  19.16700 50.38000 25.20900
C  20.26800 49.62400 25.75000
C  20.15900 49.76400 27.10400
C  18.97200 50.49700 27.32900
C  21.39400 48.96000 25.00200
C  20.69800 49.35700 28.39700
O  21.76500 48.67300 28.54500
C  19.74800 49.95900 29.47900
C  19.22000 48.99000 30.52500
O  18.30700 48.21800 30.41100
O  19.93600 49.23600 31.67900
C  19.54800 48.38900 32.82800
H  13.52900 52.90800 29.27300
H  14.60900 54.05900 22.83800
H  19.75900 50.37900 23.20300
H  17.13600 50.55500 31.24600
H  15.29200 52.71700 30.95500
H  15.11300 49.65300 31.11900
H  13.85400 50.36000 30.20600
H  13.94100 50.89000 31.78400
H  17.62400 53.59500 31.25300
H  18.87300 52.41700 30.84400
H  18.70400 53.23700 33.42700
H  18.82100 51.54100 33.12200
H  11.43300 55.36800 27.55500
H  12.20200 54.37400 28.62300
H  10.94700 53.62100 27.44900
H  10.31400 54.68400 25.40600
H  10.01500 55.34400 23.82400
H  11.19500 56.20500 24.97700
H  16.61700 53.62300 21.28100
H  17.85100 50.79300 21.19900
H  15.79300 51.28700 20.07000
H  14.67800 52.55900 20.28000
H  14.90400 51.19600 21.53400
H  19.21300 52.37500 20.11900
H  19.92200 51.81700 21.68500
H  20.47200 53.94200 21.88100
H  18.87100 54.02100 22.60800
H  19.15900 54.50600 20.84400
H  21.05300 48.71400 23.99700
H  21.52800 47.99100 25.48200
H  22.26600 49.61500 24.98900
H  20.09500 50.85500 29.99400
H  20.26100 48.54100 33.63900
H  19.53300 47.30400 32.72600
H  18.55100 48.70000 33.13900
Mg -6.03800 25.69800 25.95400
C  -4.67600 26.84700 28.90600
C  -7.65100 23.14900 27.86700
C  -7.07300 24.20100 23.11900
C  -3.57000 27.49300 24.16800
N  -5.92700 24.96600 28.05200
C  -5.53400 25.78000 29.08900
C  -6.10000 25.24100 30.39600
C  -6.82800 23.89500 30.06700
C  -6.78000 23.98400 28.56300
C  -6.07100 22.60200 30.55000
C  -6.99400 26.22700 31.09100
C  -6.79400 26.41300 32.62500
H  -6.18000 25.18800 33.40700
N  -7.35300 24.01100 25.57600
C  -8.00200 23.21000 26.45600
C  -8.94600 22.40500 25.74600
C  -8.81700 22.63300 24.36200
C  -7.69500 23.64000 24.28300
C  -10.13200 21.64500 26.46200
C  -9.57300 22.05300 23.24700
O  -9.20700 22.23300 22.07000
C  -10.71700 21.09200 23.37800
N  -5.54700 26.05500 23.92300
C  -6.10700 25.22800 22.95600
C  -5.37900 25.49800 21.59500
C  -4.34800 26.64300 21.90300
C  -4.46600 26.76600 23.42700
C  -4.67700 24.27100 20.95700
C  -4.74200 28.02800 21.22000
C  -3.69200 28.62000 20.33600
N  -4.55400 27.06700 26.36800
C  -3.63400 27.73600 25.56900
C  -2.95600 28.65100 26.35500
C  -3.28400 28.38600 27.69400
C  -4.27600 27.40700 27.66300
C  -1.90200 29.65200 25.86500
C  -2.96100 28.67800 29.09500
O  -2.17800 29.45100 29.60200
C  -3.97100 27.69600 29.92000
C  -3.20700 26.92500 30.94700
O  -2.74600 25.84800 30.85600
O  -3.14300 27.63900 32.08600
C  -2.36900 26.98200 33.18700
H  -8.16800 22.41400 28.48800
H  -7.24500 23.80400 22.11600
H  -2.76500 27.88100 23.54000
H  -5.32200 24.94000 31.09800
H  -7.84300 23.75800 30.43900
H  -5.73100 22.09800 29.64500
H  -6.87300 22.03500 31.02400
H  -5.15100 22.64900 31.13300
H  -8.01100 25.84600 31.00300
H  -6.96600 27.18500 30.57100
H  -7.73900 26.54800 33.15100
H  -6.16300 27.25200 32.91700
H  -11.03700 22.24000 26.33800
H  -10.00800 21.45200 27.52700
H  -10.24700 20.63500 26.07000
H  -11.34300 20.90300 22.50600
H  -11.39200 21.23300 24.22200
H  -10.16500 20.17900 23.60000
H  -6.09800 25.95100 20.91300
H  -3.33900 26.31200 21.65800
H  -5.34300 23.93800 20.16100
H  -4.52900 23.37300 21.55600
H  -3.70800 24.55200 20.54500
H  -4.90000 28.77900 21.99400
H  -5.67400 27.99300 20.65500
H  -3.24700 29.54300 20.70700
H  -4.23600 28.94100 19.44800
H  -2.98000 27.83200 20.08800
H  -1.09400 29.94900 26.53400
H  -2.53300 30.50100 25.59900
H  -1.46400 29.19300 24.97900
H  -4.67100 28.36100 30.42600
H  -1.35000 26.77700 32.86100
H  -2.67800 25.95100 33.36200
H  -2.42000 27.49900 34.14600

