158

Mg 41.22300 9.51000 30.20400
C  43.39700 10.73200 32.70400
C  38.99100 8.55600 32.49700
C  39.56400 8.03200 27.76400
C  43.98300 9.94900 27.91100
N  41.28900 9.62100 32.36300
C  42.15600 10.26300 33.18900
C  41.62400 10.34100 34.61300
C  40.31500 9.50900 34.52000
C  40.13300 9.25200 33.00100
C  40.19400 8.22900 35.37700
C  41.43600 11.84800 34.97900
C  40.53800 12.08800 36.18100
H  41.12000 12.93400 37.34500
N  39.38400 8.51300 30.18500
C  38.59500 8.20200 31.21300
C  37.41200 7.52700 30.71000
C  37.46700 7.51600 29.28000
C  38.86000 7.95900 29.00000
C  36.36500 7.02500 31.56900
C  36.52300 7.01300 28.25300
O  36.76300 7.04000 27.07900
C  35.20400 6.58600 28.67100
N  41.70600 9.08600 28.17500
C  40.81900 8.41100 27.37400
C  41.30100 8.32700 25.91300
C  42.81800 8.74600 26.03800
C  42.85000 9.25400 27.49900
C  41.12800 6.91100 25.24000
C  43.21100 9.82400 24.90800
C  42.83800 11.29500 25.14300
N  43.22200 10.26800 30.22100
C  44.27800 10.30100 29.27700
C  45.42300 10.86500 29.86900
C  45.08200 11.13300 31.17600
C  43.78700 10.68500 31.37800
C  46.80200 11.12800 29.27300
C  45.58300 11.76600 32.39100
O  46.59800 12.38000 32.58900
C  44.48700 11.50400 33.46300
C  44.98800 10.71000 34.62200
O  45.07300 9.50300 34.59700
O  45.36300 11.58700 35.63900
C  45.71100 10.87400 36.80800
H  38.23800 8.47300 33.28300
H  38.98700 7.56100 26.96500
H  44.71300 9.97800 27.10000
H  42.41300 9.83800 35.17200
H  39.44700 10.11000 34.79200
H  40.76100 8.46400 36.27700
H  40.57400 7.36100 34.83800
H  39.17800 8.17700 35.76800
H  40.98300 12.37600 34.14000
H  42.38400 12.35900 35.15000
H  40.37900 11.10200 36.61700
H  39.58200 12.45100 35.80500
H  35.46700 7.64300 31.55500
H  36.67200 7.00300 32.61400
H  36.13800 5.99200 31.30800
H  34.85700 7.28900 29.42800
H  35.19300 5.58400 29.10000
H  34.45000 6.64400 27.88600
H  40.79500 9.00600 25.22600
H  43.37400 7.81000 25.97100
H  40.19700 6.47500 25.60300
H  41.94900 6.24900 25.51600
H  41.10000 7.04700 24.15900
H  42.65100 9.37900 24.08600
H  44.29900 9.76500 24.86900
H  42.13200 11.26900 25.97300
H  42.39600 11.85900 24.32200
H  43.68600 11.85900 25.53200
H  46.85000 10.55500 28.34700
H  47.57000 10.89400 30.01000
H  46.88700 12.19200 29.05400
H  44.05200 12.42800 33.84400
H  44.82600 10.78300 37.43900
H  46.37400 11.57000 37.32100
H  46.28400 9.96000 36.64900
Mg 30.50400 56.88400 39.78100
C  27.96800 54.86800 38.83800
C  32.78000 54.45900 38.88900
C  32.92000 59.26000 39.66600
C  28.06000 59.37000 40.52300
N  30.32700 54.88900 39.01600
C  29.16600 54.24600 38.82600
C  29.47100 52.79500 38.42100
C  30.94400 52.65300 38.66400
C  31.39700 54.08600 39.01600
C  31.27200 51.50200 39.62900
C  28.98000 52.37800 37.06000
C  29.36100 53.28100 35.77600
H  28.24300 53.67300 34.76900
N  32.59300 56.85100 39.34300
C  33.31700 55.74200 39.05300
C  34.69500 56.17300 38.84700
C  34.72900 57.60100 38.94200
C  33.41500 57.95800 39.39100
C  35.78200 55.27800 38.29900
C  35.82700 58.53300 38.56200
O  36.90400 58.06400 38.31400
C  35.69800 60.05600 38.52900
N  30.52900 58.97300 40.20000
C  31.65200 59.75400 40.09000
C  31.27900 61.26000 40.11200
C  29.91700 61.23500 40.75900
C  29.41800 59.79700 40.48800
C  32.39600 62.05200 40.84900
C  28.97000 62.35400 40.14000
C  28.09200 63.11800 41.23100
N  28.39800 57.14000 39.81600
C  27.54200 58.15900 40.17000
C  26.20900 57.75000 40.02800
C  26.30500 56.46700 39.48300
C  27.67300 56.16300 39.34500
C  24.90700 58.43700 40.36000
C  25.57100 55.40800 38.95000
O  24.35600 55.22500 38.89000
C  26.61300 54.24300 38.52000
C  26.21300 53.03200 39.30800
O  26.43000 52.86700 40.50200
O  25.46000 52.19700 38.51300
C  24.68100 51.23500 39.22800
H  33.35100 53.58400 38.57200
H  33.61500 60.08700 39.50500
H  27.36500 60.20600 40.61900
H  28.90100 52.23600 39.16300
H  31.44000 52.53000 37.70100
H  30.37800 51.09000 40.09900
H  31.92700 51.86100 40.42300
H  31.99200 50.80800 39.19500
H  27.90300 52.21100 37.09400
H  29.52500 51.43600 37.00300
H  29.99800 52.64700 35.15800
H  29.83000 54.22700 36.04700
H  36.71200 55.22600 38.86400
H  36.17200 55.56600 37.32200
H  35.43700 54.24800 38.19900
H  36.60000 60.51200 38.12000
H  35.46300 60.61600 39.43400
H  34.85700 60.21100 37.85300
H  31.22700 61.57700 39.07100
H  29.91600 61.24800 41.84900
H  33.01600 62.50900 40.07800
H  33.09300 61.45000 41.43200
H  31.92700 62.81900 41.46500
H  28.30000 61.89800 39.41100
H  29.40900 63.10500 39.48200
H  27.02700 62.97500 41.04700
H  28.21300 64.20200 41.25000
H  28.33100 62.80200 42.24600
H  24.27800 57.71700 40.88400
H  24.38700 58.73400 39.45000
H  25.17700 59.24400 41.04100
H  26.52600 54.12400 37.44000
H  25.35000 50.50900 39.68900
H  24.02700 50.77000 38.49000
H  24.17700 51.87300 39.95500

