158

Mg -1.09400 18.10700 26.81000
C  -1.64200 15.76000 29.52500
C  -1.44000 20.62400 29.25800
C  -0.59100 20.19000 24.41800
C  -0.96300 15.29000 24.75900
N  -1.39600 18.12700 29.19600
C  -1.58700 17.10400 30.03500
C  -1.77400 17.62800 31.43400
C  -1.93800 19.16100 31.19200
C  -1.46200 19.38000 29.79800
C  -3.40900 19.58500 31.50400
C  -0.64100 17.30800 32.45200
C  -1.18500 16.99000 33.85300
H  -0.07100 16.72500 34.92300
N  -0.92100 20.12600 26.87500
C  -1.11100 20.95300 27.93900
C  -0.98200 22.33800 27.38300
C  -0.66700 22.23000 25.98000
C  -0.79400 20.80100 25.68100
C  -0.93200 23.57400 28.25400
C  -0.50800 23.26900 24.89100
O  -0.33200 23.08000 23.69200
C  -0.44100 24.66800 25.41600
N  -0.72800 17.77900 24.84500
C  -0.59600 18.83700 24.01300
C  -0.58600 18.40200 22.49900
C  -0.49500 16.82000 22.64500
C  -0.74500 16.56300 24.13500
C  -1.84800 18.93400 21.72500
C  0.78000 16.22700 22.03200
C  1.94600 15.85200 22.96400
N  -1.30900 16.01300 27.04500
C  -1.25100 15.02800 26.05200
C  -1.58800 13.77500 26.60400
C  -1.75400 14.01600 27.93900
C  -1.54300 15.38100 28.17200
C  -1.92500 12.56600 25.74100
C  -2.04300 13.34900 29.21600
O  -2.27200 12.21300 29.45100
C  -1.95400 14.48600 30.32900
C  -0.95100 14.09500 31.45800
O  0.28300 14.11900 31.42700
O  -1.60300 13.75400 32.67600
C  -0.75200 13.25000 33.68300
H  -1.75500 21.48600 29.84900
H  -0.49600 20.82700 23.53700
H  -0.89200 14.53300 23.97500
H  -2.65200 17.22100 31.93400
H  -1.29700 19.67600 31.90700
H  -3.83800 20.25400 30.75800
H  -3.41200 20.17500 32.42000
H  -4.16400 18.83000 31.72500
H  0.09600 18.09100 32.63100
H  -0.01700 16.49500 32.08300
H  -1.83100 16.12600 33.70000
H  -1.77500 17.83100 34.21700
H  0.06300 23.99800 28.38800
H  -1.33900 23.37500 29.24500
H  -1.61600 24.29200 27.79900
H  -1.36300 25.08800 25.81700
H  -0.23000 25.33900 24.58300
H  0.34100 24.73700 26.17200
H  0.34400 18.78000 22.07400
H  -1.30700 16.33300 22.10500
H  -2.34000 18.24600 21.03700
H  -1.45500 19.76200 21.13500
H  -2.64900 19.32900 22.34900
H  1.20100 16.86000 21.25100
H  0.49200 15.29200 21.55300
H  1.92100 16.52800 23.81900
H  2.85300 16.13000 22.42700
H  2.09900 14.80300 23.21800
H  -2.69000 12.78500 24.99700
H  -2.41900 11.85000 26.39800
H  -1.08700 12.05500 25.26700
H  -2.91600 14.63800 30.81800
H  -0.42500 14.13600 34.22800
H  0.14500 12.71800 33.36600
H  -1.19500 12.52500 34.36500
Mg -10.76800 17.21100 40.13000
C  -7.37000 16.41400 40.10900
C  -10.09900 20.38800 39.27800
C  -13.96000 17.66800 39.71300
C  -11.33400 13.71800 40.65300
N  -8.97700 18.24800 39.87700
C  -7.65000 17.79800 39.89400
C  -6.69800 18.93100 39.73900
C  -7.63900 20.18800 39.87100
C  -9.00700 19.61800 39.68400
C  -7.45800 21.00800 41.22000
C  -5.91600 18.78700 38.44400
C  -4.38700 18.49100 38.49200
H  -3.88600 17.33900 37.66400
N  -11.91800 18.86400 39.55500
C  -11.47100 20.13300 39.16300
C  -12.59300 20.99100 38.79200
C  -13.74300 20.11100 38.81200
C  -13.24400 18.81300 39.36500
C  -12.54800 22.38100 38.39400
C  -15.13500 20.50600 38.51400
O  -15.48400 21.66400 38.40100
C  -16.16900 19.43200 38.28900
N  -12.45900 15.71600 39.75000
C  -13.65200 16.33500 39.91600
C  -14.70900 15.25800 40.19100
C  -13.85700 14.02400 40.58300
C  -12.45300 14.51200 40.30400
C  -15.89200 15.44700 41.17700
C  -14.24100 12.74700 39.77300
C  -14.92000 11.62600 40.55900
N  -9.61200 15.41600 40.19800
C  -10.02100 14.11200 40.48400
C  -8.86400 13.25200 40.65800
C  -7.81000 14.13700 40.53700
C  -8.31300 15.39100 40.22900
C  -8.84500 11.73100 40.87500
C  -6.37800 14.22600 40.55500
O  -5.55200 13.35400 40.84500
C  -6.07500 15.69000 40.28300
C  -5.37800 16.11500 41.45900
O  -5.90100 16.40900 42.56000
O  -4.04000 16.22800 41.20500
C  -3.25100 16.82700 42.31600
H  -9.76600 21.40500 39.06100
H  -15.03600 17.80800 39.59200
H  -11.39400 12.65500 40.89500
H  -6.11900 18.79700 40.65300
H  -7.41700 20.84300 39.02800
H  -6.69000 20.66000 41.91000
H  -8.39100 21.08200 41.77800
H  -7.04600 21.98100 40.95100
H  -6.09400 19.68600 37.85400
H  -6.31400 17.99400 37.81100
H  -4.07000 18.35900 39.52700
H  -3.84600 19.42900 38.36300
H  -13.08000 23.00600 39.11200
H  -12.71600 22.44500 37.31900
H  -11.49400 22.64500 38.47800
H  -15.70000 18.66600 37.67200
H  -16.97100 19.73300 37.61500
H  -16.55000 19.17100 39.27700
H  -15.12900 15.05200 39.20600
H  -13.92900 13.77900 41.64300
H  -15.76000 16.33500 41.79600
H  -16.04100 14.55200 41.78100
H  -16.77700 15.62200 40.56500
H  -13.41100 12.33600 39.19800
H  -14.96000 13.10300 39.03500
H  -14.64100 11.63000 41.61300
H  -14.61200 10.63200 40.23700
H  -15.97300 11.55300 40.29000
H  -8.15200 11.28300 40.16200
H  -9.80800 11.22900 40.78200
H  -8.41200 11.48000 41.84300
H  -5.43100 15.65300 39.40400
H  -3.26700 16.07800 43.10800
H  -3.66900 17.79800 42.58200
H  -2.18900 16.96000 42.11100

