158

Mg -2.16200 17.26000 27.08500
C  -2.67900 15.18300 29.79800
C  -2.97800 20.00300 29.08000
C  -2.26500 19.22300 24.32900
C  -1.93300 14.59500 24.99700
N  -2.99900 17.44800 29.15300
C  -2.75300 16.52500 30.12200
C  -2.89500 17.14600 31.58500
C  -3.08700 18.61900 31.23900
C  -3.01400 18.69200 29.77200
C  -4.41200 19.32600 31.84900
C  -1.73700 16.72600 32.49400
C  -1.26200 17.71100 33.59500
H  -0.91300 17.02600 34.97600
N  -2.36700 19.32100 26.80400
C  -2.71300 20.31900 27.72800
C  -2.65300 21.67200 27.18300
C  -2.33400 21.40500 25.79400
C  -2.33200 19.91100 25.58900
C  -2.97000 22.81000 27.94100
C  -2.16500 22.41400 24.69900
O  -1.72800 22.08600 23.56700
C  -2.27000 23.87700 25.04800
N  -2.04100 17.01300 24.89000
C  -2.11000 17.89000 23.96800
C  -2.06300 17.47400 22.54000
C  -1.74400 15.91300 22.80600
C  -1.96700 15.84600 24.31300
C  -3.45600 17.66300 21.79100
C  -0.28500 15.57300 22.31700
C  0.93600 15.85100 23.26100
N  -2.37600 15.32100 27.23200
C  -2.22200 14.32500 26.33100
C  -2.34800 13.09500 26.91900
C  -2.43000 13.34100 28.32000
C  -2.52600 14.73700 28.46800
C  -2.32300 11.77400 26.19000
C  -2.59800 12.68900 29.58600
O  -2.70000 11.55200 29.93700
C  -2.75100 13.92100 30.61700
C  -1.56900 13.74600 31.54700
O  -0.40700 13.96700 31.23200
O  -1.98100 13.25300 32.72600
C  -0.93400 13.13200 33.75200
H  -3.12400 20.85300 29.75000
H  -2.32100 19.93000 23.49900
H  -1.80900 13.75500 24.31000
H  -3.79000 16.71100 32.03000
H  -2.26700 19.21100 31.64400
H  -4.13800 20.12200 32.54100
H  -4.93900 18.71300 32.58000
H  -5.12400 19.49100 31.04000
H  -0.87800 16.50400 31.86100
H  -2.13100 15.81900 32.95200
H  -2.06300 18.43700 33.73300
H  -0.29100 18.08400 33.26800
H  -2.67700 22.73600 28.98900
H  -4.05700 22.83600 27.86800
H  -2.59600 23.77900 27.60800
H  -2.12200 24.40200 24.10400
H  -1.38600 23.98800 25.67700
H  -3.20500 24.24900 25.46600
H  -1.22500 17.96600 22.04700
H  -2.40800 15.33200 22.16600
H  -3.86300 16.72600 21.40900
H  -3.28500 18.14900 20.83100
H  -4.07100 18.33400 22.39100
H  -0.18100 16.11700 21.37800
H  -0.14200 14.53500 22.01900
H  0.50000 16.07300 24.23500
H  1.55000 16.67200 22.89000
H  1.57600 14.97300 23.34800
H  -3.29100 11.63200 25.70800
H  -2.08200 10.90900 26.80800
H  -1.64100 11.71400 25.34100
H  -3.69600 13.88100 31.15700
H  -1.16700 13.69200 34.65900
H  0.08700 13.38900 33.47200
H  -0.94500 12.07500 34.01700
Mg 0.60100 43.26900 25.60500
C  1.85400 43.19100 28.90500
C  -2.47600 42.42000 26.89300
C  -0.63000 42.98200 22.46500
C  3.75600 43.66300 24.37800
N  -0.21900 43.02200 27.71700
C  0.46400 43.14100 28.90000
C  -0.40200 42.85100 30.06800
C  -1.75500 42.41000 29.40200
C  -1.50300 42.61200 27.92900
C  -2.28900 40.98500 29.71700
C  -0.54100 44.09100 31.00100
C  -0.02600 43.94800 32.44900
H  -1.17600 43.87900 33.46700
N  -1.30500 42.86100 24.72100
C  -2.40500 42.50000 25.49100
C  -3.48200 42.10500 24.56300
C  -3.03400 42.30000 23.22600
C  -1.62200 42.77500 23.40900
C  -4.75500 41.48200 24.95200
C  -3.65600 42.00400 21.90900
O  -3.00500 42.04100 20.85400
C  -5.03000 41.58000 21.70300
N  1.48000 43.13600 23.71800
C  0.72700 43.14900 22.56300
C  1.58800 43.35900 21.25100
C  2.93000 43.73800 21.91900
C  2.76600 43.42700 23.45200
C  1.57600 41.99800 20.48000
C  3.18300 45.21500 21.74600
C  3.51600 45.72700 20.29300
N  2.42500 43.33700 26.46900
C  3.70000 43.64400 25.81800
C  4.64000 43.65900 26.88000
C  4.00900 43.38900 28.06700
C  2.63000 43.26100 27.79000
C  6.22400 43.77900 26.72700
C  4.23000 43.23500 29.49100
O  5.32400 43.23600 30.08600
C  2.79300 43.03400 30.10800
C  2.68000 41.72500 30.71500
O  2.23600 40.68500 30.25800
O  2.98600 41.81900 32.04600
C  2.31500 40.90600 33.00300
H  -3.49400 42.06900 27.07500
H  -1.10600 43.16900 21.50000
H  4.76600 43.73500 23.97100
H  0.04900 42.04100 30.64100
H  -2.54600 43.10600 29.68300
H  -2.48700 40.49800 28.76200
H  -3.15700 40.94300 30.37600
H  -1.47800 40.42100 30.17800
H  -1.61800 44.22500 31.10000
H  -0.10300 44.96200 30.51300
H  0.65600 44.75300 32.72400
H  0.48300 42.98500 32.48900
H  -5.12300 40.88000 24.12200
H  -5.27100 42.41900 25.15800
H  -4.54500 40.82800 25.79800
H  -5.72100 41.95300 22.45800
H  -4.95600 40.49300 21.68200
H  -5.48200 42.05700 20.83300
H  1.30300 44.15300 20.56100
H  3.78700 43.35200 21.36600
H  1.20200 42.13500 19.46500
H  0.92300 41.29400 20.99500
H  2.60100 41.64900 20.35400
H  4.15100 45.39200 22.21600
H  2.41500 45.87100 22.15500
H  3.24900 44.91900 19.61200
H  4.58700 45.92500 20.33600
H  2.89400 46.57300 20.00200
H  6.58200 44.08200 25.74300
H  6.68500 42.81600 26.94600
H  6.49900 44.46000 27.53300
H  2.62400 43.83100 30.83200
H  3.11700 40.43400 33.57000
H  1.71000 40.11600 32.55700
H  1.64800 41.54800 33.57800

