158

Mg 48.33400 25.07700 30.01200
C  49.27000 27.32100 32.35100
C  46.65900 23.27600 32.69200
C  47.53200 22.46700 27.97200
C  50.22500 26.35200 27.54300
N  47.94900 25.26200 32.23900
C  48.41800 26.33300 32.95900
C  48.09200 26.18500 34.48700
C  47.33100 24.79300 34.53200
C  47.30100 24.41500 33.08600
C  47.98600 23.75600 35.49200
C  47.21600 27.37100 34.92600
C  47.40300 27.77500 36.41400
H  46.20100 27.65500 37.42900
N  47.09000 23.24200 30.28200
C  46.47700 22.71400 31.42500
C  45.83900 21.41900 31.04200
C  45.94500 21.25100 29.63300
C  46.85200 22.36900 29.21200
C  44.91800 20.62200 32.00600
C  45.29400 20.26600 28.65500
O  45.45500 20.28800 27.45800
C  44.36100 19.28000 29.17800
N  48.75700 24.51800 27.95000
C  48.38000 23.40700 27.35400
C  48.85100 23.23800 25.90600
C  49.81300 24.48400 25.86200
C  49.52000 25.21600 27.13000
C  49.53200 21.86000 25.48700
C  49.70100 25.42500 24.60000
C  50.97600 25.45400 23.85600
N  49.59700 26.52300 29.93200
C  50.24900 27.04300 28.81500
C  50.87000 28.28500 29.33400
C  50.54800 28.41000 30.67300
C  49.72400 27.31200 30.98300
C  51.69500 29.23600 28.40700
C  50.75100 29.23600 31.83900
O  51.41000 30.28100 32.05500
C  50.09100 28.43000 33.00400
C  51.13100 28.00000 34.01400
O  51.99800 27.25200 33.79400
O  51.05400 28.68400 35.15900
C  52.09700 28.59500 36.22000
H  46.14100 22.68100 33.44700
H  47.31900 21.59600 27.35000
H  50.92900 26.84300 26.86800
H  49.04600 26.09500 35.00800
H  46.30200 24.86600 34.88500
H  48.50800 22.95000 34.97800
H  47.23200 23.25600 36.09900
H  48.66000 24.32100 36.13700
H  46.21100 26.96100 34.82600
H  47.26800 28.25400 34.29000
H  47.74900 28.80500 36.32200
H  48.26300 27.23400 36.81000
H  43.90900 20.82900 31.64900
H  44.98800 21.06000 33.00100
H  45.02700 19.53800 32.04700
H  43.46000 19.82400 29.46000
H  44.70000 18.74000 30.06200
H  44.11100 18.43900 28.53100
H  48.01300 23.38400 25.22400
H  50.85100 24.17000 25.75900
H  50.58400 22.07300 25.67700
H  49.51300 21.50600 24.45600
H  49.28800 21.05800 26.18300
H  49.40000 26.45900 24.77100
H  48.95200 24.94800 23.96800
H  51.79500 25.89700 24.42200
H  50.73700 26.03800 22.96700
H  51.35400 24.50400 23.47700
H  51.12300 29.95900 27.82600
H  52.24400 28.64500 27.67400
H  52.36500 29.78100 29.07100
H  49.47100 29.14900 33.54000
H  51.68300 28.02900 37.05400
H  52.34200 29.60300 36.55300
H  53.05000 28.17600 35.89500
Mg 28.90900 56.89000 40.36900
C  26.99700 54.03200 39.67200
C  31.68000 54.97800 39.75000
C  30.65000 59.63500 40.70900
C  25.91400 58.61900 40.95700
N  29.21000 54.81600 39.48900
C  28.29500 53.82500 39.38900
C  28.96400 52.50400 38.96100
C  30.35700 52.81000 39.33000
C  30.43800 54.32800 39.51100
C  30.80700 52.17300 40.66400
C  28.80600 52.11500 37.52700
C  29.29800 53.18500 36.49200
H  28.25800 53.69000 35.42800
N  30.95300 57.22400 40.27900
C  31.91600 56.31800 40.15100
C  33.24800 56.97300 40.34100
C  32.97100 58.37100 40.61000
C  31.49800 58.47400 40.58300
C  34.51400 56.22000 40.07100
C  34.01000 59.43300 40.93600
O  35.22400 59.14300 40.73000
C  33.62300 60.71900 41.49700
N  28.35500 58.85500 40.42700
C  29.28600 59.81400 40.82300
C  28.68000 61.18900 40.75700
C  27.16400 60.85900 40.94700
C  27.13000 59.28600 40.83600
C  29.35100 62.38000 41.61000
C  26.24900 61.61300 40.00500
C  25.89400 63.00500 40.39500
N  26.76200 56.49200 40.40900
C  25.76500 57.25200 40.70900
C  24.58600 56.47300 40.74000
C  24.97400 55.21400 40.32800
C  26.37800 55.28400 40.17000
C  23.17800 56.87300 41.02700
C  24.53200 53.79700 40.10300
O  23.42500 53.34400 40.33500
C  25.81500 53.00700 39.53800
C  26.01200 51.81500 40.38300
O  26.25600 51.83900 41.58800
O  25.93700 50.68400 39.60600
C  25.87200 49.39900 40.24000
H  32.55000 54.31900 39.80300
H  31.25000 60.54500 40.77900
H  25.00900 59.18800 41.17900
H  28.52400 51.77400 39.64000
H  31.12200 52.50400 38.61700
H  30.38800 51.17700 40.80500
H  30.37500 52.70500 41.51100
H  31.88900 52.03300 40.65900
H  27.79000 51.83800 37.24300
H  29.50200 51.28300 37.42600
H  30.23400 52.92100 36.00000
H  29.66600 54.05000 37.04500
H  35.39300 56.84100 40.24200
H  34.50000 55.79800 39.06600
H  34.47700 55.28700 40.63200
H  33.10700 61.33800 40.76300
H  34.51200 61.25500 41.82900
H  33.04300 60.46600 42.38500
H  28.67600 61.64100 39.76500
H  26.94200 61.03500 42.00000
H  30.29900 62.00600 41.99800
H  28.77400 62.47400 42.53000
H  29.38500 63.30300 41.03100
H  25.33900 61.03000 39.86500
H  26.66800 61.75500 39.00900
H  24.81000 63.09700 40.32400
H  26.44200 63.70000 39.75800
H  26.21200 63.39300 41.36200
H  22.73300 57.28800 40.12200
H  23.29500 57.73800 41.68000
H  22.65500 56.10700 41.59800
H  25.52300 52.86000 38.49800
H  26.87900 48.98500 40.20200
H  25.15000 48.81500 39.66900
H  25.49900 49.39800 41.26400

