158

Mg 0.63400 7.75000 25.64600
C  1.58200 9.66200 28.45400
C  0.81800 4.91800 27.66200
C  0.20300 5.89400 22.95400
C  0.67900 10.61200 23.82300
N  1.24400 7.37800 27.84000
C  1.34500 8.33100 28.84700
C  1.34800 7.68500 30.25300
C  1.38100 6.19200 29.89500
C  1.16000 6.13400 28.38900
C  2.63000 5.41200 30.38200
C  0.02100 8.08500 31.04000
C  0.15400 8.17900 32.59800
H  1.42200 7.85700 33.24200
N  0.42300 5.67000 25.33600
C  0.55000 4.69500 26.31000
C  0.37400 3.35200 25.61900
C  0.15900 3.66500 24.22500
C  0.25700 5.11500 24.10600
C  0.47100 2.08700 26.35400
C  -0.20700 2.76000 23.04300
O  -0.42100 3.17200 21.88200
C  -0.38900 1.30600 23.32900
N  0.43100 8.17500 23.72500
C  0.25700 7.24500 22.75000
C  0.20400 7.89100 21.36900
C  -0.00700 9.39800 21.67600
C  0.32700 9.46000 23.19300
C  1.59900 7.65800 20.68100
C  -1.39200 9.99000 21.28800
C  -1.45400 11.30200 20.46300
N  1.27500 9.70500 25.98100
C  1.16500 10.76100 25.14700
C  1.52200 11.97300 25.83000
C  1.78600 11.63300 27.18900
C  1.53100 10.20300 27.22000
C  1.55900 13.45500 25.22600
C  2.03900 12.08700 28.49000
O  2.14800 13.17900 28.94700
C  1.82300 10.86100 29.38100
C  3.03900 10.77400 30.20400
O  3.90700 9.89800 30.16800
O  2.82200 11.71100 31.25000
C  3.50300 11.42800 32.49100
H  0.91200 3.99100 28.23100
H  0.12900 5.35900 22.00400
H  0.62500 11.56900 23.30000
H  2.22100 7.86900 30.88000
H  0.50200 5.66400 30.26400
H  2.19400 4.49200 30.77100
H  3.18000 5.96400 31.14400
H  3.20900 5.02000 29.54700
H  -0.76800 7.36100 30.83700
H  -0.28500 9.00300 30.53800
H  -0.58600 7.55400 33.09700
H  -0.11900 9.21500 32.79900
H  -0.27600 1.32200 26.14200
H  0.51900 2.20900 27.43600
H  1.38300 1.67200 25.92300
H  -1.13500 1.36500 24.12200
H  0.52600 0.78300 23.60600
H  -0.74800 0.84500 22.40800
H  -0.56600 7.44000 20.74300
H  0.68200 10.02300 21.10900
H  1.89700 8.39500 19.93500
H  1.61600 6.63400 20.30800
H  2.35000 7.78100 21.46100
H  -1.95900 10.19300 22.19700
H  -1.92000 9.12400 20.88900
H  -1.21900 11.10200 19.41700
H  -0.70700 12.04500 20.74200
H  -2.36900 11.89500 20.46600
H  2.53100 13.63800 24.76900
H  1.42600 14.14100 26.06400
H  0.78500 13.64300 24.48200
H  1.01400 11.03500 30.09100
H  3.92600 12.41500 32.67900
H  4.27300 10.65800 32.50800
H  2.74600 11.14600 33.22200
Mg 25.70300 51.36600 26.50000
C  23.59600 52.15600 29.28300
C  28.14600 50.53900 28.84600
C  27.88000 50.88300 24.00500
C  23.24600 52.43900 24.35200
N  25.81800 51.28000 28.83600
C  24.85900 51.72000 29.74800
C  25.46200 51.81700 31.17700
C  26.89100 51.15300 31.01200
C  26.95300 51.00200 29.44200
C  28.07400 52.05800 31.49900
C  24.60100 51.02400 32.22800
C  25.18600 50.76900 33.69200
H  24.41100 51.43800 34.81700
N  27.72100 50.82000 26.44800
C  28.53900 50.48400 27.48600
C  29.86000 50.09900 26.98300
C  29.85000 50.37600 25.58600
C  28.44200 50.68300 25.28900
C  30.92300 49.46100 27.81400
C  30.98600 50.16300 24.63700
O  30.79700 50.37300 23.44800
C  32.33700 49.97200 25.15800
N  25.66400 51.72800 24.47600
C  26.65000 51.41600 23.66200
C  26.16400 51.43400 22.17600
C  24.68400 51.95500 22.22400
C  24.46700 52.02300 23.77700
C  27.05300 52.19800 21.27200
C  23.75100 50.99200 21.43600
C  23.77700 49.43400 21.69800
N  23.82900 52.12900 26.71400
C  22.90400 52.48600 25.73900
C  21.62300 52.90600 26.47700
C  21.92300 52.75400 27.78900
C  23.22500 52.23500 27.91000
C  20.46000 53.39500 25.80600
C  21.30700 53.01600 29.04100
O  20.22000 53.38700 29.33900
C  22.46000 52.79300 30.07500
C  22.84000 54.12900 30.51400
O  23.65800 54.82900 29.97000
O  22.23500 54.38500 31.70000
C  22.55400 55.62700 32.46800
H  28.87700 50.38400 29.64200
H  28.49900 50.74600 23.11700
H  22.47100 52.74100 23.64500
H  25.48000 52.85100 31.52300
H  27.11000 50.16400 31.41500
H  28.81000 51.48900 32.06600
H  27.52000 52.74400 32.14100
H  28.66400 52.51500 30.70500
H  24.54000 49.99600 31.87000
H  23.62600 51.49700 32.34600
H  26.22500 50.99100 33.93500
H  25.03400 49.71600 33.92500
H  30.67400 49.28800 28.86100
H  31.80600 50.08900 27.68800
H  31.15700 48.56800 27.23500
H  32.37200 48.92100 25.44500
H  32.66100 50.64400 25.95400
H  33.02600 50.10400 24.32300
H  26.15800 50.41100 21.80100
H  24.62300 52.97100 21.83300
H  27.90500 51.53000 21.14800
H  27.22200 52.99900 21.99200
H  26.58500 52.72800 20.44200
H  24.07600 51.10500 20.40100
H  22.76600 51.45700 21.40900
H  22.75400 49.09800 21.86500
H  24.46700 49.15800 22.49500
H  24.17800 48.93500 20.81500
H  20.73000 53.86200 24.85900
H  20.09600 54.20400 26.43900
H  19.77400 52.54800 25.79100
H  22.18100 52.15800 30.91500
H  22.59300 56.47500 31.78500
H  23.47500 55.56200 33.04800
H  21.69400 55.87600 33.09100

