158

Mg 40.49900 9.21800 30.25900
C  42.62600 10.32800 32.81800
C  38.27000 8.34100 32.64500
C  38.65900 8.00900 27.80600
C  43.22000 9.62800 28.02400
N  40.46600 9.34700 32.44200
C  41.36200 9.91900 33.25500
C  40.84700 9.91500 34.70000
C  39.62800 9.09900 34.63200
C  39.44200 8.90500 33.11800
C  39.65700 7.73900 35.47100
C  40.59300 11.32900 35.29300
C  40.14800 11.33500 36.72400
H  40.86000 12.21800 37.77400
N  38.66500 8.39200 30.21700
C  37.82200 8.13700 31.29000
C  36.56400 7.57500 30.80200
C  36.70300 7.51000 29.39900
C  38.00400 8.05000 29.07000
C  35.49800 7.08600 31.72600
C  35.65100 7.08100 28.41400
O  35.61000 7.25300 27.24700
C  34.48200 6.34900 28.96100
N  40.82900 8.99800 28.21900
C  39.90200 8.39000 27.40700
C  40.33300 8.28200 25.89900
C  41.78000 9.02300 25.98500
C  41.98300 9.16800 27.50300
C  40.54600 6.77100 25.55900
C  41.77600 10.42300 25.35100
C  43.10500 11.03700 24.91400
N  42.50600 9.79000 30.33000
C  43.48000 9.93800 29.35900
C  44.75200 10.37100 29.95100
C  44.46900 10.59300 31.27900
C  43.07500 10.29600 31.42500
C  45.98100 10.56800 29.11700
C  44.97000 11.03300 32.48600
O  46.07300 11.43100 32.77000
C  43.75900 11.02700 33.57100
C  44.30700 10.27800 34.73000
O  44.87800 9.23500 34.56200
O  44.00000 10.82600 35.90600
C  44.22300 10.14400 37.12000
H  37.48000 8.09600 33.35800
H  37.98800 7.52900 27.09100
H  44.11300 9.59600 27.39700
H  41.62500 9.39000 35.25400
H  38.74500 9.57200 35.06100
H  40.63400 7.40000 35.81600
H  39.30500 6.99600 34.75600
H  39.01200 7.85300 36.34200
H  39.88500 11.75700 34.58300
H  41.45300 11.98100 35.13900
H  40.24200 10.32100 37.11400
H  39.09800 11.62600 36.69000
H  35.63100 7.30000 32.78600
H  35.28700 6.02800 31.57100
H  34.58300 7.60400 31.43700
H  33.91200 7.06800 29.54900
H  34.88300 5.53200 29.56200
H  33.87700 5.89100 28.17800
H  39.53100 8.65500 25.26100
H  42.60600 8.38800 25.66400
H  40.92400 6.21200 26.41600
H  41.16600 6.59500 24.68000
H  39.53700 6.42300 25.34100
H  41.26700 11.16900 25.96100
H  41.12200 10.43900 24.47900
H  43.94600 10.35100 25.02500
H  43.27400 11.96500 25.45900
H  43.17600 11.24100 23.84600
H  45.87800 11.52900 28.61400
H  46.12500 9.77700 28.38100
H  46.87400 10.55900 29.74000
H  43.55000 12.04400 33.90300
H  43.33600 10.22400 37.74900
H  45.06400 10.57500 37.66300
H  44.48400 9.08600 37.08200
Mg 0.47200 43.60800 26.68900
C  2.66200 43.67900 29.43800
C  -2.03900 42.56300 28.93700
C  -1.58700 42.89400 24.05200
C  3.06300 44.53300 24.58400
N  0.34900 43.13700 28.88200
C  1.36300 43.34300 29.81300
C  0.86200 43.07500 31.25500
C  -0.66100 42.67100 31.10500
C  -0.77800 42.79900 29.53400
C  -1.03700 41.23400 31.67200
C  1.19000 44.28900 32.16200
C  0.31400 44.60600 33.39800
H  -0.01900 43.52100 34.42700
N  -1.60800 42.96800 26.59200
C  -2.42100 42.64700 27.57100
C  -3.75100 42.47000 26.99600
C  -3.66700 42.56500 25.60700
C  -2.22400 42.78100 25.29900
C  -4.95400 42.13400 27.88700
C  -4.66500 42.33100 24.51600
O  -4.41600 42.39300 23.29000
C  -6.11000 41.93100 24.92200
N  0.71700 43.53800 24.71300
C  -0.24000 43.18000 23.76600
C  0.30500 43.38200 22.31500
C  1.49500 44.34400 22.56000
C  1.81200 44.11300 24.06900
C  0.63600 42.04800 21.54500
C  1.15800 45.87500 22.45400
C  1.86300 46.50700 21.27600
N  2.43600 43.99000 26.90100
C  3.33900 44.40400 25.95700
C  4.65600 44.45400 26.52600
C  4.43100 44.17600 27.85200
C  3.04300 43.92400 28.08500
C  5.95800 44.85900 25.89200
C  5.07700 43.99700 29.15700
O  6.25200 44.00400 29.43100
C  3.91300 43.77000 30.22900
C  4.28100 42.56600 30.96600
O  4.12300 41.42000 30.51200
O  4.68000 42.97400 32.22700
C  4.90100 41.84700 33.15400
H  -2.83900 42.29000 29.62700
H  -2.12400 42.66300 23.12900
H  3.91000 44.74000 23.92700
H  1.55400 42.28000 31.53100
H  -1.30500 43.43400 31.54200
H  -1.31400 40.55700 30.86400
H  -1.99600 41.18100 32.18800
H  -0.18500 40.76900 32.16700
H  1.20900 45.14500 31.48700
H  2.18900 44.12000 32.56400
H  -0.63100 45.10700 33.18900
H  0.93400 45.22100 34.04900
H  -5.83400 42.53000 27.38100
H  -5.04000 42.73800 28.79100
H  -5.00000 41.09300 28.20600
H  -6.76600 41.92800 24.05100
H  -6.57900 42.74400 25.47800
H  -6.02300 40.96400 25.41600
H  -0.50300 43.95100 21.85600
H  2.35700 44.07800 21.94800
H  -0.27300 41.82000 20.98800
H  0.91300 41.27600 22.26300
H  1.38900 42.17600 20.76700
H  1.35500 46.48700 23.33500
H  0.10800 46.13100 22.31500
H  1.19200 46.87600 20.50100
H  2.55500 45.84900 20.75000
H  2.42700 47.35300 21.67000
H  6.37000 45.51100 26.66100
H  6.01800 45.19800 24.85800
H  6.69800 44.06600 25.78000
H  3.89000 44.68600 30.82000
H  4.22400 41.89500 34.00700
H  5.89000 42.06100 33.55800
H  4.84000 40.79400 32.88000

