158

Mg 23.90800 -4.46900 46.21600
C  26.25600 -2.24900 44.65200
C  21.62500 -3.38400 43.97900
C  22.17900 -7.17800 46.84500
C  26.60800 -5.84500 48.01400
N  24.06000 -3.11700 44.38400
C  24.99700 -2.23800 44.03600
C  24.58800 -1.21000 43.05800
C  23.00600 -1.40900 42.98100
C  22.84800 -2.69400 43.91300
C  22.11500 -0.18100 43.39300
C  25.18500 -1.40000 41.56600
C  25.64900 -0.12900 40.80800
H  25.10200 0.08600 39.38300
N  22.12900 -5.17200 45.50100
C  21.30500 -4.57400 44.60300
C  20.07800 -5.33800 44.37900
C  20.20100 -6.41500 45.29700
C  21.55500 -6.34200 45.88100
C  19.01700 -4.97800 43.42800
C  19.05300 -7.38900 45.54100
O  17.93200 -7.21300 45.07900
C  19.26000 -8.63200 46.37500
N  24.30000 -6.31600 47.27200
C  23.45300 -7.23600 47.41100
C  23.86400 -8.29700 48.41300
C  25.27100 -7.84300 48.81500
C  25.43400 -6.56700 48.02100
C  22.84300 -8.54000 49.58700
C  26.45000 -8.93400 48.83900
C  27.07000 -9.38800 50.14200
N  25.95000 -4.08000 46.44200
C  26.84700 -4.71100 47.23100
C  28.09800 -3.94000 47.11700
C  27.93200 -2.94800 46.11500
C  26.64100 -3.19600 45.68500
C  29.33900 -4.22500 47.82600
C  28.60400 -1.87600 45.43800
O  29.77400 -1.50000 45.60900
C  27.57000 -1.42000 44.38300
C  27.47000 0.04100 44.46500
O  26.80000 0.68500 45.21700
O  28.16100 0.61400 43.41900
C  28.08000 2.11300 43.30600
H  20.80300 -2.91200 43.43600
H  21.52100 -7.96600 47.21700
H  27.37100 -6.19000 48.71400
H  24.84900 -0.22700 43.45000
H  22.67600 -1.74600 41.99800
H  21.26800 -0.24100 42.70900
H  22.70800 0.72000 43.24100
H  21.85300 -0.27700 44.44700
H  24.51700 -1.84300 40.82700
H  25.96300 -2.16400 41.57300
H  26.73600 -0.09600 40.87000
H  25.31300 0.68800 41.44700
H  18.45900 -5.84100 43.06500
H  19.47100 -4.49800 42.56100
H  18.39400 -4.25300 43.95200
H  18.96500 -8.44600 47.40800
H  20.23100 -9.12500 46.32000
H  18.57000 -9.40300 46.03300
H  23.88200 -9.26600 47.91400
H  25.11500 -7.46400 49.82500
H  22.35400 -9.50600 49.46200
H  22.14800 -7.71900 49.41500
H  23.28400 -8.38300 50.57200
H  27.29500 -8.50600 48.29800
H  26.03300 -9.82100 48.36200
H  27.44300 -10.40200 49.99500
H  26.44200 -9.16900 51.00600
H  28.00900 -8.91000 50.41900
H  29.34900 -5.30300 47.98700
H  29.40500 -3.62500 48.73300
H  30.27600 -4.03400 47.30100
H  28.02100 -1.76200 43.45100
H  27.03500 2.36800 43.13400
H  28.70300 2.51300 42.50600
H  28.31200 2.59400 44.25600
Mg 47.60700 24.77400 27.93100
C  48.51000 26.87000 30.62400
C  46.74700 22.37300 30.29700
C  47.19500 22.58500 25.39400
C  48.96400 27.06900 25.70400
N  47.62700 24.68000 30.18000
C  48.01400 25.62900 31.07700
C  47.71000 25.26800 32.53600
C  47.29600 23.74900 32.34300
C  47.09600 23.64300 30.88000
C  48.35800 22.79600 33.00400
C  46.65900 26.11300 33.27700
C  47.29800 26.89100 34.50700
H  46.45700 27.59800 35.56300
N  46.99700 22.74300 27.83500
C  46.63700 21.95900 28.93900
C  46.11400 20.74500 28.42800
C  46.29700 20.78200 26.97100
C  46.81000 22.08500 26.68800
C  45.62000 19.65000 29.36300
C  45.83200 19.72200 25.94900
O  46.18500 19.70000 24.76500
C  45.08900 18.55800 26.39400
N  48.07100 24.82500 25.89200
C  47.77900 23.84600 25.02700
C  48.18600 24.17000 23.58800
C  48.41700 25.70100 23.66700
C  48.49100 25.91400 25.17500
C  49.26300 23.24400 22.83400
C  47.28000 26.60500 23.07700
C  47.85400 27.88700 22.39000
N  48.57900 26.58300 28.07000
C  49.04300 27.34900 27.11000
C  49.61400 28.60100 27.69100
C  49.49900 28.42600 29.03200
C  48.82500 27.16100 29.24300
C  50.26700 29.72000 26.87500
C  49.72900 29.00100 30.37800
O  50.25900 30.06900 30.69900
C  49.04100 28.03400 31.43500
C  50.17500 27.64600 32.35200
O  50.71100 26.56400 32.28900
O  50.58800 28.71100 33.15600
C  51.66600 28.36900 34.01000
H  46.49700 21.59400 31.02100
H  46.97700 21.88300 24.58600
H  49.35700 27.87700 25.08400
H  48.71600 25.23200 32.95600
H  46.27800 23.61400 32.70700
H  47.94700 22.13400 33.76600
H  49.22800 23.25200 33.47700
H  48.73800 22.24000 32.14700
H  45.72900 25.57900 33.47300
H  46.45800 26.87300 32.52200
H  47.82900 27.75900 34.11500
H  47.95100 26.16500 34.99100
H  44.53500 19.54600 29.35700
H  45.86300 19.78700 30.41700
H  46.08400 18.73300 29.00000
H  44.24700 19.02300 26.90600
H  45.64800 17.87400 27.03300
H  44.78000 18.00300 25.50800
H  47.22300 23.96600 23.12000
H  49.37300 25.98200 23.22400
H  48.75600 22.48100 22.24200
H  49.89700 22.83700 23.62200
H  49.91400 23.89400 22.25000
H  46.50900 26.73700 23.83600
H  46.65000 26.12200 22.33000
H  47.71100 28.74200 23.05200
H  47.32300 28.12900 21.47000
H  48.88100 27.87900 22.02500
H  49.82500 29.87600 25.89100
H  51.35400 29.65300 26.81600
H  50.07600 30.54900 27.55600
H  48.23500 28.52200 31.98400
H  52.56900 28.10200 33.46100
H  51.44500 27.51100 34.64600
H  51.93700 29.19100 34.67300

