158

Mg 25.95900 0.12400 28.69900
C  27.71200 -0.36000 31.72300
C  23.04400 0.52700 30.59300
C  24.22500 0.43700 25.77800
C  28.81800 -0.69700 27.02500
N  25.47800 -0.01400 30.86800
C  26.42000 0.02700 31.91600
C  25.77300 0.34700 33.25700
C  24.18400 0.29900 32.87800
C  24.21700 0.25100 31.34200
C  23.30500 -0.85500 33.56000
C  26.34600 1.62100 34.00600
C  26.99200 1.38100 35.37700
H  26.67700 2.30600 36.55200
N  23.98100 0.45300 28.25400
C  22.89900 0.57000 29.19000
C  21.69400 0.86200 28.42200
C  21.98700 0.80000 27.01900
C  23.43800 0.59100 26.95900
C  20.38900 1.17600 29.11900
C  21.09500 1.04300 25.77200
O  21.43900 0.86900 24.58200
C  19.58500 1.40900 25.99300
N  26.45500 -0.15300 26.74000
C  25.53700 -0.07300 25.68400
C  26.22200 -0.55200 24.42900
C  27.78300 -0.60400 24.80200
C  27.69800 -0.41300 26.26600
C  25.76100 -1.87900 23.86000
C  28.69300 0.51000 24.13300
C  29.99300 -0.03200 23.52800
N  27.98000 -0.47600 29.22900
C  29.01900 -0.74200 28.43900
C  30.24100 -0.96800 29.25300
C  29.77300 -0.82400 30.54300
C  28.36800 -0.57200 30.47300
C  31.63400 -1.16900 28.77400
C  30.08700 -0.87200 31.97700
O  31.15200 -1.14100 32.57300
C  28.74700 -0.45800 32.71800
C  28.45800 -1.50200 33.82500
O  27.90400 -2.54400 33.69800
O  29.22200 -1.23300 34.95800
C  29.11300 -2.14500 36.09400
H  22.15900 0.78200 31.18000
H  23.72500 0.56100 24.81500
H  29.70200 -0.91400 26.42200
H  26.01700 -0.58900 33.75800
H  23.74800 1.22100 33.26400
H  22.77700 -1.47700 32.83800
H  22.52400 -0.21300 33.96900
H  23.86800 -1.42800 34.29700
H  25.49700 2.26100 34.24800
H  27.02100 2.13600 33.32200
H  28.06100 1.48500 35.19100
H  26.73200 0.36800 35.68400
H  20.29300 2.26100 29.14600
H  20.46600 0.86400 30.16100
H  19.58400 0.73400 28.53300
H  19.07000 0.64100 26.57100
H  19.15000 1.57900 25.00800
H  19.62100 2.36100 26.52200
H  26.16200 0.21300 23.65400
H  28.28400 -1.56900 24.71800
H  24.80000 -2.22800 24.23900
H  26.53900 -2.63000 23.99400
H  25.63800 -1.85200 22.77700
H  29.05300 1.28400 24.81000
H  28.17500 0.99400 23.30500
H  29.94600 -0.52000 22.55400
H  30.53700 -0.77700 24.10800
H  30.69100 0.80500 23.55500
H  31.87600 -2.15100 29.18000
H  32.42900 -0.48400 29.06900
H  31.73100 -1.25300 27.69200
H  28.92800 0.49600 33.21500
H  30.05000 -2.18400 36.65000
H  28.76900 -3.14300 35.82300
H  28.35300 -1.69600 36.73300
Mg 15.61100 52.09300 25.55600
C  17.36900 51.01000 28.49000
C  13.04700 53.06200 27.73700
C  13.88400 53.19700 22.91700
C  18.24100 50.93500 23.60600
N  15.19400 51.93900 27.87100
C  16.16400 51.67900 28.83500
C  15.71400 52.09300 30.24000
C  14.31400 52.66800 29.98200
C  14.11400 52.58600 28.43900
C  13.13800 51.84700 30.62300
C  16.73500 53.04200 30.88600
C  17.05500 52.80300 32.37400
H  15.98500 52.03000 33.36100
N  13.74400 53.03700 25.37200
C  12.84000 53.28700 26.39000
C  11.69900 53.83200 25.71300
C  11.94700 53.92500 24.32200
C  13.25900 53.41700 24.15700
C  10.34800 54.05000 26.42100
C  11.06500 54.43600 23.22900
O  11.31800 54.41100 21.99800
C  9.74600 55.19100 23.59200
N  15.93200 51.95400 23.53400
C  15.17900 52.67000 22.66600
C  15.71600 52.48500 21.21300
C  17.14400 51.89500 21.49600
C  17.11900 51.55300 22.98500
C  14.74000 51.55800 20.36800
C  18.29100 52.88100 21.10600
C  18.94000 52.64300 19.79200
N  17.36300 51.06900 25.90800
C  18.36800 50.71400 24.99100
C  19.52500 50.10700 25.66600
C  19.17500 50.20600 27.03300
C  17.87500 50.69200 27.13900
C  20.75000 49.62200 24.98800
C  19.58200 49.96900 28.39200
O  20.56900 49.41200 28.85400
C  18.47900 50.54000 29.39000
C  18.03300 49.40800 30.30400
O  17.28800 48.48800 30.02900
O  18.63700 49.63300 31.54700
C  18.36200 48.58500 32.50500
H  12.30700 53.34800 28.48700
H  13.44100 53.51700 21.97200
H  18.99300 50.60700 22.88500
H  15.61700 51.25800 30.93400
H  14.23700 53.72200 30.25000
H  13.59600 51.42700 31.51900
H  12.82300 50.99500 30.02200
H  12.29600 52.52800 30.74600
H  16.27400 54.02900 30.91700
H  17.61400 53.02500 30.24100
H  17.37500 53.63900 32.99600
H  17.84400 52.05000 32.38600
H  10.19500 53.70400 27.44400
H  9.54600 53.46400 25.97300
H  9.98500 55.07400 26.33400
H  9.26600 55.50700 22.66600
H  10.07700 56.04200 24.18700
H  9.22500 54.42700 24.16900
H  15.74600 53.47200 20.75200
H  17.14100 51.04800 20.80900
H  15.12600 50.70800 19.80500
H  14.12400 52.12800 19.67200
H  14.00700 51.23100 21.10500
H  19.02600 52.97600 21.90500
H  17.89100 53.88500 20.96100
H  18.24300 52.71300 18.95700
H  19.41600 51.66400 19.84500
H  19.66600 53.44900 19.68800
H  20.87900 50.26200 24.11500
H  20.69600 48.57200 24.70200
H  21.56900 49.74200 25.69800
H  19.02200 51.28600 29.97100
H  17.28500 48.43800 32.59000
H  18.79200 48.94600 33.43900
H  18.87000 47.65200 32.25900

