158

Mg 25.85300 0.66100 28.83900
C  27.75900 0.50100 31.74700
C  22.97400 1.06800 30.81200
C  24.08000 0.82100 26.03500
C  28.65000 -0.36600 27.06600
N  25.46300 0.52300 31.00300
C  26.38900 0.58400 32.04800
C  25.72300 0.92700 33.39600
C  24.17000 0.82000 33.09100
C  24.18100 0.76200 31.49500
C  23.43300 -0.35900 33.74500
C  26.11300 2.20300 34.04300
C  26.55500 2.17800 35.52600
H  26.05600 3.31200 36.45600
N  23.84100 0.85500 28.41600
C  22.84000 1.12100 29.36000
C  21.59500 1.30800 28.64800
C  21.84700 1.33400 27.27100
C  23.23500 0.99500 27.21300
C  20.25000 1.34800 29.38300
C  20.87400 1.65200 26.15900
O  21.08300 1.37200 24.95600
C  19.62400 2.38500 26.47400
N  26.26400 0.10100 26.85900
C  25.39600 0.44300 25.86300
C  26.10100 0.25500 24.48100
C  27.57300 0.11800 24.87800
C  27.48600 -0.05000 26.36600
C  25.55400 -0.81700 23.41900
C  28.42700 1.29400 24.34000
C  29.07600 0.95200 23.02800
N  27.79300 0.12000 29.25000
C  28.83900 -0.25500 28.42400
C  30.05600 -0.44900 29.11000
C  29.65200 -0.09300 30.47000
C  28.28700 0.24300 30.47900
C  31.35000 -0.95400 28.59100
C  30.13400 0.05100 31.80900
O  31.26600 -0.18700 32.32600
C  28.92700 0.52600 32.70200
C  28.82600 -0.49500 33.81600
O  28.54100 -1.68600 33.65300
O  29.20900 0.08800 35.04400
C  29.16200 -0.92200 36.16100
H  22.16400 1.36300 31.48300
H  23.61600 0.95100 25.05500
H  29.62000 -0.49900 26.58200
H  25.89200 0.05700 34.03200
H  23.65200 1.70400 33.46200
H  24.13300 -1.17200 33.93700
H  22.67700 -0.71100 33.04300
H  22.89300 -0.03600 34.63500
H  25.24100 2.85400 33.97300
H  26.90500 2.61000 33.41400
H  27.61500 2.42300 35.47200
H  26.39900 1.26200 36.09600
H  19.98600 2.39400 29.53600
H  20.27500 0.75300 30.29600
H  19.49000 0.93400 28.71900
H  19.84500 3.19900 27.16400
H  18.80800 1.72700 26.77300
H  19.24500 2.92000 25.60300
H  26.08000 1.15900 23.87300
H  27.87900 -0.79000 24.36000
H  24.66500 -1.20500 23.91500
H  26.13800 -1.68300 23.10800
H  25.14500 -0.44500 22.47900
H  29.29000 1.46100 24.98600
H  27.92900 2.23100 24.09100
H  29.12400 1.88700 22.47000
H  28.55600 0.22600 22.40300
H  30.12100 0.73000 23.24300
H  31.83500 -0.24300 27.92200
H  31.19000 -1.89100 28.05700
H  32.03400 -1.13900 29.42000
H  29.04200 1.51900 33.13600
H  28.19000 -1.14900 36.59900
H  29.83500 -0.57900 36.94600
H  29.61700 -1.84100 35.79100
Mg 50.91500 45.47500 41.45200
C  47.77000 46.40900 40.15200
C  50.22700 42.16700 40.47400
C  54.28600 44.63900 41.72500
C  51.80300 48.78300 41.62700
N  49.18600 44.43600 40.35600
C  47.97100 44.93500 40.02900
C  47.00100 43.89700 39.34500
C  47.77400 42.58000 39.60300
C  49.19000 43.09000 40.20300
C  47.09900 41.66400 40.63200
C  46.71600 44.23300 37.81800
C  45.25700 43.99200 37.45400
H  44.66900 44.41300 36.14700
N  52.07100 43.58400 41.30400
C  51.56500 42.38300 40.83000
C  52.62500 41.46200 40.95500
C  53.81400 42.11100 41.37800
C  53.45700 43.50500 41.49200
C  52.34000 39.94400 40.74700
C  55.19400 41.49600 41.64800
O  55.41100 40.31500 41.45000
C  56.43500 42.11700 42.33000
N  52.80200 46.50800 41.71600
C  54.03700 45.94400 41.86600
C  55.09200 47.03200 42.17400
C  54.30100 48.35600 41.98400
C  52.87600 47.85500 41.64500
C  55.76200 46.97000 43.59900
C  54.70300 49.37400 40.84600
C  54.82500 50.80200 41.21500
N  49.98800 47.22000 41.24500
C  50.45200 48.50900 41.36300
C  49.32200 49.45600 41.05500
C  48.27000 48.67500 40.65100
C  48.70000 47.34700 40.80100
C  49.44700 50.99300 40.96200
C  47.01800 48.69300 40.03600
O  46.29100 49.61200 39.63800
C  46.53000 47.25100 39.84200
C  45.41600 46.98200 40.82700
O  45.56800 46.59700 41.97700
O  44.26400 47.21900 40.14200
C  43.07500 47.16300 41.02600
H  50.00400 41.13300 40.19900
H  55.30100 44.29800 41.93800
H  52.10100 49.81600 41.44000
H  46.14300 43.94900 40.01500
H  48.03500 42.08200 38.66900
H  46.01000 41.64700 40.67400
H  47.45200 42.01200 41.60300
H  47.41900 40.62400 40.70100
H  47.20200 43.46300 37.21900
H  47.17500 45.19000 37.57000
H  44.65100 44.53000 38.18400
H  45.17100 42.91400 37.58600
H  52.01800 39.86400 39.70900
H  51.70900 39.56400 41.55100
H  53.19200 39.26400 40.73400
H  56.24500 42.67100 43.24900
H  56.86300 42.77000 41.57000
H  57.21300 41.38600 42.55200
H  55.94000 46.87600 41.50800
H  54.09300 48.99600 42.84200
H  55.39700 47.77600 44.23700
H  56.82500 47.10400 43.39900
H  55.59500 45.97500 44.01100
H  54.05000 49.39900 39.97400
H  55.68500 49.08000 40.47500
H  54.34400 51.02000 42.16800
H  54.24400 51.34500 40.46900
H  55.84700 51.17900 41.17500
H  48.67400 51.41600 41.60300
H  49.29400 51.38100 39.95400
H  50.34400 51.36900 41.45300
H  46.35700 47.07600 38.78100
H  42.90300 46.17800 41.45800
H  42.23400 47.37500 40.36500
H  43.16700 47.86500 41.85400

