158

Mg 52.88300 23.49300 44.70000
C  50.25600 25.69100 43.81500
C  51.18400 21.05600 42.87300
C  55.69600 21.72700 44.74100
C  54.50100 26.22900 46.10200
N  50.95500 23.42200 43.53100
C  50.11100 24.48700 43.20100
C  49.10400 24.08700 42.14400
C  49.15300 22.44500 42.23700
C  50.55700 22.27400 42.85400
C  48.04700 21.74900 42.98000
C  49.24400 24.61600 40.63500
C  50.64100 24.92600 40.00700
H  50.70700 25.55800 38.66000
N  53.30800 21.49500 44.03900
C  52.46400 20.65900 43.30900
C  53.09100 19.43700 43.18300
C  54.35700 19.55200 43.80500
C  54.59100 20.97400 44.18400
C  52.47100 18.13400 42.57700
C  55.28500 18.35100 43.95100
O  55.01100 17.18600 43.60300
C  56.63200 18.54000 44.66200
N  54.83600 23.99200 45.15700
C  55.81500 22.99900 45.24500
C  57.13500 23.51900 45.86700
C  56.68400 24.97700 46.34000
C  55.28900 25.11000 45.77500
C  57.75600 22.60600 46.90300
C  57.60200 26.13100 45.96800
C  57.37000 26.92200 44.64600
N  52.47100 25.67600 44.98300
C  53.17500 26.60600 45.67300
C  52.48500 27.79600 45.78900
C  51.33900 27.55000 45.02000
C  51.32400 26.22400 44.57600
C  52.79200 29.01800 46.52100
C  50.12200 28.09600 44.43600
O  49.57900 29.22900 44.59600
C  49.33800 26.89300 43.67100
C  48.89400 27.42000 42.27800
O  49.67000 27.71000 41.36500
O  47.49000 27.49500 42.28900
C  46.85000 28.14400 41.15000
H  50.63800 20.33100 42.26500
H  56.61200 21.17000 44.53500
H  55.01400 27.04600 46.61400
H  48.19000 24.44800 42.61700
H  49.19600 21.97900 41.25300
H  47.65100 20.91600 42.39900
H  47.38800 22.61100 43.07900
H  48.32600 21.60900 44.02400
H  48.57200 25.47300 40.58700
H  48.89100 23.84400 39.95100
H  51.07900 23.92900 39.95900
H  51.18900 25.60900 40.65700
H  53.20800 17.59200 41.98300
H  51.57800 18.32400 41.98200
H  52.09700 17.35600 43.24200
H  56.44500 18.95200 45.65400
H  57.25700 19.17900 44.03900
H  57.13900 17.59400 44.84900
H  57.83900 23.61500 45.04000
H  56.54800 24.96500 47.42200
H  57.77100 23.09600 47.87600
H  58.78100 22.31100 46.68000
H  57.22000 21.67400 47.08600
H  58.48300 25.59000 45.62300
H  57.87600 26.72600 46.83900
H  58.14200 26.75500 43.89400
H  57.48200 27.96700 44.93400
H  56.41200 26.77900 44.14700
H  51.95200 29.39800 47.10200
H  53.32600 29.74700 45.91200
H  53.55000 28.67700 47.22600
H  48.42900 26.77300 44.26000
H  45.77600 27.96800 41.21200
H  47.16000 27.73400 40.18900
H  47.05000 29.21400 41.21600
Mg 49.50700 44.60400 43.60900
C  46.22700 45.24400 42.38600
C  49.05500 41.25700 42.64300
C  52.73800 44.11400 43.88600
C  49.86900 48.20600 43.93700
N  47.82200 43.43600 42.67200
C  46.63100 43.92300 42.25800
C  45.76700 42.82000 41.53200
C  46.53800 41.53100 42.01000
C  47.91700 42.09000 42.38600
C  46.01700 40.78400 43.22400
C  45.71400 42.97200 39.97700
C  44.85000 41.90100 39.31200
H  45.50000 41.17900 38.13100
N  50.77100 42.91000 43.31800
C  50.39400 41.65200 42.97700
C  51.53000 40.75200 43.08100
C  52.56300 41.53900 43.52500
C  52.03000 42.91200 43.68900
C  51.40000 39.26100 42.85600
C  54.01900 41.02900 43.77600
O  54.27500 39.82900 43.76600
C  55.14800 41.96100 44.18700
N  51.02500 45.96100 43.73000
C  52.30800 45.48400 43.97800
C  53.34000 46.68200 44.14100
C  52.37300 47.93000 44.17500
C  50.97400 47.35400 43.97900
C  54.14500 46.40100 45.43100
C  52.64300 48.99000 43.04600
C  52.53000 50.47000 43.48800
N  48.30100 46.39200 43.50300
C  48.53700 47.67900 43.71600
C  47.29800 48.43300 43.57100
C  46.37300 47.53700 43.01600
C  47.04400 46.27900 43.01200
C  47.18700 49.92100 43.79400
C  45.02900 47.41700 42.45100
O  44.13100 48.28600 42.36000
C  44.94700 45.99000 41.88500
C  43.66700 45.32400 42.07300
O  42.92900 45.05300 41.14000
O  43.35500 45.12600 43.39200
C  41.94700 44.65100 43.62200
H  48.86300 40.18500 42.55800
H  53.78900 43.95900 44.13900
H  50.09100 49.27100 44.02800
H  44.79700 42.84100 42.02800
H  46.54000 40.79900 41.20300
H  45.72000 39.78400 42.90900
H  45.10400 41.22600 43.62300
H  46.84800 40.59300 43.90300
H  46.71700 42.80300 39.58300
H  45.31900 43.91900 39.61000
H  43.90900 42.38200 39.04400
H  44.56600 41.12800 40.02500
H  52.39100 38.84800 42.67000
H  50.71800 39.00500 42.04500
H  50.91600 38.87700 43.75300
H  56.04000 41.40000 44.47000
H  54.90800 42.37700 45.16500
H  55.38000 42.78000 43.50700
H  53.84000 46.65200 43.17300
H  52.36200 48.34700 45.18200
H  53.52900 45.78200 46.08300
H  54.32600 47.26700 46.06700
H  55.08400 45.96200 45.09400
H  52.01600 48.91800 42.15700
H  53.65900 48.77100 42.71800
H  52.18000 50.61900 44.51000
H  51.75000 50.87300 42.84100
H  53.45200 51.04900 43.44200
H  47.16200 50.38300 42.80700
H  47.96100 50.37500 44.41200
H  46.25400 50.16100 44.30300
H  44.99500 46.08400 40.80000
H  41.18500 45.42700 43.55200
H  41.88700 44.25400 44.63500
H  41.72400 43.87200 42.89300

