158

Mg -1.66800 17.28500 26.13400
C  -2.38000 15.21200 28.92800
C  -2.23900 19.99100 28.15000
C  -1.35600 19.25600 23.31900
C  -1.90100 14.42300 24.03400
N  -2.33200 17.57200 28.27400
C  -2.42400 16.59500 29.27900
C  -2.67300 17.27300 30.63700
C  -2.89400 18.81900 30.29700
C  -2.38500 18.76200 28.81100
C  -4.33300 19.38000 30.42800
C  -1.53800 17.07900 31.61900
C  -1.66400 17.93700 32.88200
H  -2.01400 17.11000 34.19000
N  -1.77100 19.32400 25.78700
C  -1.94200 20.31100 26.76300
C  -1.88500 21.63600 26.19900
C  -1.62300 21.39300 24.81500
C  -1.55200 19.95800 24.57900
C  -2.02100 22.90300 27.05000
C  -1.46300 22.47900 23.67200
O  -1.28300 22.21500 22.51000
C  -1.66800 23.84400 24.04200
N  -1.51400 16.81000 23.97300
C  -1.35100 17.83800 23.04300
C  -1.16800 17.24700 21.58300
C  -1.05700 15.69600 21.90600
C  -1.42400 15.60100 23.39700
C  -2.27800 17.59300 20.62400
C  0.33200 14.93100 21.66800
C  1.58600 15.73000 21.99000
N  -2.11000 15.25900 26.37000
C  -2.17000 14.18500 25.45400
C  -2.46800 12.93000 26.05900
C  -2.45900 13.28800 27.43100
C  -2.24000 14.69800 27.54900
C  -2.62500 11.61800 25.45200
C  -2.58000 12.75500 28.81500
O  -2.75100 11.61400 29.23000
C  -2.48900 14.05000 29.83000
C  -1.33000 13.87200 30.63400
O  -0.17300 14.14300 30.22600
O  -1.65100 13.24600 31.83200
C  -0.51800 13.28400 32.80700
H  -2.37400 20.84000 28.82400
H  -1.36600 19.79000 22.36700
H  -1.92400 13.56600 23.35800
H  -3.54800 16.80900 31.09300
H  -2.13600 19.36300 30.86100
H  -4.97700 18.67700 30.95700
H  -4.79600 19.65600 29.48000
H  -4.34200 20.27500 31.05000
H  -0.65000 17.33700 31.04200
H  -1.45900 16.05800 31.99100
H  -2.35900 18.76100 32.71900
H  -0.69400 18.39300 33.08200
H  -1.22900 23.61700 26.82500
H  -2.04800 22.78400 28.13300
H  -2.92300 23.41900 26.72000
H  -2.63600 24.00500 24.51600
H  -1.64900 24.48100 23.15700
H  -0.84000 24.15400 24.67900
H  -0.19400 17.55800 21.20300
H  -1.89400 15.16000 21.45900
H  -2.53500 18.64600 20.74300
H  -3.07300 16.86900 20.80200
H  -1.84300 17.53200 19.62600
H  0.40300 14.58200 20.63700
H  0.35600 14.03800 22.29300
H  2.10200 15.87200 21.04000
H  2.22800 15.17000 22.67000
H  1.40900 16.69800 22.45900
H  -3.48100 11.05400 25.82400
H  -1.70100 11.05100 25.55900
H  -2.79000 11.70000 24.37800
H  -3.45500 13.95500 30.32600
H  -1.05100 13.73400 33.64400
H  0.31900 13.93600 32.55500
H  -0.11700 12.31700 33.11000
Mg 16.21200 52.37600 25.13700
C  17.48300 50.84500 27.87600
C  13.57700 53.45400 27.02500
C  14.61700 53.24600 22.31400
C  18.66800 50.79000 23.16300
N  15.75900 52.43700 27.24000
C  16.42700 51.72200 28.22000
C  15.86500 52.07600 29.63900
C  14.58600 52.95400 29.29100
C  14.59400 52.90400 27.76200
C  13.21100 52.45900 29.93100
C  16.95200 52.72000 30.52400
C  17.11200 52.16900 31.96000
H  15.96300 51.40600 32.59500
N  14.49800 53.43100 24.77300
C  13.46300 53.69400 25.64300
C  12.49200 54.46500 24.96700
C  12.68100 54.32400 23.58200
C  13.94200 53.62100 23.49100
C  11.21700 55.14500 25.69300
C  11.85100 54.67500 22.35900
O  12.17800 54.40900 21.19400
C  10.50900 55.36100 22.55100
N  16.63200 52.12500 23.02600
C  15.80500 52.57800 22.11600
C  16.39300 52.19600 20.76500
C  17.91800 51.86400 20.98800
C  17.75200 51.53200 22.46700
C  15.65100 51.08200 19.88900
C  18.91400 53.09500 20.94700
C  20.14200 52.83000 20.16000
N  17.75600 51.10500 25.44300
C  18.73100 50.62100 24.56000
C  19.65900 49.78400 25.28400
C  19.20100 49.94300 26.61100
C  18.02200 50.68400 26.60900
C  20.81900 48.99300 24.74300
C  19.47600 49.48500 27.92200
O  20.35200 48.74900 28.31600
C  18.42700 50.16200 28.83600
C  17.81600 49.11800 29.80100
O  16.64900 48.77500 29.87600
O  18.75000 48.73600 30.70500
C  18.28300 47.93600 31.84400
H  12.84400 53.86100 27.72500
H  14.27000 53.47800 21.30500
H  19.49200 50.46000 22.52600
H  15.50200 51.17000 30.12400
H  14.77400 54.01300 29.47200
H  12.63100 52.16600 29.05600
H  12.68600 53.26600 30.44300
H  13.31900 51.60500 30.59800
H  16.67700 53.73500 30.81000
H  17.97000 52.79300 30.14400
H  17.36400 53.00900 32.60800
H  17.94600 51.46600 31.96900
H  10.24200 55.06100 25.21300
H  11.51400 56.16900 25.92000
H  11.24600 54.74100 26.70500
H  9.63300 54.78400 22.84800
H  10.34100 55.61300 21.50400
H  10.65600 56.21600 23.21000
H  16.19900 53.11100 20.20500
H  18.28600 50.93800 20.54600
H  14.81900 50.84200 20.55000
H  16.37000 50.26400 19.84100
H  15.33900 51.37600 18.88600
H  19.26700 53.46400 21.90900
H  18.39700 53.96500 20.54300
H  19.98100 52.84600 19.08200
H  20.50600 51.85900 20.49400
H  20.98600 53.48100 20.38900
H  20.63700 48.64300 23.72700
H  21.11000 48.13800 25.35400
H  21.65500 49.67200 24.57400
H  18.94300 50.79900 29.55400
H  17.90900 48.48200 32.71000
H  19.02600 47.22800 32.21200
H  17.51200 47.23400 31.52800

