158

Mg 47.14400 34.59900 27.19300
C  45.54000 32.84100 29.87000
C  47.75300 37.09000 29.27600
C  47.87100 36.45500 24.52300
C  46.23500 31.84200 25.03300
N  46.71200 34.85300 29.35400
C  46.19800 34.01100 30.31900
C  46.51600 34.53100 31.72000
C  46.88100 36.04600 31.46500
C  47.12200 36.01400 29.92900
C  45.80700 37.05700 31.91700
C  47.67000 33.73000 32.40300
C  47.81700 33.90600 34.00300
H  46.82700 34.91000 34.63100
N  47.75200 36.56400 26.93700
C  48.04600 37.39700 27.94500
C  48.57600 38.60100 27.45800
C  48.67100 38.47200 26.04100
C  48.10800 37.13900 25.74700
C  48.83300 39.87600 28.31100
C  49.25300 39.43600 25.01700
O  49.33300 39.12800 23.83800
C  49.97800 40.76600 25.36200
N  47.10800 34.10400 25.13300
C  47.40200 35.12700 24.22800
C  47.18400 34.67700 22.85300
C  47.05100 33.18600 22.98000
C  46.70800 33.01600 24.47900
C  45.91000 35.30700 22.28500
C  48.36800 32.35900 22.72200
C  48.32700 30.97400 22.02900
N  46.16300 32.64000 27.36400
C  45.84700 31.69000 26.42300
C  45.21600 30.55000 27.03800
C  45.00800 31.00900 28.41100
C  45.61600 32.27800 28.53800
C  44.79100 29.29600 26.40200
C  44.49200 30.62100 29.67600
O  43.86800 29.62300 29.96000
C  44.68800 31.89700 30.60900
C  45.00100 31.55600 31.98300
O  45.89700 30.75500 32.34900
O  44.00500 32.16000 32.76900
C  44.16400 31.86600 34.22200
H  48.08400 37.84200 29.99600
H  48.10300 37.10000 23.67300
H  45.85400 31.00900 24.43800
H  45.56700 34.40100 32.24100
H  47.79500 36.40500 31.93800
H  44.82900 36.62700 32.13400
H  45.58300 37.69500 31.06100
H  46.18500 37.71000 32.70300
H  48.61100 33.96400 31.90600
H  47.60900 32.67900 32.12200
H  48.82800 34.13500 34.34100
H  47.42400 32.95000 34.34900
H  49.89100 39.97400 28.55000
H  48.36100 39.82900 29.29200
H  48.56400 40.82900 27.85400
H  49.38300 41.56600 25.80200
H  50.44200 41.08100 24.42700
H  50.83300 40.51500 25.99000
H  48.06800 34.89600 22.25300
H  46.19300 32.72600 22.49000
H  45.03600 34.65900 22.35900
H  46.12400 35.55500 21.24600
H  45.75200 36.21600 22.86600
H  48.92700 32.16000 23.63700
H  49.02900 32.88800 22.03600
H  48.88900 30.23600 22.60200
H  48.73200 31.07100 21.02200
H  47.27800 30.69400 21.92600
H  44.82900 29.34500 25.31300
H  43.73700 29.16900 26.64700
H  45.49700 28.59400 26.84700
H  43.66700 32.27800 30.58000
H  44.19300 30.80200 34.45900
H  43.26000 32.16400 34.75400
H  45.08400 32.15200 34.73100
Mg 36.58100 49.21300 25.55000
C  36.49400 47.24900 28.52700
C  35.25800 51.84700 27.41700
C  36.32200 50.98700 22.68700
C  37.45300 46.36700 23.81400
N  35.88100 49.42000 27.64600
C  36.14700 48.55200 28.70000
C  35.96200 49.29000 30.06300
C  35.31500 50.65400 29.69800
C  35.50800 50.64200 28.18600
C  33.84100 50.86300 30.10300
C  37.32500 49.46400 30.92900
C  37.20200 49.65500 32.48200
H  35.81300 49.70000 33.01000
N  35.93400 51.16200 25.09600
C  35.43400 52.10200 25.99300
C  35.33300 53.35200 25.28800
C  35.65300 53.15800 23.90800
C  36.05900 51.73800 23.84000
C  34.87200 54.55000 26.00100
C  35.80200 54.24000 22.72600
O  36.19600 53.89600 21.64100
C  35.64200 55.72000 22.86500
N  36.66900 48.66100 23.52300
C  36.63700 49.64100 22.50900
C  36.99500 49.03300 21.16500
C  37.57600 47.66700 21.67300
C  37.23200 47.54500 23.04700
C  35.77800 49.14600 20.15300
C  39.10900 47.55300 21.31300
C  40.16600 48.34400 22.06100
N  36.86500 47.14300 26.01700
C  37.24700 46.14200 25.17600
C  37.59900 44.99900 26.04000
C  37.31800 45.38500 27.36800
C  36.82300 46.67000 27.31100
C  38.28400 43.77200 25.66800
C  37.29300 44.89900 28.71900
O  37.74500 43.83800 29.25700
C  36.65100 46.07200 29.51400
C  35.25700 45.80000 30.01600
O  34.28700 45.72500 29.31000
O  35.24200 45.83900 31.39500
C  33.94400 45.37600 31.97300
H  34.87100 52.67000 28.02100
H  36.27500 51.48900 21.71800
H  37.87700 45.41000 23.50500
H  35.30800 48.69000 30.69600
H  35.91000 51.48900 30.06700
H  33.81100 51.78600 30.68300
H  33.50800 50.03100 30.72300
H  33.14800 50.98300 29.27000
H  37.90100 50.29900 30.53100
H  37.92900 48.56500 30.80700
H  37.84900 50.47600 32.79000
H  37.66000 48.79100 32.96400
H  35.63400 55.30600 26.19400
H  34.33500 54.37600 26.93300
H  34.11000 55.06600 25.41700
H  35.16800 56.19100 23.72600
H  35.04100 56.00300 22.00100
H  36.66600 56.08600 22.79300
H  37.86300 49.58100 20.79800
H  37.03400 46.81700 21.25800
H  35.67300 48.17800 19.66400
H  36.03900 49.88800 19.39800
H  34.92400 49.46200 20.75200
H  39.04500 47.74000 20.24100
H  39.27500 46.48000 21.40300
H  39.82100 49.13800 22.72400
H  40.93100 48.75600 21.40200
H  40.71700 47.65100 22.69700
H  38.80100 43.97500 24.73100
H  37.58200 42.94200 25.59000
H  39.14000 43.58100 26.31600
H  37.19200 46.47000 30.37200
H  33.85400 45.71800 33.00400
H  34.02000 44.29200 32.05500
H  33.10300 45.74100 31.38300

