158

Mg 43.70500 3.81000 46.60500
C  41.81300 6.66400 47.07500
C  40.95800 1.86300 46.81300
C  45.83400 1.10400 46.32100
C  46.62800 5.90300 46.29800
N  41.62500 4.26500 46.81900
C  41.02900 5.45000 47.07500
C  39.56500 5.27200 47.52800
C  39.39200 3.72300 47.63800
C  40.76100 3.24900 47.01300
C  39.18000 3.09900 49.05300
C  38.39700 5.96900 46.68800
C  38.48800 5.82000 45.13100
H  38.96900 6.92700 44.14600
N  43.42300 1.79600 46.40900
C  42.17600 1.20000 46.46100
C  42.30900 -0.20600 46.39000
C  43.65700 -0.52400 46.25500
C  44.40800 0.81200 46.31500
C  41.19300 -1.19800 46.33300
C  44.24700 -1.88400 46.10500
O  43.44500 -2.86400 46.16600
C  45.62100 -2.08700 45.99200
N  45.94600 3.57200 46.37700
C  46.51200 2.35300 46.35800
C  48.03000 2.48200 46.30400
C  48.29700 4.03400 46.19400
C  46.87700 4.56200 46.31400
C  48.71500 1.76700 47.56400
C  48.85000 4.48600 44.82500
C  50.33800 4.96400 44.86500
N  44.17600 5.88000 46.53600
C  45.33700 6.50300 46.43800
C  45.07900 7.88500 46.60000
C  43.73200 8.03900 46.90300
C  43.19400 6.72800 46.85600
C  46.04600 8.97300 46.32000
C  42.59500 8.94500 47.21400
O  42.65400 10.18500 47.39000
C  41.24900 8.02200 47.33300
C  40.55000 8.27600 48.63200
O  40.65400 7.67100 49.66300
O  39.69100 9.34000 48.42700
C  38.78600 9.59200 49.53800
H  40.09300 1.22100 46.99700
H  46.51100 0.26100 46.17100
H  47.52000 6.51800 46.16400
H  39.49700 5.66200 48.54400
H  38.63500 3.33900 46.95400
H  39.79400 2.20400 49.15200
H  38.14900 2.80400 49.24900
H  39.51200 3.83500 49.78600
H  38.41200 7.01200 47.00400
H  37.45800 5.52200 47.01600
H  37.46300 5.63900 44.80800
H  39.18600 4.98500 45.05900
H  40.19400 -0.77100 46.41900
H  41.29800 -2.09900 46.93800
H  41.15800 -1.65100 45.34200
H  46.09200 -1.78800 46.92900
H  45.92500 -1.59900 45.06600
H  45.77400 -3.14800 45.79200
H  48.39000 1.90700 45.45100
H  48.85500 4.45100 47.03200
H  47.92200 1.13500 47.96300
H  48.90400 2.48800 48.35900
H  49.66500 1.26200 47.38900
H  48.30000 5.27800 44.31800
H  48.68200 3.68800 44.10200
H  50.46700 5.99500 44.53400
H  50.87800 4.32300 44.16800
H  50.80600 4.75300 45.82600
H  46.27700 8.93200 45.25600
H  47.02600 9.10000 46.78000
H  45.59000 9.95700 46.42900
H  40.51400 8.22800 46.55500
H  38.30800 10.57000 49.49300
H  39.27500 9.64100 50.51100
H  37.98700 8.85400 49.46900
Mg -2.39100 34.22900 26.62500
C  -3.94300 32.78500 29.45800
C  -1.37200 36.80600 28.69300
C  -1.37500 35.82600 23.85100
C  -3.96400 31.80600 24.63900
N  -2.73800 34.76900 28.80700
C  -3.27100 33.94200 29.77700
C  -3.05900 34.48000 31.23700
C  -2.38200 35.90900 30.95600
C  -2.16600 35.85700 29.41300
C  -3.25500 37.05700 31.44700
C  -2.21900 33.56200 32.15600
C  -2.88400 32.98800 33.39500
H  -1.97300 32.55100 34.54300
N  -1.39500 36.03000 26.28700
C  -1.06300 36.90800 27.25900
C  -0.25200 37.92700 26.61900
C  -0.20100 37.65000 25.26900
C  -0.99100 36.42300 25.08100
C  0.38700 39.03000 27.40700
C  0.51700 38.34200 24.13200
O  0.57900 37.99300 22.96600
C  1.41400 39.49800 24.50600
N  -2.79600 33.94900 24.54700
C  -2.22600 34.71600 23.55800
C  -2.87600 34.49500 22.18700
C  -3.47800 33.02600 22.45100
C  -3.43400 32.87000 23.97900
C  -3.98600 35.48700 21.63600
C  -2.92700 31.86000 21.69900
C  -1.44200 31.58000 21.60100
N  -3.63500 32.55300 26.95600
C  -4.05900 31.66700 26.02700
C  -4.88800 30.70600 26.73800
C  -4.86700 31.09400 28.05800
C  -4.07800 32.26900 28.20700
C  -5.74200 29.56800 26.22000
C  -5.27700 30.71100 29.39300
O  -5.96000 29.71400 29.62000
C  -4.79100 31.84700 30.37800
C  -5.93500 32.39600 31.15000
O  -6.56600 33.43600 30.89500
O  -6.17300 31.55100 32.26000
C  -7.01000 32.00100 33.28600
H  -0.96600 37.57700 29.35100
H  -1.21100 36.49200 23.00200
H  -4.42400 31.00100 24.06200
H  -4.05100 34.63200 31.66300
H  -1.41800 35.98500 31.45900
H  -4.33200 36.90400 31.51300
H  -3.12200 37.91300 30.78600
H  -2.89200 37.46400 32.39100
H  -1.36600 34.17200 32.45300
H  -1.78300 32.78100 31.53300
H  -3.40300 32.08700 33.06800
H  -3.68000 33.65300 33.72900
H  1.44800 38.87300 27.21400
H  0.12500 39.02800 28.46500
H  0.10000 39.99700 26.99400
H  2.17700 39.40000 25.27800
H  0.69900 40.24900 24.84100
H  1.78500 40.02100 23.62400
H  -2.03900 34.45000 21.49000
H  -4.49700 33.04700 22.06600
H  -3.45400 35.90600 20.78100
H  -4.30600 36.37000 22.18900
H  -4.86300 34.96100 21.26000
H  -3.25500 31.95000 20.66300
H  -3.43500 30.94300 21.99500
H  -1.17700 31.71000 20.55200
H  -1.06600 30.59000 21.86000
H  -0.84800 32.31000 22.15100
H  -5.33000 29.27600 25.25400
H  -6.78900 29.76500 25.98600
H  -5.83200 28.73000 26.91100
H  -4.19000 31.36600 31.15000
H  -7.45200 31.07000 33.64100
H  -7.89300 32.53900 32.94100
H  -6.34600 32.44300 34.02800

