158

Mg 46.47600 24.42800 28.13500
C  47.00500 26.71000 30.82000
C  45.22600 22.16800 30.23300
C  46.57600 22.21900 25.60600
C  47.53300 27.00200 25.98300
N  46.08400 24.49800 30.30600
C  46.45900 25.46100 31.23700
C  45.87900 25.01900 32.59800
C  45.28300 23.59400 32.38700
C  45.51600 23.40000 30.88300
C  45.86200 22.46800 33.30500
C  44.92400 26.01100 33.32100
C  45.25400 26.81500 34.57500
H  44.32500 26.80600 35.82800
N  45.99400 22.40100 27.98800
C  45.46200 21.65200 29.01400
C  45.23100 20.29800 28.48000
C  45.69800 20.31100 27.11600
C  46.19800 21.62600 26.86900
C  44.78200 19.22700 29.48400
C  45.73000 19.19700 26.12100
O  46.28800 19.25200 25.06100
C  45.11200 17.95400 26.55400
N  47.03400 24.63200 26.09400
C  46.87100 23.54700 25.19000
C  47.01900 24.02400 23.67600
C  47.12200 25.58800 23.87700
C  47.26300 25.76500 25.42100
C  48.17800 23.30900 22.99200
C  45.97600 26.49000 23.34600
C  44.55800 26.16300 23.68600
N  47.26900 26.44000 28.29400
C  47.68000 27.32200 27.32500
C  48.14100 28.60400 27.99000
C  47.92600 28.42300 29.35900
C  47.40000 27.09100 29.48900
C  48.68300 29.79800 27.24500
C  47.94100 28.94400 30.72400
O  48.37200 30.05700 31.09000
C  47.35500 27.91300 31.76100
C  48.42500 27.58000 32.76700
O  49.58500 27.17600 32.51300
O  48.09000 28.04100 34.10700
C  49.12700 28.00500 35.13200
H  44.69400 21.59800 30.99800
H  46.59800 21.56400 24.73200
H  47.89300 27.85400 25.40300
H  46.64800 24.78700 33.33500
H  44.19600 23.57100 32.46500
H  45.06600 21.86200 33.73900
H  46.46600 22.84700 34.12900
H  46.55000 21.78100 32.81200
H  44.04800 25.40200 33.54200
H  44.57600 26.69500 32.54700
H  45.40200 27.83900 34.23300
H  46.16900 26.44800 35.04100
H  43.71900 19.08300 29.29300
H  44.73000 19.55100 30.52400
H  45.31800 18.27800 29.47500
H  45.54600 17.52000 27.45500
H  44.89700 17.27800 25.72600
H  44.07800 18.21200 26.78600
H  46.07500 23.85300 23.15700
H  48.02800 25.97900 23.41400
H  48.60900 22.51400 23.59900
H  48.89000 24.05000 22.62800
H  47.72600 22.88400 22.09600
H  46.06000 26.52300 22.25900
H  46.20500 27.54400 23.50400
H  44.51200 25.20300 24.20100
H  43.99400 25.99000 22.77000
H  44.14800 26.92900 24.34500
H  48.55800 30.68600 27.86500
H  47.90900 29.96900 26.49700
H  49.65500 29.69300 26.76300
H  46.50400 28.36100 32.27400
H  49.97200 27.34900 34.92300
H  48.71700 27.71400 36.09900
H  49.47400 29.02900 35.26900
Mg 30.39500 59.85200 39.22800
C  27.35900 58.40200 38.40600
C  32.05100 57.10100 37.98700
C  33.34200 61.55500 39.38800
C  28.70200 62.89900 39.70000
N  29.67900 57.96800 38.29500
C  28.43800 57.55200 38.10800
C  28.46400 56.13400 37.43900
C  29.91400 55.70600 37.66800
C  30.64700 57.03700 37.98300
C  30.29300 54.62800 38.74000
C  28.24900 56.26100 35.83200
C  27.00700 55.45900 35.32600
H  26.05600 56.12200 34.35300
N  32.41900 59.39000 38.82700
C  32.87700 58.15900 38.30100
C  34.34200 58.26800 38.22000
C  34.75500 59.51500 38.76400
C  33.45000 60.21500 39.00500
C  35.08600 57.02600 37.92100
C  36.16000 59.95300 38.90200
O  37.07700 59.20600 38.50200
C  36.68900 61.20700 39.71200
N  30.92800 61.86100 39.55000
C  32.21600 62.34200 39.60800
C  32.31300 63.81700 39.98000
C  30.85300 64.23400 40.15800
C  30.11000 62.98100 39.66900
C  33.24600 64.21300 41.12100
C  30.49300 65.57800 39.38000
C  29.97200 66.70800 40.27700
N  28.42200 60.56600 39.16600
C  27.90500 61.79200 39.38500
C  26.40600 61.69800 39.32900
C  26.23300 60.42700 38.82500
C  27.40700 59.70200 38.86600
C  25.43100 62.81800 39.45200
C  25.17700 59.42400 38.52300
O  23.94300 59.44100 38.56400
C  25.98400 58.19700 38.09900
C  25.43200 57.06400 38.81400
O  25.35200 56.94600 40.04300
O  24.91700 56.11900 37.99900
C  24.31200 54.98300 38.67100
H  32.50700 56.11700 37.86200
H  34.26000 62.14100 39.46400
H  28.11300 63.80800 39.84100
H  27.84200 55.40200 37.95400
H  30.40600 55.38900 36.74800
H  31.15900 53.99700 38.53700
H  29.44700 53.96700 38.93100
H  30.67100 55.15400 39.61700
H  29.10000 55.92200 35.24100
H  28.17000 57.31200 35.55200
H  26.41500 55.19000 36.20000
H  27.44300 54.55700 34.89600
H  34.56600 56.45000 37.15600
H  35.13800 56.43500 38.83500
H  36.07800 57.26300 37.53400
H  37.77000 61.23000 39.57000
H  36.38600 61.16500 40.75900
H  36.25800 62.05200 39.17500
H  32.66500 64.37100 39.10900
H  30.60700 64.31700 41.21700
H  33.93500 64.97000 40.74600
H  33.85700 63.38100 41.47000
H  32.73300 64.63900 41.98200
H  29.72100 65.41600 38.62800
H  31.34000 66.02200 38.85700
H  30.43200 67.66900 40.04800
H  30.14400 66.55300 41.34200
H  28.90600 66.65100 40.05500
H  24.73600 62.75200 38.61500
H  25.85000 63.82300 39.40700
H  24.79800 62.78800 40.33900
H  25.91100 58.07000 37.01900
H  23.27800 55.28000 38.84700
H  24.80000 54.72000 39.60900
H  24.44800 54.10600 38.03900

