158

Mg 3.05300 -1.56000 44.70300
C  6.55200 -0.84500 44.51200
C  2.59600 1.16300 42.65600
C  -0.07500 -2.59600 44.69700
C  3.99200 -4.85300 46.06800
N  4.51800 0.07900 43.80000
C  5.84400 0.06500 43.69100
C  6.34800 1.23600 42.76300
C  4.96700 1.90200 42.27600
C  3.92900 1.01800 42.96400
C  4.76600 3.44500 42.64100
C  7.15500 0.74700 41.54000
C  8.54200 1.31300 41.30400
H  8.58100 2.30000 40.04600
N  1.51900 -0.82900 43.74400
C  1.44400 0.31900 43.06100
C  0.09800 0.57700 42.75500
C  -0.68900 -0.47000 43.25300
C  0.21100 -1.37800 43.98400
C  -0.32500 1.95400 42.11300
C  -2.18000 -0.52100 43.18300
O  -2.80300 0.36200 42.60000
C  -3.04100 -1.61700 43.85400
N  2.12100 -3.54200 45.37100
C  0.81700 -3.60000 45.17300
C  0.30300 -5.00700 45.73300
C  1.61200 -5.76300 45.94500
C  2.62400 -4.68600 45.83300
C  -0.58900 -4.78600 46.98400
C  1.86300 -6.93400 44.89400
C  2.84800 -8.06200 45.15800
N  4.84400 -2.62400 45.23600
C  5.00300 -3.85300 45.88800
C  6.44200 -3.90900 46.22200
C  7.04000 -2.73700 45.73400
C  5.99900 -2.05000 45.10800
C  7.07800 -4.97300 47.04500
C  8.26900 -2.02600 45.65600
O  9.37800 -2.32900 46.06500
C  8.02600 -0.75900 44.83000
C  8.22200 0.37400 45.70700
O  7.46800 0.73400 46.60200
O  9.21200 1.23600 45.28700
C  9.08900 2.69800 45.68500
H  2.45600 1.87200 41.83800
H  -1.09400 -2.98600 44.74400
H  4.21400 -5.77600 46.60700
H  6.90000 1.92800 43.39900
H  4.87700 1.78900 41.19600
H  4.45600 3.57800 43.67800
H  4.03600 3.95800 42.01600
H  5.70900 3.99000 42.67500
H  6.60500 0.82200 40.60200
H  7.20100 -0.33800 41.63000
H  9.08000 0.48900 40.83600
H  9.01300 1.63500 42.23300
H  0.51300 2.39300 41.57100
H  -0.60000 2.64200 42.91300
H  -1.15900 1.84300 41.42000
H  -4.11200 -1.41700 43.84100
H  -2.74200 -1.41900 44.88300
H  -2.79300 -2.66600 43.68900
H  -0.21300 -5.40100 44.85700
H  1.90200 -6.04400 46.95700
H  -1.06500 -3.84900 47.27400
H  -0.06000 -5.08000 47.89000
H  -1.35500 -5.55100 46.85500
H  2.26700 -6.45800 44.00100
H  0.87300 -7.32500 44.65500
H  3.44400 -7.91600 46.05900
H  3.45000 -8.19000 44.25900
H  2.41800 -9.06000 45.24900
H  7.20000 -5.79700 46.34100
H  6.33100 -5.07300 47.83200
H  8.03700 -4.58500 47.39000
H  8.71000 -0.77800 43.98100
H  8.14100 2.92600 46.17100
H  9.15400 3.31700 44.79100
H  9.97200 2.99900 46.24900
Mg 29.38200 58.16100 40.79900
C  26.58500 56.51900 39.52300
C  31.38500 55.74800 39.24800
C  32.15200 60.22100 41.06600
C  27.25700 60.84800 41.59400
N  29.03100 56.46800 39.56200
C  27.80200 55.98700 39.10200
C  27.87400 54.77500 38.27000
C  29.39400 54.36500 38.44700
C  29.95900 55.59900 39.16200
C  29.57200 53.02600 39.14000
C  27.50000 55.00600 36.73700
C  26.34000 54.27700 36.07400
H  25.68400 55.08000 34.99600
N  31.53500 57.92900 40.39400
C  32.10300 56.81700 39.74900
C  33.49300 57.05000 39.54200
C  33.78300 58.27600 40.08500
C  32.49300 58.93200 40.50700
C  34.44800 56.03000 38.87800
C  35.19800 58.78600 40.21500
O  36.16400 58.07900 39.89600
C  35.53000 60.06800 40.87300
N  29.67700 60.23700 41.33300
C  30.91000 60.78600 41.37300
C  30.85400 62.30400 41.70800
C  29.33100 62.50500 42.00700
C  28.69800 61.13200 41.63700
C  31.82000 62.78800 42.77800
C  28.79600 63.73300 41.16500
C  28.86500 65.06200 41.84700
N  27.39500 58.54800 40.82900
C  26.62600 59.67600 41.24100
C  25.23500 59.31200 41.26700
C  25.19200 58.12400 40.54600
C  26.47700 57.69400 40.31000
C  24.14900 60.25800 41.73500
C  24.27700 57.23400 39.99300
O  23.08300 57.28100 39.93700
C  25.17500 56.08000 39.36400
C  24.77200 54.83200 40.15700
O  25.00500 54.61200 41.32600
O  23.86000 54.15100 39.42700
C  22.94900 53.31600 40.28500
H  31.89300 54.86400 38.85500
H  33.05000 60.84400 41.07400
H  26.56000 61.68300 41.69000
H  27.22100 54.00900 38.68800
H  29.95600 54.22000 37.52400
H  30.46100 53.03200 39.77100
H  29.68800 52.25200 38.38100
H  28.65900 52.70800 39.64300
H  28.43300 54.65000 36.30000
H  27.39600 56.08000 36.58000
H  25.57100 53.88700 36.74100
H  26.66700 53.31600 35.67800
H  35.04600 56.51300 38.10500
H  33.88000 55.26600 38.34600
H  35.02100 55.53200 39.66000
H  35.27300 60.93200 40.26000
H  36.60200 60.15800 41.04700
H  34.82900 60.15500 41.70300
H  31.12900 62.82800 40.79300
H  29.10300 62.78700 43.03400
H  32.60300 63.39800 42.32800
H  32.24800 61.98500 43.37900
H  31.26900 63.49100 43.40200
H  27.81800 63.50300 40.74200
H  29.36900 63.77600 40.23900
H  29.22400 65.73400 41.06800
H  29.48600 65.10300 42.74200
H  27.93700 65.44000 42.27500
H  23.12600 59.93400 41.54800
H  24.34300 61.19900 41.22100
H  24.22500 60.48000 42.80000
H  24.90500 55.96200 38.31500
H  22.34200 53.90300 40.97400
H  23.47300 52.65300 40.97300
H  22.34400 52.72200 39.60100

