158

Mg 2.96200 -1.80100 45.76100
C  6.26100 -0.72200 44.94900
C  1.69900 0.61000 43.47000
C  0.11700 -3.32100 45.96300
C  4.55700 -4.25400 47.64000
N  3.94400 -0.34000 44.27500
C  5.25700 -0.00600 44.25100
C  5.42700 1.07500 43.24800
C  4.02800 1.72600 43.14300
C  3.16700 0.61000 43.59600
C  3.80400 3.04300 43.97500
C  6.15600 0.58500 41.94800
C  7.55400 1.26900 41.67700
H  7.73000 2.05900 40.42200
N  1.11300 -1.42800 44.84700
C  0.80700 -0.39500 44.01400
C  -0.61900 -0.43900 43.76600
C  -1.16500 -1.51700 44.43700
C  0.01100 -2.18200 45.06800
C  -1.38100 0.54500 42.85800
C  -2.56200 -2.03200 44.27000
O  -3.40800 -1.40200 43.68800
C  -2.98500 -3.32300 44.81300
N  2.43900 -3.60500 46.59300
C  1.13700 -4.01200 46.57500
C  0.90100 -5.31800 47.39300
C  2.31600 -5.57100 48.03400
C  3.16300 -4.44200 47.41800
C  -0.29700 -5.18400 48.43800
C  2.92100 -6.97800 47.91800
C  2.95300 -7.87500 49.20900
N  4.99200 -2.33600 46.32100
C  5.41900 -3.33400 47.08300
C  6.90300 -3.36900 47.23600
C  7.27100 -2.30800 46.44700
C  6.09600 -1.80000 45.81800
C  7.80700 -4.34300 47.93800
C  8.36400 -1.35100 46.10800
O  9.50800 -1.18400 46.55700
C  7.78300 -0.39800 45.05100
C  7.95600 0.99300 45.63500
O  7.22800 1.48800 46.47100
O  9.16200 1.57000 45.10200
C  9.26100 2.98000 45.49900
H  1.29700 1.43300 42.87500
H  -0.83500 -3.83100 46.12300
H  4.97500 -4.88900 48.42300
H  6.05300 1.83900 43.70900
H  3.77100 1.96100 42.11000
H  3.13100 2.85500 44.81200
H  3.33800 3.75400 43.29300
H  4.73600 3.41200 44.40400
H  5.53100 0.48800 41.06100
H  6.32200 -0.48700 42.05900
H  8.19300 0.38600 41.69100
H  7.73500 1.89700 42.54900
H  -0.86900 1.47700 42.61600
H  -2.24400 0.97800 43.36300
H  -1.56900 0.06000 41.90000
H  -2.98100 -3.21700 45.89800
H  -2.21200 -4.01900 44.48800
H  -4.00000 -3.53400 44.47600
H  0.61500 -6.00200 46.59400
H  2.17700 -5.30300 49.08100
H  -0.62500 -4.14500 48.41300
H  0.02200 -5.54300 49.41700
H  -1.08900 -5.75700 47.95600
H  3.90900 -6.90300 47.46400
H  2.23700 -7.51800 47.26300
H  2.45300 -8.78300 48.87200
H  2.34100 -7.63700 50.07900
H  3.97000 -8.13000 49.50800
H  8.27500 -3.81400 48.76800
H  8.49700 -4.71200 47.17900
H  7.19600 -5.11500 48.40600
H  8.24500 -0.54900 44.07500
H  8.97700 3.03400 46.55000
H  8.60000 3.56300 44.85700
H  10.26600 3.39600 45.42700
Mg 24.22100 -7.14500 47.95100
C  26.59800 -5.06800 46.74700
C  22.14400 -5.98100 45.32400
C  21.91700 -9.44600 48.88900
C  26.53300 -8.59700 50.12100
N  24.33900 -5.53000 46.40500
C  25.40700 -4.80400 46.06100
C  25.22900 -3.86900 44.81200
C  23.64800 -3.92900 44.74400
C  23.36200 -5.26200 45.48900
C  22.89000 -2.71300 45.38000
C  25.88300 -4.34000 43.57500
C  26.65500 -3.20000 42.81500
H  26.02600 -2.82300 41.43500
N  22.36300 -7.57900 47.22600
C  21.67100 -7.02300 46.14000
C  20.47000 -7.81000 45.92500
C  20.35400 -8.74900 46.95800
C  21.51400 -8.53700 47.79200
C  19.51800 -7.57300 44.77900
C  19.07600 -9.67300 47.12900
O  18.23200 -9.76000 46.22700
C  18.82600 -10.44100 48.42900
N  24.22900 -8.82300 49.31400
C  23.13100 -9.60000 49.54500
C  23.54500 -10.75300 50.51700
C  24.83900 -10.20300 51.20200
C  25.22000 -9.12400 50.14400
C  22.42600 -11.19800 51.53700
C  25.95100 -11.28800 51.33300
C  26.50900 -11.87900 50.10100
N  26.18400 -7.00000 48.35500
C  27.03000 -7.57900 49.29000
C  28.34700 -7.02900 49.18300
C  28.20400 -5.99100 48.15200
C  26.89600 -6.01300 47.72900
C  29.50700 -7.24600 50.12200
C  28.86100 -4.93400 47.45200
O  30.03800 -4.65600 47.44100
C  27.90400 -4.41100 46.44600
C  27.92400 -2.92500 46.59000
O  27.23400 -2.27300 47.37000
O  28.79900 -2.45900 45.65900
C  28.83000 -1.01200 45.52900
H  21.53000 -5.53800 44.53800
H  21.20500 -10.23300 49.14800
H  27.33500 -8.85200 50.81800
H  25.42800 -2.82100 45.03500
H  23.23500 -4.09700 43.74900
H  22.09500 -3.10200 46.01600
H  22.39500 -2.12300 44.60800
H  23.54100 -2.05300 45.95400
H  25.08800 -4.82300 43.00600
H  26.60800 -5.12100 43.79900
H  27.65900 -3.57700 42.61700
H  26.78400 -2.42000 43.56500
H  19.31900 -8.50300 44.24600
H  19.94400 -6.86600 44.06800
H  18.58000 -7.23100 45.21600
H  17.75300 -10.61800 48.36000
H  18.86600 -9.77800 49.29300
H  19.31000 -11.39900 48.61600
H  23.75900 -11.59100 49.85400
H  24.59700 -9.86100 52.20800
H  21.54700 -10.63400 51.22700
H  22.73300 -10.96400 52.55600
H  22.23200 -12.25500 51.35500
H  25.36500 -12.03100 51.87400
H  26.66300 -10.99600 52.10400
H  26.15600 -11.36200 49.20800
H  26.35600 -12.94700 49.94900
H  27.59800 -11.88700 50.13600
H  29.11500 -6.92400 51.08700
H  30.27000 -6.62800 49.64900
H  29.64900 -8.32500 50.06500
H  28.23100 -4.62900 45.43000
H  29.62600 -0.60900 46.15500
H  27.94500 -0.54600 45.96300
H  28.94700 -0.73500 44.48200

