158

Mg 36.79600 49.16400 25.30900
C  36.65700 47.19800 28.18100
C  35.05500 51.60600 27.18300
C  36.05600 51.05900 22.40100
C  38.08900 46.63600 23.50300
N  35.81100 49.24800 27.37300
C  36.18800 48.45100 28.40100
C  35.96400 49.11400 29.80300
C  35.43500 50.50300 29.38900
C  35.37700 50.45900 27.91300
C  34.12100 50.86000 30.07600
C  37.17500 49.17700 30.75600
C  36.92900 48.52400 32.16100
H  36.97100 49.51900 33.32500
N  35.85300 51.12400 24.91100
C  35.22100 51.92800 25.83800
C  34.88300 53.18600 25.21000
C  35.17400 53.01000 23.81900
C  35.67000 51.65700 23.65900
C  34.39100 54.42000 26.03800
C  34.90700 54.07500 22.72000
O  35.27600 53.92700 21.54600
C  34.08400 55.34700 23.03500
N  36.95600 48.90600 23.29000
C  36.68900 49.80500 22.27000
C  36.78000 49.05600 20.89900
C  37.69600 47.82600 21.25800
C  37.58700 47.75900 22.81900
C  35.35200 48.75600 20.38100
C  39.15500 48.00900 20.85300
C  39.68800 46.91400 19.86500
N  37.33700 47.33200 25.71400
C  37.92300 46.39000 24.87700
C  38.05200 45.11200 25.53800
C  37.63900 45.41500 26.85000
C  37.11700 46.73800 26.88200
C  38.52800 43.75600 25.03500
C  37.47200 44.86900 28.25500
O  37.76400 43.76600 28.69700
C  36.78300 45.99400 29.05300
C  35.62400 45.42900 29.66000
O  34.69000 44.92900 29.03100
O  35.76600 45.41800 31.06400
C  34.71100 44.76900 31.84700
H  34.54900 52.39800 27.73800
H  35.82700 51.68500 21.53700
H  38.63900 45.89700 22.91600
H  35.16500 48.49000 30.20300
H  36.12100 51.29700 29.68200
H  33.24900 50.67000 29.45000
H  34.08000 51.94400 30.17300
H  34.03300 50.40500 31.06300
H  37.43100 50.23100 30.86200
H  38.00300 48.76000 30.18400
H  37.84400 47.95400 32.32600
H  35.99000 47.97300 32.21100
H  34.29900 54.23200 27.10800
H  33.40600 54.78200 25.74400
H  35.21500 55.12600 25.94200
H  33.13900 55.29400 23.57500
H  33.76700 55.72500 22.06300
H  34.70800 55.95900 23.68500
H  37.12200 49.73000 20.11300
H  37.21500 46.92800 20.87200
H  34.60500 49.10200 21.09600
H  35.31200 47.71400 20.06400
H  35.21700 49.32100 19.45800
H  39.77900 48.08800 21.74400
H  39.27400 48.96400 20.34200
H  39.89900 47.41800 18.92200
H  39.00500 46.06600 19.83400
H  40.67400 46.69700 20.27800
H  39.61700 43.70300 25.05100
H  38.29400 43.71700 23.97100
H  37.96600 42.97800 25.55200
H  37.48200 46.27300 29.84200
H  35.14600 43.96000 32.43400
H  33.80200 44.40700 31.36700
H  34.41500 45.37500 32.70400
Mg 10.02000 47.99600 25.64500
C  8.02500 48.23900 28.53000
C  12.49000 49.39700 27.29300
C  11.64400 48.23000 22.69100
C  7.14400 46.86800 23.86000
N  10.17100 48.70000 27.70400
C  9.33600 48.61500 28.74500
C  10.04100 49.15100 30.04700
C  11.32100 49.89400 29.45400
C  11.31600 49.33100 28.06000
C  10.99800 51.40200 29.22800
C  10.37600 48.13100 31.08100
C  10.00700 48.50900 32.54300
H  10.19600 47.40600 33.49600
N  11.82800 48.63400 25.07400
C  12.77300 49.11000 25.93300
C  14.04600 49.22000 25.24500
C  13.82200 48.92500 23.89700
C  12.33600 48.61800 23.82500
C  15.34100 49.59900 25.97300
C  14.77100 48.83300 22.65200
O  14.43300 48.83400 21.45100
C  16.19700 48.91400 22.95000
N  9.41100 47.75800 23.49100
C  10.31500 47.87700 22.51400
C  9.72100 47.37100 21.17900
C  8.38100 46.65000 21.66300
C  8.30700 47.06900 23.11800
C  9.56100 48.52900 20.18700
C  8.21600 45.13100 21.36400
C  8.90300 44.02300 22.27000
N  7.92600 47.76300 25.98000
C  6.87300 47.31000 25.14800
C  5.68900 47.19200 25.97500
C  6.10200 47.58800 27.29100
C  7.48400 47.85600 27.21100
C  4.39400 46.58200 25.47900
C  5.61200 47.77700 28.71100
O  4.46400 47.75600 29.20200
C  6.90700 47.96500 29.60000
C  7.14500 46.65100 30.35400
O  7.80700 45.71200 29.93300
O  6.48500 46.74800 31.54600
C  6.65300 45.60600 32.45900
H  13.32100 49.91200 27.78000
H  12.23400 48.12700 21.77800
H  6.28200 46.41100 23.37000
H  9.40400 49.83600 30.60600
H  12.29100 49.67600 29.90000
H  10.01000 51.68100 29.59400
H  10.95100 51.74500 28.19400
H  11.75500 51.98000 29.75800
H  11.45400 47.97100 31.05900
H  9.96500 47.12200 31.03700
H  8.91900 48.56700 32.51400
H  10.57000 49.40100 32.81700
H  15.22200 49.71100 27.05100
H  15.74400 50.57300 25.69400
H  16.11100 48.84200 25.82500
H  16.67000 49.04600 21.97700
H  16.52300 47.98000 23.40600
H  16.33500 49.84100 23.50700
H  10.36800 46.61100 20.74300
H  7.49500 47.13900 21.25900
H  10.20200 49.36200 20.47600
H  8.50000 48.78000 20.22200
H  9.72200 48.32000 19.12900
H  8.47500 45.03700 20.30900
H  7.15000 44.96100 21.51600
H  8.21400 43.19700 22.44400
H  9.32300 44.43100 23.18900
H  9.70300 43.65700 21.62700
H  3.82900 47.32100 24.91100
H  3.71600 46.40300 26.31400
H  4.43000 45.66600 24.89000
H  6.98900 48.85500 30.22500
H  7.59800 45.78000 32.97300
H  6.70100 44.64000 31.95800
H  5.92400 45.52700 33.26500

