158

Mg 41.47800 41.04000 27.51500
C  41.18400 43.44700 30.14500
C  42.50400 38.79700 29.84900
C  41.93900 38.88700 25.03400
C  40.95800 43.49800 25.32700
N  41.79200 41.12600 29.80900
C  41.53700 42.19100 30.64300
C  41.59900 41.74000 32.05000
C  42.25000 40.31800 31.95000
C  42.23500 40.07000 30.43900
C  43.69700 40.10100 32.48400
C  40.14200 41.68100 32.70400
C  40.13000 42.37400 34.08700
H  39.44700 41.72200 35.39500
N  42.18100 39.12600 27.43700
C  42.50900 38.32000 28.54300
C  42.70400 36.99900 28.15200
C  42.51900 36.95000 26.70300
C  42.17500 38.34300 26.32300
C  43.14800 35.87000 29.07300
C  42.56300 35.83000 25.75300
O  42.04300 35.89500 24.60400
C  43.27100 34.62900 26.15000
N  41.64100 41.28100 25.51700
C  41.71800 40.17400 24.62700
C  41.54400 40.55400 23.15200
C  41.23800 42.03000 23.31300
C  41.20400 42.29300 24.78800
C  42.81800 40.12600 22.34600
C  40.00400 42.54900 22.52300
C  38.64900 41.94100 22.80900
N  41.11900 43.05800 27.66500
C  40.96200 43.97700 26.64800
C  40.75800 45.29800 27.11800
C  40.74000 45.08300 28.49400
C  41.05400 43.76900 28.78400
C  40.33500 46.51700 26.39400
C  40.41400 45.73100 29.77400
O  40.11200 46.88800 30.01500
C  40.78600 44.62700 30.94800
C  41.93800 45.14300 31.74900
O  43.09300 44.95200 31.44200
O  41.54600 45.80100 32.84000
C  42.48000 46.41200 33.68700
H  42.73700 38.00000 30.55900
H  41.76400 38.13200 24.26400
H  40.77300 44.25800 24.56500
H  42.31200 42.41800 32.52000
H  41.62600 39.52400 32.36100
H  43.96500 40.97100 33.08400
H  44.40900 39.94500 31.67300
H  43.71300 39.18100 33.06700
H  39.73200 40.68600 32.87500
H  39.34800 42.14100 32.11500
H  39.61400 43.31700 33.90700
H  41.09500 42.81900 34.33200
H  42.66300 34.94300 28.76500
H  42.95400 35.96000 30.14200
H  44.22700 35.76300 28.96400
H  43.31300 33.95700 25.29300
H  42.69000 34.08400 26.89400
H  44.25400 34.95200 26.49200
H  40.61100 40.07300 22.85700
H  42.07000 42.65600 22.99100
H  43.71300 39.93500 22.93800
H  43.00900 40.93200 21.63800
H  42.59400 39.24200 21.74900
H  40.24300 42.38200 21.47300
H  40.02300 43.63500 22.61300
H  38.57600 41.32800 23.70800
H  38.41700 41.30100 21.95800
H  37.88200 42.70800 22.91300
H  41.19600 47.15100 26.18100
H  39.57500 47.01300 26.99700
H  39.85300 46.33700 25.43300
H  39.97000 44.49400 31.65700
H  43.34000 46.83000 33.16300
H  42.88300 45.84300 34.52500
H  41.88800 47.18000 34.18600
Mg 36.54200 49.06900 26.30800
C  36.38000 46.98500 29.22000
C  35.61900 51.64000 28.29200
C  35.89000 50.76000 23.48900
C  36.91000 46.09500 24.39000
N  36.17500 49.22800 28.44000
C  36.27800 48.33700 29.44800
C  36.18900 48.94700 30.84700
C  35.53100 50.34800 30.56600
C  35.75100 50.44000 28.94000
C  33.97400 50.47500 30.85900
C  37.47100 49.12300 31.65600
C  37.36400 48.72500 33.13100
H  37.21600 49.83100 34.13600
N  36.04800 51.01100 25.95600
C  35.70500 51.94900 26.90900
C  35.63100 53.28600 26.24700
C  35.70200 53.06200 24.82000
C  35.88900 51.55400 24.69600
C  35.45300 54.57200 26.96700
C  35.53700 54.00300 23.63800
O  35.74500 53.64300 22.46500
C  35.22600 55.40200 23.94500
N  36.35900 48.58200 24.23500
C  36.17300 49.43600 23.25500
C  36.26900 48.84600 21.85600
C  36.87900 47.38000 22.17700
C  36.73100 47.34500 23.69900
C  34.80400 48.79800 21.11000
C  38.37300 47.13500 21.70800
C  38.62500 45.86600 20.94200
N  36.61700 46.98600 26.65100
C  36.79100 45.93100 25.78200
C  36.83000 44.67900 26.53700
C  36.63100 45.04400 27.87000
C  36.53700 46.44500 27.92300
C  37.01800 43.26800 25.96300
C  36.41700 44.51100 29.22000
O  36.35200 43.37000 29.66500
C  36.43400 45.80100 30.10900
C  35.19300 45.74800 30.94700
O  34.07000 45.72700 30.56200
O  35.61400 45.80600 32.31400
C  34.52400 45.95200 33.29500
H  35.28100 52.52100 28.84200
H  35.54200 51.38900 22.66600
H  37.10000 45.21500 23.77200
H  35.45200 48.39500 31.43000
H  36.08600 51.17300 31.01200
H  33.48900 49.50400 30.96200
H  33.53600 51.11000 30.08900
H  33.76600 51.04800 31.76300
H  37.83100 50.15100 31.63500
H  38.23700 48.49900 31.19600
H  38.18300 48.05000 33.38200
H  36.49400 48.07100 33.18500
H  34.52500 54.91100 26.50800
H  36.22500 55.32700 26.82000
H  35.37900 54.44600 28.04700
H  35.17100 55.90400 22.97900
H  35.99600 55.89100 24.54200
H  34.29800 55.36300 24.51600
H  36.92400 49.51600 21.29900
H  36.26000 46.57300 21.78600
H  34.05600 49.16800 21.81100
H  34.44900 47.80900 20.81900
H  34.80500 49.45800 20.24300
H  39.00600 47.16400 22.59500
H  38.65200 48.02800 21.14800
H  37.80900 45.15300 21.05500
H  39.55300 45.41600 21.29500
H  38.71300 46.15300 19.89400
H  38.09000 43.23100 25.77100
H  36.45400 43.14800 25.03800
H  36.63600 42.45900 26.58500
H  37.42000 45.80400 30.57400
H  33.57000 45.90700 32.77000
H  34.70600 46.77000 33.99200
H  34.61700 45.04100 33.88600

