158

Mg 1.27200 8.55000 27.09500
C  1.87000 10.76200 29.91500
C  1.45700 5.95400 29.32300
C  1.46200 6.49800 24.42900
C  1.51100 11.29100 25.09400
N  1.71000 8.38900 29.39100
C  1.85600 9.35600 30.27900
C  1.69600 8.83600 31.68900
C  1.98700 7.31700 31.57900
C  1.67900 7.21100 30.04300
C  3.33700 6.71400 31.85600
C  0.31800 9.18800 32.30400
C  0.25200 9.26500 33.85000
H  1.29400 8.53400 34.69600
N  1.31400 6.51900 26.90500
C  1.27000 5.62500 27.93300
C  1.20900 4.26800 27.37700
C  1.29600 4.42800 25.95200
C  1.33200 5.85900 25.71800
C  1.11400 3.08200 28.22400
C  1.22000 3.40300 24.82500
O  1.35500 3.68400 23.58900
C  0.76200 2.01300 25.19200
N  1.67800 8.90400 24.98000
C  1.57100 7.85300 24.10000
C  1.55800 8.37900 22.63700
C  1.32300 9.88200 22.88900
C  1.45100 10.07500 24.39600
C  2.82800 7.98700 21.81100
C  0.03100 10.47400 22.25900
C  -1.20500 10.74200 23.09700
N  1.58300 10.59600 27.42800
C  1.63100 11.59000 26.45900
C  1.61600 12.91300 27.12500
C  1.74700 12.59600 28.51400
C  1.66800 11.23000 28.64300
C  1.70300 14.24800 26.61700
C  1.98800 13.15900 29.81800
O  2.17200 14.32400 30.20800
C  1.97900 11.99600 30.81800
C  3.08000 12.04400 31.74400
O  4.23700 11.69300 31.51500
O  2.67300 12.49900 32.95300
C  3.66100 12.47700 34.09400
H  1.50800 5.09100 29.99100
H  1.48700 5.95700 23.48100
H  1.36500 12.23400 24.56200
H  2.47600 9.37000 32.23100
H  1.24800 6.77600 32.17200
H  3.77400 6.14400 31.03600
H  3.18700 5.90100 32.56600
H  4.01100 7.52300 32.13800
H  -0.51900 8.56300 31.99200
H  0.07400 10.14800 31.84800
H  -0.82100 9.18900 34.02900
H  0.42300 10.29100 34.17500
H  0.17000 2.57800 28.01500
H  1.04700 3.33500 29.28200
H  2.01200 2.51200 27.98600
H  0.63500 1.46600 24.25800
H  -0.20500 2.08200 25.69200
H  1.38600 1.43700 25.87600
H  0.70800 7.91000 22.14100
H  2.10300 10.50900 22.45700
H  3.51000 7.55100 22.54000
H  3.32400 8.86400 21.39500
H  2.51300 7.25100 21.07100
H  -0.34700 9.71800 21.57100
H  0.24400 11.36300 21.66500
H  -2.00400 10.22000 22.57100
H  -1.38500 11.81700 23.11600
H  -1.25200 10.45600 24.14800
H  2.69600 14.55600 26.29100
H  1.44200 14.92300 27.43300
H  0.96500 14.58900 25.89100
H  1.03800 12.12800 31.35300
H  4.45200 11.74200 33.94600
H  3.09600 12.29600 35.00900
H  4.12700 13.45400 34.22600
Mg 47.02700 25.08100 28.32000
C  47.98700 27.38000 30.81000
C  46.53500 22.73300 30.64100
C  46.57200 22.87800 25.75000
C  48.35600 27.35400 25.88000
N  47.37000 25.03500 30.55400
C  47.46700 26.20000 31.26700
C  47.16500 25.80000 32.72400
C  46.80600 24.22800 32.68300
C  46.95000 23.97400 31.19700
C  47.69700 23.25800 33.50200
C  45.98700 26.74400 33.36300
C  45.20100 26.40300 34.58000
H  45.37300 27.32600 35.82900
N  46.52200 23.04900 28.27000
C  46.33700 22.26000 29.34700
C  45.97300 20.96100 28.94900
C  45.96900 21.04100 27.51600
C  46.35100 22.35100 27.06700
C  45.64600 19.86100 29.90100
C  45.68000 19.98700 26.49100
O  45.79700 20.12300 25.27600
C  45.31900 18.68400 27.06000
N  47.53600 25.13300 26.16200
C  47.09300 24.11400 25.37300
C  47.03900 24.54000 23.86500
C  47.28300 26.12500 23.88200
C  47.76700 26.23000 25.39500
C  48.16900 23.79000 23.12800
C  45.95600 26.99300 23.63200
C  46.19600 28.32200 22.78800
N  48.02600 26.93200 28.31500
C  48.51500 27.67500 27.23600
C  49.06400 28.88900 27.81300
C  48.85900 28.84200 29.16800
C  48.14800 27.63800 29.43000
C  49.61900 30.02500 27.14400
C  49.07200 29.59200 30.35900
O  49.67400 30.63000 30.58700
C  48.43500 28.65000 31.54100
C  49.40500 28.51100 32.63300
O  50.25200 27.66600 32.82400
O  49.00500 29.41600 33.55400
C  49.47100 29.29600 34.87500
H  46.32900 22.05300 31.46900
H  46.24500 22.21900 24.94200
H  48.73400 28.09900 25.17700
H  48.12300 25.91000 33.23200
H  45.76600 24.05600 32.95900
H  48.52300 22.88800 32.89400
H  47.05600 22.45500 33.86500
H  48.18100 23.90200 34.23700
H  45.23500 26.87600 32.58500
H  46.62400 27.58700 33.62800
H  45.63100 25.42800 34.81100
H  44.13700 26.26800 34.38800
H  46.52300 19.21500 29.87100
H  44.68600 19.45400 29.58200
H  45.38400 20.12100 30.92700
H  45.04600 17.89500 26.36000
H  44.42800 18.92300 27.64100
H  46.09300 18.25400 27.69600
H  46.04300 24.32200 23.48000
H  48.06500 26.49500 23.21900
H  47.77200 22.78000 23.02200
H  49.06800 23.91300 23.73100
H  48.24800 24.26300 22.14900
H  45.58300 27.32700 24.60000
H  45.17000 26.33600 23.26100
H  45.94000 28.07600 21.75700
H  47.23100 28.65200 22.69800
H  45.61700 29.13000 23.23600
H  49.52900 30.02600 26.05800
H  50.70100 29.91400 27.21800
H  49.26700 30.95300 27.59500
H  47.49100 29.06900 31.89000
H  48.80000 28.75500 35.54300
H  49.49600 30.31000 35.27400
H  50.39700 28.74400 35.03800

