158

Mg 23.73800 -4.92900 45.55700
C  26.33900 -2.80500 44.02100
C  21.64600 -3.92300 42.97600
C  21.90300 -7.58400 46.09600
C  26.40200 -6.25700 47.33400
N  23.97300 -3.51900 43.78200
C  25.08700 -2.79600 43.37400
C  24.78200 -2.04800 42.04100
C  23.25300 -2.40600 41.79000
C  22.91900 -3.29500 42.97800
C  22.33400 -1.24900 41.66800
C  25.66600 -2.49100 40.83600
C  26.55400 -1.47100 40.05000
H  26.10500 -1.48400 38.54800
N  21.89800 -5.66200 44.74500
C  21.20200 -4.99100 43.77300
C  19.84700 -5.61300 43.74700
C  19.91100 -6.78300 44.53800
C  21.24500 -6.75000 45.17200
C  18.75400 -5.09400 42.82500
C  18.80800 -7.75800 44.73200
O  17.68300 -7.50000 44.26100
C  18.85700 -9.01600 45.58200
N  24.16000 -6.73300 46.38800
C  23.16000 -7.65700 46.61700
C  23.69900 -8.88600 47.33200
C  25.01900 -8.32600 47.96200
C  25.22800 -7.05200 47.21500
C  22.68200 -9.61500 48.33100
C  26.30200 -9.31500 48.03100
C  26.11500 -10.92700 47.76200
N  25.82300 -4.43200 45.94100
C  26.75300 -5.05800 46.68800
C  28.02300 -4.52500 46.58500
C  27.87000 -3.56800 45.61600
C  26.55100 -3.62600 45.20500
C  29.27200 -4.98800 47.18700
C  28.64500 -2.62800 44.81100
O  29.83800 -2.35800 44.81300
C  27.66200 -2.09700 43.73900
C  27.61700 -0.58500 43.77300
O  27.17100 0.05400 44.66200
O  28.08400 0.04000 42.64300
C  28.23200 1.46900 42.65600
H  20.91400 -3.57600 42.24400
H  21.27300 -8.43200 46.37000
H  27.16500 -6.68400 47.98800
H  24.93700 -0.99300 42.26900
H  23.08000 -3.01700 40.90500
H  21.51100 -1.35700 42.37500
H  21.82700 -1.36400 40.71000
H  22.81800 -0.27200 41.66200
H  25.16200 -3.06000 40.05400
H  26.30300 -3.25200 41.28700
H  27.63900 -1.56900 40.06300
H  26.43000 -0.52000 40.56900
H  18.57400 -5.87000 42.08200
H  19.02800 -4.25600 42.18300
H  17.80600 -4.98700 43.35100
H  17.97400 -9.65200 45.51700
H  19.09500 -8.72900 46.60600
H  19.63700 -9.67100 45.19200
H  23.97700 -9.54100 46.50600
H  24.94800 -8.04700 49.01300
H  21.84200 -8.99600 48.64400
H  23.23700 -9.91600 49.22000
H  22.29200 -10.54900 47.92700
H  26.72000 -9.23000 49.03400
H  27.03600 -9.02100 47.28100
H  26.51700 -11.31500 46.82600
H  25.10400 -11.33200 47.81300
H  26.71200 -11.36100 48.56500
H  29.03600 -5.49100 48.12500
H  29.92000 -4.13000 47.36400
H  29.86500 -5.64100 46.54700
H  27.96000 -2.43000 42.74500
H  29.06400 1.73500 43.30800
H  27.40800 1.94500 43.18700
H  28.35800 1.97400 41.69800
Mg 17.51000 -0.30000 27.41000
C  16.41800 1.53300 30.22700
C  19.54400 -2.11300 29.66000
C  18.97300 -1.60000 24.83300
C  15.79700 1.99300 25.42900
N  17.82000 -0.44200 29.74500
C  17.25000 0.43800 30.62700
C  17.58700 0.05200 32.02200
C  18.70500 -1.02000 31.84200
C  18.73600 -1.25900 30.34200
C  20.07200 -0.78400 32.50100
C  16.39400 -0.44900 32.89900
C  16.40300 -0.05800 34.43400
H  17.72400 0.47100 35.07700
N  18.92100 -1.73700 27.23500
C  19.55700 -2.46200 28.26800
C  20.44600 -3.45100 27.71200
C  20.43900 -3.31200 26.27000
C  19.41300 -2.21300 26.05300
C  21.22600 -4.48500 28.58400
C  21.06000 -4.05800 25.21500
O  20.87900 -3.84300 24.01300
C  21.98400 -5.12000 25.50700
N  17.36300 0.09600 25.38100
C  18.15300 -0.56200 24.50600
C  17.86700 -0.03700 23.03300
C  16.60700 0.96900 23.24200
C  16.54700 1.03200 24.77000
C  19.06400 0.57000 22.27300
C  15.29200 0.59800 22.58100
C  14.41800 -0.38500 23.45500
N  16.21900 1.35200 27.67100
C  15.61100 2.18400 26.73800
C  14.86200 3.23400 27.39400
C  15.16200 2.99300 28.80000
C  16.02600 1.84600 28.89000
C  14.06000 4.35300 26.87300
C  14.98700 3.50800 30.16300
O  14.34400 4.46800 30.51300
C  15.76700 2.56200 31.06200
C  16.70700 3.32500 32.02200
O  17.89600 3.58400 31.96000
O  15.89100 3.66300 33.08700
C  16.39200 4.60600 34.12800
H  20.10000 -2.77200 30.33000
H  19.43700 -1.99500 23.92700
H  15.28800 2.72600 24.79900
H  18.07700 0.89600 32.50500
H  18.34900 -1.87700 32.41300
H  20.05400 0.18300 33.00300
H  20.89900 -0.89900 31.80000
H  20.39400 -1.44700 33.30400
H  16.29100 -1.52500 32.75500
H  15.48900 -0.00600 32.48500
H  16.10900 -0.95300 34.98300
H  15.60400 0.67000 34.57400
H  21.40600 -5.43900 28.08900
H  20.63900 -4.78000 29.45400
H  22.17800 -4.05000 28.89100
H  22.83000 -4.79400 26.11100
H  22.52400 -5.48100 24.63100
H  21.39200 -5.90100 25.98600
H  17.52000 -0.95300 22.55500
H  16.90500 1.96300 22.90900
H  19.85100 1.12100 22.78800
H  18.67200 1.20300 21.47600
H  19.66200 -0.21800 21.81700
H  15.47400 0.07400 21.64200
H  14.81700 1.55500 22.36600
H  14.25500 0.20400 24.35800
H  15.00500 -1.28900 23.61500
H  13.45800 -0.59500 22.98200
H  12.98200 4.18700 26.86600
H  14.31000 4.66600 25.86000
H  14.31500 5.17300 27.54500
H  15.11100 2.03000 31.75100
H  15.77100 4.48300 35.01600
H  16.27000 5.67500 33.95500
H  17.43400 4.41700 34.38800

