158

Mg -2.25000 34.99900 27.14400
C  -3.76900 33.41500 29.87100
C  -1.05100 37.34300 29.43500
C  -0.98200 36.71900 24.56700
C  -3.78000 32.81500 25.01400
N  -2.53200 35.46600 29.39000
C  -3.14100 34.57300 30.25700
C  -2.85300 34.96800 31.76800
C  -2.22700 36.38900 31.60500
C  -1.85800 36.41300 30.09100
C  -3.06600 37.59500 31.99200
C  -1.93300 33.86800 32.52800
C  -2.45400 33.18900 33.74800
H  -1.65100 33.17700 35.05600
N  -1.09900 36.72000 26.96000
C  -0.71600 37.52900 28.01900
C  0.11000 38.60500 27.53000
C  0.10600 38.49600 26.13500
C  -0.69200 37.25300 25.81000
C  0.94100 39.45800 28.43600
C  0.84700 39.32900 25.00600
O  0.69500 39.15200 23.79900
C  1.74600 40.44200 25.47800
N  -2.19300 34.70100 25.13400
C  -1.72200 35.58500 24.20100
C  -1.93800 35.20100 22.69600
C  -2.74700 33.88600 22.98200
C  -2.96300 33.76300 24.48900
C  -2.80000 36.23700 21.79400
C  -2.20300 32.56600 22.32400
C  -0.98700 31.91100 23.03600
N  -3.43300 33.37800 27.31600
C  -3.98100 32.57200 26.39200
C  -4.83900 31.61000 27.03700
C  -4.65000 31.77300 28.37400
C  -3.86700 32.93300 28.52000
C  -5.55200 30.57000 26.33900
C  -4.87400 31.23000 29.68800
O  -5.45100 30.16800 29.95800
C  -4.38800 32.27500 30.78200
C  -5.57000 32.74500 31.50300
O  -6.21700 33.72100 31.22200
O  -5.94300 31.87200 32.42000
C  -6.88900 32.47700 33.33400
H  -0.65900 38.04700 30.17200
H  -0.51300 37.12300 23.66700
H  -4.21700 32.14600 24.27000
H  -3.80400 35.07000 32.29200
H  -1.32600 36.31300 32.21400
H  -2.72200 37.81000 33.00400
H  -4.12900 37.35700 31.94400
H  -2.88800 38.44700 31.33500
H  -0.96100 34.26300 32.82300
H  -1.64300 33.06900 31.84600
H  -2.60800 32.16300 33.41200
H  -3.45000 33.60100 33.90800
H  0.90600 40.49800 28.11200
H  1.98100 39.18100 28.26600
H  0.64900 39.30000 29.47500
H  2.37400 40.04200 26.27300
H  1.07200 41.21900 25.83900
H  2.28200 40.77400 24.58900
H  -1.08400 34.80500 22.14700
H  -3.69200 34.07300 22.47200
H  -2.31900 37.21000 21.89600
H  -3.86500 36.30100 22.01700
H  -2.61200 35.95200 20.75900
H  -2.00300 32.74800 21.26800
H  -2.99800 31.82000 22.36000
H  -1.41900 30.92200 23.19300
H  -0.70900 32.56200 23.86500
H  -0.14100 31.88900 22.34900
H  -5.62800 29.74700 27.04900
H  -4.98600 30.38200 25.42600
H  -6.50700 31.04300 26.10800
H  -3.64200 31.91500 31.49100
H  -6.39300 33.19700 33.98500
H  -7.02100 31.69200 34.07800
H  -7.84900 32.77000 32.90800
Mg -11.25800 17.37100 41.47800
C  -7.92400 16.51100 41.90800
C  -10.29900 20.62800 40.98400
C  -14.48000 18.13600 40.68900
C  -12.07300 13.84800 41.42200
N  -9.32000 18.33800 41.31200
C  -8.06600 17.82200 41.57800
C  -7.02700 18.86800 41.27200
C  -7.81300 20.24100 41.47400
C  -9.22500 19.71200 41.19700
C  -7.75400 20.98400 42.85100
C  -6.37000 18.72700 39.84100
C  -4.84800 18.42800 39.70800
H  -4.51500 17.09000 38.96600
N  -12.30400 19.13900 40.93400
C  -11.67900 20.33900 40.81400
C  -12.64400 21.24800 40.42900
C  -13.92400 20.60000 40.43800
C  -13.66700 19.22800 40.74100
C  -12.32600 22.71000 40.16500
C  -15.26400 21.22600 40.05300
O  -15.39100 22.42800 39.68900
C  -16.61900 20.44600 40.11600
N  -12.94300 16.18500 41.04400
C  -14.18200 16.76600 40.78800
C  -15.21100 15.62500 40.54900
C  -14.36400 14.31900 40.56500
C  -13.07400 14.79900 41.10500
C  -16.29400 15.46900 41.64600
C  -14.08900 13.66900 39.12800
C  -14.58000 12.15400 38.94800
N  -10.28500 15.48000 41.78100
C  -10.70800 14.14800 41.73700
C  -9.59200 13.31500 42.01100
C  -8.43100 14.15100 42.13200
C  -8.93900 15.47400 41.92800
C  -9.65500 11.84600 42.24700
C  -6.97700 14.24700 42.39700
O  -6.21000 13.29500 42.70400
C  -6.58800 15.74900 42.25600
C  -5.99400 16.13400 43.58500
O  -6.63600 16.06900 44.65400
O  -4.61100 16.17600 43.57400
C  -3.85100 16.09600 44.76800
H  -10.02700 21.68500 40.98200
H  -15.48300 18.33500 40.30600
H  -12.36100 12.79500 41.39500
H  -6.25200 18.74500 42.02800
H  -7.28400 20.96200 40.85000
H  -7.11800 20.53700 43.61500
H  -8.73900 21.04800 43.31500
H  -7.45800 22.03100 42.78200
H  -6.52100 19.65500 39.28900
H  -6.88200 17.89900 39.35200
H  -4.41900 18.44600 40.71000
H  -4.32800 19.25200 39.22000
H  -11.77300 22.88000 39.24100
H  -11.72600 23.17800 40.94500
H  -13.26600 23.26000 40.11100
H  -17.33900 21.26200 40.18500
H  -16.62000 19.89800 41.05800
H  -17.04300 19.88700 39.28100
H  -15.66100 15.85100 39.58200
H  -14.73400 13.53400 41.22500
H  -16.94700 16.33700 41.73100
H  -15.90600 15.24800 42.64000
H  -16.86400 14.59000 41.34400
H  -13.03600 13.73500 38.85400
H  -14.75500 14.11800 38.39200
H  -14.95700 11.84000 37.97500
H  -15.30800 11.89000 39.71500
H  -13.69900 11.53300 39.11700
H  -8.96800 11.62200 43.06300
H  -9.25200 11.28000 41.40600
H  -10.66800 11.50500 42.45800
H  -5.70800 15.84500 41.61800
H  -2.81100 16.05900 44.44300
H  -4.09900 15.25900 45.42100
H  -4.01200 16.91900 45.46400

