158

Mg 0.67600 8.20900 27.59400
C  1.45900 10.38900 30.35100
C  0.70400 5.55200 29.72800
C  0.15800 6.30900 24.94900
C  1.29200 11.07000 25.47600
N  1.06100 8.08000 29.66600
C  1.06800 9.05700 30.67900
C  0.90500 8.51600 32.06000
C  1.01700 6.93500 31.79600
C  0.91200 6.80000 30.31600
C  2.34900 6.26700 32.19900
C  -0.48300 9.00300 32.62000
C  -0.71900 8.84900 34.20400
H  0.49300 8.30500 35.06300
N  0.37000 6.12200 27.38400
C  0.44000 5.23200 28.43400
C  0.21200 3.96200 27.80200
C  -0.08800 4.17500 26.40000
C  0.15900 5.57800 26.18400
C  0.47000 2.68100 28.54700
C  -0.50800 3.23600 25.40900
O  -0.60300 3.47000 24.18100
C  -0.88300 1.84500 25.69800
N  0.71500 8.61800 25.55100
C  0.44400 7.62200 24.68800
C  0.41100 8.14900 23.26100
C  0.73900 9.57100 23.39800
C  0.90000 9.81600 24.91400
C  1.31100 7.33700 22.32400
C  -0.17100 10.63200 22.67900
C  -1.62200 10.66800 23.20200
N  1.32400 10.25900 27.80700
C  1.47600 11.27700 26.84200
C  1.95000 12.44300 27.49400
C  1.91900 12.14100 28.85700
C  1.56500 10.83800 29.00400
C  2.15900 13.78100 26.80800
C  2.13200 12.77000 30.16800
O  2.51500 13.91500 30.40200
C  1.72300 11.67300 31.17100
C  2.80000 11.55700 32.12200
O  3.84400 11.00900 31.95000
O  2.43500 12.12700 33.34600
C  3.32800 11.73700 34.46700
H  0.59600 4.71400 30.41900
H  -0.11500 5.78500 24.03100
H  1.38100 11.87600 24.74400
H  1.68700 8.82300 32.75500
H  0.15800 6.53500 32.33500
H  2.31900 5.27800 32.65800
H  2.78100 6.90400 32.97100
H  2.97200 6.19200 31.30800
H  -1.27900 8.36800 32.22900
H  -0.71500 10.03200 32.34500
H  -1.60800 8.23100 34.32700
H  -1.03000 9.77400 34.69000
H  -0.39700 2.02100 28.53600
H  0.77300 2.94700 29.56000
H  1.27200 2.19600 27.99100
H  -0.01800 1.18800 25.78800
H  -1.52900 1.50700 24.88700
H  -1.50700 1.89100 26.59100
H  -0.61900 7.97100 22.95300
H  1.71200 9.71600 22.92900
H  1.91000 7.96600 21.66500
H  0.76700 6.66000 21.66600
H  1.89900 6.66900 22.95300
H  -0.23800 10.48500 21.60100
H  0.28200 11.61700 22.79600
H  -2.27800 10.07500 22.56500
H  -2.00700 11.68700 23.24200
H  -1.71000 10.12900 24.14500
H  2.37100 14.46200 27.63200
H  1.23900 14.06000 26.29400
H  2.93600 13.73800 26.04500
H  0.84600 11.99500 31.73300
H  3.97400 10.89100 34.23300
H  2.72100 11.64500 35.36800
H  3.91900 12.62800 34.67900
Mg 10.32800 48.09800 25.83700
C  8.11500 48.38100 28.49200
C  12.51600 49.94500 27.63000
C  12.53600 47.99000 23.24900
C  7.74500 47.32200 23.72500
N  10.28900 48.96800 27.81900
C  9.34400 48.92400 28.75600
C  9.74500 49.56200 30.09700
C  10.94400 50.43400 29.59000
C  11.28200 49.79300 28.23700
C  10.68100 51.91600 29.41200
C  10.20200 48.53900 31.12400
C  9.55800 48.73700 32.56900
H  9.70600 47.54400 33.52600
N  12.28800 48.68900 25.55100
C  13.02100 49.43500 26.40000
C  14.42900 49.60200 25.93900
C  14.39800 49.07600 24.62500
C  13.06500 48.52300 24.45900
C  15.45700 50.24000 26.77000
C  15.45800 49.09600 23.60100
O  15.30000 48.59300 22.47200
C  16.73900 49.86400 23.87800
N  10.26400 47.61400 23.81500
C  11.27300 47.62000 22.90300
C  10.82600 47.19400 21.48400
C  9.28600 46.92700 21.72800
C  9.04700 47.42000 23.20500
C  11.15600 48.32600 20.36200
C  8.84900 45.43500 21.50800
C  9.55300 44.30100 22.30900
N  8.36200 47.77000 26.02900
C  7.45000 47.49000 25.09700
C  6.13000 47.27600 25.66900
C  6.33700 47.59900 27.05700
C  7.72000 47.92900 27.16200
C  4.86700 46.88700 24.87200
C  5.73500 47.75800 28.30600
O  4.56600 47.73400 28.61900
C  6.80100 48.23100 29.30800
C  7.00700 47.19200 30.36900
O  7.85700 46.33000 30.22700
O  6.06600 47.23400 31.42400
C  6.34000 46.41800 32.60400
H  13.21500 50.59500 28.15900
H  13.12200 47.63400 22.39900
H  6.93400 47.03000 23.05400
H  8.94200 50.17400 30.50700
H  11.89500 50.43500 30.12300
H  9.69000 52.16900 29.78700
H  10.75800 52.20200 28.36300
H  11.41700 52.55600 29.89900
H  11.24800 48.59000 31.42600
H  9.87900 47.54700 30.80600
H  8.50400 48.58400 32.33400
H  9.81300 49.70600 32.99800
H  15.83500 51.14400 26.29400
H  16.23500 49.47800 26.72000
H  15.24400 50.52200 27.80100
H  17.39000 49.90300 23.00400
H  17.19600 49.39100 24.74700
H  16.62600 50.90500 24.17900
H  11.23400 46.20100 21.29300
H  8.64400 47.51600 21.07300
H  11.94600 47.99800 19.68600
H  11.55300 49.16600 20.93000
H  10.25500 48.62900 19.82800
H  9.01400 45.10100 20.48300
H  7.80700 45.31900 21.80500
H  8.86400 43.73300 22.93500
H  10.30400 44.60400 23.03800
H  10.05600 43.69900 21.55300
H  5.02500 46.31700 23.95600
H  4.20700 47.70200 24.57700
H  4.11600 46.39100 25.48700
H  6.43600 49.15700 29.75300
H  6.86900 45.47600 32.46000
H  5.33800 46.07300 32.85800
H  6.74200 47.11900 33.33700

