158

Mg 47.39500 15.65700 27.94900
C  45.17500 15.77600 30.75400
C  49.72300 17.38600 29.88000
C  49.02300 16.14200 25.22300
C  44.58000 14.47900 26.06600
N  47.39300 16.61500 30.08400
C  46.48800 16.41900 31.05300
C  46.99800 16.76100 32.42800
C  48.36700 17.42200 32.06500
C  48.51200 17.12500 30.58800
C  48.31400 18.98700 32.28700
C  47.15700 15.62700 33.51900
C  46.61200 15.85300 34.98500
H  46.37500 17.32200 35.45100
N  49.17600 16.57800 27.58500
C  50.00700 17.18600 28.53400
C  51.17500 17.57300 27.81600
C  51.03300 17.25400 26.42600
C  49.77000 16.55600 26.39300
C  52.38600 18.22500 28.49500
C  51.95100 17.62400 25.26500
O  51.71700 17.24700 24.15400
C  53.12000 18.54500 25.55100
N  46.81400 15.30100 25.91400
C  47.79400 15.58700 24.99700
C  47.23800 15.23400 23.56400
C  45.94100 14.46000 23.83100
C  45.73000 14.72700 25.35000
C  47.14600 16.45100 22.59300
C  46.07900 12.99600 23.47700
C  46.69600 12.16100 24.60200
N  45.33300 15.27000 28.23100
C  44.37700 14.67100 27.41600
C  43.21600 14.34900 28.19600
C  43.52600 14.69100 29.49100
C  44.75700 15.39000 29.50300
C  41.86000 13.79700 27.66500
C  43.03300 14.65100 30.83500
O  42.00300 14.20500 31.36300
C  44.07500 15.34200 31.75300
C  43.57200 16.49000 32.46400
O  43.56500 17.63300 32.02900
O  43.06800 16.06400 33.61600
C  42.28800 17.04600 34.49600
H  50.47300 17.89100 30.49300
H  49.40200 16.28800 24.20900
H  43.76400 14.01300 25.51000
H  46.27900 17.45400 32.86500
H  49.28800 17.06800 32.52900
H  47.55200 19.29800 33.00100
H  48.22500 19.48900 31.32300
H  49.23800 19.35600 32.73200
H  48.20200 15.56700 33.82300
H  46.69600 14.70200 33.17000
H  47.33800 15.54000 35.73500
H  45.67400 15.31600 35.12800
H  53.33600 17.72800 28.29800
H  52.22900 18.26400 29.57300
H  52.43300 19.28800 28.25800
H  52.85700 19.50000 26.00700
H  53.47600 18.71000 24.53400
H  53.94200 17.95800 25.96000
H  47.97600 14.57500 23.10700
H  44.97300 14.81500 23.47600
H  46.24300 16.42300 21.98300
H  48.06800 16.34400 22.02100
H  47.16800 17.34600 23.21400
H  46.55700 12.85700 22.50700
H  45.10600 12.57800 23.22100
H  47.51800 12.54300 25.20800
H  47.21600 11.37200 24.06000
H  45.85100 11.76000 25.16300
H  41.55900 13.01200 28.35900
H  41.89100 13.34400 26.67500
H  41.13300 14.60900 27.66600
H  44.55600 14.62700 32.42100
H  41.25300 17.01500 34.15400
H  42.65800 18.07100 34.47100
H  42.19200 16.74500 35.53900
Mg 26.73000 49.16700 27.37000
C  24.54500 50.62700 29.75500
C  28.76900 48.12900 29.93700
C  28.76700 48.03100 25.02600
C  24.66300 50.39300 24.85800
N  26.75500 49.47300 29.65100
C  25.62400 49.91300 30.35900
C  25.78800 49.56500 31.85200
C  27.27300 48.94900 31.89600
C  27.60900 48.79700 30.40400
C  28.41100 49.80900 32.50500
C  24.62800 48.59800 32.21500
C  23.78500 48.78200 33.51400
H  23.85600 47.74500 34.57200
N  28.47000 48.20100 27.46700
C  29.13900 47.86400 28.60000
C  30.43000 47.41100 28.13900
C  30.55500 47.43800 26.72500
C  29.18600 47.86200 26.35300
C  31.47400 46.98000 29.19200
C  31.71000 46.97800 25.73600
O  31.69700 47.14900 24.52600
C  33.02000 46.47000 26.39900
N  26.80200 49.40600 25.25000
C  27.67200 48.65600 24.51000
C  27.34100 48.77200 22.96600
C  26.17300 49.71600 22.90600
C  25.84400 49.78800 24.41200
C  28.63800 49.20600 22.12700
C  25.14500 49.38500 21.88400
C  24.20900 48.18600 22.28900
N  25.01100 50.34100 27.27700
C  24.28800 50.72200 26.16300
C  23.25700 51.63900 26.58000
C  23.26600 51.57400 27.97200
C  24.34900 50.80900 28.35600
C  22.24900 52.23100 25.64500
C  22.60100 52.01000 29.19000
O  21.63100 52.71800 29.37700
C  23.42500 51.29600 30.39600
C  23.85400 52.38600 31.35100
O  24.88700 53.04800 31.32400
O  23.03400 52.29800 32.48300
C  23.35500 52.96400 33.78600
H  29.36000 47.71700 30.75900
H  29.41700 47.49400 24.33100
H  23.98000 50.79100 24.10500
H  25.67700 50.44100 32.49200
H  27.30900 47.93100 32.28500
H  29.18300 50.08300 31.78600
H  28.98400 49.17100 33.17800
H  28.02100 50.69800 33.00200
H  24.98800 47.56900 32.23700
H  23.84400 48.59200 31.45900
H  22.72000 48.88400 33.30300
H  24.06200 49.73300 33.96800
H  31.97900 46.02400 29.05500
H  31.18600 46.92900 30.24200
H  32.26600 47.72900 29.17400
H  33.48600 47.26000 26.98800
H  33.63400 46.19900 25.54100
H  32.90700 45.54300 26.96100
H  26.98600 47.77400 22.70900
H  26.53200 50.73000 22.72900
H  29.49000 49.53900 22.72000
H  28.43900 50.02800 21.43900
H  28.93200 48.32900 21.55100
H  25.59500 49.22600 20.90400
H  24.45600 50.22800 21.82600
H  24.29800 47.98900 23.35700
H  24.55500 47.40200 21.61600
H  23.21500 48.59700 22.11100
H  21.99300 51.40900 24.97600
H  22.80900 53.08100 25.25600
H  21.34300 52.51900 26.17800
H  22.79900 50.59100 30.94300
H  22.36700 53.03900 34.23900
H  23.86600 53.91900 33.67000
H  23.87500 52.28200 34.46000

