158

Mg 40.85700 7.44100 28.79700
C  42.64500 9.18400 31.48200
C  38.75300 6.47500 31.35300
C  39.16600 5.87400 26.42900
C  43.30500 8.36200 26.61300
N  40.77800 7.74200 31.15300
C  41.52800 8.54800 31.94600
C  41.00400 8.56500 33.38300
C  39.96200 7.41900 33.34300
C  39.87400 7.09200 31.88800
C  40.20900 6.24400 34.21300
C  40.37400 9.95800 33.89300
C  39.84600 9.84200 35.32700
H  40.39600 10.77100 36.41600
N  39.18100 6.35800 28.83500
C  38.40600 6.11200 29.95000
C  37.21300 5.45000 29.56400
C  37.26600 5.35300 28.11600
C  38.59300 5.80300 27.76300
C  36.17700 4.91800 30.55300
C  36.19000 4.97000 27.11800
O  36.27600 4.88800 25.91100
C  34.85300 4.57400 27.67500
N  41.29600 7.01500 26.84000
C  40.38800 6.41700 25.99300
C  40.95300 6.40900 24.56200
C  42.17500 7.30600 24.69400
C  42.23300 7.58100 26.11900
C  41.31200 5.06600 23.93300
C  41.97700 8.57500 23.82800
C  41.08800 9.76200 24.25200
N  42.62300 8.43200 29.01500
C  43.52200 8.70700 28.03100
C  44.66900 9.44000 28.52000
C  44.35200 9.68500 29.88000
C  43.09900 9.07600 30.15600
C  45.78000 9.95000 27.70600
C  44.74400 10.42500 31.13100
O  45.70500 11.15900 31.34300
C  43.65000 10.05800 32.25700
C  44.37100 9.47100 33.37300
O  45.28600 8.65100 33.26800
O  43.86100 10.09300 34.48600
C  44.28200 9.38800 35.70900
H  38.00800 6.28600 32.12900
H  38.63500 5.35600 25.62800
H  44.04200 8.77200 25.92000
H  41.83500 8.39100 34.06700
H  39.00200 7.90300 33.52300
H  39.25700 5.76100 34.43100
H  40.73900 6.51800 35.12500
H  40.79500 5.45100 33.74700
H  39.55700 10.35100 33.28800
H  41.21700 10.64100 34.00400
H  39.94500 8.82500 35.70600
H  38.77200 10.02400 35.32200
H  35.95300 3.89900 30.23800
H  35.26800 5.51100 30.45200
H  36.46600 4.94400 31.60400
H  34.07400 4.25500 26.98200
H  34.47300 5.46800 28.16900
H  34.90900 3.79500 28.43500
H  40.25000 6.89900 23.88800
H  43.12100 6.93900 24.29500
H  41.00700 4.27300 24.61500
H  42.36600 4.83100 23.79000
H  40.82800 4.93000 22.96600
H  41.67100 8.32300 22.81300
H  42.93700 9.07100 23.68500
H  40.38200 9.94500 23.44200
H  41.81500 10.54100 24.48100
H  40.36600 9.61700 25.05500
H  45.36000 10.81200 27.18800
H  46.04800 9.23000 26.93200
H  46.52300 10.29600 28.42400
H  43.15500 10.99000 32.52900
H  44.31700 8.31200 35.53700
H  43.58500 9.50900 36.53900
H  45.25200 9.73200 36.06900
Mg 35.74300 49.32100 25.00200
C  36.01100 47.88800 28.23900
C  34.77700 52.22100 26.49500
C  35.66400 50.57900 21.96000
C  36.58800 46.13900 23.68000
N  35.52100 49.93900 27.18000
C  35.64600 49.21100 28.29900
C  35.40600 50.06600 29.58500
C  34.84200 51.38200 28.98100
C  35.03700 51.16800 27.44800
C  33.46700 51.85200 29.51300
C  36.65600 50.17600 30.52200
C  36.49300 49.74100 32.01500
H  35.16100 50.08400 32.66300
N  35.30500 51.14300 24.31200
C  34.85400 52.21700 25.06400
C  34.54600 53.32500 24.19000
C  34.88600 52.87700 22.84400
C  35.36400 51.46100 23.01200
C  34.00500 54.59400 24.61700
C  34.78000 53.64300 21.44500
O  35.20800 53.19400 20.36700
C  34.24600 55.03700 21.47600
N  35.80800 48.46700 23.06100
C  35.91500 49.20300 21.97200
C  36.27000 48.42400 20.63900
C  36.74000 47.03100 21.28300
C  36.25000 47.19300 22.76400
C  34.97500 48.24100 19.75900
C  38.27100 46.72000 21.08600
C  38.63700 45.28500 20.56000
N  36.23500 47.41000 25.72600
C  36.53000 46.24300 25.10000
C  36.64100 45.17800 26.04700
C  36.47200 45.79700 27.25700
C  36.22500 47.11200 27.04700
C  37.02000 43.73300 25.73400
C  36.49300 45.55500 28.68300
O  36.81100 44.60800 29.31700
C  36.06000 46.84100 29.33700
C  34.84000 46.85000 30.14300
O  33.75300 47.25900 29.81300
O  35.02700 46.11600 31.29900
C  33.93000 46.05700 32.23500
H  34.53500 53.15600 27.00500
H  35.73000 51.08700 20.99600
H  37.01400 45.23100 23.25000
H  34.52000 49.64700 30.06100
H  35.53000 52.13600 29.36600
H  32.83300 51.01800 29.81400
H  33.08800 52.41000 28.65700
H  33.72500 52.44400 30.39200
H  36.95500 51.22000 30.61700
H  37.51000 49.61200 30.14800
H  37.35000 50.01300 32.63000
H  36.74200 48.68000 32.03600
H  34.76900 55.33700 24.39100
H  33.80400 54.66800 25.68500
H  33.06500 54.86200 24.13400
H  33.33600 55.04900 22.07600
H  34.08400 55.44300 20.47700
H  35.04400 55.70700 21.79300
H  37.08000 48.99000 20.18000
H  36.16600 46.13200 21.05700
H  34.10800 48.26200 20.41900
H  35.11600 47.26500 19.29600
H  34.91500 49.08900 19.07600
H  38.77700 46.75500 22.05100
H  38.67000 47.43500 20.36600
H  37.74700 44.66300 20.46000
H  39.35500 44.77000 21.19800
H  39.20700 45.26700 19.63100
H  37.78000 43.67100 24.95500
H  36.19100 43.11100 25.39700
H  37.49800 43.19900 26.55500
H  36.88400 47.10000 30.00200
H  33.08200 45.66200 31.67500
H  33.66400 47.02900 32.65100
H  34.03200 45.42800 33.12000

