158

Mg 35.85300 1.62600 30.52000
C  33.58900 2.71500 33.15000
C  38.28200 1.57000 32.88500
C  38.01600 1.20400 28.08100
C  33.16600 2.04600 28.27300
N  35.91800 2.18900 32.82900
C  34.86300 2.42700 33.65400
C  35.27800 2.48300 35.17300
C  36.87300 2.50500 34.93000
C  37.10600 2.03700 33.51400
C  37.58500 3.86200 35.20100
C  34.64400 1.29900 35.96000
C  33.80100 1.51600 37.22500
H  34.11100 2.76800 38.01500
N  37.85400 1.47300 30.46600
C  38.62100 1.29400 31.62000
C  39.96700 0.80200 31.23800
C  39.92400 0.77500 29.77400
C  38.61300 1.25500 29.34800
C  41.10300 0.53300 32.16500
C  41.05000 0.41800 28.75700
O  40.90800 0.59500 27.57100
C  42.27600 -0.05500 29.35100
N  35.52500 1.67300 28.44300
C  36.66200 1.45100 27.67200
C  36.24700 1.44700 26.12300
C  34.68000 1.37700 26.27900
C  34.38800 1.68600 27.71300
C  36.75700 2.61700 25.29300
C  34.12700 -0.05600 25.91800
C  32.90900 0.01900 24.95200
N  33.76000 2.26800 30.61800
C  32.80600 2.24100 29.64400
C  31.52500 2.62600 30.15900
C  31.74500 2.74500 31.55400
C  33.19200 2.57500 31.77400
C  30.25500 2.60700 29.42600
C  31.16000 2.99800 32.82800
O  29.97500 3.12300 33.13300
C  32.29400 3.10500 33.84900
C  32.21000 4.53100 34.27700
O  32.71200 5.49500 33.64200
O  31.46700 4.68800 35.42500
C  31.46200 6.05000 36.05600
H  39.11500 1.56200 33.59100
H  38.66900 0.94200 27.24600
H  32.23200 2.03100 27.70700
H  34.96900 3.43300 35.60800
H  37.28400 1.74400 35.59300
H  36.93900 4.54200 35.75600
H  37.79100 4.20500 34.18700
H  38.48600 3.69900 35.79200
H  35.44800 0.64500 36.29900
H  34.05900 0.76200 35.21300
H  33.95800 0.63800 37.85200
H  32.75200 1.40300 36.94900
H  42.00500 1.06600 31.86100
H  41.33900 -0.53100 32.17600
H  40.81900 0.91300 33.14600
H  42.83400 0.78300 29.76900
H  42.82300 -0.49900 28.51900
H  42.25700 -0.85300 30.09400
H  36.67500 0.53800 25.70100
H  34.21800 2.20900 25.74600
H  37.09800 2.30700 24.30500
H  37.62500 2.99000 25.83700
H  35.99800 3.39800 25.25800
H  33.83000 -0.53100 26.85300
H  34.92500 -0.67700 25.51100
H  33.23100 -0.51800 24.06000
H  32.52400 1.00600 24.69400
H  32.11500 -0.58200 25.39600
H  29.43400 2.24900 30.04800
H  30.33500 1.81700 28.68000
H  29.99600 3.54400 28.93200
H  32.03000 2.57600 34.76400
H  31.70700 6.06300 37.11800
H  30.43400 6.38300 35.91300
H  32.11700 6.84700 35.70300
Mg 4.20000 55.03800 41.10000
C  4.45600 51.64900 40.25500
C  7.19700 55.49400 39.25800
C  3.74000 58.43800 41.23700
C  1.02600 54.49500 42.33700
N  5.46700 53.70500 39.65900
C  5.43000 52.37600 39.61700
C  6.56100 51.79900 38.78600
C  7.61500 52.89300 38.98700
C  6.72500 54.12500 39.28900
C  8.72200 52.83900 40.02400
C  6.03000 51.42800 37.29500
C  6.14900 52.54700 36.23800
H  5.45200 52.28800 34.84100
N  5.27900 56.71200 40.33000
C  6.46900 56.68300 39.64000
C  6.95100 58.01000 39.39400
C  5.95500 58.89100 39.96000
C  4.94000 58.02300 40.59600
C  8.35800 58.36200 38.95900
C  6.00300 60.38600 39.85500
O  6.95600 60.94500 39.37500
C  4.99000 61.30600 40.38600
N  2.53400 56.25800 41.48500
C  2.60500 57.61100 41.55200
C  1.39000 58.22800 42.13300
C  0.56300 57.04300 42.51000
C  1.37600 55.87300 42.04100
C  1.66000 59.15400 43.41300
C  -0.92300 57.12500 42.07400
C  -1.90400 56.96200 43.26200
N  2.99300 53.43700 41.42900
C  1.77600 53.33300 42.05800
C  1.50900 51.91800 42.24300
C  2.52500 51.25000 41.52100
C  3.32600 52.19600 40.96700
C  0.36900 51.29600 42.99700
C  2.97900 49.93200 41.13600
O  2.55200 48.85000 41.44500
C  4.36800 50.10000 40.38200
C  4.25600 49.19400 39.24300
O  3.35200 49.27400 38.42200
O  5.33700 48.36200 39.23500
C  5.18900 47.34200 38.23600
H  8.21800 55.72000 38.94300
H  3.52900 59.50600 41.32300
H  0.08600 54.34800 42.87300
H  6.90200 50.89400 39.28900
H  8.15300 53.00800 38.04600
H  9.67500 52.93500 39.50400
H  8.63600 51.92400 40.61000
H  8.54900 53.56800 40.81500
H  4.99100 51.11400 37.19300
H  6.60400 50.58000 36.92000
H  7.19900 52.76500 36.04500
H  5.81700 53.51600 36.61200
H  8.83800 58.78000 39.84400
H  8.21500 59.02000 38.10200
H  8.97900 57.52000 38.65300
H  5.27400 62.33800 40.17900
H  4.91300 61.14500 41.46100
H  4.12100 61.03000 39.78900
H  0.85700 58.78900 41.36500
H  0.54500 56.90500 43.59100
H  2.66300 58.97600 43.80100
H  0.84400 59.02500 44.12400
H  1.58900 60.16200 43.00500
H  -1.04000 56.41800 41.25200
H  -1.20200 58.08100 41.63100
H  -2.64000 57.76300 43.19200
H  -1.42200 57.03000 44.23700
H  -2.40700 55.99900 43.35200
H  0.58900 50.34000 43.47200
H  -0.38100 50.98300 42.27200
H  -0.08300 51.94300 43.74900
H  5.12400 49.69900 41.05800
H  4.16800 47.09800 37.94100
H  5.57100 46.37600 38.56600
H  5.73200 47.50500 37.30600

