158

Mg 23.88100 -5.54100 46.01800
C  26.12500 -3.57400 44.19800
C  21.37400 -4.70500 43.83600
C  22.23700 -8.37400 46.98100
C  26.56900 -6.61400 48.03200
N  23.77500 -4.42900 44.20800
C  24.79600 -3.67800 43.61700
C  24.29800 -2.77000 42.50000
C  22.75800 -3.12000 42.55500
C  22.55200 -4.09600 43.59200
C  21.86100 -1.86800 42.74300
C  25.06600 -3.06600 41.13400
C  25.69600 -1.91000 40.43800
H  25.91600 -2.00200 38.90600
N  21.94000 -6.27900 45.63600
C  21.08000 -5.76200 44.77100
C  19.76200 -6.46100 44.95300
C  19.99800 -7.44000 45.95400
C  21.46300 -7.38600 46.24500
C  18.48100 -6.07800 44.21900
C  18.98800 -8.44700 46.53800
O  17.84800 -8.51500 46.09800
C  19.28800 -9.31300 47.71000
N  24.41900 -7.32200 47.22800
C  23.57600 -8.38300 47.42200
C  24.19600 -9.47900 48.37700
C  25.32800 -8.69200 48.98200
C  25.44100 -7.45700 48.09700
C  23.29500 -10.25800 49.37200
C  26.74900 -9.46300 49.12100
C  27.62600 -9.03200 50.27700
N  25.92800 -5.17100 46.17400
C  26.91700 -5.68400 47.06400
C  28.11300 -4.95100 46.89500
C  27.92000 -4.05600 45.80900
C  26.53400 -4.32500 45.33500
C  29.26500 -5.15300 47.83900
C  28.45200 -3.02300 44.93800
O  29.54200 -2.48100 44.99200
C  27.34700 -2.72800 43.85900
C  27.11300 -1.25000 43.96900
O  26.38900 -0.73700 44.80500
O  27.95000 -0.62800 43.10300
C  28.00300 0.80400 43.31100
H  20.50400 -4.38500 43.25900
H  21.76000 -9.34700 47.11200
H  27.28500 -6.85600 48.82000
H  24.43300 -1.71900 42.75400
H  22.37800 -3.53200 41.62100
H  21.14500 -1.93500 43.56200
H  21.28900 -1.74800 41.82300
H  22.39100 -0.91600 42.76200
H  24.33000 -3.49300 40.45200
H  25.78300 -3.88500 41.19500
H  26.61200 -1.87200 41.02700
H  25.25000 -0.92900 40.60100
H  18.13100 -6.79600 43.47700
H  18.58200 -5.15800 43.64400
H  17.75600 -5.86400 45.00400
H  18.36200 -9.62900 48.19000
H  19.96100 -8.69500 48.30400
H  19.68800 -10.23700 47.29500
H  24.50000 -10.27300 47.69400
H  24.95000 -8.41700 49.96700
H  22.38600 -9.70300 49.60400
H  23.78100 -10.37200 50.34100
H  23.03800 -11.23400 48.96000
H  27.27300 -9.21700 48.19800
H  26.56100 -10.53000 49.24300
H  27.90600 -9.80000 50.99800
H  27.01000 -8.31400 50.81800
H  28.48200 -8.44900 49.93800
H  30.00200 -4.50300 47.36800
H  29.45900 -6.22500 47.88500
H  29.08600 -4.89300 48.88200
H  27.62200 -2.98700 42.83600
H  26.96100 1.11600 43.37700
H  28.47300 1.31900 42.47200
H  28.60500 1.01800 44.19400
Mg 1.85800 42.52000 26.02600
C  2.96300 43.03400 29.34200
C  -1.07800 41.22500 27.18800
C  0.92600 42.06500 22.74400
C  4.89600 43.76900 24.87600
N  1.00100 42.30000 28.03600
C  1.62800 42.62300 29.23900
C  0.64600 42.43500 30.38900
C  -0.64900 41.78100 29.67500
C  -0.23400 41.69600 28.19400
C  -1.07800 40.41300 30.35000
C  0.30300 43.64800 31.22000
C  0.69200 43.47700 32.78400
H  -0.41400 43.12200 33.75300
N  0.15500 41.80100 25.08200
C  -0.91200 41.22600 25.75400
C  -1.86100 40.67600 24.80600
C  -1.41100 41.06900 23.50400
C  -0.03700 41.73600 23.73100
C  -3.08500 39.93300 25.28600
C  -2.03900 40.84300 22.13800
O  -1.48200 41.14000 21.08400
C  -3.41800 40.11300 22.01400
N  2.86100 42.68000 24.06400
C  2.19000 42.53000 22.89000
C  3.06200 43.06300 21.73800
C  4.39600 43.70100 22.39100
C  4.07500 43.36500 23.85400
C  3.47800 41.91500 20.80800
C  4.50700 45.26600 22.17700
C  5.00000 45.69700 20.76900
N  3.64300 43.13500 26.85800
C  4.76500 43.65300 26.28900
C  5.73200 44.05000 27.28700
C  5.06700 43.72800 28.49500
C  3.78800 43.28000 28.17400
C  7.07700 44.68100 27.04200
C  5.11800 43.74000 29.96600
O  6.09700 44.07000 30.66200
C  3.81200 43.33900 30.60500
C  4.11200 42.15200 31.45400
O  4.45300 41.08800 31.02200
O  3.92900 42.43100 32.77300
C  4.20400 41.35100 33.68400
H  -1.95700 40.83300 27.70500
H  0.62200 41.82200 21.72400
H  5.84400 44.28000 24.69800
H  1.10500 41.69900 31.04800
H  -1.44200 42.52800 29.72400
H  -1.96100 40.60400 30.95900
H  -0.33800 39.81200 30.88000
H  -1.38300 39.80200 29.50000
H  -0.78200 43.74600 31.25800
H  0.79800 44.50100 30.75500
H  1.08500 44.43200 33.13400
H  1.35900 42.65300 33.03700
H  -4.00600 40.33100 24.85800
H  -3.32700 40.12700 26.33100
H  -3.06600 38.86400 25.07600
H  -4.19200 40.87500 22.09900
H  -3.49300 39.42900 22.86000
H  -3.53700 39.55000 21.08800
H  2.56000 43.87300 21.20900
H  5.28000 43.23200 21.95800
H  2.83500 41.03900 20.89300
H  4.41200 41.42200 21.07400
H  3.63100 42.30000 19.79900
H  4.99500 45.71500 23.04200
H  3.51100 45.63500 22.42200
H  4.16600 46.05500 20.16500
H  5.43200 44.87300 20.20100
H  5.72600 46.46100 21.04900
H  7.71700 44.54100 27.91300
H  6.91100 45.71600 26.74200
H  7.50200 44.19800 26.16200
H  3.49100 44.23100 31.14300
H  3.84300 40.38800 33.32200
H  3.69400 41.63700 34.60400
H  5.27900 41.22500 33.80500

