158

Mg 0.83800 8.75900 26.83100
C  1.43500 11.01700 29.30600
C  0.65600 6.16600 29.17200
C  0.61000 6.47600 24.38700
C  1.14600 11.34100 24.47400
N  0.93300 8.60300 28.93000
C  1.19700 9.70300 29.78100
C  1.04700 9.27200 31.23100
C  1.19900 7.69300 31.14000
C  0.83900 7.48200 29.70200
C  2.61800 7.21200 31.66100
C  -0.34000 9.64300 31.84800
C  -0.55000 9.35400 33.32200
H  0.69800 9.05200 34.13700
N  0.61800 6.65400 26.75100
C  0.50800 5.76700 27.82200
C  0.19000 4.41100 27.33700
C  0.20900 4.46500 25.90500
C  0.51800 5.83100 25.62500
C  -0.02900 3.31500 28.24700
C  -0.17400 3.33100 24.86200
O  -0.25600 3.50100 23.61100
C  -0.55200 1.85900 25.30000
N  0.90400 8.91600 24.74200
C  0.70500 7.82100 23.97800
C  0.73300 8.25200 22.47600
C  0.44900 9.81300 22.56500
C  0.94200 10.06900 24.00400
C  1.99900 7.85100 21.73700
C  -1.10400 10.15900 22.50900
C  -1.52000 11.35100 21.56700
N  1.24500 10.78700 26.77600
C  1.38700 11.70600 25.80300
C  1.70300 12.97100 26.32400
C  1.82300 12.77800 27.68700
C  1.42400 11.43400 27.92100
C  1.90900 14.19000 25.41600
C  2.08700 13.38100 29.04200
O  2.42900 14.53800 29.31600
C  1.76600 12.27400 30.09700
C  2.92900 12.06000 30.97000
O  4.00200 11.46400 30.79600
O  2.61000 12.65200 32.21300
C  3.66900 12.50800 33.17900
H  0.62700 5.36500 29.91300
H  0.39400 5.92000 23.47200
H  1.08700 12.12700 23.71900
H  1.91100 9.72700 31.71500
H  0.49500 7.20000 31.81000
H  3.00800 7.69100 32.55900
H  3.36600 7.26600 30.87100
H  2.47400 6.20900 32.06400
H  -1.05000 8.96200 31.37900
H  -0.63400 10.63900 31.51700
H  -1.07900 8.40100 33.29300
H  -1.10000 10.17600 33.78000
H  -1.06600 3.23700 28.57400
H  0.57500 3.35000 29.15300
H  0.25300 2.42600 27.68200
H  0.33100 1.48600 25.81800
H  -0.71000 1.30700 24.37300
H  -1.44200 1.94200 25.92400
H  -0.14000 7.68400 22.15500
H  0.98800 10.42900 21.84400
H  2.75100 7.45500 22.41900
H  2.38900 8.71500 21.19900
H  1.69000 7.05600 21.05800
H  -1.33600 10.51000 23.51400
H  -1.68600 9.28100 22.23100
H  -2.14400 10.98900 20.75000
H  -0.70000 11.95000 21.17200
H  -2.02300 12.16300 22.09300
H  1.76200 15.12300 25.96000
H  1.12500 14.30700 24.66800
H  2.92200 14.18500 25.01300
H  0.86400 12.41000 30.69400
H  3.58400 13.15000 34.05600
H  4.59800 12.80100 32.68900
H  3.86600 11.48100 33.48600
Mg 48.19100 34.18600 26.33100
C  46.30500 32.80500 28.99500
C  48.74000 36.95900 28.11000
C  49.38300 35.57300 23.52000
C  47.13400 31.39300 24.48700
N  47.45800 34.79600 28.30500
C  46.87400 34.07600 29.30500
C  47.11500 34.66700 30.64200
C  47.66400 36.10000 30.24900
C  48.06500 35.97600 28.83100
C  46.62300 37.26700 30.44200
C  48.19700 33.83100 31.39600
C  48.10400 33.78700 32.95400
H  47.02500 34.64700 33.72000
N  48.99000 36.05100 25.88800
C  49.08300 37.08000 26.75800
C  49.82500 38.14700 26.16700
C  50.06400 37.74000 24.82000
C  49.46200 36.37100 24.68100
C  50.21000 39.37300 26.95400
C  50.83700 38.40400 23.76200
O  51.14400 37.88100 22.67400
C  51.19800 39.86600 24.05300
N  48.11600 33.69600 24.33900
C  48.71200 34.35900 23.35600
C  48.88300 33.59600 22.04700
C  48.31200 32.18600 22.45900
C  47.79200 32.40100 23.86800
C  48.30000 34.36700 20.75200
C  49.46200 31.10900 22.42800
C  49.56600 30.29400 21.16700
N  46.97000 32.40100 26.60400
C  46.66600 31.36300 25.80100
C  45.88100 30.31400 26.47700
C  45.66400 30.87700 27.69100
C  46.33100 32.11700 27.73900
C  45.47300 29.00400 25.95000
C  45.05500 30.78000 29.00800
O  44.30200 29.88300 29.41900
C  45.31500 32.03400 29.87500
C  45.75700 31.52100 31.23900
O  46.81900 30.85800 31.48200
O  44.75800 31.74700 32.20100
C  44.84600 31.10100 33.47100
H  49.07400 37.76200 28.77000
H  49.80500 35.83500 22.54700
H  46.98700 30.48800 23.89400
H  46.18100 34.77800 31.19300
H  48.58300 36.28800 30.80400
H  45.95600 37.28300 29.58000
H  47.20400 38.18000 30.57000
H  45.94600 37.12600 31.28400
H  49.19200 34.27200 31.32700
H  48.33000 32.84000 30.96200
H  49.01400 34.12100 33.45300
H  47.95700 32.75900 33.28600
H  49.97800 40.32700 26.48200
H  51.27600 39.25100 27.14700
H  49.75900 39.43500 27.94400
H  51.69900 40.26800 23.17200
H  51.95900 39.92200 24.83200
H  50.38200 40.55200 24.27700
H  49.95600 33.51000 21.87600
H  47.45100 31.98200 21.82200
H  47.57000 35.05900 21.17400
H  47.81800 33.73600 20.00500
H  49.15200 34.83200 20.25700
H  49.41700 30.48200 23.31800
H  50.47600 31.42200 22.67800
H  48.81000 30.59900 20.44300
H  49.18700 29.29700 21.38900
H  50.57400 30.29700 20.75400
H  44.76200 29.08000 25.12800
H  45.12600 28.43000 26.81000
H  46.29800 28.48700 25.46000
H  44.46000 32.70000 29.99000
H  44.17500 30.24300 33.49800
H  44.50500 31.85600 34.17900
H  45.79500 30.60800 33.68600

