158

Mg 17.60600 -0.55900 27.31000
C  16.16600 1.07100 30.09000
C  19.36700 -2.57200 29.33000
C  18.68700 -1.78900 24.58600
C  15.80800 1.83800 25.28500
N  17.81700 -0.64300 29.53800
C  17.08300 0.05300 30.48700
C  17.62400 -0.34300 31.95600
C  18.65200 -1.55900 31.59400
C  18.61800 -1.67900 30.06100
C  20.09700 -1.38000 32.07000
C  16.54200 -0.72900 33.02200
C  16.56300 -0.04300 34.43400
H  17.84300 0.60500 34.99600
N  18.86200 -1.96000 27.03300
C  19.45700 -2.70600 27.98200
C  20.33600 -3.64800 27.28100
C  20.12000 -3.53700 25.89800
C  19.13000 -2.39800 25.77700
C  21.21300 -4.70300 28.03500
C  20.42200 -4.44500 24.76200
O  20.00200 -4.19100 23.64800
C  21.26800 -5.69800 25.03500
N  17.38300 0.07800 25.23700
C  17.86400 -0.69400 24.31600
C  17.77900 -0.14300 22.87100
C  16.67800 1.02700 23.15400
C  16.68500 1.04900 24.64400
C  19.24300 0.40500 22.41800
C  15.27000 0.79100 22.48100
C  14.20300 -0.09300 23.19700
N  16.21600 1.04400 27.54200
C  15.58200 1.90100 26.63600
C  14.71000 2.73200 27.31000
C  14.84600 2.43600 28.68500
C  15.79800 1.39700 28.72800
C  13.87300 3.69100 26.69800
C  14.39100 2.74900 30.04800
O  13.51700 3.52400 30.50100
C  15.33100 1.97500 30.98000
C  16.22700 2.82300 31.74000
O  17.29100 3.33100 31.41300
O  15.53600 3.13800 32.87400
C  16.21600 4.03700 33.78500
H  20.09300 -3.19100 29.86000
H  18.99700 -2.15400 23.60500
H  15.18000 2.50000 24.68300
H  18.27700 0.44600 32.32900
H  18.27400 -2.53200 31.90800
H  20.38700 -2.33900 32.49700
H  20.22600 -0.50500 32.70800
H  20.78600 -1.15400 31.25600
H  16.52500 -1.79600 33.24300
H  15.54400 -0.66300 32.58900
H  16.25500 -0.73700 35.21700
H  15.77300 0.68900 34.26600
H  22.14800 -4.76200 27.47900
H  20.64000 -5.62900 28.08800
H  21.56900 -4.32500 28.99300
H  22.28500 -5.32800 25.16600
H  21.19800 -6.28900 24.12200
H  21.02900 -6.28500 25.92300
H  17.45200 -0.94700 22.21100
H  17.04100 2.00200 22.82800
H  20.07100 0.21400 23.10100
H  19.17600 1.47500 22.22100
H  19.51600 -0.11200 21.49800
H  15.37600 0.40100 21.46900
H  14.87900 1.77400 22.22100
H  13.48700 -0.53100 22.50200
H  13.59500 0.59500 23.78300
H  14.69300 -0.93300 23.69000
H  14.40400 4.51600 26.22400
H  13.32800 4.21100 27.48600
H  13.23000 3.34200 25.89000
H  14.81900 1.29700 31.66300
H  15.54400 4.77200 34.22900
H  17.01900 4.58600 33.29300
H  16.71000 3.42700 34.54100
Mg 7.18900 53.70500 41.63200
C  6.13200 50.36200 41.08700
C  10.30600 52.96600 40.46100
C  7.64300 56.97200 41.31800
C  3.76200 54.31500 42.32800
N  8.04200 51.88700 40.65300
C  7.50300 50.64000 40.67100
C  8.49100 49.61700 40.05600
C  9.81800 50.43800 40.24700
C  9.34400 51.88200 40.53400
C  10.82800 49.82900 41.24900
C  8.23300 49.21500 38.56800
C  8.14300 50.27900 37.48500
H  6.78300 50.36800 36.77400
N  8.82000 54.82000 41.07700
C  10.04300 54.36100 40.62300
C  10.93800 55.37700 40.34900
C  10.15000 56.54500 40.55300
C  8.81500 56.19800 41.02800
C  12.38600 55.23200 39.88000
C  10.75900 57.97200 40.44300
O  11.91200 58.18800 40.06300
C  9.83300 59.23000 40.67100
N  5.97600 55.41000 41.95400
C  6.41100 56.64100 41.89100
C  5.36300 57.72700 42.03300
C  4.06900 56.79800 42.21500
C  4.62500 55.41000 42.14900
C  5.58900 58.75300 43.19700
C  2.99800 57.05800 40.99900
C  1.71400 57.72200 41.47400
N  5.41100 52.57800 41.90100
C  4.13400 53.00100 42.29000
C  3.26700 51.87000 42.37000
C  3.99300 50.81800 41.90500
C  5.30500 51.28300 41.63300
C  1.83600 51.87000 42.78100
C  3.91000 49.39100 41.57700
O  3.07100 48.45800 41.69900
C  5.40200 49.10700 41.17800
C  5.25400 48.34500 39.86300
O  4.77800 48.77700 38.86000
O  5.86900 47.12800 39.93400
C  5.62000 46.24800 38.75800
H  11.36200 52.70600 40.36400
H  7.78100 58.05100 41.23000
H  2.77700 54.54300 42.74100
H  8.56300 48.73100 40.68800
H  10.42800 50.40800 39.34500
H  11.66700 49.29300 40.80500
H  10.34600 49.19600 41.99500
H  11.44200 50.56500 41.76800
H  7.26300 48.71800 38.57800
H  9.03900 48.50800 38.37000
H  8.93600 50.16000 36.74600
H  8.35500 51.16200 38.08900
H  12.60700 54.18100 39.69200
H  13.03500 55.59700 40.67600
H  12.46300 55.70200 38.90000
H  9.02400 59.17800 39.94200
H  10.38600 60.12100 40.37400
H  9.54100 59.22000 41.72100
H  5.25400 58.22800 41.07100
H  3.62800 56.88100 43.20800
H  4.87900 58.59900 44.01000
H  5.34500 59.72500 42.76800
H  6.61800 58.74100 43.55800
H  2.74700 56.13600 40.47500
H  3.36900 57.62500 40.14500
H  0.98900 56.90900 41.44100
H  1.41000 58.50000 40.77400
H  1.70500 58.18000 42.46300
H  1.20400 51.94300 41.89500
H  1.50800 52.57300 43.54700
H  1.57800 50.94400 43.29400
H  5.87500 48.37000 41.82800
H  4.54400 46.07400 38.72400
H  6.21000 45.34800 38.92800
H  5.94100 46.64700 37.79600

