158

Mg 46.78400 44.80800 43.51400
C  43.36800 44.15900 42.96200
C  47.30800 41.41000 43.27400
C  50.07600 45.38700 43.41600
C  46.06600 48.22000 43.22400
N  45.42700 43.01800 43.18600
C  44.13200 43.00000 42.98900
C  43.64900 41.56600 42.67400
C  44.85800 40.72800 43.15400
C  45.94600 41.76200 43.30400
C  44.51000 40.01100 44.53600
C  43.09900 41.20100 41.23100
C  43.33300 42.16000 39.95700
H  43.15600 41.46600 38.61300
N  48.43000 43.54700 43.50100
C  48.45100 42.19500 43.34200
C  49.86200 41.80300 43.49700
C  50.73600 42.92200 43.45000
C  49.76400 44.03300 43.48100
C  50.35600 40.34700 43.57700
C  52.27500 42.96500 43.30900
O  52.88000 41.97500 42.97700
C  53.10100 44.22300 43.51800
N  47.89500 46.52200 43.10200
C  49.26800 46.51100 43.38400
C  49.78200 48.00000 43.52600
C  48.51600 48.83500 43.27400
C  47.38100 47.79500 43.23600
C  50.49800 48.32700 44.87500
C  48.63400 49.79100 42.08000
C  47.83000 51.07500 42.18700
N  45.10900 45.99900 43.07800
C  44.94100 47.35200 43.11100
C  43.44400 47.72100 42.99200
C  42.81600 46.49300 42.91200
C  43.83500 45.52300 43.02700
C  42.89300 49.09900 42.91800
C  41.56700 45.84300 42.71300
O  40.41700 46.26000 42.56700
C  41.84900 44.29900 42.90200
C  41.13100 43.80800 44.08200
O  40.25900 42.94900 44.16900
O  41.65300 44.43700 45.22600
C  41.15300 43.96900 46.48200
H  47.56000 40.34800 43.28000
H  51.09500 45.64800 43.70900
H  45.83600 49.28300 43.32500
H  42.80000 41.49100 43.35300
H  45.08300 39.94700 42.42700
H  45.19800 40.47700 45.24100
H  44.78000 38.97500 44.33500
H  43.47300 39.95700 44.87000
H  42.01200 41.13300 41.23700
H  43.48300 40.21100 40.98200
H  44.32300 42.61500 39.93800
H  42.51700 42.88300 39.97500
H  49.56800 39.84400 44.13700
H  51.16900 40.33900 44.30200
H  50.57200 39.96600 42.57900
H  53.07400 45.05900 42.81900
H  54.15300 43.93600 43.51300
H  52.90300 44.54400 44.54000
H  50.41000 48.01300 42.63500
H  48.35600 49.33600 44.22900
H  51.56800 48.42900 44.69500
H  50.43400 47.46000 45.53400
H  50.03200 49.16200 45.39900
H  48.38700 49.19600 41.20100
H  49.69400 50.02700 41.98800
H  46.97500 50.93900 41.52500
H  48.50400 51.87700 41.88500
H  47.46600 51.25300 43.19900
H  43.59500 49.82000 42.49900
H  42.74200 49.46900 43.93200
H  41.96200 49.05900 42.35300
H  41.42100 43.82900 42.01600
H  40.20600 44.49900 46.58000
H  41.84000 44.40100 47.20900
H  41.05000 42.89800 46.65500
Mg 47.31000 34.80600 28.51500
C  45.43600 33.28500 30.94500
C  47.56600 37.51100 30.73200
C  48.28600 36.80800 25.94500
C  46.36700 32.34400 26.23900
N  46.52500 35.31300 30.57700
C  45.94800 34.45100 31.41800
C  45.99400 34.98800 32.86000
C  46.18400 36.53200 32.65600
C  46.76200 36.47700 31.20700
C  44.83300 37.33000 32.66100
C  47.15700 34.39900 33.64600
C  47.13000 34.06000 35.13700
H  46.44600 35.04100 36.11300
N  47.92900 36.80800 28.38800
C  48.14600 37.70600 29.44400
C  48.98200 38.82200 29.01800
C  48.97000 38.68100 27.57600
C  48.39200 37.42300 27.22400
C  49.59000 39.86700 30.03700
C  49.70700 39.55700 26.61000
O  49.90500 39.27200 25.46000
C  50.27800 40.94600 27.08800
N  47.41800 34.44500 26.43200
C  47.88200 35.53900 25.62800
C  47.93500 34.98800 24.14600
C  47.46900 33.53900 24.17800
C  47.12000 33.37100 25.64700
C  47.27300 35.90500 23.11000
C  48.48700 32.51000 23.79500
C  48.14600 31.32700 22.90800
N  46.29800 33.06600 28.51500
C  46.01400 32.17500 27.55100
C  45.32900 30.98800 28.18200
C  45.06000 31.38800 29.52800
C  45.62400 32.70100 29.64600
C  44.79100 29.72300 27.42300
C  44.42200 31.06500 30.80400
O  43.90500 30.03800 31.15700
C  44.53100 32.35300 31.68900
C  44.73700 32.11200 33.14000
O  45.40100 31.24300 33.66200
O  43.73500 32.69900 33.77800
C  43.51500 32.57400 35.25200
H  47.85000 38.30100 31.43000
H  48.27200 37.45500 25.06500
H  46.03700 31.52900 25.59300
H  45.10500 34.78400 33.45600
H  46.91000 36.97400 33.33800
H  43.99700 36.64000 32.54900
H  44.90700 38.01300 31.81500
H  44.64500 37.92700 33.55400
H  47.94700 35.14700 33.71200
H  47.67300 33.56000 33.17900
H  48.04300 33.70700 35.61700
H  46.49200 33.17600 35.09900
H  49.98800 39.31000 30.88600
H  48.89800 40.63800 30.37500
H  50.46700 40.37200 29.63400
H  51.23600 40.87300 27.60300
H  49.50600 41.38600 27.71900
H  50.56800 41.55800 26.23400
H  49.02200 34.97600 24.06700
H  46.51200 33.44200 23.66500
H  46.62800 35.31200 22.46100
H  47.98800 36.47800 22.52000
H  46.66600 36.65700 23.61500
H  48.83200 31.96900 24.67600
H  49.34600 32.99600 23.33300
H  48.95700 31.00500 22.25600
H  47.21100 31.42100 22.35600
H  48.02600 30.47400 23.57600
H  44.51000 29.82000 26.37400
H  43.95100 29.48300 28.07400
H  45.45300 28.86800 27.55700
H  43.49600 32.68200 31.60300
H  42.72900 31.83400 35.40300
H  43.16500 33.53000 35.64200
H  44.43700 32.30800 35.76800

