158

Mg 49.89000 44.22200 43.00500
C  46.55900 44.66200 41.85500
C  49.66700 40.88400 42.40800
C  53.21900 44.09600 43.30800
C  50.19800 47.84800 42.90400
N  48.31400 42.95800 42.13000
C  46.97200 43.28400 41.82400
C  46.17800 42.04400 41.36000
C  47.21000 40.85400 41.55200
C  48.45200 41.56000 42.19700
C  46.78800 39.59200 42.40200
C  45.84900 42.23400 39.82700
C  44.32500 42.33500 39.61100
H  44.01400 43.19700 38.37900
N  51.20300 42.71000 43.00700
C  50.95300 41.38700 42.73800
C  52.19800 40.59300 42.80700
C  53.24500 41.52600 43.07500
C  52.59800 42.83900 43.11700
C  52.33900 39.06300 42.49800
C  54.73200 41.12400 43.21000
O  55.01600 39.94900 43.25900
C  55.83700 42.15600 43.34100
N  51.44200 45.82600 42.99600
C  52.74200 45.44600 43.21600
C  53.67500 46.65500 43.42900
C  52.72500 47.83900 43.38700
C  51.38400 47.18200 42.98200
C  54.66100 46.57000 44.59600
C  53.15300 49.05700 42.51300
C  53.22600 50.34200 43.32500
N  48.66600 45.95300 42.58500
C  48.89500 47.28300 42.68400
C  47.71900 47.94600 42.39000
C  46.76200 46.99400 42.14500
C  47.38200 45.75600 42.23500
C  47.56000 49.45500 42.59300
C  45.34500 46.81800 41.76400
O  44.37900 47.57200 41.70500
C  45.18600 45.23200 41.60300
C  44.13800 44.73300 42.56100
O  44.33500 44.34000 43.71800
O  42.92800 45.12200 42.09000
C  41.86000 44.84200 43.01300
H  49.71400 39.84200 42.08400
H  54.29300 44.10400 43.50500
H  50.12900 48.89500 42.60100
H  45.32400 41.87900 42.01600
H  47.57400 40.51600 40.58200
H  45.70600 39.60000 42.53300
H  47.22500 39.59900 43.40100
H  47.14200 38.73100 41.83600
H  46.17300 41.37600 39.23700
H  46.30700 43.14900 39.45300
H  43.88600 42.72700 40.52800
H  43.90300 41.33100 39.55100
H  53.31500 38.68600 42.19100
H  51.61800 38.91300 41.69500
H  51.93500 38.55200 43.37200
H  55.64100 42.75800 42.45400
H  56.82900 41.71000 43.42200
H  55.59300 42.63000 44.29200
H  54.28200 46.67600 42.52400
H  52.52500 48.23500 44.38300
H  54.83000 45.53200 44.88100
H  54.44600 47.17300 45.47800
H  55.57400 46.93100 44.12200
H  52.54500 49.16400 41.61400
H  54.17400 48.87300 42.18200
H  54.22600 50.72800 43.12600
H  53.12400 50.24400 44.40600
H  52.43600 51.04800 43.07100
H  48.13000 49.91400 43.40100
H  46.51400 49.69500 42.78200
H  47.97600 49.99100 41.73900
H  44.88800 45.00600 40.57900
H  41.84800 43.76000 43.14400
H  40.95800 45.12100 42.46700
H  41.93800 45.52200 43.86100
Mg -10.82700 16.90900 42.27500
C  -7.24600 16.73600 42.31300
C  -10.52000 20.24600 42.26200
C  -14.07300 17.00900 41.53900
C  -10.88100 13.42500 42.22700
N  -9.06600 18.29200 42.26000
C  -7.71600 18.05000 42.29200
C  -6.95500 19.39400 42.32200
C  -8.03500 20.34200 42.75800
C  -9.32300 19.60000 42.38400
C  -7.98700 20.81400 44.19100
C  -6.31800 19.67500 40.95900
C  -4.76000 19.60600 40.88100
H  -4.24100 18.70600 39.84300
N  -12.03500 18.42400 41.87700
C  -11.75500 19.70500 41.87100
C  -12.87000 20.52100 41.58900
C  -13.96900 19.62300 41.34600
C  -13.36800 18.26900 41.51800
C  -12.82800 22.06700 41.51500
C  -15.31000 20.00500 40.71500
O  -15.58200 21.19400 40.77500
C  -16.26700 19.02500 40.17700
N  -12.19200 15.38900 41.95300
C  -13.53500 15.69700 41.70000
C  -14.41600 14.45900 41.80100
C  -13.36600 13.30700 41.89500
C  -12.06100 14.09700 42.05900
C  -15.36500 14.50200 43.05800
C  -13.47000 12.26900 40.76200
C  -13.69500 10.84900 41.22800
N  -9.43000 15.36200 42.21700
C  -9.62100 13.98100 42.34000
C  -8.29600 13.30600 42.35800
C  -7.37700 14.37100 42.37200
C  -8.09300 15.59100 42.31400
C  -8.05700 11.89900 42.59400
C  -5.92900 14.65400 42.52100
O  -5.01100 13.86000 42.61900
C  -5.78900 16.20900 42.36000
C  -5.06600 16.68400 43.61200
O  -5.49200 16.61300 44.72600
O  -3.80700 17.07900 43.34300
C  -2.90600 17.44500 44.45900
H  -10.54100 21.32400 42.43500
H  -15.15500 17.05000 41.39700
H  -10.94000 12.34300 42.36000
H  -6.14600 19.39200 43.05200
H  -8.07200 21.21300 42.10300
H  -6.95800 20.92100 44.53500
H  -8.56400 20.12300 44.80600
H  -8.42100 21.80400 44.33200
H  -6.74200 20.60600 40.58200
H  -6.66700 19.00500 40.17300
H  -4.43500 19.24300 41.85600
H  -4.41000 20.63700 40.83400
H  -12.14700 22.48600 42.25600
H  -13.77500 22.42400 41.92000
H  -12.51000 22.48700 40.56100
H  -17.14600 19.50700 39.75000
H  -16.58000 18.47500 41.06500
H  -15.75400 18.35900 39.48400
H  -14.98500 14.37000 40.87600
H  -13.46000 12.81600 42.86300
H  -14.96600 13.87600 43.85500
H  -16.28700 14.01100 42.74700
H  -15.49900 15.52900 43.40000
H  -12.52800 12.16700 40.22300
H  -14.23200 12.61600 40.06400
H  -14.70200 10.69700 40.83900
H  -13.59800 10.71200 42.30500
H  -12.96900 10.24300 40.68600
H  -7.43800 11.80900 43.48600
H  -7.47200 11.42500 41.80600
H  -8.93500 11.29100 42.81400
H  -5.24900 16.32500 41.42000
H  -2.31600 16.56700 44.72200
H  -3.44500 17.78700 45.34300
H  -2.23000 18.26600 44.22100

