158

Mg 9.74000 47.87400 25.65400
C  7.30200 48.34600 28.29900
C  12.13400 48.88200 27.94500
C  11.86100 47.79800 23.09400
C  7.03600 47.17800 23.47400
N  9.68700 48.43600 27.95000
C  8.66300 48.37800 28.76900
C  9.19900 48.50100 30.26000
C  10.56400 49.18000 29.95600
C  10.85500 48.72700 28.55300
C  10.62700 50.74100 29.99000
C  9.30100 47.15700 30.96300
C  8.69300 47.07300 32.31200
H  9.44000 46.22700 33.42900
N  11.71300 48.41200 25.49800
C  12.53500 48.70600 26.57300
C  13.96700 48.82100 26.06200
C  13.85300 48.50900 24.69100
C  12.41700 48.20200 24.43000
C  15.18800 49.23300 26.96000
C  14.97500 48.21800 23.72000
O  14.89200 48.10400 22.51500
C  16.37900 48.00800 24.30700
N  9.49000 47.63500 23.52600
C  10.56000 47.58000 22.67100
C  10.14500 47.17900 21.27600
C  8.64100 46.79700 21.42600
C  8.32400 47.23200 22.88000
C  10.39500 48.24900 20.21700
C  8.22000 45.41000 21.15800
C  8.56800 44.24600 22.20200
N  7.59200 47.67600 25.79300
C  6.65300 47.39600 24.81500
C  5.37700 47.46500 25.44000
C  5.57400 47.86100 26.77600
C  6.97900 47.98000 26.97200
C  4.06500 47.07900 24.83400
C  4.87200 48.19700 28.04000
O  3.70100 48.07400 28.27400
C  6.00300 48.52200 29.07600
C  5.74400 47.70800 30.30900
O  5.57100 46.49300 30.28100
O  5.50500 48.51500 31.38600
C  4.72300 47.94200 32.39800
H  12.96600 49.15100 28.60000
H  12.53600 47.76800 22.23600
H  6.13600 46.84800 22.95000
H  8.49300 49.22500 30.66700
H  11.29800 48.82600 30.67900
H  11.37700 51.07100 30.70800
H  9.69200 51.18400 30.33200
H  10.80800 51.19200 29.01400
H  10.30500 46.73500 30.92400
H  8.67500 46.50100 30.36000
H  7.69900 46.65500 32.15700
H  8.39100 48.02700 32.74400
H  14.91800 49.62300 27.94100
H  15.47200 50.18100 26.50300
H  15.98900 48.49800 27.04000
H  16.51500 47.22300 25.05000
H  16.73800 48.94600 24.73200
H  17.13200 47.86300 23.53200
H  10.72700 46.29300 21.02000
H  8.00300 47.52200 20.92100
H  10.99700 49.07200 20.60100
H  9.49900 48.71000 19.80100
H  11.04000 47.82600 19.44600
H  8.67600 45.07100 20.22800
H  7.15200 45.42200 20.93800
H  9.38100 43.60100 21.86900
H  7.63200 43.70200 22.32900
H  8.71800 44.60200 23.22100
H  3.36100 47.83600 25.18000
H  3.91500 46.02800 25.08000
H  4.13400 47.27600 23.76400
H  6.11900 49.55600 29.40100
H  5.41000 47.45000 33.08600
H  3.94800 47.29000 31.99400
H  4.23800 48.76500 32.92200
Mg -6.37000 25.35100 26.15500
C  -5.04700 26.88200 29.09100
C  -8.11200 23.26100 28.28600
C  -7.08400 23.43800 23.49100
C  -4.22600 27.21700 24.29500
N  -6.43800 25.09300 28.44000
C  -5.91400 25.87000 29.44200
C  -6.46100 25.49000 30.83100
C  -7.30100 24.20900 30.57100
C  -7.28200 24.17200 29.01000
C  -6.86100 22.90200 31.25600
C  -7.08300 26.60600 31.65500
C  -6.72300 26.73700 33.15000
H  -6.06400 25.60500 33.86500
N  -7.54300 23.71400 25.88100
C  -8.17800 22.99700 26.88500
C  -9.10400 22.11800 26.26400
C  -8.91000 22.20500 24.87000
C  -7.81000 23.14600 24.68700
C  -10.14000 21.28500 27.05500
C  -9.64700 21.55400 23.72500
O  -9.34900 21.83400 22.59600
C  -10.62400 20.46200 24.07200
N  -5.79700 25.29600 24.25200
C  -6.21700 24.50300 23.23200
C  -5.45700 24.61700 21.95400
C  -4.86700 26.10100 22.16500
C  -4.87300 26.13600 23.73400
C  -4.47000 23.49000 21.61500
C  -5.64000 27.23300 21.47200
C  -5.15100 27.85900 20.15800
N  -4.99400 26.84300 26.56100
C  -4.19100 27.55200 25.66600
C  -3.52000 28.65100 26.38500
C  -3.78600 28.37300 27.70800
C  -4.71800 27.30700 27.76200
C  -2.69600 29.75200 25.73400
C  -3.46400 28.76600 29.02800
O  -2.67300 29.60500 29.47300
C  -4.30000 27.83500 29.91500
C  -3.26400 27.13500 30.79100
O  -2.58300 26.20500 30.49600
O  -3.34100 27.77900 31.97000
C  -2.25700 27.52200 32.88400
H  -8.73100 22.59300 28.88900
H  -7.18200 22.68200 22.71000
H  -3.74300 27.85200 23.55000
H  -5.59100 25.24700 31.44100
H  -8.26800 24.58000 30.91200
H  -7.38800 22.05300 30.81900
H  -7.14900 22.90400 32.30700
H  -5.78100 22.79600 31.35300
H  -8.17200 26.58000 31.69700
H  -6.85000 27.48700 31.05700
H  -7.60900 27.04800 33.70400
H  -6.03200 27.57800 33.10700
H  -9.88100 21.40900 28.10600
H  -10.26400 20.24200 26.76200
H  -11.08700 21.80400 26.90300
H  -10.14300 19.71400 24.70300
H  -11.06200 20.15800 23.12200
H  -11.43400 20.82600 24.70500
H  -6.11500 24.76400 21.09800
H  -3.80200 26.21100 21.96100
H  -4.48100 22.81000 22.46700
H  -3.45600 23.74200 21.30300
H  -4.89400 22.97700 20.75300
H  -5.83800 28.05300 22.16300
H  -6.66200 26.88900 21.31400
H  -4.71300 28.83400 20.37200
H  -5.87300 27.85700 19.34100
H  -4.23000 27.36400 19.85100
H  -2.07100 29.30200 24.96300
H  -2.11200 30.35000 26.43400
H  -3.42900 30.32900 25.17100
H  -4.89200 28.47300 30.57100
H  -1.28400 27.89400 32.56300
H  -2.24600 26.49000 33.23200
H  -2.53100 28.11600 33.75600

