158

Mg 25.50600 1.24300 29.08800
C  27.47400 0.77000 32.00700
C  22.74300 1.74800 31.05700
C  23.70700 1.13100 26.29600
C  28.40500 0.18700 27.25700
N  25.14100 1.18600 31.29700
C  26.18900 1.32700 32.20400
C  25.60800 1.54500 33.60900
C  24.03100 1.46600 33.35800
C  23.94700 1.59000 31.80600
C  23.35400 0.22900 33.84800
C  26.05800 2.86400 34.29500
C  27.09100 2.66300 35.50300
H  26.71300 3.36000 36.85400
N  23.49700 1.42500 28.74100
C  22.53000 1.70400 29.70300
C  21.27300 1.73700 29.01600
C  21.53200 1.56000 27.63400
C  23.03000 1.46200 27.47300
C  19.96000 2.04700 29.70000
C  20.50300 1.51000 26.46100
O  20.83900 1.30400 25.26200
C  19.04300 1.75100 26.69900
N  25.97300 0.66300 27.11400
C  25.02800 0.85700 26.12600
C  25.59400 0.55700 24.75000
C  27.18600 0.49400 25.03900
C  27.17400 0.37200 26.55600
C  25.05400 -0.81400 24.04500
C  28.08600 1.69200 24.37900
C  29.25600 1.28300 23.49100
N  27.51100 0.47100 29.50200
C  28.56500 0.14200 28.63400
C  29.75100 -0.08100 29.40500
C  29.32200 0.05200 30.70700
C  27.94100 0.42500 30.72300
C  31.06700 -0.53800 28.77100
C  29.75500 0.20100 32.05400
O  30.91000 0.13400 32.46200
C  28.56900 0.60800 32.95600
C  28.32800 -0.51300 33.85600
O  27.95300 -1.62300 33.57700
O  28.58000 -0.10700 35.12700
C  28.36200 -1.09000 36.16200
H  21.87500 1.83100 31.71500
H  23.16900 1.12600 25.34600
H  29.26300 -0.14500 26.66800
H  25.95600 0.65800 34.13700
H  23.47900 2.33000 33.72900
H  23.21600 -0.50700 33.05500
H  22.36800 0.44800 34.25700
H  23.95400 -0.28200 34.60100
H  25.17700 3.43400 34.58900
H  26.55600 3.52100 33.58200
H  28.04500 3.05500 35.14900
H  27.31400 1.60900 35.66900
H  19.27800 1.23900 29.43900
H  19.61000 2.98500 29.26900
H  20.02200 2.13900 30.78500
H  18.59000 1.05700 27.40800
H  18.53700 1.72200 25.73400
H  18.92900 2.78600 27.02200
H  25.36100 1.43900 24.15400
H  27.55100 -0.45900 24.65600
H  25.75500 -1.64600 24.11600
H  24.90300 -0.51800 23.00700
H  24.11100 -1.16000 24.46900
H  28.46600 2.19000 25.27100
H  27.53400 2.41600 23.78000
H  29.03400 1.87800 22.60600
H  29.18900 0.22700 23.22700
H  30.27500 1.52800 23.79000
H  31.11100 -0.76600 27.70600
H  31.56200 -1.30100 29.37100
H  31.79300 0.27100 28.85000
H  28.66100 1.55400 33.48900
H  28.41800 -0.60600 37.13600
H  29.05500 -1.92900 36.09900
H  27.40600 -1.60300 36.05600
Mg -12.28300 15.91800 41.52200
C  -9.08400 14.49300 41.33200
C  -11.11200 18.79600 40.06800
C  -15.45200 16.74500 40.88400
C  -13.41800 12.79200 42.75500
N  -10.40600 16.46600 40.59800
C  -9.16800 15.78600 40.73600
C  -7.98700 16.65800 40.28800
C  -8.68500 18.02700 40.05300
C  -10.14500 17.79800 40.27500
C  -8.13000 19.13800 41.12500
C  -7.23600 16.21900 39.01700
C  -5.87300 16.71000 38.86600
H  -5.66900 17.69100 37.68900
N  -13.10900 17.54400 40.56200
C  -12.47900 18.65000 40.24200
C  -13.37300 19.65200 40.01300
C  -14.65500 19.08200 40.11600
C  -14.44800 17.70200 40.44200
C  -13.02400 21.06200 39.58000
C  -16.01700 19.80000 39.81800
O  -16.01400 20.98700 39.49500
C  -17.39200 19.07900 39.96100
N  -14.17000 14.85700 41.71800
C  -15.33400 15.49900 41.48200
C  -16.55400 14.64400 41.99800
C  -15.91300 13.36200 42.56800
C  -14.42500 13.69500 42.40200
C  -17.52800 15.36100 42.99600
C  -16.42900 12.01100 41.90400
C  -17.41100 11.16800 42.74900
N  -11.45100 14.10500 42.08800
C  -12.04800 12.94000 42.52500
C  -11.01600 11.98200 42.86800
C  -9.82700 12.60400 42.45500
C  -10.16200 13.86400 41.90800
C  -11.21500 10.66100 43.60400
C  -8.36600 12.41900 42.37900
O  -7.63800 11.56900 42.80000
C  -7.86200 13.70200 41.65000
C  -6.92600 14.41500 42.55300
O  -7.23000 15.27400 43.35200
O  -5.66700 13.98200 42.28600
C  -4.70400 14.84600 42.92800
H  -10.78600 19.82900 39.93300
H  -16.46000 17.15900 40.95500
H  -13.82600 11.87200 43.17900
H  -7.22800 16.72400 41.06800
H  -8.69500 18.33500 39.00700
H  -9.03800 19.64000 41.45900
H  -7.51400 19.90800 40.66000
H  -7.50900 18.73800 41.92700
H  -7.87500 16.45800 38.16700
H  -7.20000 15.13700 39.14000
H  -5.16200 15.92000 38.62500
H  -5.49300 17.14900 39.78900
H  -13.07000 21.21800 38.50200
H  -12.03400 21.35700 39.92700
H  -13.67700 21.81600 40.01900
H  -18.08100 19.68600 39.37300
H  -17.73900 19.04700 40.99400
H  -17.32500 18.11400 39.45900
H  -17.12800 14.42700 41.09700
H  -16.11400 13.33200 43.63900
H  -17.58000 14.95100 44.00400
H  -18.52900 15.39700 42.56500
H  -17.09400 16.35600 43.08700
H  -15.56700 11.34900 41.81900
H  -16.83700 12.11100 40.89900
H  -18.29600 11.73700 43.03300
H  -16.92300 10.69000 43.59900
H  -17.72000 10.44100 41.99700
H  -10.57200 9.82900 43.31600
H  -12.17000 10.37400 43.16500
H  -11.29800 10.85800 44.67300
H  -7.42800 13.28800 40.74000
H  -4.80200 15.84300 42.49700
H  -3.73200 14.43100 42.65900
H  -4.74500 14.95300 44.01200

