158

Mg 41.48800 40.79800 27.07900
C  40.71900 43.18400 29.25500
C  42.53100 38.63600 29.61200
C  42.41500 38.36000 24.69000
C  40.99800 42.94000 24.41300
N  41.52900 40.94900 29.19900
C  41.09400 41.99800 29.91100
C  41.08400 41.72400 31.45200
C  41.81000 40.34400 31.50800
C  42.02100 39.98400 30.01600
C  43.12700 40.16300 32.34200
C  39.59700 41.87500 32.01200
C  39.42200 42.79900 33.22700
H  38.83300 42.32900 34.57600
N  42.28800 38.74900 27.19000
C  42.61400 38.02800 28.32100
C  43.17500 36.68000 28.00100
C  42.93800 36.55300 26.58000
C  42.55500 37.92300 26.07000
C  43.80300 35.78800 29.02300
C  43.09000 35.36800 25.63600
O  43.16400 35.48200 24.42700
C  43.27900 33.94600 26.24100
N  41.73600 40.67300 24.87200
C  42.07800 39.58800 24.13800
C  41.97500 39.86700 22.58600
C  41.20400 41.22200 22.54500
C  41.36800 41.66600 24.02700
C  43.35000 39.81500 21.82500
C  39.75200 41.13600 22.02900
C  38.87300 39.95300 22.53800
N  41.00300 42.70300 26.78700
C  40.83300 43.49100 25.72900
C  40.47600 44.84600 26.04600
C  40.42000 44.78500 27.50500
C  40.71300 43.44500 27.86200
C  40.27400 45.94500 25.14900
C  40.09900 45.56100 28.64100
O  39.80400 46.74400 28.63600
C  40.32300 44.58200 29.91200
C  41.39800 45.10800 30.78800
O  42.64000 44.95000 30.50800
O  40.86200 45.76900 31.89200
C  41.89200 46.25500 32.79800
H  42.90100 38.08600 30.48000
H  42.73200 37.68500 23.89300
H  40.62000 43.49500 23.55300
H  41.81000 42.43400 31.84700
H  41.11300 39.59400 31.88100
H  43.12900 39.20400 32.86100
H  43.18200 41.03000 32.99900
H  44.03500 40.07300 31.74600
H  39.35000 40.87100 32.35700
H  38.92900 42.13000 31.18800
H  38.69500 43.51000 32.83600
H  40.18200 43.55400 33.42800
H  42.98900 35.27200 29.53000
H  44.28300 36.47600 29.71900
H  44.51100 35.08200 28.58700
H  42.75300 33.88500 27.19300
H  44.32700 33.69100 26.39500
H  42.93100 33.15200 25.57900
H  41.40800 39.01200 22.21600
H  41.75700 41.90100 21.89600
H  43.43800 39.14500 20.97000
H  44.15100 39.48300 22.48600
H  43.65600 40.80500 21.48800
H  39.77500 41.12500 20.94000
H  39.31200 42.07700 22.35900
H  38.59200 39.18000 21.82200
H  37.92600 40.35100 22.90000
H  39.32400 39.38500 23.35200
H  41.19500 46.14900 24.60300
H  39.99400 46.75400 25.82400
H  39.37400 45.79400 24.55400
H  39.43400 44.56300 30.54200
H  41.42100 47.14200 33.22300
H  42.80100 46.53100 32.26500
H  42.04500 45.54600 33.61100
Mg -5.68700 25.87600 26.06300
C  -3.84100 27.08400 28.68700
C  -6.97100 23.44000 28.26700
C  -7.20900 24.57900 23.43900
C  -3.56700 27.61500 23.82100
N  -5.39800 25.32300 28.14800
C  -4.79900 26.15500 29.03100
C  -5.16900 25.77300 30.52200
C  -5.88600 24.39000 30.35600
C  -6.05000 24.36100 28.85100
C  -5.19100 23.16600 31.01300
C  -5.92300 26.88700 31.21600
C  -5.75600 27.04600 32.74300
H  -5.28900 25.88500 33.51600
N  -6.89500 24.22300 25.91200
C  -7.39500 23.40100 26.89400
C  -8.40900 22.60300 26.29200
C  -8.54300 23.01200 24.93000
C  -7.45700 23.95300 24.72300
C  -9.21700 21.51700 27.20100
C  -9.50800 22.44500 23.95300
O  -9.49300 22.84700 22.78200
C  -10.56400 21.39100 24.24700
N  -5.27300 25.91500 23.88400
C  -6.22900 25.44100 23.07700
C  -6.10000 26.03600 21.66400
C  -4.69900 26.76700 21.72800
C  -4.51700 26.82600 23.24400
C  -6.31700 24.90600 20.59400
C  -4.84200 28.14400 20.99800
C  -5.19500 28.07700 19.52000
N  -4.11900 27.10800 26.14200
C  -3.33100 27.81800 25.16600
C  -2.49200 28.79500 25.80500
C  -2.70400 28.59600 27.19800
C  -3.62900 27.50200 27.32000
C  -1.73500 29.84000 25.15100
C  -2.35200 29.05600 28.52700
O  -1.63400 30.04100 28.85300
C  -3.02700 28.09600 29.57300
C  -2.04900 27.40700 30.39000
O  -1.34900 26.44300 30.08500
O  -2.10900 27.83100 31.72300
C  -1.21900 27.07200 32.61400
H  -7.43700 22.70500 28.92600
H  -7.83500 24.35000 22.57400
H  -2.95300 28.22200 23.15300
H  -4.18500 25.53000 30.92400
H  -6.91500 24.34900 30.71200
H  -5.55300 23.00700 32.02900
H  -4.11500 23.33200 30.96600
H  -5.43100 22.34500 30.33700
H  -6.99100 26.87200 30.99600
H  -5.53200 27.81000 30.78700
H  -6.74300 27.18800 33.18400
H  -5.25400 27.98400 32.98100
H  -8.67400 21.11200 28.05500
H  -9.43100 20.64800 26.57900
H  -10.18100 21.89100 27.54400
H  -10.06100 20.50000 24.62300
H  -11.01100 21.21000 23.26900
H  -11.29500 21.84800 24.91200
H  -6.95100 26.69700 21.49700
H  -3.83900 26.30000 21.24600
H  -7.23000 25.11800 20.03600
H  -6.38900 23.90000 21.00800
H  -5.48200 24.98700 19.89900
H  -3.87400 28.64500 21.02900
H  -5.60400 28.77700 21.45300
H  -4.90700 27.10700 19.11200
H  -4.81400 29.00000 19.08400
H  -6.27500 28.20600 19.45800
H  -0.71600 29.59400 25.44800
H  -2.04200 30.82700 25.49600
H  -1.84900 29.86800 24.06800
H  -3.60100 28.75300 30.22600
H  -0.91600 27.72000 33.43700
H  -0.22100 27.00000 32.18200
H  -1.50900 26.05000 32.85900

