158

Mg 1.56900 -1.62400 44.33300
C  4.93400 -0.86000 43.48100
C  0.57700 1.20000 42.53500
C  -1.63000 -2.75900 44.35600
C  2.73700 -4.83500 45.50100
N  2.51300 -0.10700 43.28400
C  3.94200 0.04000 43.00900
C  4.22200 1.22300 42.11400
C  2.85400 2.06500 42.27000
C  1.88700 0.98700 42.73500
C  2.88900 3.18900 43.38100
C  4.46800 0.84700 40.60400
C  5.75600 1.24000 40.03100
H  5.69200 2.00300 38.65700
N  -0.32800 -0.86700 43.59000
C  -0.47900 0.32900 42.79600
C  -1.82600 0.43000 42.37300
C  -2.47400 -0.76900 42.81500
C  -1.55200 -1.53700 43.63000
C  -2.43100 1.59800 41.66500
C  -3.82000 -1.21700 42.36400
O  -4.48200 -0.47400 41.72900
C  -4.37500 -2.48900 42.78100
N  0.70700 -3.52300 44.77300
C  -0.68800 -3.71700 44.83300
C  -0.95900 -5.13300 45.23400
C  0.40800 -5.72000 45.77700
C  1.35300 -4.62100 45.28600
C  -2.19500 -5.37000 46.10000
C  0.72500 -7.16200 45.16600
C  1.38000 -8.13200 46.13800
N  3.45600 -2.66500 44.69600
C  3.78000 -3.92700 45.19600
C  5.22300 -4.07100 45.16500
C  5.69200 -2.87100 44.53400
C  4.61200 -2.09300 44.21400
C  6.04400 -5.27100 45.70600
C  6.88800 -2.14600 44.12600
O  8.09100 -2.33700 44.29200
C  6.37800 -0.84500 43.38900
C  6.88100 0.33200 44.09800
O  6.76900 0.52200 45.28200
O  7.69300 1.03500 43.23300
C  8.48900 2.17100 43.84900
H  0.29200 2.09900 41.98400
H  -2.65400 -3.06600 44.57700
H  3.12000 -5.80700 45.81900
H  5.12800 1.62900 42.56400
H  2.43400 2.56200 41.39600
H  3.87700 3.51900 43.70200
H  2.47300 2.74500 44.28500
H  2.26100 3.99800 43.00800
H  3.72700 1.29100 39.94000
H  4.39900 -0.23600 40.49600
H  6.32400 0.32300 39.87800
H  6.33700 1.86400 40.71000
H  -2.64000 1.41400 40.61100
H  -1.82100 2.49900 41.72900
H  -3.34900 1.87100 42.18500
H  -5.07700 -2.75000 41.98900
H  -4.77300 -2.33500 43.78400
H  -3.58500 -3.23900 42.74500
H  -1.11500 -5.61300 44.26800
H  0.44400 -5.86300 46.85700
H  -2.73600 -4.43000 46.21200
H  -1.85700 -5.64600 47.09800
H  -2.91000 -6.03700 45.61800
H  1.50000 -6.88800 44.44900
H  -0.17800 -7.53000 44.67900
H  1.71700 -7.58300 47.01800
H  2.26900 -8.53200 45.64900
H  0.63200 -8.90500 46.31300
H  6.84000 -5.00600 46.40100
H  6.45000 -5.65000 44.76800
H  5.35100 -5.98800 46.14700
H  6.75000 -0.83300 42.36400
H  9.01200 1.77300 44.71900
H  7.89600 2.99400 44.24800
H  9.26900 2.56800 43.19900
Mg -1.29100 34.40900 26.62300
C  -3.54100 32.78500 28.96600
C  -0.32000 36.53800 29.19400
C  0.61300 36.01200 24.46700
C  -2.61700 32.34900 24.06700
N  -1.89700 34.65200 28.81500
C  -2.69700 33.77700 29.51800
C  -2.72400 34.14400 31.01400
C  -1.76900 35.44800 31.08400
C  -1.33900 35.61100 29.61300
C  -2.46700 36.69000 31.68500
C  -2.36800 32.96200 31.95200
C  -1.62500 33.25300 33.26500
H  -2.20500 32.80700 34.62500
N  0.12900 36.00300 26.80400
C  0.39700 36.71300 27.93500
C  1.25900 37.85000 27.58200
C  1.40300 37.80000 26.19800
C  0.76500 36.54300 25.75500
C  1.58300 38.91500 28.60400
C  2.04200 38.79000 25.34100
O  2.14500 38.60400 24.11200
C  2.64200 40.02700 25.89000
N  -1.01600 34.20000 24.61300
C  -0.12200 34.96000 23.95000
C  -0.13400 34.49600 22.44200
C  -0.96000 33.12900 22.47900
C  -1.58100 33.23800 23.80600
C  -0.77800 35.61400 21.45100
C  -0.14600 31.84900 22.30100
C  -0.85800 30.63300 21.80900
N  -2.82100 32.90100 26.46300
C  -3.28800 32.22500 25.35000
C  -4.29700 31.27500 25.73200
C  -4.45700 31.51600 27.09700
C  -3.54000 32.49200 27.50400
C  -5.10900 30.27800 24.80500
C  -5.23100 31.15300 28.21000
O  -6.22400 30.46900 28.33100
C  -4.65600 31.89200 29.48400
C  -5.67800 32.75600 30.19400
O  -6.32000 33.74700 29.76200
O  -6.00100 32.27000 31.42300
C  -7.21100 32.65300 32.17200
H  -0.08200 37.32200 29.91600
H  1.09100 36.42100 23.57400
H  -2.91400 31.61900 23.31100
H  -3.77000 34.38600 31.20400
H  -0.80900 35.23300 31.55400
H  -3.55000 36.58200 31.75000
H  -2.38500 37.47000 30.92800
H  -2.15900 37.01700 32.67800
H  -1.91700 32.12500 31.41900
H  -3.35100 32.64200 32.29800
H  -1.60300 34.33900 33.35600
H  -0.62400 32.82900 33.19600
H  1.53600 38.55900 29.63300
H  0.92400 39.76900 28.45100
H  2.65600 39.09400 28.52700
H  1.96300 40.58500 26.53500
H  2.90500 40.68200 25.05900
H  3.57200 39.80800 26.41400
H  0.86500 34.33200 22.03800
H  -1.69100 33.11600 21.67000
H  -1.33100 36.46200 21.85500
H  -1.37800 35.20700 20.63700
H  0.11500 36.09400 21.05200
H  0.44500 31.69700 23.20400
H  0.66200 32.07100 21.60400
H  -0.20300 30.36900 20.97800
H  -1.78300 30.87800 21.28800
H  -0.98400 29.88500 22.59100
H  -4.57400 30.09100 23.87400
H  -6.14200 30.58800 24.64600
H  -5.16800 29.36200 25.39200
H  -4.26700 31.15400 30.18500
H  -7.98900 33.05700 31.52400
H  -6.89400 33.33000 32.96600
H  -7.55800 31.72600 32.62800

