158

Mg 47.46300 24.82400 28.34600
C  48.10700 27.19700 30.66900
C  46.52900 22.63400 30.84300
C  46.61600 22.56800 25.94100
C  48.57600 27.03000 25.88200
N  47.00900 25.03900 30.43400
C  47.43000 26.08300 31.23100
C  47.12200 25.83500 32.75200
C  46.78300 24.30800 32.73600
C  46.78000 23.94400 31.22900
C  47.55800 23.32800 33.64900
C  46.01800 26.80100 33.29800
C  46.38700 27.51500 34.57100
H  45.40100 27.71300 35.67300
N  46.77500 22.83300 28.31300
C  46.50100 22.14500 29.45200
C  46.09300 20.83400 29.12900
C  45.86200 20.86100 27.65000
C  46.41200 22.15000 27.24700
C  45.70100 19.81100 30.19900
C  45.28600 19.86500 26.72700
O  45.23700 19.93800 25.49700
C  44.70200 18.57100 27.26900
N  47.64600 24.79000 26.27200
C  47.04500 23.83100 25.49400
C  47.02300 24.20100 23.98300
C  47.69500 25.64500 23.91600
C  48.04900 25.81100 25.43800
C  47.77000 23.20300 23.03800
C  46.75800 26.72400 23.19500
C  47.48900 27.77300 22.24800
N  48.38900 26.63200 28.23700
C  48.77800 27.45500 27.22700
C  49.33100 28.75000 27.71700
C  49.17500 28.61700 29.13200
C  48.45200 27.40500 29.32300
C  49.90500 29.86900 26.94100
C  49.30900 29.32600 30.44000
O  49.65200 30.47900 30.66200
C  48.62400 28.36100 31.46400
C  49.63800 28.15200 32.51700
O  50.55700 27.35800 32.59300
O  49.28600 28.90000 33.66700
C  50.14500 28.66400 34.78300
H  46.48400 21.92700 31.67400
H  46.23600 21.84400 25.21700
H  48.83500 27.80300 25.15600
H  48.05700 26.02000 33.28100
H  45.77800 24.22000 33.15000
H  48.10100 23.95500 34.35600
H  48.18700 22.65600 33.06600
H  46.79500 22.74800 34.16700
H  45.18900 26.20100 33.67400
H  45.70000 27.54500 32.56800
H  46.52700 28.56800 34.32400
H  47.31400 27.19400 35.04600
H  45.92500 18.76900 29.96800
H  44.70400 19.95700 30.61400
H  46.18800 20.02800 31.15000
H  45.44900 18.29100 28.01200
H  44.67500 17.84600 26.45500
H  43.80200 18.78600 27.84500
H  46.01800 24.29000 23.57200
H  48.64600 25.62200 23.38300
H  48.14300 22.32200 23.56100
H  48.59300 23.70300 22.52900
H  47.07100 22.82700 22.29000
H  46.28500 27.32100 23.97500
H  46.01800 26.16300 22.62500
H  47.15900 27.67300 21.21400
H  48.52800 27.48700 22.41300
H  47.17500 28.77000 22.55600
H  50.05200 29.58000 25.90000
H  50.80600 30.16200 27.47900
H  49.17500 30.67000 27.05800
H  47.83800 28.96800 31.91200
H  50.13600 29.56600 35.39400
H  51.21100 28.55100 34.58600
H  49.82100 27.70700 35.19100
Mg 16.86100 52.06500 26.13000
C  18.49200 50.74500 28.91900
C  14.32000 53.01200 28.25900
C  15.09000 53.03500 23.48000
C  19.37800 50.77800 24.06700
N  16.50500 52.03600 28.45500
C  17.32400 51.48800 29.30200
C  16.85100 51.77700 30.78200
C  15.40600 52.18500 30.55300
C  15.35600 52.49600 29.02700
C  14.33300 51.12200 31.00200
C  17.85200 52.75200 31.46900
C  18.17700 52.45100 32.92700
H  17.05000 51.79600 33.80300
N  15.03000 52.91800 25.91100
C  14.10600 53.21400 26.89300
C  12.91500 53.85500 26.30300
C  13.24000 53.97800 24.94800
C  14.54300 53.33300 24.72100
C  11.80400 54.49200 27.11900
C  12.37300 54.53500 23.82900
O  12.68300 54.54500 22.65400
C  11.09500 55.07600 24.17500
N  17.14800 51.88100 24.07500
C  16.31900 52.41800 23.16300
C  16.88000 52.29900 21.74500
C  18.30700 51.74800 21.95200
C  18.33000 51.46000 23.41400
C  15.99200 51.44200 20.78700
C  19.43300 52.70400 21.48900
C  19.50500 54.19200 21.84800
N  18.53300 50.82300 26.32800
C  19.52500 50.50500 25.43600
C  20.59800 49.74600 26.09900
C  20.18900 49.80200 27.51500
C  18.94400 50.53900 27.57800
C  21.88200 49.20100 25.50600
C  20.57000 49.44300 28.85500
O  21.51500 48.78600 29.23100
C  19.49700 50.05200 29.82200
C  18.94500 48.93000 30.54800
O  18.16800 48.11500 30.08300
O  19.29800 49.03800 31.84300
C  18.75800 48.10900 32.82500
H  13.49100 53.24000 28.93200
H  14.59200 53.10800 22.51100
H  20.28800 50.64200 23.48000
H  16.88400 50.80800 31.28000
H  15.10900 53.08800 31.08600
H  13.68400 51.60100 31.73500
H  14.89600 50.26000 31.36000
H  13.68900 50.73400 30.21300
H  17.49900 53.78300 31.48400
H  18.81800 52.65700 30.97200
H  18.37700 53.34700 33.51400
H  19.06200 51.82200 32.82100
H  12.06000 54.45500 28.17800
H  10.88800 53.90700 27.03900
H  11.64500 55.52200 26.79900
H  10.37800 54.39800 24.63800
H  10.53200 55.02900 23.24300
H  11.17900 56.08600 24.57700
H  16.91500 53.34900 21.45400
H  18.41800 50.75000 21.52900
H  16.51400 50.84300 20.04100
H  15.42700 51.97900 20.02400
H  15.32500 50.76600 21.32200
H  19.40900 52.87600 20.41300
H  20.37700 52.20300 21.70400
H  20.22900 54.35200 22.64700
H  18.55000 54.52600 22.25200
H  19.84400 54.72700 20.96100
H  21.94400 49.25800 24.41900
H  22.09400 48.14400 25.66900
H  22.73900 49.66100 25.99700
H  20.03800 50.69500 30.51700
H  19.28800 47.15900 32.76600
H  17.67200 48.02100 32.84400
H  18.96400 48.48900 33.82600

