158

Mg 40.43200 8.53900 30.20400
C  42.21500 9.87700 32.89200
C  37.93600 7.54500 32.48400
C  38.70600 7.28300 27.61500
C  43.01500 9.18600 28.10900
N  40.17400 8.70200 32.40800
C  40.96200 9.34000 33.26400
C  40.22400 9.43600 34.63600
C  38.93500 8.59900 34.50500
C  38.97300 8.31200 33.03100
C  38.84400 7.43100 35.46800
C  40.02900 10.89900 35.14700
C  39.55400 11.08300 36.59100
H  40.26600 11.84800 37.64000
N  38.61700 7.46900 30.07900
C  37.72800 7.22500 31.07100
C  36.55300 6.50000 30.56700
C  36.84100 6.39700 29.10800
C  38.11900 7.07400 28.87300
C  35.40400 6.00100 31.41500
C  35.93900 5.72900 28.03300
O  36.27100 5.67300 26.82700
C  34.69800 4.99900 28.37300
N  40.84600 8.11800 28.18700
C  39.91500 7.74800 27.32600
C  40.50100 7.74000 25.92000
C  41.72300 8.71600 25.97300
C  41.84100 8.74200 27.50300
C  40.91200 6.32500 25.41000
C  41.60600 10.04000 25.22600
C  41.00300 11.27700 25.98000
N  42.35400 9.18900 30.42300
C  43.30400 9.46000 29.47300
C  44.49400 10.03600 30.18800
C  44.05600 10.29800 31.51400
C  42.75900 9.74600 31.61500
C  45.80400 10.34800 29.49600
C  44.47400 10.95300 32.70600
O  45.53400 11.55000 32.91700
C  43.30400 10.66400 33.69600
C  43.90800 10.01000 34.88900
O  44.54600 8.96000 34.85900
O  43.75200 10.79600 35.99500
C  44.48600 10.37400 37.19500
H  37.05800 7.35200 33.10400
H  38.10800 7.00300 26.74600
H  43.77800 9.53900 27.41200
H  40.89500 9.01200 35.38300
H  38.20000 9.32400 34.85700
H  38.65300 6.47600 34.97800
H  38.02900 7.71400 36.13500
H  39.69500 7.42500 36.14900
H  39.27300 11.25300 34.44600
H  40.94100 11.49000 35.06400
H  39.34100 10.07100 36.93700
H  38.56300 11.53000 36.66900
H  34.46500 6.55100 31.46500
H  35.65700 5.76700 32.44900
H  35.12500 5.02200 31.02400
H  34.25700 4.70700 27.42000
H  33.87100 5.63200 28.69700
H  34.87200 4.16500 29.05200
H  39.74100 8.10700 25.22900
H  42.65600 8.29600 25.59800
H  40.14100 5.62900 25.74200
H  41.92000 6.07800 25.74200
H  41.01000 6.30200 24.32500
H  40.99100 9.86500 24.34300
H  42.61100 10.38900 24.98900
H  40.07800 11.38400 25.41400
H  41.65800 12.14400 25.89700
H  40.83300 10.96300 27.00900
H  45.71100 11.36000 29.10200
H  45.92900 9.62400 28.69100
H  46.53000 10.23000 30.30100
H  42.88800 11.64300 33.93300
H  44.16200 9.38100 37.50700
H  44.31400 11.02100 38.05500
H  45.54800 10.21500 37.01000
Mg 47.27400 15.24100 29.06900
C  45.33200 15.39700 31.81500
C  49.67800 17.21900 30.69600
C  48.99600 15.47700 26.20300
C  44.55000 13.71900 27.26300
N  47.48100 16.06900 30.99500
C  46.49300 16.02500 32.00800
C  47.05000 16.63500 33.39000
C  48.23200 17.49500 32.76500
C  48.47900 16.83200 31.40700
C  48.05300 19.06700 32.74800
C  47.39800 15.52900 34.36600
C  46.94200 15.81900 35.78800
H  46.84200 17.28200 36.19000
N  49.11800 16.10200 28.59000
C  49.95100 16.82400 29.38100
C  51.24700 16.99300 28.73000
C  51.07200 16.42800 27.39400
C  49.67300 15.95600 27.38300
C  52.50000 17.49100 29.43100
C  52.07800 16.26500 26.18000
O  51.82600 15.59600 25.17300
C  53.38900 16.95800 26.32500
N  46.71000 14.99800 26.95600
C  47.72800 14.95000 26.04300
C  47.26600 14.23900 24.74700
C  45.87200 13.63700 25.15000
C  45.69700 14.13200 26.56800
C  47.22900 15.27000 23.61600
C  45.84900 12.11300 24.92000
C  46.28500 11.29100 26.16100
N  45.20800 14.78700 29.39200
C  44.27200 14.12500 28.61100
C  43.05200 13.96700 29.40200
C  43.41400 14.42100 30.72500
C  44.76800 14.87400 30.61600
C  41.85700 13.19700 28.98900
C  42.98100 14.47800 32.11000
O  42.01800 13.89300 32.57700
C  44.16100 15.24400 32.81000
C  43.53100 16.36200 33.38300
O  43.16000 17.38000 32.81500
O  43.39000 16.19700 34.73600
C  42.84500 17.30700 35.57400
H  50.36800 17.88600 31.21700
H  49.68700 15.38200 25.36300
H  43.79900 13.22100 26.64700
H  46.21500 17.25600 33.71300
H  49.17200 17.37100 33.30300
H  47.98600 19.28600 31.68300
H  48.92800 19.59300 33.13200
H  47.14900 19.36700 33.27800
H  48.47300 15.59600 34.20300
H  47.10600 14.51900 34.07700
H  47.64700 15.37600 36.49200
H  45.93700 15.41000 35.89100
H  52.36100 17.96800 30.40200
H  53.11600 18.18200 28.85600
H  53.11100 16.62200 29.67500
H  53.32700 17.96500 26.73600
H  53.95700 17.15200 25.41500
H  54.03700 16.39900 27.00100
H  47.88100 13.38800 24.45700
H  45.15500 14.06800 24.45200
H  48.02500 15.09400 22.89300
H  47.51700 16.28000 23.90600
H  46.31100 15.26600 23.02800
H  46.50500 11.85600 24.08800
H  44.81200 11.83100 24.73400
H  47.05800 11.90000 26.62900
H  46.80300 10.34700 25.98900
H  45.41400 10.94700 26.72000
H  41.89400 12.16000 29.32200
H  41.78400 13.12700 27.90400
H  40.99700 13.69300 29.43800
H  44.43400 14.59700 33.64400
H  41.82600 17.55900 35.27800
H  43.50700 18.16900 35.50600
H  42.64100 16.91300 36.56900

