158

Mg 49.64800 34.45100 26.63200
C  47.42600 33.70900 29.35600
C  50.40900 37.33800 28.14900
C  51.25400 35.23900 23.94600
C  48.28400 31.52500 25.06900
N  48.94300 35.34000 28.60200
C  48.19700 34.83400 29.58600
C  48.14300 35.77900 30.82500
C  48.96600 37.03100 30.29600
C  49.42900 36.55100 28.92700
C  48.21500 38.35900 30.21000
C  48.70900 35.26200 32.22700
C  47.77000 35.37900 33.41600
H  48.18500 36.49100 34.40300
N  50.65400 36.15000 26.08100
C  50.92100 37.21000 26.83900
C  51.74900 38.16100 26.07900
C  52.09600 37.45700 24.84700
C  51.29400 36.22600 24.89700
C  52.26500 39.49200 26.64600
C  53.12700 37.83400 23.69400
O  53.18000 37.11700 22.67600
C  53.98800 39.14700 23.83800
N  49.80200 33.42000 24.85500
C  50.65500 33.97200 23.91900
C  50.65600 33.15500 22.58300
C  49.89300 31.85100 23.04800
C  49.32400 32.23200 24.45000
C  50.10700 33.97100 21.37500
C  50.90500 30.61300 23.27400
C  50.71400 29.35900 22.39300
N  48.21000 32.87000 27.06800
C  47.76400 31.79200 26.35000
C  46.71600 31.07000 27.13800
C  46.49600 31.91100 28.23100
C  47.45700 32.86800 28.21500
C  46.09000 29.78300 26.73100
C  45.72500 31.95000 29.47300
O  44.75900 31.29300 29.81500
C  46.36500 33.09900 30.31600
C  46.79600 32.40000 31.58500
O  47.79200 31.75600 31.78800
O  45.83200 32.71900 32.50300
C  45.89700 31.92800 33.73700
H  50.65500 38.20800 28.76100
H  51.86000 35.37300 23.04700
H  47.91800 30.62800 24.56600
H  47.12100 36.13100 30.96500
H  49.87300 37.11300 30.89500
H  48.80200 39.08600 30.76900
H  47.28500 38.39400 30.77700
H  48.04000 38.67900 29.18300
H  49.60300 35.85000 32.43100
H  49.10800 34.24800 32.19400
H  47.90100 34.44700 33.96400
H  46.72900 35.55000 33.13800
H  53.33900 39.51200 26.82900
H  51.80000 39.73000 27.60300
H  52.03100 40.36900 26.04200
H  53.47200 40.10700 23.84300
H  54.69400 39.05200 23.01400
H  54.42900 38.97600 24.82000
H  51.65700 32.79100 22.35100
H  49.10600 31.52200 22.36900
H  49.21500 33.43600 21.04800
H  50.86300 33.99000 20.59100
H  49.86400 34.99600 21.65600
H  50.75000 30.25600 24.29300
H  51.97100 30.82400 23.19200
H  51.64900 28.91200 22.05600
H  50.15200 29.55700 21.48000
H  50.16700 28.61600 22.97300
H  46.89000 29.04300 26.72500
H  45.52100 29.80300 25.80200
H  45.43900 29.46200 27.54300
H  45.59200 33.82000 30.58100
H  46.60900 31.10800 33.82700
H  44.93000 31.50000 33.99900
H  46.17200 32.65600 34.50100
Mg 9.38000 47.35100 25.05500
C  7.11400 47.83900 27.58500
C  11.85300 48.51100 27.13700
C  11.59800 47.20800 22.37900
C  6.80900 46.67700 22.80500
N  9.45900 48.06100 27.16900
C  8.41800 48.13100 28.07100
C  8.93700 48.45300 29.46300
C  10.34200 49.06100 29.20000
C  10.59100 48.43900 27.80100
C  10.51000 50.56300 29.28000
C  9.04400 47.21000 30.38700
C  8.59300 47.57600 31.80800
H  8.91200 46.59900 32.96500
N  11.46400 47.61800 24.84000
C  12.27100 48.02900 25.83800
C  13.66900 48.05400 25.34600
C  13.62600 47.69400 23.98100
C  12.14100 47.53900 23.67600
C  14.88500 48.30400 26.22500
C  14.81500 47.37800 23.01800
O  14.66300 46.82700 21.94200
C  16.23600 47.79100 23.44200
N  9.24100 46.95300 22.96700
C  10.25500 46.94000 22.10500
C  9.87500 46.64500 20.59100
C  8.37700 46.36000 20.80600
C  8.06800 46.56000 22.31100
C  10.32800 47.63000 19.49800
C  8.05100 44.90000 20.43700
C  8.56700 43.78800 21.34700
N  7.35000 47.29700 25.12900
C  6.40400 46.96400 24.12500
C  5.07200 47.02900 24.70100
C  5.30700 47.35400 26.04500
C  6.70400 47.49700 26.26100
C  3.84200 46.80700 24.00000
C  4.68400 47.58700 27.26700
O  3.48500 47.48400 27.54400
C  5.83800 47.96500 28.29600
C  5.70500 46.87700 29.31300
O  5.98200 45.69800 29.17700
O  5.14100 47.43600 30.43800
C  4.64000 46.45600 31.36000
H  12.65400 48.94600 27.73800
H  12.17900 47.08400 21.46300
H  6.10300 46.47600 21.99700
H  8.37100 49.32300 29.79500
H  11.18300 48.60900 29.72600
H  10.24900 50.92600 28.28600
H  11.56100 50.71300 29.52900
H  9.76000 50.94900 29.97100
H  10.02400 46.74900 30.50600
H  8.45600 46.35000 30.06800
H  7.51000 47.61700 31.69200
H  8.84600 48.62700 31.94200
H  14.51300 48.43400 27.24100
H  15.42200 49.21200 25.95200
H  15.60200 47.50400 26.03700
H  16.79100 47.08700 24.06100
H  16.22700 48.78800 23.88400
H  16.84700 47.88100 22.54400
H  10.39800 45.70200 20.42900
H  7.78400 47.02800 20.18200
H  10.95800 48.31300 20.06800
H  9.47300 48.16800 19.08900
H  10.77500 47.01900 18.71400
H  8.34800 44.72500 19.40300
H  6.97400 44.74000 20.38500
H  9.32700 44.06300 22.07800
H  8.91300 43.01100 20.66500
H  7.75000 43.29400 21.87300
H  4.03600 45.96600 23.33500
H  3.43100 47.72700 23.58500
H  3.02500 46.37200 24.57700
H  5.59300 48.95600 28.67700
H  4.56600 46.88900 32.35800
H  5.23900 45.54600 31.38700
H  3.61200 46.22900 31.07800

