158

Mg 25.10300 -7.27600 48.01400
C  27.34600 -5.09000 46.82400
C  22.97800 -6.51700 45.36500
C  23.08300 -9.93800 48.76700
C  27.44700 -8.47800 50.21100
N  25.14500 -5.97100 46.26900
C  26.19300 -5.14000 46.01900
C  25.90100 -4.19300 44.80600
C  24.34800 -4.46000 44.63100
C  24.12500 -5.73600 45.45100
C  23.35100 -3.27100 45.08600
C  26.75200 -4.49400 43.48500
C  27.45400 -3.25900 42.88800
H  27.07900 -2.80400 41.46600
N  23.19500 -8.06900 47.23200
C  22.56400 -7.56100 46.14600
C  21.33600 -8.32300 45.89800
C  21.33400 -9.42700 46.83100
C  22.53600 -9.15600 47.70200
C  20.29900 -7.90400 44.83400
C  20.30300 -10.59300 46.81500
O  19.45200 -10.66100 45.89500
C  20.21800 -11.67400 47.82600
N  25.25000 -8.99800 49.32700
C  24.29500 -9.89900 49.53900
C  24.83600 -11.13100 50.29000
C  26.15900 -10.59600 50.78000
C  26.30900 -9.25100 50.05400
C  23.96500 -11.54000 51.57600
C  27.40300 -11.56200 50.39300
C  28.29900 -11.96400 51.60800
N  26.94800 -6.80500 48.48200
C  27.80500 -7.33100 49.48800
C  28.97100 -6.48000 49.60400
C  28.86400 -5.62100 48.54200
C  27.61500 -5.84600 47.88900
C  30.10100 -6.60000 50.59100
C  29.50700 -4.52900 47.87500
O  30.59400 -4.04200 48.01800
C  28.49300 -4.14400 46.73000
C  28.25700 -2.72700 46.94500
O  28.05000 -2.16700 48.03200
O  28.08000 -2.08400 45.76000
C  27.68200 -0.63800 45.78800
H  22.44100 -6.34000 44.43000
H  22.68700 -10.93900 48.94600
H  28.22000 -8.92600 50.84000
H  25.92000 -3.14800 45.11600
H  24.01800 -4.60700 43.60300
H  23.82300 -2.34600 45.41700
H  22.95000 -3.69100 46.00900
H  22.59400 -3.06400 44.33000
H  25.95000 -4.74000 42.78800
H  27.48000 -5.29600 43.60500
H  28.51500 -3.49500 42.80000
H  27.37700 -2.33700 43.46500
H  20.57900 -7.96700 43.78200
H  20.13000 -6.83000 44.90100
H  19.33900 -8.37800 45.04200
H  20.09800 -11.25200 48.82400
H  21.07800 -12.34000 47.74800
H  19.26500 -12.18000 47.66900
H  24.82800 -12.04100 49.68900
H  26.10600 -10.20100 51.79500
H  23.50900 -10.58800 51.85000
H  24.48500 -11.94700 52.44300
H  23.27600 -12.25600 51.12900
H  27.89900 -11.16100 49.50900
H  26.97400 -12.54100 50.17900
H  29.34400 -11.89700 51.30500
H  28.17600 -13.02100 51.84500
H  28.08200 -11.30800 52.45100
H  29.89200 -6.33300 51.62700
H  30.98000 -6.05700 50.24300
H  30.47900 -7.62300 50.57800
H  29.05300 -4.16300 45.79500
H  28.16300 -0.18100 46.65300
H  26.61500 -0.49800 45.96100
H  27.97500 -0.25500 44.81000
Mg -11.90400 16.58300 42.86600
C  -8.48000 17.07000 42.90800
C  -12.40400 19.71100 41.95700
C  -15.22300 15.88200 42.69700
C  -11.24900 13.07600 43.26400
N  -10.58900 18.12800 42.47800
C  -9.23800 18.20800 42.65400
C  -8.70300 19.49400 42.08200
C  -9.96500 20.43500 41.97000
C  -11.08400 19.43200 42.23100
C  -9.92000 21.57800 42.97600
C  -7.99500 19.45400 40.65600
C  -6.75200 20.28700 40.40700
H  -5.53300 19.74800 39.71500
N  -13.57700 17.59600 42.24100
C  -13.54200 18.88900 41.90000
C  -14.90300 19.37200 41.65000
C  -15.78800 18.29800 41.95500
C  -14.86000 17.15800 42.31200
C  -15.26200 20.87700 41.31800
C  -17.32000 18.34500 41.93900
O  -17.83300 19.42500 41.77200
C  -18.17600 17.16600 42.16400
N  -13.11100 14.69200 42.60100
C  -14.47800 14.73400 42.81200
C  -14.91200 13.40400 43.33100
C  -13.67600 12.53800 43.42400
C  -12.64200 13.48400 43.11400
C  -15.87700 13.46800 44.58200
C  -13.51700 11.42200 42.32600
C  -13.02200 10.08300 42.84300
N  -10.21800 15.31800 43.11400
C  -10.10300 13.89600 43.18200
C  -8.74400 13.50100 43.36800
C  -8.00300 14.74700 43.26100
C  -8.97700 15.72400 43.07500
C  -8.23400 12.03800 43.44400
C  -6.74100 15.37900 43.21600
O  -5.60900 14.87700 43.29200
C  -7.01700 16.93800 43.06000
C  -6.45500 17.65800 44.27500
O  -6.98100 17.87400 45.33200
O  -5.18600 18.10100 44.02200
C  -4.46400 18.57800 45.22900
H  -12.55200 20.78600 41.83100
H  -16.28300 15.62100 42.72600
H  -11.10100 12.05100 43.61000
H  -7.95700 19.86500 42.78500
H  -10.25700 20.82200 40.99400
H  -8.90600 21.77000 43.32500
H  -10.39500 21.16900 43.86800
H  -10.45800 22.45800 42.62400
H  -8.69800 19.84200 39.91900
H  -7.74000 18.41100 40.46400
H  -6.40800 20.45900 41.42600
H  -7.10500 21.26100 40.06700
H  -15.46900 21.16100 40.28600
H  -14.56100 21.55200 41.80900
H  -16.13700 21.19400 41.88500
H  -19.21200 17.18400 41.82400
H  -18.18100 16.99000 43.23900
H  -17.77100 16.27400 41.68500
H  -15.42600 13.01600 42.45100
H  -13.57500 12.23200 44.46500
H  -15.88600 14.39000 45.16300
H  -15.75800 12.69800 45.34400
H  -16.89400 13.37300 44.20200
H  -12.77000 11.64900 41.56500
H  -14.42800 11.24800 41.75300
H  -13.77600 9.44000 42.38800
H  -13.30000 10.12700 43.89700
H  -11.99200 9.82100 42.60400
H  -7.33200 12.07600 44.05600
H  -7.88800 11.68300 42.47400
H  -8.92500 11.30000 43.84900
H  -6.33600 17.44200 42.37500
H  -4.82900 19.52800 45.61900
H  -3.39000 18.71800 45.10300
H  -4.53800 17.81800 46.00600

