158

Mg 16.77000 -1.35600 27.55200
C  15.60700 0.78200 29.96600
C  18.47500 -3.04300 29.76500
C  18.15200 -3.22900 24.95100
C  14.80500 0.39500 25.12200
N  17.08600 -1.06000 29.60700
C  16.51200 -0.17000 30.47200
C  16.99000 -0.38900 31.88500
C  18.02900 -1.54800 31.74400
C  17.83700 -1.93900 30.26600
C  19.41200 -1.22800 32.15800
C  15.88900 -0.67000 32.89300
C  15.88400 0.10000 34.22900
H  17.23200 0.81700 34.72100
N  18.12700 -2.88600 27.39900
C  18.70900 -3.52400 28.47400
C  19.52300 -4.60100 28.02900
C  19.45200 -4.65000 26.60400
C  18.55600 -3.54500 26.23900
C  20.23200 -5.49600 29.03600
C  19.97900 -5.70600 25.62600
O  19.77500 -5.62200 24.43500
C  20.67300 -6.95400 26.15500
N  16.55100 -1.40900 25.33600
C  17.21400 -2.18500 24.46100
C  16.76200 -1.96700 23.00200
C  15.65600 -0.86300 23.10800
C  15.60000 -0.58700 24.61600
C  17.81100 -1.67300 21.82200
C  14.25700 -1.29400 22.60400
C  13.45600 -2.36600 23.53500
N  15.41100 0.27300 27.50700
C  14.71200 0.83000 26.46500
C  13.92400 1.95900 27.06900
C  14.24000 1.95400 28.46100
C  15.13000 0.90200 28.64700
C  12.96800 3.01300 26.30900
C  13.91100 2.63500 29.65000
O  13.27400 3.64900 29.93300
C  14.74600 1.79900 30.79400
C  15.54700 2.83800 31.46400
O  16.61600 3.27300 31.09300
O  14.94400 3.25800 32.58700
C  15.57900 4.36100 33.34200
H  19.11900 -3.53200 30.49900
H  18.49600 -3.74000 24.04900
H  14.26700 0.93800 24.34200
H  17.60300 0.46800 32.16300
H  17.71800 -2.30600 32.46300
H  19.98000 -1.12100 31.23300
H  19.93700 -2.03800 32.66500
H  19.52400 -0.28100 32.68700
H  16.07600 -1.69600 33.21300
H  14.87000 -0.54900 32.52600
H  15.65800 -0.63400 35.00200
H  15.07800 0.82200 34.10000
H  20.68600 -4.82600 29.76600
H  21.00000 -6.12100 28.58000
H  19.46700 -6.19500 29.37500
H  21.62400 -6.54100 26.49300
H  20.85800 -7.58800 25.28900
H  20.13800 -7.49600 26.93500
H  16.29100 -2.90100 22.69600
H  15.93500 0.00500 22.51100
H  18.78400 -1.57500 22.30500
H  17.52400 -0.78200 21.26300
H  17.79700 -2.50300 21.11600
H  14.22400 -1.77900 21.62900
H  13.69400 -0.37800 22.42700
H  12.71000 -1.92000 24.19300
H  14.17500 -2.99300 24.06300
H  12.89200 -2.94000 22.79900
H  12.63600 3.59000 27.17200
H  12.16000 2.42000 25.88000
H  13.44500 3.57500 25.50600
H  14.09900 1.40800 31.57900
H  15.69000 5.22000 32.68000
H  16.54000 4.13800 33.80500
H  14.86700 4.61400 34.12700
Mg 36.15400 49.40400 25.30800
C  36.58600 47.91500 28.52900
C  34.72600 52.18500 26.96600
C  35.56900 50.86200 22.23000
C  37.39300 46.62100 23.80300
N  35.68900 49.97600 27.47800
C  36.08900 49.24700 28.58300
C  35.74800 50.01500 29.84600
C  35.20100 51.32900 29.39800
C  35.08500 51.15200 27.80900
C  33.94700 51.81100 30.17000
C  36.87300 50.08100 30.96900
C  36.52000 49.79700 32.39500
H  35.09400 49.48500 32.87100
N  35.30200 51.31500 24.68900
C  34.80200 52.29600 25.55000
C  34.31700 53.43000 24.74400
C  34.58100 53.04500 23.38500
C  35.19900 51.69100 23.41700
C  33.74100 54.60100 25.38700
C  34.25400 53.81600 22.18900
O  34.41300 53.30100 21.08900
C  33.83100 55.22700 22.27800
N  36.30400 48.79000 23.35500
C  36.13900 49.55200 22.22000
C  36.41000 48.78200 20.91100
C  37.07100 47.48500 21.44800
C  36.91000 47.66400 22.99200
C  35.18500 48.55700 20.04100
C  38.57800 47.43500 21.04100
C  39.69900 48.17100 21.86300
N  36.81100 47.63800 25.95400
C  37.35200 46.58200 25.18500
C  37.71300 45.53700 26.09500
C  37.41400 45.94900 27.41100
C  36.88300 47.28400 27.24900
C  38.32200 44.20400 25.66400
C  37.47500 45.58900 28.77900
O  37.88300 44.57200 29.25100
C  36.85100 46.81400 29.55900
C  35.64800 46.23500 30.24200
O  34.52800 46.16300 29.78600
O  35.90200 45.64300 31.52400
C  34.80800 45.19200 32.41300
H  34.31900 53.00500 27.56000
H  35.35300 51.22700 21.22300
H  37.92700 45.82700 23.27700
H  34.92000 49.39700 30.19600
H  35.91700 52.13100 29.57100
H  33.37200 51.05600 30.70500
H  33.24500 52.30700 29.50000
H  34.14700 52.52100 30.97400
H  37.41700 51.01400 30.82000
H  37.50200 49.21800 30.75000
H  36.86500 50.71200 32.87500
H  37.18500 49.08300 32.88100
H  32.74400 54.71300 24.96100
H  34.25400 55.44700 24.92800
H  33.74900 54.68200 26.47400
H  34.66000 55.76600 22.73600
H  32.92600 55.33300 22.87500
H  33.77900 55.54400 21.23600
H  37.13800 49.40000 20.38600
H  36.62200 46.54400 21.13000
H  34.24100 48.88900 20.47300
H  35.04900 47.47900 19.96300
H  35.33600 49.02600 19.06800
H  38.54600 47.71100 19.98700
H  38.93900 46.40800 20.97800
H  40.18400 48.77800 21.09800
H  40.36100 47.45000 22.34200
H  39.33100 48.77300 22.69400
H  38.56600 44.13700 24.60400
H  37.63800 43.36800 25.81500
H  39.21900 44.04700 26.26400
H  37.60500 47.12700 30.28000
H  34.75700 44.10300 32.42200
H  33.82800 45.61400 32.18900
H  35.04400 45.44700 33.44600

