158

Mg 1.96600 -1.18400 45.33500
C  5.23600 0.05400 44.83000
C  0.79100 1.21400 43.24500
C  -0.89300 -2.74600 45.19500
C  3.52600 -4.13900 46.70300
N  2.91600 0.48700 44.12400
C  4.25400 0.79800 44.13700
C  4.44600 2.09300 43.28600
C  2.98800 2.48000 42.90600
C  2.15100 1.37400 43.54000
C  2.56300 3.80000 43.58100
C  5.34500 1.95200 42.05400
C  6.49200 2.94500 41.83100
H  7.41200 2.50000 40.69000
N  0.09000 -0.70300 44.59700
C  -0.18100 0.34200 43.69900
C  -1.55800 0.34400 43.35400
C  -2.07500 -0.87300 44.01400
C  -0.94700 -1.50000 44.63600
C  -2.31100 1.31000 42.36800
C  -3.52300 -1.35100 43.95600
O  -4.40500 -0.81100 43.26100
C  -4.02500 -2.51200 44.68000
N  1.47200 -3.21700 45.59800
C  0.12900 -3.53400 45.65800
C  -0.09000 -4.90700 46.30400
C  1.33400 -5.37800 46.74200
C  2.17800 -4.15800 46.34500
C  -1.00600 -4.86900 47.54300
C  1.80700 -6.78100 46.20700
C  1.86100 -8.00900 47.19700
N  3.91500 -1.96900 45.66000
C  4.40000 -3.12400 46.28500
C  5.87800 -3.02900 46.44800
C  6.13400 -1.77400 45.96700
C  4.96400 -1.18700 45.50700
C  6.71700 -4.10000 47.09200
C  7.26400 -0.86700 45.74600
O  8.38000 -0.98400 46.01700
C  6.66600 0.37800 44.96300
C  6.81900 1.56200 45.84600
O  6.41700 1.69200 47.03400
O  7.46300 2.58200 45.17400
C  7.79600 3.78800 45.93800
H  0.38800 1.87600 42.47600
H  -1.85500 -3.24400 45.33000
H  3.91700 -5.06500 47.13000
H  4.95800 2.83300 43.90200
H  2.81800 2.59300 41.83500
H  1.94900 3.57100 44.45200
H  2.01000 4.40000 42.85800
H  3.45800 4.36300 43.84500
H  4.75100 2.18000 41.16900
H  5.71200 0.94400 41.85900
H  7.08500 2.99000 42.74500
H  6.05100 3.93300 41.69700
H  -1.73300 2.21400 42.17400
H  -3.34000 1.43600 42.70500
H  -2.32600 0.71500 41.45500
H  -3.69400 -2.39200 45.71200
H  -3.59800 -3.44200 44.30300
H  -5.11100 -2.42100 44.64800
H  -0.40500 -5.61300 45.53500
H  1.47500 -5.44400 47.82000
H  -1.70200 -5.69000 47.36900
H  -1.61500 -3.96600 47.58700
H  -0.44900 -4.98900 48.47200
H  2.82200 -6.64200 45.83500
H  1.17900 -7.17500 45.40800
H  1.56500 -8.94200 46.71600
H  1.14500 -7.81200 47.99500
H  2.88100 -8.05100 47.57800
H  6.18400 -5.03400 47.26800
H  7.05400 -3.82500 48.09200
H  7.60400 -4.27400 46.48400
H  7.18100 0.40500 44.00300
H  8.49300 4.34400 45.31200
H  8.43800 3.57700 46.79300
H  6.89800 4.35300 46.18800
Mg 24.97900 1.32300 29.28400
C  27.18100 1.20700 32.11900
C  22.35400 1.59100 31.53600
C  22.96900 1.48300 26.73900
C  27.77300 0.90200 27.28700
N  24.76600 1.15700 31.55800
C  25.81600 1.26200 32.46000
C  25.27200 1.43600 33.88600
C  23.72700 1.58000 33.67100
C  23.63100 1.47700 32.13600
C  22.72800 0.64800 34.49500
C  26.03500 2.62300 34.67300
C  25.30700 3.22200 35.91400
H  26.11500 3.78900 37.06200
N  22.90300 1.39200 29.13800
C  21.98900 1.56200 30.14800
C  20.73200 1.77300 29.58800
C  20.90000 1.67900 28.12400
C  22.30100 1.46500 27.94000
C  19.50600 2.09300 30.40800
C  19.85100 1.68900 26.98900
O  20.02500 1.59100 25.75300
C  18.46600 1.68300 27.53600
N  25.33200 1.00500 27.30100
C  24.31300 1.37300 26.45500
C  24.85700 1.44000 24.98300
C  26.33600 1.16400 25.10900
C  26.52100 1.08200 26.64400
C  24.15600 0.44500 23.98600
C  27.14100 2.31900 24.52200
C  26.86200 3.70200 25.19900
N  27.03800 1.16600 29.58300
C  28.02400 0.85800 28.66800
C  29.24900 0.54100 29.34100
C  28.94100 0.74100 30.68100
C  27.61600 1.06400 30.74100
C  30.58100 0.30900 28.73800
C  29.58100 0.79900 32.02900
O  30.74200 0.60900 32.37700
C  28.42000 1.24400 32.97500
C  28.29100 0.29800 34.11000
O  27.56300 -0.69200 34.26000
O  29.16500 0.68300 35.09900
C  28.98400 0.12100 36.53900
H  21.50400 1.92700 32.13200
H  22.32000 1.81800 25.92800
H  28.61700 0.82600 26.59900
H  25.49800 0.49900 34.39600
H  23.44800 2.61500 33.87000
H  22.27100 -0.11600 33.86600
H  22.02100 1.35700 34.92600
H  23.26100 0.08500 35.26200
H  25.96000 3.39300 33.90500
H  27.05200 2.36100 34.96500
H  24.57200 2.45400 36.15200
H  24.74600 4.09800 35.58800
H  18.69000 1.37300 30.33700
H  19.12900 3.00700 29.94900
H  19.69800 2.25300 31.46800
H  17.83500 1.33200 26.71900
H  18.16600 2.62800 27.98900
H  18.35900 0.80100 28.16700
H  24.57400 2.40600 24.56500
H  26.60700 0.20000 24.67900
H  24.69000 -0.50200 23.90300
H  24.16200 0.95800 23.02400
H  23.16400 0.10700 24.28500
H  26.85900 2.48100 23.48200
H  28.15100 1.92500 24.63800
H  27.78900 3.94500 25.71800
H  25.96200 3.78200 25.80800
H  26.81100 4.40100 24.36400
H  31.39100 0.80500 29.27300
H  30.59700 0.58900 27.68500
H  30.70900 -0.76100 28.90300
H  28.41800 2.24300 33.41100
H  28.85400 -0.95400 36.41000
H  28.09300 0.55500 36.99200
H  29.82000 0.38900 37.18500

