158

Mg 9.31000 2.92700 27.76000
C  10.63800 1.59100 30.58000
C  7.21100 4.93100 29.75200
C  7.54200 3.95900 25.02300
C  10.86400 0.58000 25.83300
N  9.05400 3.17500 29.93600
C  9.70200 2.53000 30.90200
C  9.30300 3.12400 32.23800
C  8.10500 4.05800 31.90000
C  8.13000 4.07900 30.38600
C  6.69500 3.70800 32.56900
C  10.49600 3.83300 32.90600
C  10.96400 3.42900 34.28700
H  9.93200 3.18600 35.44500
N  7.66400 4.35900 27.37700
C  6.98400 5.04800 28.36900
C  5.96500 5.92000 27.71600
C  6.10000 5.69000 26.33800
C  7.11000 4.62500 26.19700
C  5.27000 7.09500 28.50600
C  5.41700 6.32400 25.11100
O  5.66200 6.08700 23.93200
C  4.26700 7.25000 25.46500
N  9.29000 2.42400 25.67400
C  8.45400 2.99100 24.72000
C  8.75500 2.37900 23.34800
C  9.90000 1.25800 23.60800
C  10.07000 1.41600 25.12000
C  7.53700 2.01300 22.58200
C  11.13500 1.41800 22.77000
C  11.32700 0.16600 21.92800
N  10.57300 1.40700 28.07900
C  11.21900 0.50600 27.17800
C  12.13600 -0.29600 27.90100
C  11.96800 0.09000 29.24900
C  10.96400 1.06400 29.30400
C  13.13400 -1.25100 27.36300
C  12.36000 -0.17800 30.58100
O  13.11400 -0.97700 31.00600
C  11.59100 0.81200 31.45600
C  10.87200 0.05000 32.66200
O  9.81400 -0.51300 32.64200
O  11.67400 0.12200 33.81300
C  11.37700 -0.68100 35.00000
H  6.78400 5.65800 30.44700
H  7.21500 4.51700 24.14300
H  11.33700 -0.19000 25.22000
H  8.96000 2.35000 32.92400
H  8.29900 5.04800 32.31400
H  6.50300 4.59000 33.18000
H  6.90700 2.89100 33.25900
H  5.94200 3.36700 31.85800
H  10.22200 4.88200 33.02100
H  11.35100 3.81800 32.23000
H  11.62000 4.21900 34.65200
H  11.59100 2.56900 34.05300
H  5.65000 8.06500 28.18600
H  5.45100 7.19400 29.57600
H  4.23600 7.10000 28.16000
H  3.47300 6.68700 25.95500
H  3.72500 7.61200 24.59200
H  4.58400 8.14400 26.00100
H  9.23400 3.21500 22.83900
H  9.35700 0.34200 23.37700
H  7.34300 1.05200 22.10500
H  7.54700 2.69900 21.73500
H  6.67500 2.22500 23.21400
H  12.04500 1.47800 23.36700
H  10.97500 2.28900 22.13400
H  11.19600 0.38500 20.86800
H  10.75400 -0.72600 22.18300
H  12.36100 -0.17600 21.96900
H  13.27900 -1.08400 26.29500
H  12.77700 -2.28000 27.39000
H  14.07300 -1.14700 27.90700
H  12.34200 1.49800 31.84700
H  11.53100 -0.03600 35.86600
H  12.12600 -1.45800 35.15300
H  10.33400 -0.98700 35.09000
Mg 40.41000 41.62400 27.57900
C  39.95400 44.06100 30.02000
C  41.10800 39.35000 29.97900
C  41.47500 39.37300 25.16500
C  40.43100 44.08700 25.19100
N  40.65200 41.80400 29.77100
C  40.27300 42.84100 30.58800
C  40.05400 42.42100 32.07800
C  40.67000 40.98300 32.07100
C  40.83000 40.66600 30.50300
C  41.92100 40.81500 33.01400
C  38.60600 42.52600 32.61200
C  38.44300 41.70700 33.85800
H  37.84800 42.36800 35.09900
N  41.16000 39.64500 27.54500
C  41.27800 38.83800 28.63300
C  41.60700 37.51000 28.33600
C  41.80000 37.43900 26.88200
C  41.44100 38.88600 26.45400
C  41.79600 36.44200 29.37800
C  42.14000 36.34700 25.95500
O  42.20300 36.50000 24.74100
C  42.35800 34.98200 26.39000
N  41.15900 41.78300 25.43900
C  41.33700 40.72700 24.64700
C  41.37500 41.08100 23.21400
C  40.80300 42.56700 23.22200
C  40.79700 42.82600 24.74400
C  42.66600 40.80300 22.43400
C  39.48100 42.59600 22.34200
C  38.09500 42.11900 22.97900
N  40.21400 43.67300 27.52600
C  40.19600 44.59100 26.47400
C  39.84600 45.90700 26.96100
C  39.77400 45.78000 28.36900
C  40.02700 44.40000 28.63000
C  39.87100 47.13400 26.09600
C  39.47400 46.46200 29.54100
O  39.24100 47.67400 29.76800
C  39.49400 45.42500 30.72400
C  40.48200 46.05600 31.70100
O  41.63500 46.37100 31.54900
O  39.90700 46.26400 32.89700
C  40.70500 46.61800 34.02900
H  41.23900 38.62900 30.78900
H  41.73800 38.67000 24.37200
H  40.20700 44.92500 24.52700
H  40.64500 43.13400 32.65400
H  39.99100 40.17500 32.34300
H  41.90500 39.94500 33.67100
H  42.06500 41.71800 33.60700
H  42.80300 40.77600 32.37400
H  37.90700 42.32900 31.79900
H  38.43500 43.57300 32.86200
H  39.34900 41.21000 34.20600
H  37.67600 40.97600 33.59900
H  42.84600 36.20600 29.54800
H  41.24800 35.55700 29.05400
H  41.40400 36.74200 30.35000
H  43.08100 34.91900 27.20300
H  42.76700 34.41600 25.55400
H  41.44000 34.44300 26.62400
H  40.60500 40.43800 22.78800
H  41.61600 43.21600 22.89500
H  43.37100 40.24800 23.05200
H  43.11900 41.77100 22.22000
H  42.42800 40.24600 21.52800
H  39.51400 42.02200 21.41600
H  39.32300 43.60700 21.96600
H  38.33400 42.10800 24.04300
H  37.88600 41.06100 22.81800
H  37.31000 42.83500 22.73600
H  38.85700 47.40200 25.79800
H  40.47200 47.04200 25.19100
H  40.30200 48.05800 26.48200
H  38.54000 45.36700 31.24800
H  41.51300 45.90000 34.16400
H  40.19500 46.65500 34.99200
H  41.19200 47.58300 33.88700

