158

Mg 8.13500 3.03300 28.46000
C  9.44300 1.36500 31.29800
C  5.92500 4.57600 30.19500
C  6.65200 3.97400 25.48500
C  10.06500 0.60100 26.53500
N  7.73000 2.83900 30.44800
C  8.34400 2.16500 31.50900
C  7.71500 2.54200 32.86700
C  6.54300 3.52100 32.41100
C  6.71300 3.65500 30.91300
C  5.07400 3.09800 32.89500
C  8.76400 3.19300 33.88000
C  8.10900 3.70000 35.15600
H  8.67100 3.30400 36.48500
N  6.66700 4.29000 27.91900
C  5.86400 4.91400 28.84800
C  4.99200 5.81100 28.18000
C  5.22600 5.64000 26.79800
C  6.20700 4.60800 26.64300
C  4.09400 6.70600 28.91300
C  4.59200 6.35900 25.62400
O  4.83400 5.98300 24.48900
C  3.47500 7.37800 25.84700
N  8.27500 2.38900 26.31400
C  7.62800 2.97500 25.30500
C  7.98300 2.44800 23.93800
C  9.25400 1.57000 24.32400
C  9.13700 1.46600 25.86600
C  6.92700 1.67600 23.15200
C  10.67200 1.91300 23.71300
C  11.60500 2.76100 24.60700
N  9.55600 1.49600 28.79600
C  10.34500 0.67200 27.94700
C  11.23500 -0.20500 28.64000
C  10.89400 0.04100 29.98200
C  9.92500 1.09300 29.99900
C  12.16900 -1.20300 28.14600
C  11.19800 -0.28200 31.37600
O  12.05500 -1.05300 31.84600
C  10.25700 0.56600 32.28900
C  9.40900 -0.40100 33.05200
O  8.59800 -1.23800 32.64500
O  9.60300 -0.07800 34.33800
C  8.71700 -0.83200 35.21300
H  5.45900 5.24200 30.92400
H  6.16000 4.20500 24.53800
H  10.75900 0.10300 25.85400
H  7.28200 1.61800 33.25000
H  6.65300 4.50900 32.85900
H  4.75000 3.88400 33.57800
H  5.12300 2.22600 33.54700
H  4.29400 2.98600 32.14300
H  9.18400 4.08600 33.41800
H  9.58700 2.49900 34.05600
H  7.06400 3.39200 35.11900
H  8.22500 4.78400 35.17100
H  4.33000 7.75100 28.71200
H  4.26100 6.72600 29.99000
H  3.05800 6.40500 28.75600
H  3.43000 7.94700 24.91800
H  3.85100 8.04600 26.62100
H  2.47300 6.95400 25.92400
H  8.32800 3.28400 23.33000
H  9.13900 0.54800 23.96400
H  5.98600 1.83100 23.67900
H  7.11300 0.60900 23.27500
H  6.82000 2.21500 22.21100
H  10.46400 2.53400 22.84300
H  11.16700 1.05900 23.24900
H  11.33200 3.07200 25.61500
H  11.83400 3.68700 24.07800
H  12.60600 2.33100 24.63700
H  12.68600 -0.85600 27.25200
H  11.61400 -2.12600 27.97500
H  12.83400 -1.42200 28.98200
H  10.84400 1.11000 33.02900
H  7.85600 -0.17600 35.34700
H  9.17500 -0.97500 36.19200
H  8.39400 -1.82800 34.90900
Mg -1.42000 34.43100 27.12600
C  -3.12600 32.72000 29.67600
C  -0.18600 36.53400 29.44300
C  -0.25300 36.33600 24.51600
C  -3.04900 32.41900 24.70100
N  -1.69200 34.68100 29.36800
C  -2.36000 33.81000 30.16200
C  -2.03000 34.14600 31.61900
C  -1.25100 35.44000 31.55700
C  -0.98800 35.58300 30.05000
C  -1.92400 36.66400 32.18000
C  -1.27200 32.98900 32.29200
C  -1.84200 32.47400 33.63900
H  -0.90500 32.54800 34.88600
N  -0.38200 36.12600 27.02700
C  0.07800 36.86000 28.05800
C  0.79600 37.99700 27.60700
C  0.70600 37.98900 26.20000
C  -0.01400 36.78100 25.84300
C  1.51100 38.90800 28.57900
C  1.23200 39.06100 25.19500
O  1.02500 39.01300 23.94300
C  2.02500 40.23200 25.55800
N  -1.67500 34.43400 24.86200
C  -1.02000 35.27400 24.04200
C  -1.15900 34.85200 22.56200
C  -2.14200 33.71200 22.60700
C  -2.28300 33.45000 24.11000
C  -1.36900 36.03100 21.53800
C  -1.70400 32.42100 21.74800
C  -0.67000 31.46800 22.41300
N  -2.70400 32.93100 27.06200
C  -3.27300 32.17300 26.05800
C  -4.17200 31.15600 26.62400
C  -4.09000 31.35300 27.94900
C  -3.22000 32.45100 28.23100
C  -4.95700 30.09800 25.85700
C  -4.69900 30.95600 29.26700
O  -5.43800 30.00800 29.46000
C  -4.05000 31.79900 30.38700
C  -5.11200 32.45500 31.21500
O  -5.68600 33.50000 30.92000
O  -5.44300 31.64200 32.29600
C  -6.42300 32.13200 33.30100
H  0.24200 37.09500 30.27600
H  0.29000 36.72000 23.65000
H  -3.60000 31.68200 24.11200
H  -2.98800 34.30000 32.11500
H  -0.27100 35.33700 32.02200
H  -2.83200 36.46700 32.75000
H  -2.17700 37.44000 31.45800
H  -1.16600 37.12400 32.81500
H  -0.21000 33.23000 32.32600
H  -1.31100 32.11900 31.63500
H  -2.15400 31.43100 33.69700
H  -2.79800 32.97900 33.77600
H  1.50400 38.67400 29.64400
H  1.00100 39.85400 28.40000
H  2.59100 38.88000 28.43400
H  1.27200 41.01400 25.65400
H  2.69200 40.42500 24.71800
H  2.64300 40.05800 26.43900
H  -0.13500 34.54700 22.34700
H  -3.07900 34.01800 22.14200
H  -0.56500 36.01300 20.80200
H  -1.31000 36.99800 22.03700
H  -2.37300 35.98200 21.11700
H  -1.38000 32.76100 20.76400
H  -2.62500 31.86700 21.56900
H  0.13700 32.00100 22.91700
H  -0.22200 30.84900 21.63600
H  -1.25300 30.91800 23.15200
H  -5.42000 29.59900 26.70800
H  -4.40600 29.43900 25.18600
H  -5.63900 30.65000 25.21100
H  -3.46900 31.15700 31.05000
H  -6.67700 31.34900 34.01600
H  -7.29000 32.64600 32.88500
H  -5.81600 32.74700 33.96500

