158

Mg 8.77900 3.78100 28.00600
C  10.04200 2.02000 30.80600
C  6.76700 5.55500 30.06500
C  7.25700 5.01600 25.33300
C  10.33200 1.39300 26.02600
N  8.44900 3.76000 30.16100
C  9.23900 3.10300 31.08700
C  8.97000 3.70500 32.51800
C  7.72700 4.65500 32.30500
C  7.65900 4.67700 30.74800
C  6.34900 4.14800 32.83700
C  10.24400 4.45700 33.02600
C  10.81800 4.08800 34.44400
H  10.74000 5.18100 35.54100
N  7.35600 5.22000 27.75000
C  6.65400 5.85400 28.74700
C  5.89000 6.88800 28.15800
C  6.12100 6.86900 26.76600
C  6.91900 5.65200 26.52300
C  5.05700 7.92100 28.99900
C  5.60700 7.87200 25.73400
O  5.74600 7.63200 24.53000
C  4.91300 9.08400 26.05800
N  8.69000 3.18600 25.93000
C  7.99900 3.83700 24.96400
C  8.21400 3.29200 23.54400
C  9.30200 2.19000 23.83900
C  9.47700 2.28900 25.36500
C  6.89600 2.67800 22.84100
C  10.67300 2.46000 23.17200
C  11.25000 1.34000 22.34200
N  9.95400 2.07800 28.24400
C  10.56900 1.25400 27.34800
C  11.49300 0.30700 28.07700
C  11.21100 0.55900 29.42100
C  10.37000 1.64300 29.44400
C  12.46500 -0.56100 27.35800
C  11.66000 0.16700 30.76500
O  12.53200 -0.64800 31.03000
C  10.90000 1.11800 31.75500
C  10.06600 0.33200 32.69400
O  8.93500 -0.04800 32.54000
O  10.72100 0.25700 33.88200
C  10.14500 -0.20800 35.16000
H  6.14100 6.18500 30.70100
H  6.68900 5.43200 24.49800
H  10.84700 0.72800 25.33000
H  8.65400 2.90600 33.19000
H  7.83500 5.66000 32.71300
H  5.69300 4.97300 33.11500
H  6.55200 3.52400 33.70700
H  5.84700 3.46700 32.14900
H  10.07900 5.53000 32.93200
H  11.08700 4.21700 32.37800
H  11.86200 3.78500 34.36700
H  10.37300 3.16000 34.80300
H  4.72700 7.52800 29.96000
H  4.15300 8.25000 28.48700
H  5.60400 8.86300 28.98600
H  5.40100 9.62500 26.86900
H  3.89800 8.90500 26.41300
H  4.82000 9.70500 25.16700
H  8.67000 4.03000 22.88400
H  8.89700 1.22300 23.54200
H  6.02400 2.90800 23.45300
H  6.93000 1.59700 22.69900
H  6.71400 3.22900 21.91900
H  11.46500 2.65300 23.89500
H  10.54700 3.29000 22.47600
H  11.95700 0.79900 22.97100
H  11.82200 1.67400 21.47800
H  10.45100 0.66400 22.03600
H  12.65600 -0.30900 26.31500
H  12.11600 -1.59200 27.30200
H  13.38300 -0.50600 27.94400
H  11.49000 1.74700 32.42200
H  9.26400 -0.80900 34.93300
H  9.91200 0.70600 35.70700
H  10.87400 -0.71900 35.78900
Mg 26.55000 49.77400 26.90600
C  24.35200 51.10800 29.53600
C  28.89700 49.19900 29.36600
C  28.68500 48.94900 24.53200
C  24.28000 50.96800 24.61200
N  26.56900 50.06600 29.20800
C  25.56600 50.55600 30.03800
C  26.03400 50.42900 31.44500
C  27.53600 49.88100 31.45000
C  27.69300 49.59200 29.94100
C  28.62500 50.75700 32.04900
C  25.04400 49.38100 32.20400
C  24.34100 49.97000 33.51100
H  24.30800 49.06900 34.75500
N  28.52900 49.26400 26.95200
C  29.31700 48.95800 28.01200
C  30.60100 48.45300 27.64900
C  30.57300 48.53500 26.20300
C  29.23100 48.91400 25.83700
C  31.68300 47.74700 28.52900
C  31.67500 48.19400 25.22300
O  31.46800 48.29800 24.04500
C  32.99000 47.63200 25.73700
N  26.47800 49.94300 24.87200
C  27.42100 49.37500 24.09000
C  26.98500 49.24500 22.59000
C  25.55500 49.97800 22.58600
C  25.37800 50.33100 24.10700
C  28.03500 49.94900 21.58400
C  24.42200 49.14200 21.97700
C  24.07800 49.43200 20.53700
N  24.66000 50.78500 26.98300
C  23.82700 51.05500 25.93000
C  22.62600 51.70200 26.44900
C  22.77200 51.63300 27.83700
C  24.02300 51.09700 28.16000
C  21.54600 52.39500 25.58700
C  22.12100 51.95800 29.09700
O  21.01700 52.47200 29.28500
C  23.09800 51.65600 30.22000
C  23.42700 52.84100 31.06000
O  24.13800 53.81800 30.76900
O  22.89900 52.70100 32.33700
C  23.07300 53.63300 33.34700
H  29.50900 48.74700 30.14900
H  29.24700 48.42800 23.75400
H  23.51000 51.18200 23.86700
H  25.97300 51.42500 31.88200
H  27.71900 48.91400 31.91900
H  29.27800 51.11300 31.25300
H  29.21600 50.14500 32.73000
H  28.20000 51.64200 32.52300
H  25.69100 48.57700 32.55400
H  24.23900 49.12700 31.51400
H  23.29700 50.21100 33.31100
H  24.68700 50.96000 33.80700
H  31.64300 46.68100 28.30100
H  31.42400 47.98200 29.56100
H  32.66200 48.17300 28.31000
H  33.51500 48.30700 26.41400
H  33.65600 47.33400 24.92800
H  32.68900 46.71100 26.23600
H  26.94100 48.19900 22.28700
H  25.72000 50.91800 22.05900
H  28.92200 50.40100 22.02700
H  27.74600 50.69500 20.84400
H  28.45700 49.19500 20.92000
H  23.51400 49.36100 22.53900
H  24.63700 48.07700 22.05900
H  23.09300 49.90000 20.55200
H  24.02400 48.50500 19.96600
H  24.83800 50.06800 20.08400
H  20.57700 52.18000 26.03900
H  21.61600 52.22000 24.51400
H  21.73100 53.45800 25.74000
H  22.72400 50.82400 30.81700
H  23.61200 54.55200 33.11700
H  23.36400 53.23200 34.31800
H  22.01700 53.89300 33.42500

