158

Mg 1.76300 -0.95800 43.97700
C  5.07400 -0.39900 43.12500
C  1.00000 2.00300 42.46300
C  -1.51300 -1.90000 44.08700
C  2.72000 -4.16900 44.87800
N  2.94000 0.50800 42.89500
C  4.24000 0.60700 42.60400
C  4.71600 1.85200 41.88100
C  3.41500 2.66900 42.00100
C  2.41300 1.69000 42.55800
C  3.51800 4.01100 42.74500
C  5.25200 1.54100 40.38400
C  6.47400 2.44200 40.03500
H  6.28500 3.38900 38.87700
N  0.01400 -0.12000 43.34800
C  -0.11800 1.15900 42.77600
C  -1.46200 1.53000 42.61400
C  -2.19000 0.42700 43.09200
C  -1.22500 -0.61500 43.51600
C  -1.96300 2.81600 41.93000
C  -3.71500 0.39100 43.13400
O  -4.43900 1.34900 42.82300
C  -4.50500 -0.86200 43.52600
N  0.77600 -2.76200 44.48000
C  -0.55700 -2.86900 44.49600
C  -1.03200 -4.31400 44.95600
C  0.26800 -5.04500 45.08900
C  1.31100 -3.98700 44.73300
C  -1.92900 -4.29700 46.26000
C  0.30400 -6.39000 44.18600
C  0.60000 -7.68100 44.98900
N  3.57500 -2.04300 44.17800
C  3.75000 -3.30400 44.69000
C  5.17200 -3.62500 44.68000
C  5.76400 -2.48500 44.10700
C  4.74200 -1.60000 43.74700
C  5.83100 -4.99400 45.18500
C  7.00700 -1.86400 43.71800
O  8.19100 -2.12300 43.84800
C  6.61400 -0.44900 43.00500
C  7.33300 0.50600 43.77200
O  7.05200 0.92400 44.87400
O  8.47000 0.75100 43.07100
C  9.20600 1.97900 43.48800
H  0.73500 3.02100 42.16800
H  -2.58200 -2.11600 44.03100
H  2.99000 -5.19600 45.13300
H  5.56300 2.32500 42.37800
H  2.98600 3.01300 41.06000
H  2.91900 4.04400 43.65600
H  3.08600 4.76800 42.09000
H  4.48900 4.22700 43.19000
H  4.48500 1.84300 39.67200
H  5.40700 0.46400 40.32500
H  7.34400 1.81400 39.84000
H  6.70400 3.05300 40.90700
H  -3.00500 3.03600 42.15900
H  -1.89100 2.83900 40.84300
H  -1.29600 3.59200 42.30400
H  -5.56900 -0.65000 43.41900
H  -4.31000 -0.93700 44.59600
H  -4.24700 -1.75400 42.95600
H  -1.69700 -4.70300 44.18400
H  0.35800 -5.19900 46.16400
H  -1.55100 -4.96000 47.03800
H  -2.84100 -4.77600 45.90400
H  -2.18100 -3.30100 46.62400
H  1.02500 -6.17600 43.39700
H  -0.66700 -6.54300 43.71500
H  1.43800 -8.23100 44.56300
H  -0.26300 -8.33300 45.12900
H  0.86700 -7.27500 45.96500
H  6.91400 -4.87500 45.18500
H  5.60700 -5.68200 44.37000
H  5.52700 -5.36000 46.16600
H  6.92700 -0.40900 41.96200
H  10.14100 1.66400 43.95000
H  8.68300 2.47800 44.30500
H  9.47000 2.71800 42.73200
Mg -5.21300 25.55100 26.77300
C  -3.74200 27.33500 29.55300
C  -6.73500 23.47300 29.10400
C  -5.99500 23.55900 24.14100
C  -3.28500 27.57600 24.59700
N  -5.24300 25.48900 29.02000
C  -4.62300 26.28400 29.93900
C  -4.85700 25.73400 31.43300
C  -5.72700 24.50900 31.28800
C  -5.91600 24.44500 29.71500
C  -5.10700 23.15900 31.89500
C  -5.36800 26.99400 32.17000
C  -6.46600 26.82800 33.26400
H  -6.14500 25.92800 34.48900
N  -6.17700 23.79300 26.65700
C  -6.80300 23.16100 27.70100
C  -7.61700 22.03700 27.13800
C  -7.38300 22.01100 25.73900
C  -6.45900 23.16600 25.46100
C  -8.45100 21.22100 28.06000
C  -7.96500 21.02800 24.64200
O  -7.57700 20.99500 23.48500
C  -8.86100 19.95700 25.14300
N  -4.75800 25.59800 24.65900
C  -5.29000 24.75300 23.73300
C  -4.95100 25.16000 22.30400
C  -4.04400 26.42600 22.49700
C  -4.04000 26.57600 23.99200
C  -4.23700 24.06400 21.49300
C  -4.64200 27.75700 21.88700
C  -3.57500 28.66200 21.31200
N  -3.77400 27.09600 26.93800
C  -3.15500 27.84000 26.00200
C  -2.26400 28.73200 26.68000
C  -2.52200 28.59200 28.07400
C  -3.44000 27.58200 28.19500
C  -1.23100 29.61600 26.04500
C  -2.09700 29.20000 29.36100
O  -1.31600 30.04800 29.62200
C  -2.83700 28.32800 30.39300
C  -1.77000 27.63300 31.05600
O  -0.95700 26.94000 30.51400
O  -1.93400 27.75000 32.43500
C  -1.34500 26.76400 33.34200
H  -7.19400 22.77100 29.80200
H  -6.25100 23.04600 23.21200
H  -2.70800 28.23800 23.94800
H  -3.87000 25.42800 31.77800
H  -6.67500 24.62300 31.81300
H  -4.46700 23.47900 32.71800
H  -4.47400 22.64100 31.17400
H  -5.82000 22.41100 32.24400
H  -5.64600 27.75700 31.44300
H  -4.54100 27.40500 32.74800
H  -7.41200 26.45300 32.87500
H  -6.39900 27.86500 33.59400
H  -9.38500 20.92900 27.58000
H  -8.82400 21.75300 28.93600
H  -7.90300 20.30700 28.28600
H  -8.79200 19.09900 24.47500
H  -9.82400 20.45900 25.22700
H  -8.45000 19.57100 26.07600
H  -5.84600 25.38700 21.72500
H  -3.00700 26.19900 22.25000
H  -4.84800 23.66100 20.68500
H  -4.15900 23.17500 22.11900
H  -3.18100 24.30300 21.36700
H  -5.17800 28.30800 22.65900
H  -5.42100 27.55000 21.15300
H  -3.78100 28.87500 20.26300
H  -2.62400 28.12900 21.28600
H  -3.52600 29.58100 21.89700
H  -1.73400 30.54800 25.78800
H  -0.99400 29.24200 25.04900
H  -0.32300 29.80100 26.61800
H  -3.39800 28.89700 31.13400
H  -1.01200 25.83400 32.88200
H  -2.16100 26.47500 34.00400
H  -0.52100 27.25500 33.86100

