158

Mg 23.86300 -5.04100 45.18300
C  25.78300 -2.53200 43.71500
C  21.29500 -4.15900 43.11600
C  22.31100 -7.96700 45.90100
C  26.90500 -6.32800 46.66400
N  23.63000 -3.58200 43.52300
C  24.49200 -2.62200 43.14200
C  23.87700 -1.59400 42.15000
C  22.38700 -2.02700 42.15500
C  22.42500 -3.36900 43.01100
C  21.43100 -0.99700 42.76800
C  24.55600 -1.69000 40.79100
C  24.14800 -0.66400 39.72300
H  24.52600 -0.97700 38.18900
N  22.01300 -5.92100 44.69100
C  21.12800 -5.35900 43.81200
C  19.97700 -6.32700 43.61600
C  20.25300 -7.46100 44.47400
C  21.55300 -7.14600 45.08200
C  18.82300 -5.97800 42.71600
C  19.32500 -8.60400 44.68100
O  18.32800 -8.68100 44.00600
C  19.53200 -9.70500 45.70800
N  24.50500 -6.80400 46.25700
C  23.63600 -7.84800 46.38000
C  24.28200 -8.98700 47.21900
C  25.69400 -8.44400 47.50100
C  25.77800 -7.21200 46.66700
C  23.35500 -9.26400 48.47200
C  26.91800 -9.41000 47.05400
C  28.09100 -9.55900 47.98500
N  25.89200 -4.49100 45.31900
C  26.94200 -5.07300 46.05200
C  28.07600 -4.13200 46.01400
C  27.73900 -3.13700 45.07100
C  26.33300 -3.43600 44.67600
C  29.50400 -4.28300 46.75700
C  28.18700 -1.93400 44.37400
O  29.22900 -1.34200 44.45000
C  26.95000 -1.51000 43.47100
C  26.61500 -0.16200 43.86600
O  25.79500 0.14200 44.71000
O  27.45200 0.74100 43.24300
C  27.19900 2.12400 43.58300
H  20.44400 -3.92500 42.47400
H  21.81500 -8.88000 46.23600
H  27.75900 -6.76800 47.18500
H  23.98500 -0.55800 42.47200
H  22.12700 -2.29900 41.13200
H  21.43300 0.03500 42.41600
H  21.46600 -0.90100 43.85400
H  20.43600 -1.40900 42.60200
H  24.34900 -2.71900 40.49500
H  25.55500 -1.33500 41.03900
H  24.87700 0.13000 39.88500
H  23.18500 -0.16900 39.84300
H  18.99300 -6.39600 41.72400
H  18.69100 -4.89800 42.64900
H  17.90600 -6.36500 43.16100
H  18.77500 -10.46500 45.89800
H  19.61800 -9.21600 46.67900
H  20.41100 -10.30600 45.47500
H  24.21900 -9.94700 46.70600
H  25.70000 -8.26900 48.57600
H  22.47100 -8.62600 48.50700
H  23.89200 -9.06600 49.40000
H  23.08800 -10.30800 48.63900
H  27.29600 -9.04800 46.09800
H  26.50000 -10.39000 46.82200
H  28.25100 -10.62200 48.16300
H  27.90400 -9.14500 48.97600
H  28.99100 -9.13500 47.54000
H  30.32100 -4.43200 46.05200
H  29.38000 -5.07000 47.50000
H  29.75500 -3.37200 47.30100
H  27.36100 -1.64100 42.47000
H  26.27500 2.36600 43.05700
H  28.05300 2.68000 43.19800
H  27.27300 2.30200 44.65600
Mg 47.26700 25.73600 28.43900
C  48.30400 27.80900 31.03000
C  46.16300 23.47100 31.01500
C  46.69500 23.44100 26.15800
C  48.88300 27.75800 26.20100
N  47.19000 25.66500 30.78200
C  47.58000 26.67200 31.55900
C  47.26000 26.39600 33.02000
C  46.78000 24.93600 33.07500
C  46.66800 24.64900 31.54200
C  47.61600 23.90700 33.74300
C  46.23300 27.38300 33.60900
C  46.65700 27.81700 35.04500
H  45.48000 27.98100 36.03300
N  46.48100 23.73500 28.56600
C  46.07600 22.98500 29.66900
C  45.67900 21.66000 29.22700
C  45.73200 21.65100 27.84300
C  46.30600 22.98200 27.44700
C  45.23000 20.65100 30.19700
C  45.25300 20.51600 26.83900
O  45.31400 20.63900 25.63000
C  44.89700 19.13900 27.40600
N  47.92500 25.48700 26.51700
C  47.45700 24.49800 25.74300
C  47.71100 24.77400 24.24700
C  48.21400 26.30000 24.31600
C  48.34100 26.57200 25.76700
C  48.84400 23.86900 23.64800
C  47.26400 27.33000 23.62200
C  47.76500 28.27300 22.52500
N  48.26200 27.46600 28.53500
C  48.90600 28.17800 27.50700
C  49.60500 29.32100 28.04200
C  49.32300 29.24200 29.44900
C  48.58800 28.07000 29.67900
C  50.53400 30.34000 27.30200
C  49.57500 29.85100 30.69200
O  50.16900 30.83500 30.89700
C  48.97700 28.96000 31.70100
C  50.04500 28.47900 32.52600
O  50.86000 27.63800 32.20600
O  49.98200 28.98500 33.81900
C  50.72400 28.30700 34.82900
H  45.75500 22.79000 31.76500
H  46.29500 22.82900 25.34700
H  49.35700 28.38700 25.44500
H  48.15200 26.42500 33.64600
H  45.76700 24.90400 33.47600
H  47.84500 23.00800 33.17000
H  46.95800 23.53200 34.52700
H  48.53000 24.28800 34.19800
H  45.19500 27.05000 33.61400
H  46.12000 28.20300 32.90000
H  47.19800 28.74600 34.86300
H  47.53100 27.35200 35.50100
H  44.21000 20.33400 29.97900
H  45.34900 21.03300 31.21100
H  45.86400 19.76400 30.20000
H  45.66000 18.59300 27.95900
H  44.53600 18.50700 26.59500
H  44.02000 19.31100 28.02900
H  46.78300 24.64500 23.69000
H  49.23500 26.42100 23.95400
H  49.69400 24.54500 23.55300
H  48.60400 23.43900 22.67600
H  49.15500 23.14600 24.40100
H  46.70500 27.87600 24.38200
H  46.56300 26.72000 23.05300
H  48.85400 28.26200 22.48500
H  47.41600 29.28100 22.74900
H  47.33000 28.06800 21.54700
H  49.86500 31.08200 26.86600
H  51.11900 29.99200 26.45100
H  51.24700 30.83100 27.96400
H  48.44100 29.60600 32.39600
H  49.99200 28.27500 35.63500
H  51.51500 29.00600 35.10200
H  51.12800 27.32400 34.58400

