158

Mg 35.02100 48.21500 26.19200
C  35.13900 46.20900 29.04200
C  34.06400 50.87600 28.03300
C  34.43500 49.90900 23.31800
C  35.49800 45.19900 24.31500
N  34.51300 48.50300 28.23900
C  34.74600 47.56700 29.26800
C  34.56900 48.22300 30.67400
C  33.91000 49.60700 30.27500
C  34.18400 49.69700 28.74600
C  32.35800 49.72700 30.56400
C  35.91600 48.43000 31.39500
C  36.11200 48.11600 32.91600
H  36.24900 49.29000 33.88700
N  34.40900 50.14300 25.79400
C  34.04300 51.08900 26.61700
C  33.62600 52.35100 26.02000
C  33.81900 52.06300 24.61100
C  34.23500 50.63900 24.54400
C  32.95600 53.46900 26.74900
C  33.49100 52.95900 23.39400
O  33.54300 52.55200 22.24900
C  33.02700 54.38700 23.48400
N  34.71800 47.61500 24.18000
C  34.68200 48.50900 23.18200
C  34.56400 47.83600 21.85400
C  35.10900 46.43300 22.09400
C  35.19600 46.35700 23.63700
C  33.23000 47.71400 21.08200
C  36.51500 46.12100 21.46600
C  36.77800 44.66700 20.91100
N  35.27500 46.10600 26.54500
C  35.44900 44.99000 25.66600
C  35.73800 43.77600 26.43600
C  35.65500 44.20000 27.78100
C  35.32300 45.65400 27.78400
C  36.16100 42.45200 25.89800
C  35.77500 43.82000 29.24600
O  36.23300 42.80900 29.79300
C  35.42400 45.11700 30.06900
C  34.29000 44.79300 30.97600
O  33.20400 44.33400 30.59600
O  34.64600 44.90800 32.34400
C  33.51400 44.79600 33.27400
H  33.93100 51.74900 28.67500
H  34.30200 50.37800 22.34100
H  35.68300 44.34900 23.65500
H  33.91400 47.65900 31.33900
H  34.49200 50.37900 30.77900
H  32.33700 50.62500 31.18100
H  32.00000 48.74100 30.86000
H  31.73100 50.11400 29.76100
H  36.39200 49.40500 31.29200
H  36.58700 47.82200 30.79000
H  37.06900 47.59300 32.92100
H  35.24800 47.54600 33.25700
H  33.71400 54.18500 27.06900
H  32.42900 53.07800 27.61900
H  32.24100 53.99600 26.11700
H  32.00200 54.49900 23.83600
H  33.31600 54.83200 22.53200
H  33.64900 54.91600 24.20700
H  35.30000 48.40400 21.28500
H  34.37900 45.70400 21.74300
H  32.36600 48.16400 21.57100
H  32.95100 46.72100 20.73000
H  33.37900 48.24600 20.14200
H  37.17700 46.32400 22.30700
H  36.75300 46.77100 20.62400
H  35.81400 44.30300 20.55500
H  37.19000 44.07200 21.72700
H  37.54500 44.56100 20.14400
H  36.65000 42.74900 24.97000
H  35.32600 41.77200 25.73200
H  37.04800 42.14300 26.45000
H  36.23100 45.47300 30.71100
H  32.71800 45.50100 33.03200
H  34.00400 44.92100 34.24000
H  33.12600 43.77800 33.30700
Mg -11.60400 38.19300 43.45200
C  -9.03500 35.97900 42.46100
C  -10.41200 40.46800 41.31700
C  -14.50700 39.93600 43.78400
C  -13.17200 35.39200 44.90600
N  -9.83900 38.15500 42.05200
C  -8.92700 37.19500 41.77000
C  -7.89700 37.70400 40.85100
C  -8.25900 39.21500 40.58800
C  -9.59100 39.32700 41.41300
C  -7.20800 40.30400 40.77900
C  -7.85400 36.82700 39.51200
C  -6.68000 35.85000 39.39200
H  -5.49000 36.39000 38.58600
N  -12.25100 39.94800 42.74100
C  -11.61100 40.81300 41.91800
C  -12.29800 42.07000 41.81600
C  -13.48800 41.94500 42.56800
C  -13.42900 40.55800 43.12500
C  -11.76400 43.26300 40.99400
C  -14.59200 42.94900 42.64800
O  -14.40500 43.94000 41.94900
C  -15.80900 42.87100 43.51000
N  -13.58500 37.72300 44.15500
C  -14.58500 38.62900 44.17500
C  -15.85900 38.01600 44.74200
C  -15.39000 36.60600 45.12700
C  -13.97300 36.58000 44.69800
C  -16.44900 38.81500 45.90300
C  -16.12900 35.48600 44.45100
C  -16.36800 34.10300 45.25900
N  -11.17500 36.26400 43.78200
C  -11.77700 35.26200 44.56200
C  -11.01900 34.05700 44.63600
C  -9.84800 34.32800 43.95200
C  -10.05500 35.58400 43.33800
C  -11.24300 32.88600 45.46500
C  -8.57000 33.82000 43.56600
O  -7.94300 32.78800 43.85900
C  -7.97200 34.79500 42.52300
C  -6.62900 35.15300 42.97400
O  -5.71400 34.34400 42.99800
O  -6.44900 36.43500 43.44700
C  -5.07100 36.71300 43.97100
H  -10.01800 41.19000 40.59900
H  -15.48400 40.41300 43.67700
H  -13.59700 34.51500 45.40000
H  -6.92800 37.64200 41.34700
H  -8.72900 39.33500 39.61200
H  -7.16400 41.00400 39.94400
H  -6.25600 39.81600 40.98700
H  -7.42500 41.04200 41.55100
H  -7.78100 37.60500 38.75300
H  -8.78000 36.26400 39.39700
H  -7.06800 34.88700 39.06200
H  -6.24100 35.68700 40.37600
H  -12.27700 43.27000 40.03300
H  -10.69400 43.10000 40.86700
H  -11.91600 44.13300 41.63400
H  -16.54500 42.20600 43.05700
H  -16.27400 43.85600 43.55500
H  -15.51800 42.60700 44.52600
H  -16.60600 37.98700 43.94900
H  -15.43400 36.31000 46.17500
H  -16.64100 38.29600 46.84300
H  -17.40000 39.26400 45.61600
H  -15.79200 39.62200 46.22800
H  -15.63300 35.19500 43.52500
H  -17.14800 35.73800 44.15800
H  -15.99400 33.28500 44.64400
H  -17.42700 33.89200 45.40900
H  -15.89100 34.28400 46.22200
H  -12.02200 33.08700 46.20100
H  -10.37500 32.66800 46.08700
H  -11.38400 32.03800 44.79500
H  -7.92600 34.28800 41.56000
H  -4.43800 36.80100 43.08700
H  -4.57100 35.92400 44.53300
H  -5.09800 37.65800 44.51300

