158

Mg 46.96000 17.01700 28.39600
C  44.95300 16.69600 31.07300
C  49.18700 18.83800 30.56200
C  48.72600 17.87700 25.67400
C  44.69500 15.43100 26.40500
N  47.06100 17.62800 30.56500
C  46.09200 17.34800 31.46600
C  46.51000 17.74400 32.90500
C  47.71700 18.72500 32.66400
C  48.09200 18.29500 31.21400
C  47.49100 20.30600 32.86400
C  46.80300 16.39200 33.71500
C  46.89400 16.48400 35.27400
H  46.47100 17.74200 35.97400
N  48.73600 18.08000 28.14200
C  49.44300 18.75200 29.15700
C  50.68700 19.26500 28.53400
C  50.64300 19.01900 27.07600
C  49.33500 18.32700 26.92000
C  51.76900 19.89200 29.42500
C  51.64500 19.46600 25.98400
O  51.51500 19.06600 24.86400
C  52.69100 20.55800 26.25500
N  46.85400 16.65100 26.37900
C  47.67100 17.05700 25.37700
C  47.36400 16.42200 24.02600
C  46.07500 15.50300 24.32400
C  45.89200 15.82000 25.81500
C  47.13400 17.52600 22.87000
C  46.40600 14.04600 24.17500
C  45.67100 13.36200 23.05200
N  45.06600 16.29600 28.55000
C  44.30800 15.55400 27.71600
C  43.13600 15.12500 28.42100
C  43.33100 15.56600 29.70800
C  44.53100 16.25600 29.75200
C  42.08000 14.42400 27.80000
C  42.80300 15.53200 30.99700
O  41.77600 14.98800 31.38300
C  43.76100 16.22200 31.94100
C  43.11700 17.29700 32.62800
O  42.61400 18.28700 32.04900
O  43.05200 16.99700 33.96000
C  42.16200 17.70200 34.81900
H  49.83700 19.48200 31.15700
H  49.25900 18.23800 24.79200
H  43.91600 14.89500 25.85900
H  45.64300 18.23900 33.34100
H  48.60300 18.49700 33.25600
H  48.30000 20.88800 33.30600
H  46.64600 20.48000 33.53000
H  47.17200 20.79500 31.94300
H  47.77700 16.13600 33.29600
H  46.12300 15.55500 33.55900
H  47.94200 16.30700 35.51600
H  46.24800 15.67300 35.60900
H  51.47600 20.89000 29.75300
H  52.71800 20.11600 28.93800
H  51.87800 19.27400 30.31600
H  52.87700 21.04300 25.29600
H  53.62700 20.14400 26.62900
H  52.37600 21.33200 26.95500
H  48.13700 15.76700 23.62500
H  45.15400 15.64200 23.75700
H  47.38000 18.49900 23.29500
H  46.08900 17.61700 22.57200
H  47.80700 17.34600 22.03100
H  46.26700 13.52400 25.12200
H  47.45300 13.85700 23.93800
H  45.04900 14.02800 22.45400
H  45.14500 12.53400 23.52700
H  46.34900 12.90800 22.32900
H  41.41900 14.84800 27.04400
H  41.31900 14.02200 28.46900
H  42.57300 13.60100 27.28300
H  44.13100 15.46500 32.63200
H  42.38800 18.76800 34.81200
H  42.29600 17.44200 35.86800
H  41.12000 17.68900 34.49900
Mg 48.82200 45.14000 43.00900
C  45.48300 45.51300 41.89000
C  48.48500 41.70500 42.79200
C  52.18500 44.84200 43.44300
C  49.17900 48.73400 42.88300
N  47.17900 43.84800 42.29600
C  45.89500 44.12200 41.92000
C  45.01200 42.85400 41.66200
C  46.02400 41.74400 42.12500
C  47.31700 42.50000 42.44500
C  45.44000 40.91700 43.32900
C  44.58000 42.60100 40.15500
C  45.54500 43.04800 39.08100
H  45.48000 42.18300 37.84500
N  50.17400 43.50400 43.01800
C  49.84100 42.18700 43.00200
C  51.03400 41.45700 42.89100
C  52.16200 42.25400 43.17100
C  51.53900 43.59000 43.25200
C  51.02600 39.99600 42.48900
C  53.54600 41.82000 43.23600
O  53.87200 40.62900 43.23300
C  54.78700 42.75700 43.23000
N  50.44400 46.55700 42.95900
C  51.66800 46.19200 43.39200
C  52.62600 47.40600 43.59500
C  51.71800 48.61000 43.39100
C  50.37700 47.88100 43.02800
C  53.49400 47.49900 44.89300
C  52.14700 49.58300 42.21300
C  52.07000 50.99200 42.58500
N  47.54800 46.89200 42.64000
C  47.84200 48.26500 42.65600
C  46.53600 48.97600 42.35700
C  45.68700 47.92000 42.10700
C  46.26200 46.69400 42.26000
C  46.33500 50.51200 42.24600
C  44.31700 47.66600 41.67200
O  43.41600 48.47100 41.49300
C  44.13100 46.05800 41.43500
C  42.96700 45.48700 42.25100
O  42.29400 44.51100 41.92700
O  42.67400 46.17900 43.38600
C  41.68000 45.57700 44.28600
H  48.39700 40.62200 42.90000
H  53.20700 44.79000 43.82600
H  49.19100 49.82200 42.97200
H  44.08800 42.90700 42.23800
H  46.11300 41.01500 41.32000
H  45.63500 39.92000 42.93400
H  44.40000 41.18300 43.51900
H  46.05900 41.04300 44.21700
H  43.62600 43.12800 40.17900
H  44.36000 41.54700 39.98300
H  46.56600 43.13000 39.45500
H  45.27700 44.08100 38.86000
H  51.27600 39.97000 41.42800
H  50.07100 39.50300 42.67200
H  51.62000 39.31700 43.10100
H  54.49200 43.62000 42.63400
H  55.72600 42.32900 42.87900
H  54.90600 43.03300 44.27800
H  53.38200 47.37700 42.81000
H  51.62800 49.15100 44.33300
H  53.13200 48.23500 45.61000
H  54.49900 47.73200 44.54000
H  53.53600 46.49800 45.32200
H  51.61500 49.38600 41.28200
H  53.19000 49.36300 41.98600
H  51.46300 51.18200 43.47000
H  51.70200 51.55500 41.72800
H  53.10100 51.30800 42.74200
H  46.47500 50.83400 41.21400
H  46.95100 51.16900 42.86100
H  45.31200 50.72100 42.55900
H  44.00200 45.78700 40.38700
H  40.69200 45.74300 43.85600
H  41.74400 46.02000 45.28000
H  41.78200 44.49200 44.30000

