158

Mg -1.30900 17.67800 27.20900
C  -2.04200 15.44800 29.91400
C  -2.08800 20.30700 29.23400
C  -1.20000 19.68200 24.52100
C  -1.12200 14.80200 25.18300
N  -1.99000 17.84300 29.35300
C  -2.09000 16.83400 30.28300
C  -2.30300 17.43400 31.63000
C  -2.54800 18.96100 31.44300
C  -2.17100 19.06700 29.86700
C  -3.94300 19.54100 31.78300
C  -1.17700 17.11400 32.67100
C  -1.55800 16.60500 34.07600
H  -0.39200 16.74200 35.09200
N  -1.53600 19.73000 26.91900
C  -1.74800 20.62100 27.89500
C  -1.79900 21.97900 27.33500
C  -1.44200 21.84800 25.98300
C  -1.41300 20.34300 25.73800
C  -2.17200 23.23900 28.05800
C  -1.32200 22.85500 24.82700
O  -1.01100 22.62000 23.64200
C  -1.46400 24.31100 25.19800
N  -1.09600 17.33700 25.17000
C  -1.06500 18.29400 24.26600
C  -0.81400 17.77900 22.83600
C  -0.47800 16.28200 23.15000
C  -0.87500 16.10800 24.59100
C  -2.02400 18.01200 21.90500
C  1.01900 15.85600 22.84200
C  1.98900 16.55800 23.75800
N  -1.52900 15.60500 27.45100
C  -1.50800 14.55700 26.52900
C  -1.77000 13.28100 27.16200
C  -2.01200 13.61100 28.47500
C  -1.89100 15.04600 28.59300
C  -1.78700 11.96200 26.42300
C  -2.33600 13.05600 29.71700
O  -2.46300 11.82000 29.98800
C  -2.52700 14.25400 30.68200
C  -1.61100 13.88500 31.86600
O  -0.35500 13.86700 31.88500
O  -2.36200 13.37600 32.83900
C  -1.61300 12.39300 33.71500
H  -2.17400 21.13300 29.94300
H  -1.19200 20.36100 23.66500
H  -1.06500 13.97600 24.47100
H  -3.21400 17.04400 32.08400
H  -1.86100 19.52500 32.07400
H  -4.70900 18.82300 32.07500
H  -4.27400 19.96100 30.83300
H  -3.79300 20.28200 32.56800
H  -0.48500 17.93600 32.85500
H  -0.55000 16.41700 32.11500
H  -1.82700 15.54900 34.04700
H  -2.37500 17.29400 34.28600
H  -1.18900 23.66100 28.26400
H  -2.80500 23.04500 28.92400
H  -2.73100 23.95700 27.45700
H  -2.51100 24.60800 25.26000
H  -1.08500 24.95300 24.40300
H  -0.85900 24.32100 26.10500
H  -0.04900 18.47400 22.48800
H  -1.11300 15.57100 22.62200
H  -1.65800 17.95900 20.87900
H  -2.44200 18.98400 22.16300
H  -2.70800 17.16300 21.90600
H  1.15100 16.16900 21.80700
H  1.15200 14.78000 22.95500
H  1.53800 17.06200 24.61300
H  2.49300 17.29300 23.13100
H  2.76000 15.90400 24.16400
H  -0.86500 11.41500 26.61800
H  -1.93400 12.25300 25.38300
H  -2.67400 11.37500 26.65900
H  -3.60400 14.31700 30.83600
H  -1.28600 11.49200 33.19600
H  -2.26500 11.94300 34.46400
H  -0.75400 12.84700 34.20800
Mg 47.79800 24.52200 27.41200
C  48.94300 26.69200 29.82800
C  47.63000 22.06800 29.93400
C  47.02100 22.19600 25.08600
C  49.05700 26.57100 24.96700
N  48.07600 24.51500 29.69000
C  48.52000 25.52000 30.46800
C  48.38600 25.14600 31.98200
C  48.11600 23.61100 31.94000
C  47.92900 23.35200 30.47400
C  49.19500 22.70300 32.50900
C  47.27900 25.95400 32.72600
C  47.70700 26.56900 34.14200
H  46.68100 26.33800 35.37500
N  47.26200 22.47600 27.54500
C  47.25300 21.62600 28.63300
C  46.80900 20.32200 28.28600
C  46.36300 20.39600 26.91200
C  46.83600 21.73800 26.43400
C  46.96100 19.20700 29.30000
C  45.68200 19.39000 26.06000
O  45.46500 19.67500 24.86700
C  45.17600 18.00300 26.56100
N  48.27100 24.24600 25.22400
C  47.54700 23.31300 24.52100
C  47.76800 23.51500 23.00700
C  48.25300 25.01900 23.00000
C  48.58900 25.31000 24.45700
C  48.77000 22.47600 22.45000
C  47.20700 26.09700 22.48100
C  47.49800 26.49200 21.07500
N  48.58700 26.36800 27.30600
C  49.01100 27.07100 26.24600
C  49.62500 28.34500 26.72500
C  49.46800 28.26600 28.14500
C  48.92500 27.00300 28.42400
C  50.16100 29.40500 25.82700
C  49.62800 28.92200 29.38900
O  50.11000 29.99400 29.68300
C  49.22200 27.99700 30.53100
C  50.26300 27.92800 31.59900
O  51.34300 27.41500 31.57300
O  49.91400 28.82500 32.57700
C  50.70800 28.90400 33.82400
H  47.41600 21.49400 30.83800
H  46.80400 21.40100 24.36900
H  49.37400 27.28500 24.20400
H  49.36600 25.35900 32.40700
H  47.23600 23.35000 32.52900
H  49.83200 22.35300 31.69700
H  48.64100 21.91200 33.01400
H  49.77400 23.15900 33.31300
H  46.40400 25.33100 32.91400
H  46.95300 26.78500 32.10200
H  47.68600 27.65000 34.00700
H  48.72400 26.31800 34.44400
H  46.01200 18.99100 29.79200
H  47.71100 19.52000 30.02600
H  47.38300 18.33600 28.79800
H  45.93300 17.23000 26.69200
H  44.55500 17.65500 25.73600
H  44.58700 18.33100 27.41700
H  46.79800 23.39900 22.52300
H  49.19800 25.11800 22.46500
H  48.54100 22.39400 21.38700
H  48.70000 21.52200 22.97200
H  49.77500 22.78500 22.73600
H  47.26700 26.98600 23.10900
H  46.17300 25.75600 22.53800
H  48.31600 26.04100 20.51300
H  47.57800 27.57800 21.01400
H  46.64700 26.15400 20.48300
H  49.46400 29.67000 25.03200
H  51.05200 29.06400 25.30100
H  50.38800 30.22200 26.51200
H  48.32100 28.42000 30.97600
H  50.02100 29.01300 34.66300
H  51.08000 29.92800 33.81500
H  51.51500 28.20200 34.03500

