158

Mg 17.64300 -2.82600 27.60600
C  16.31700 -0.99000 30.28900
C  19.83700 -4.34000 29.87400
C  19.42500 -3.97300 25.07100
C  15.64100 -0.85200 25.41300
N  18.07500 -2.58600 29.76900
C  17.33700 -1.85700 30.67900
C  17.74800 -2.12800 32.09100
C  19.08500 -2.97100 31.88700
C  18.99000 -3.37700 30.37100
C  20.39000 -2.20500 32.27600
C  16.65900 -2.85700 32.94100
C  16.74300 -2.53400 34.48100
H  18.02100 -2.03800 35.22100
N  19.23500 -4.17900 27.53500
C  19.96700 -4.77200 28.51700
C  20.73900 -5.82100 27.89500
C  20.76600 -5.65200 26.48300
C  19.74600 -4.56200 26.32200
C  21.51500 -6.84900 28.76100
C  21.53500 -6.41900 25.32700
O  21.39700 -6.13800 24.15300
C  22.30000 -7.67000 25.67400
N  17.62700 -2.34200 25.61800
C  18.44500 -2.98900 24.68500
C  18.37200 -2.31100 23.27700
C  16.85400 -1.77000 23.43000
C  16.69300 -1.66000 24.88300
C  19.42100 -1.14700 22.97600
C  15.72500 -2.73100 22.89100
C  14.60600 -2.09300 22.02100
N  16.20600 -1.23000 27.75700
C  15.42700 -0.57300 26.80100
C  14.47600 0.23200 27.45300
C  14.80200 0.10200 28.85300
C  15.91200 -0.74600 28.98700
C  13.62400 1.23500 26.82900
C  14.66800 0.72800 30.15600
O  14.13100 1.79000 30.44000
C  15.43500 -0.09800 31.18800
C  16.14000 0.85600 32.07600
O  17.06000 1.57900 31.76100
O  15.44700 1.02400 33.32000
C  15.80600 2.20600 34.08300
H  20.33400 -4.84200 30.70700
H  19.99600 -4.33100 24.21200
H  14.80100 -0.49600 24.81200
H  17.94200 -1.14500 32.51900
H  18.98400 -3.81100 32.57500
H  21.01700 -2.77900 32.95800
H  20.05300 -1.40900 32.94000
H  20.89500 -1.75100 31.42300
H  16.74700 -3.94300 32.91300
H  15.70800 -2.49700 32.54700
H  16.32900 -3.34800 35.07400
H  16.13300 -1.63400 34.55300
H  22.50700 -7.01300 28.34000
H  20.87700 -7.71400 28.94200
H  21.81200 -6.55000 29.76600
H  22.46700 -8.06500 24.67200
H  21.68900 -8.42300 26.17100
H  23.24200 -7.37900 26.13900
H  18.37800 -3.06800 22.49300
H  16.89700 -0.77600 22.98500
H  19.04700 -0.51300 22.17200
H  20.46500 -1.43500 22.84800
H  19.50500 -0.57500 23.90000
H  15.24600 -3.30800 23.68200
H  16.28700 -3.40400 22.24300
H  14.75700 -1.03500 21.80300
H  13.65900 -2.24000 22.54100
H  14.68200 -2.75000 21.15500
H  13.39100 1.91800 27.64500
H  12.65900 0.87900 26.46600
H  14.12700 1.70000 25.98000
H  14.75400 -0.52700 31.92300
H  15.09900 2.34700 34.90100
H  15.78100 3.15900 33.55400
H  16.79500 2.22300 34.54200
Mg 25.85700 0.37000 28.75300
C  27.76800 0.06600 31.66200
C  23.07500 0.47100 30.70100
C  24.07200 0.64000 25.88700
C  28.66700 -0.54400 26.80200
N  25.50900 0.45700 30.94500
C  26.41100 0.36000 31.94600
C  25.80200 0.46500 33.36700
C  24.29700 0.65100 33.06700
C  24.25300 0.54700 31.51400
C  23.48900 -0.50600 33.72600
C  26.42900 1.53000 34.20000
C  26.91700 1.13200 35.58400
H  26.65500 2.06900 36.82000
N  23.85000 0.53500 28.33600
C  22.83900 0.51100 29.27200
C  21.53900 0.55500 28.56300
C  21.83500 0.77300 27.16700
C  23.25600 0.75900 27.04900
C  20.13200 0.52100 29.25900
C  20.80300 1.07500 25.96500
O  21.14600 1.29800 24.79100
C  19.36800 1.25700 26.33300
N  26.37100 0.04600 26.60900
C  25.45300 0.34000 25.68100
C  26.00700 0.33100 24.23900
C  27.56400 -0.03500 24.58900
C  27.54500 -0.23500 26.07700
C  25.47100 -0.68000 23.18300
C  28.48500 1.10900 24.26600
C  29.88200 0.68700 23.69000
N  27.86200 0.00500 29.12800
C  28.93500 -0.45400 28.25000
C  30.05300 -0.84000 29.06700
C  29.67600 -0.59900 30.40400
C  28.31200 -0.05800 30.37000
C  31.35500 -1.52900 28.70300
C  30.15500 -0.67400 31.76100
O  31.19800 -1.07800 32.29200
C  28.97100 -0.24200 32.63400
C  28.65400 -1.33400 33.58800
O  28.17000 -2.40500 33.33600
O  28.96100 -0.96700 34.86000
C  28.83500 -2.08600 35.79700
H  22.15700 0.49200 31.29100
H  23.56600 0.84700 24.94200
H  29.52900 -0.76900 26.17000
H  26.12200 -0.48500 33.79400
H  23.95500 1.64600 33.35300
H  23.80800 -1.47300 33.33700
H  22.42900 -0.44200 33.47700
H  23.59800 -0.50200 34.81000
H  25.70300 2.31500 34.41500
H  27.20500 2.08400 33.67100
H  28.00400 1.14800 35.50300
H  26.55600 0.12800 35.80800
H  19.63600 1.48300 29.38600
H  20.19600 0.19500 30.29700
H  19.44300 -0.14200 28.73500
H  18.79900 0.33200 26.42200
H  19.10700 1.55700 25.31800
H  19.25400 2.06200 27.06000
H  25.95200 1.37100 23.91600
H  27.79200 -0.94000 24.02500
H  26.25500 -1.19500 22.62800
H  24.79700 -0.13600 22.52100
H  24.82100 -1.43100 23.63200
H  28.75100 1.73100 25.12000
H  28.03500 1.83600 23.59000
H  30.02600 0.70900 22.61000
H  30.10600 -0.32700 24.02200
H  30.52700 1.45300 24.12100
H  31.08600 -2.18300 27.87300
H  31.77100 -2.08700 29.54100
H  32.12800 -0.79100 28.48300
H  29.32400 0.62200 33.19800
H  29.38500 -2.96700 35.46600
H  27.79200 -2.37300 35.93700
H  29.35200 -1.80200 36.71300

