158

Mg 2.04500 0.12000 44.03500
C  5.54800 0.26600 43.03400
C  1.59000 2.62000 41.61700
C  -1.20100 -0.64800 43.96200
C  2.84500 -2.94100 45.69100
N  3.41800 1.27000 42.42100
C  4.80100 1.25300 42.32200
C  5.24200 2.35600 41.35800
C  4.05000 3.35500 41.31800
C  2.94500 2.28300 41.68800
C  4.05400 4.49400 42.37800
C  5.70700 1.84700 39.93300
C  7.07400 2.33800 39.38000
H  7.06600 2.89600 37.96600
N  0.43200 0.81000 42.90900
C  0.45400 1.87100 42.05300
C  -0.94500 2.24800 41.75800
C  -1.78100 1.37800 42.47700
C  -0.91200 0.44000 43.16900
C  -1.33800 3.45700 40.97300
C  -3.31800 1.40000 42.40600
O  -3.89000 2.34100 41.91000
C  -4.18500 0.34400 43.01300
N  1.02600 -1.73100 44.47900
C  -0.31800 -1.58700 44.59600
C  -0.87400 -2.70000 45.39600
C  0.40100 -3.48900 45.93700
C  1.51200 -2.69100 45.31800
C  -1.96700 -2.35800 46.46400
C  0.45600 -5.03000 45.48600
C  -0.36500 -6.00300 46.33700
N  3.76600 -0.99200 44.42800
C  3.90200 -2.17500 45.16800
C  5.24700 -2.61500 45.17400
C  5.97100 -1.65200 44.39100
C  4.98600 -0.70300 43.95000
C  5.87200 -3.77200 45.90000
C  7.26700 -1.29700 43.84400
O  8.37200 -1.85500 43.97500
C  7.03800 -0.05300 42.92000
C  7.78200 1.12200 43.38000
O  7.80400 1.67400 44.53200
O  8.54800 1.55100 42.30700
C  9.41900 2.66900 42.67500
H  1.36300 3.42300 40.91300
H  -2.26500 -0.74700 44.18700
H  3.11000 -3.68700 46.44300
H  6.08400 2.92200 41.75600
H  3.87400 3.81600 40.34500
H  3.11500 4.56000 42.92700
H  4.26500 5.42000 41.84400
H  4.88500 4.34000 43.06700
H  4.88400 2.02300 39.24000
H  5.65000 0.76100 40.00700
H  7.74300 1.49700 39.19500
H  7.52700 3.03800 40.08100
H  -2.15200 3.12800 40.32600
H  -0.55900 3.77400 40.28100
H  -1.69800 4.34000 41.50100
H  -5.24600 0.54000 42.86200
H  -4.05200 0.47200 44.08700
H  -3.84000 -0.60900 42.61000
H  -1.47000 -3.34000 44.74600
H  0.59900 -3.59500 47.00400
H  -2.83100 -3.00700 46.32200
H  -2.36600 -1.34600 46.39900
H  -1.64900 -2.50300 47.49600
H  1.45800 -5.40800 45.68900
H  0.18600 -5.08700 44.43100
H  -0.73100 -5.43900 47.19500
H  0.14100 -6.85700 46.78700
H  -1.19200 -6.37800 45.73500
H  6.88200 -3.95200 45.53200
H  5.34800 -4.69000 45.63300
H  6.04800 -3.73100 46.97500
H  7.37200 -0.29100 41.91000
H  8.84900 3.58800 42.81500
H  9.98700 2.86300 41.76500
H  9.97900 2.48000 43.59100
Mg 24.80000 -7.50000 48.10100
C  27.34400 -5.47700 46.64100
C  22.61200 -6.05900 45.89300
C  22.80700 -9.84300 48.97500
C  27.46100 -9.08300 49.99200
N  24.93500 -5.82300 46.46700
C  26.10700 -5.21100 46.02800
C  25.87400 -4.21000 44.95200
C  24.24300 -4.36400 44.79200
C  23.85000 -5.47000 45.78400
C  23.43100 -3.09600 45.07700
C  26.72500 -4.44100 43.72600
C  27.26400 -3.14900 43.11400
H  26.73400 -2.69900 41.75100
N  22.90800 -7.90800 47.52400
C  22.18000 -7.20000 46.57700
C  20.90500 -7.77300 46.46700
C  20.85500 -8.89900 47.37600
C  22.24100 -8.92200 48.00700
C  19.81800 -7.20100 45.63900
C  19.70800 -9.87800 47.46800
O  18.77900 -9.76100 46.70100
C  19.78200 -11.13600 48.40700
N  25.11100 -9.29100 49.24800
C  24.03000 -9.96800 49.62100
C  24.33100 -10.87500 50.84400
C  25.81200 -10.66000 51.22400
C  26.18300 -9.68100 50.10100
C  23.30700 -10.80800 52.08000
C  26.61500 -12.04700 51.18000
C  27.18400 -12.55100 49.80100
N  26.99800 -7.31100 48.32100
C  27.85700 -8.03300 49.15500
C  29.23700 -7.44900 49.01600
C  29.01400 -6.46300 48.00200
C  27.64900 -6.41900 47.65800
C  30.57700 -7.86700 49.63200
C  29.70800 -5.46900 47.31500
O  30.86800 -5.15500 47.40100
C  28.70900 -4.67700 46.45000
C  28.41200 -3.30500 46.99700
O  28.00800 -2.98400 48.10700
O  28.62100 -2.39700 45.95000
C  28.18500 -0.95200 46.25200
H  21.90500 -5.54400 45.23900
H  22.04400 -10.60400 49.15300
H  28.27100 -9.35900 50.67000
H  26.05500 -3.32500 45.56100
H  24.22200 -4.80100 43.79400
H  22.72200 -2.84900 44.28700
H  24.07000 -2.23100 45.25200
H  22.67100 -3.26800 45.83900
H  26.22600 -4.95100 42.90200
H  27.50900 -5.17600 43.90800
H  28.35300 -3.09900 43.10200
H  27.10000 -2.36100 43.85000
H  20.01100 -6.19400 45.26800
H  18.87500 -7.38700 46.15200
H  19.90700 -7.86600 44.78000
H  20.63700 -11.72400 48.07400
H  18.88400 -11.75500 48.40100
H  19.96300 -10.80600 49.43000
H  24.31000 -11.92200 50.54300
H  25.97700 -10.15300 52.17500
H  23.34900 -9.82000 52.53900
H  23.38200 -11.67300 52.73900
H  22.39000 -10.81400 51.49100
H  26.01600 -12.83700 51.63300
H  27.50900 -11.98400 51.79900
H  28.26300 -12.70000 49.83000
H  26.95300 -11.85800 48.99200
H  26.83400 -13.54000 49.50400
H  30.63800 -8.95100 49.73100
H  30.80300 -7.32300 50.54900
H  31.26600 -7.52000 48.86100
H  28.99300 -4.63500 45.39900
H  27.23900 -0.77400 45.74200
H  28.98700 -0.29600 45.91200
H  28.00900 -0.71100 47.30000

