158

Mg 9.42200 3.53300 28.23700
C  10.75500 1.88600 31.08100
C  7.45900 5.47600 30.39100
C  7.72200 4.58200 25.60900
C  10.80600 0.94900 26.22900
N  9.20600 3.66800 30.51700
C  9.90900 2.98300 31.44400
C  9.56200 3.50900 32.90800
C  8.46600 4.58900 32.60000
C  8.31700 4.61600 31.03800
C  7.07700 4.38700 33.29400
C  10.77900 4.13400 33.71200
C  11.10100 3.53400 35.07600
H  11.23400 4.48600 36.31100
N  7.82100 4.84400 27.99400
C  7.22400 5.59900 28.98100
C  6.31200 6.54900 28.29700
C  6.37800 6.34800 26.89700
C  7.35200 5.20200 26.79000
C  5.44000 7.49800 29.10000
C  5.58400 7.02200 25.76700
O  5.85100 6.83400 24.60300
C  4.52400 8.10300 26.09300
N  9.35500 2.90200 26.23100
C  8.62100 3.54000 25.35800
C  8.96800 3.10700 23.94000
C  9.79800 1.90200 24.12800
C  10.04300 1.90000 25.60800
C  7.76700 2.90800 23.00000
C  11.11700 1.86500 23.33200
C  11.48400 0.58500 22.49500
N  10.59600 1.80500 28.55500
C  11.09800 0.87600 27.64400
C  11.88800 -0.07600 28.32100
C  11.72400 0.21700 29.64100
C  11.00800 1.44400 29.77000
C  12.57600 -1.29100 27.77400
C  12.10500 -0.25700 30.99100
O  12.60400 -1.31000 31.29300
C  11.50700 0.87900 31.98300
C  10.62300 0.26900 33.07900
O  9.41800 -0.00300 32.95900
O  11.31300 -0.02000 34.22100
C  10.50100 -0.47700 35.34100
H  6.89400 6.15000 31.03800
H  7.15700 4.90000 24.73100
H  11.15800 0.16800 25.55200
H  9.12800 2.60100 33.32600
H  8.84000 5.54700 32.96100
H  7.22100 3.46600 33.85900
H  6.33600 4.38200 32.49400
H  6.92800 5.18600 34.01900
H  10.62700 5.21100 33.77900
H  11.61400 3.96500 33.03300
H  12.01600 2.97400 34.88300
H  10.29300 2.81700 35.21900
H  5.47000 7.40700 30.18600
H  4.41200 7.19300 28.90900
H  5.79800 8.50500 28.88600
H  3.76900 7.56100 26.66400
H  4.20700 8.47600 25.11900
H  5.02800 8.92100 26.60700
H  9.61000 3.86200 23.48700
H  9.32100 0.94100 23.93400
H  6.88500 2.98000 23.63500
H  7.81400 1.87900 22.64400
H  7.49500 3.54900 22.16100
H  11.94200 2.10700 24.00200
H  11.00900 2.62600 22.56000
H  10.67200 0.26000 21.84500
H  11.66700 -0.27800 23.13500
H  12.41600 0.76600 21.96000
H  13.22700 -1.83000 28.46200
H  13.03900 -1.14500 26.79800
H  11.85100 -2.06700 27.52900
H  12.23800 1.47400 32.52900
H  10.12100 -1.40200 34.90700
H  9.65100 0.17100 35.55800
H  11.01000 -0.66300 36.28700
Mg 26.79600 50.38000 26.82700
C  24.59500 51.40700 29.40100
C  29.03200 49.32800 29.15100
C  28.73100 49.72200 24.25500
C  24.48500 51.95700 24.52200
N  26.73300 50.45400 28.98100
C  25.76800 50.90000 29.86600
C  26.14000 50.55300 31.38100
C  27.64900 50.06300 31.24500
C  27.81600 49.90600 29.71900
C  28.66500 51.01000 31.85700
C  25.11400 49.46500 31.94300
C  24.37100 49.88900 33.26100
H  24.16500 48.97100 34.46100
N  28.57800 49.62300 26.66100
C  29.31500 49.15900 27.77800
C  30.56900 48.64300 27.27300
C  30.52800 48.72100 25.82900
C  29.29900 49.40100 25.49600
C  31.62200 48.08400 28.16800
C  31.58900 48.17100 24.86100
O  31.51100 48.27000 23.65400
C  32.74500 47.40700 25.31400
N  26.62500 50.90800 24.68700
C  27.57900 50.42800 23.85000
C  27.07500 50.52400 22.38800
C  25.61600 51.00400 22.53300
C  25.54300 51.32100 24.04600
C  28.04000 51.44000 21.57300
C  24.43100 50.04500 22.18300
C  23.41200 50.53300 21.13100
N  24.90000 51.47200 26.91700
C  24.09700 51.95700 25.90700
C  22.87200 52.55500 26.50900
C  23.00500 52.29600 27.89400
C  24.27900 51.68700 28.08300
C  21.77700 53.31300 25.71000
C  22.32500 52.45700 29.16400
O  21.29700 52.97300 29.52400
C  23.41900 51.99000 30.20400
C  23.93100 53.13000 31.04300
O  25.04200 53.71000 30.91400
O  23.09700 53.37500 32.02800
C  23.40300 54.48100 32.98200
H  29.72100 48.91300 29.89000
H  29.32700 49.35600 23.41600
H  23.73500 52.26300 23.79000
H  26.20100 51.53100 31.85800
H  27.75400 49.10600 31.75600
H  29.20300 50.42900 32.60600
H  28.24800 51.94100 32.24200
H  29.28700 51.38600 31.04400
H  25.69100 48.55400 32.10400
H  24.40000 49.22400 31.15500
H  23.41600 50.22700 32.85900
H  24.85200 50.81300 33.58100
H  31.51000 48.19800 29.24700
H  32.62100 48.50500 28.05600
H  31.86500 47.03100 28.02500
H  32.41700 46.70000 26.07700
H  33.43600 48.04700 25.86200
H  33.16100 46.94300 24.42000
H  27.21600 49.51800 21.99300
H  25.47400 51.93500 21.98400
H  29.02100 51.46600 22.04600
H  27.54600 52.36800 21.28600
H  28.15400 50.95400 20.60400
H  23.89900 49.78600 23.09800
H  24.94800 49.14000 21.86300
H  23.64800 50.15400 20.13700
H  23.54700 51.61000 21.02700
H  22.39200 50.26100 21.40000
H  21.86600 53.30800 24.62300
H  21.94900 54.33500 26.04900
H  20.80200 53.06700 26.12900
H  22.89400 51.30000 30.86400
H  23.98800 54.08200 33.81100
H  22.51400 54.86500 33.48200
H  23.80800 55.36800 32.49500

