158

Mg 16.92000 -1.96300 27.46000
C  16.04300 0.28300 30.12400
C  18.71200 -3.81200 29.88500
C  17.82300 -3.96500 25.08500
C  15.42100 0.21400 25.20200
N  17.41700 -1.77200 29.80000
C  16.74900 -0.84400 30.60200
C  17.12500 -1.19800 32.05300
C  18.27800 -2.31000 31.96300
C  18.07100 -2.73000 30.48600
C  19.79300 -2.00600 32.32100
C  15.83400 -1.62300 32.77900
C  15.55100 -0.95800 34.12700
H  16.79300 -0.47400 34.79900
N  18.10500 -3.60900 27.45600
C  18.77600 -4.19300 28.50100
C  19.57200 -5.31400 28.00200
C  19.31700 -5.38500 26.58800
C  18.40100 -4.29000 26.34300
C  20.41000 -6.30300 28.87200
C  19.81300 -6.41100 25.52300
O  19.71100 -6.22700 24.29600
C  20.68500 -7.61700 26.01900
N  16.65300 -1.89100 25.37500
C  17.04100 -2.90600 24.62200
C  16.85400 -2.52500 23.18500
C  15.81400 -1.37100 23.24100
C  15.97800 -0.92300 24.62600
C  18.20500 -2.16200 22.57600
C  14.35100 -1.75600 22.90900
C  14.08800 -1.91900 21.36100
N  16.04600 -0.09400 27.59200
C  15.44200 0.68600 26.52900
C  14.80900 1.80900 27.18400
C  14.97300 1.69300 28.59100
C  15.77300 0.56400 28.76100
C  14.04200 2.88800 26.49100
C  14.61700 2.23700 29.85800
O  13.69500 2.99400 30.08000
C  15.38500 1.40600 30.91900
C  16.40500 2.26200 31.44300
O  17.55300 2.30100 30.97500
O  15.95600 2.77700 32.57500
C  16.77700 3.75300 33.36400
H  19.37300 -4.42500 30.50100
H  18.17000 -4.54500 24.22700
H  14.81000 0.79700 24.51000
H  17.62900 -0.34500 32.50800
H  17.89000 -3.20400 32.45000
H  20.39200 -2.13900 31.42100
H  20.14700 -2.64100 33.13300
H  19.93900 -0.99600 32.70500
H  15.80900 -2.69100 32.99500
H  14.89700 -1.46600 32.24400
H  15.03300 -1.71600 34.71500
H  14.79200 -0.17700 34.17500
H  21.46800 -6.34600 28.61500
H  20.00400 -7.31100 28.79200
H  20.30900 -6.04500 29.92700
H  21.61800 -7.35800 26.52000
H  20.93000 -8.33300 25.23400
H  20.10700 -8.25400 26.68900
H  16.39800 -3.32900 22.60700
H  16.08800 -0.48500 22.66800
H  18.65900 -3.06800 22.17400
H  18.89800 -1.69700 23.27700
H  17.98600 -1.45300 21.77700
H  13.65600 -0.97200 23.21100
H  14.01900 -2.57900 23.54100
H  13.66800 -0.99100 20.97400
H  13.45300 -2.78400 21.17000
H  14.99700 -2.22300 20.84200
H  13.18500 2.48400 25.95300
H  14.65400 3.44900 25.78500
H  13.65200 3.57900 27.23900
H  14.75300 0.95500 31.68400
H  17.48200 4.36300 32.80000
H  17.38300 3.18400 34.06900
H  16.11500 4.43800 33.89500
Mg 46.65100 34.69300 27.45100
C  45.00700 32.85400 29.98000
C  47.03400 37.18500 29.65200
C  47.72900 36.47100 24.90400
C  45.89200 32.06200 25.21000
N  46.23500 34.85700 29.59800
C  45.60100 34.06500 30.44200
C  45.88400 34.48600 31.88100
C  46.08100 36.07700 31.72800
C  46.46200 36.06300 30.21900
C  44.83200 36.93400 32.07400
C  47.22100 33.73500 32.32100
C  47.51000 33.56100 33.80800
H  46.72000 34.39700 34.82700
N  47.46100 36.50200 27.33500
C  47.58500 37.37800 28.32900
C  48.43600 38.44900 27.90800
C  48.51100 38.33400 26.47300
C  47.88000 37.03800 26.17100
C  49.20400 39.40900 28.80000
C  49.23000 39.19000 25.48200
O  49.37700 38.80800 24.29200
C  49.70000 40.55000 25.84200
N  46.73500 34.30500 25.42900
C  47.32900 35.16500 24.57400
C  47.20800 34.76500 23.08900
C  46.83400 33.28400 23.19700
C  46.43700 33.20000 24.67800
C  46.30900 35.56100 22.14200
C  47.98700 32.24300 22.74100
C  49.33800 32.15900 23.49300
N  45.63400 32.79100 27.53900
C  45.40600 31.83500 26.54800
C  44.84700 30.68800 27.14000
C  44.54300 31.07000 28.47300
C  45.07200 32.35100 28.63500
C  44.44800 29.37100 26.51800
C  43.92200 30.70700 29.74200
O  43.38100 29.66400 30.00800
C  44.08800 31.88000 30.69800
C  44.75500 31.32500 31.94100
O  45.82100 30.75000 31.96000
O  43.88700 31.46800 32.99500
C  44.42700 31.29700 34.37100
H  47.07900 37.98600 30.39300
H  48.01000 36.98900 23.98400
H  45.82400 31.22700 24.51000
H  45.10200 34.20900 32.58800
H  46.83500 36.39200 32.45000
H  43.93700 36.31800 32.16700
H  44.65100 37.68200 31.30300
H  44.90300 37.50400 33.00100
H  47.99500 34.30500 31.80600
H  47.29900 32.76700 31.82600
H  48.57000 33.64900 34.04300
H  47.24400 32.52600 34.02600
H  49.19500 39.03300 29.82300
H  48.77400 40.41100 28.79800
H  50.27100 39.40900 28.57500
H  50.35100 40.47600 26.71300
H  48.82600 41.19400 25.93500
H  50.37800 40.99300 25.11200
H  48.19600 35.02800 22.71300
H  45.96800 33.07200 22.57000
H  46.09500 36.49100 22.66800
H  45.43400 34.97300 21.86500
H  46.85900 35.83600 21.24200
H  48.26400 32.57700 21.74100
H  47.52200 31.26900 22.58800
H  49.36400 31.17600 23.96300
H  49.42200 32.96200 24.22600
H  50.25200 32.39100 22.94700
H  44.88500 29.20400 25.53300
H  43.37300 29.38200 26.33600
H  44.80800 28.58400 27.18000
H  43.17200 32.34000 31.06700
H  45.50400 31.45300 34.31500
H  44.33800 30.31400 34.83500
H  43.86300 31.99900 34.98500

