158

Mg 26.22600 0.67700 28.76700
C  28.18300 0.35900 31.71000
C  23.56800 1.24800 30.98100
C  24.28500 0.93500 26.12100
C  29.01600 -0.24400 26.88000
N  25.93100 0.63600 31.05900
C  26.83100 0.60000 32.07900
C  26.29800 0.79900 33.48100
C  24.82000 0.90700 33.15100
C  24.75200 0.98900 31.64800
C  24.05900 -0.38900 33.70800
C  26.99600 2.01100 34.13800
C  26.25600 2.75500 35.25000
H  27.00400 2.93800 36.65100
N  24.22200 1.06100 28.57600
C  23.32200 1.23800 29.59800
C  21.98600 1.45700 29.01900
C  22.24100 1.30300 27.54400
C  23.63100 1.09500 27.37900
C  20.75700 1.74800 29.82300
C  21.15400 1.28500 26.47400
O  21.32400 0.95300 25.32100
C  19.77700 1.63400 26.86000
N  26.62100 0.20900 26.74600
C  25.62200 0.53200 25.75900
C  26.16800 0.28500 24.32500
C  27.65600 -0.19600 24.64300
C  27.81000 0.00300 26.24200
C  25.35600 -0.66700 23.36300
C  28.80600 0.51600 23.87900
C  29.70600 -0.41100 23.03200
N  28.16500 0.18700 29.14800
C  29.18700 -0.19200 28.26600
C  30.37900 -0.51800 29.05400
C  29.97700 -0.22700 30.40600
C  28.64400 0.15500 30.39800
C  31.80800 -0.98200 28.74400
C  30.48400 -0.32400 31.74400
O  31.54500 -0.65300 32.25200
C  29.29700 0.14400 32.64800
C  28.92700 -0.90600 33.55500
O  28.40100 -1.98400 33.25200
O  29.49300 -0.62900 34.76400
C  29.16900 -1.56300 35.87100
H  22.74900 1.43500 31.67900
H  23.72300 1.04000 25.19100
H  29.92000 -0.44000 26.29900
H  26.47800 -0.05300 34.13600
H  24.32800 1.72400 33.67900
H  24.72600 -1.20200 33.99600
H  23.58900 -0.88700 32.86000
H  23.38500 -0.13600 34.52600
H  27.17900 2.76100 33.36800
H  28.00400 1.74800 34.46000
H  25.38900 2.16300 35.54300
H  25.99200 3.76700 34.94400
H  21.00000 1.69100 30.88400
H  20.00500 0.97000 29.69200
H  20.35500 2.75200 29.68900
H  19.07000 1.34600 26.08200
H  19.66000 2.69800 27.06500
H  19.46100 1.02500 27.70700
H  26.33600 1.26300 23.87300
H  27.62700 -1.24000 24.33000
H  25.88900 -1.59500 23.15500
H  25.26000 -0.11400 22.42900
H  24.38700 -0.95600 23.76900
H  29.50200 0.92900 24.60900
H  28.37100 1.26400 23.21700
H  29.26400 -0.72400 22.08600
H  29.89200 -1.37600 23.50400
H  30.67400 0.01200 22.76200
H  32.33100 -0.20200 28.19100
H  31.80600 -1.85500 28.09100
H  32.46800 -1.33400 29.53800
H  29.67000 0.97800 33.24300
H  29.07600 -2.59300 35.52700
H  28.25700 -1.33400 36.42300
H  30.02900 -1.53500 36.53900
Mg 47.29700 24.72800 28.42100
C  47.95400 27.09900 31.10200
C  46.35400 22.46800 30.96500
C  46.72000 22.45300 26.10300
C  48.52700 26.94900 26.20700
N  47.15400 24.84200 30.77800
C  47.40400 25.92400 31.60400
C  47.14800 25.55200 33.06200
C  46.87900 23.93100 33.00900
C  46.77000 23.68900 31.49000
C  48.02100 23.06600 33.54400
C  46.07800 26.34500 33.78200
C  45.72200 25.92400 35.23400
H  45.46500 26.90100 36.40700
N  46.56100 22.71900 28.53400
C  46.24500 22.02000 29.65300
C  45.84100 20.71200 29.24500
C  46.08700 20.61500 27.87600
C  46.44400 21.94800 27.44000
C  45.46600 19.58600 30.24400
C  45.86300 19.48000 26.92000
O  46.08900 19.67500 25.75200
C  45.31900 18.13300 27.37400
N  47.50600 24.74200 26.40300
C  47.17200 23.74800 25.63300
C  47.47600 24.07500 24.14100
C  47.85900 25.58400 24.26100
C  48.03200 25.79500 25.70800
C  48.59600 23.15500 23.47900
C  46.79000 26.44400 23.49500
C  47.29700 27.24300 22.22200
N  48.16600 26.55900 28.57200
C  48.63600 27.37000 27.52200
C  49.16300 28.61800 28.03900
C  48.91800 28.55200 29.46400
C  48.30900 27.29200 29.71700
C  49.79200 29.68600 27.17300
C  49.04400 29.25900 30.72500
O  49.52600 30.34500 31.05100
C  48.33500 28.39300 31.84800
C  49.24600 28.31000 32.95300
O  50.39400 27.94800 32.95400
O  48.66100 28.70300 34.03600
C  49.21000 28.21900 35.31900
H  46.09800 21.69300 31.69000
H  46.54300 21.69600 25.33600
H  48.78000 27.61600 25.38100
H  48.07000 25.85700 33.55500
H  45.91400 23.73800 33.47900
H  48.70500 23.66400 34.14500
H  48.60000 22.62700 32.73100
H  47.58500 22.25200 34.12300
H  45.16000 26.28600 33.19700
H  46.47600 27.36000 33.77500
H  46.51300 25.22200 35.49700
H  44.81300 25.34100 35.08800
H  46.30000 18.97600 30.58900
H  44.83000 18.84800 29.75600
H  44.82800 19.93100 31.05900
H  45.87200 17.78000 28.24500
H  45.51100 17.46600 26.53300
H  44.28900 18.28900 27.69300
H  46.54900 23.86500 23.60700
H  48.84500 25.72000 23.81800
H  49.57000 23.64500 23.47700
H  48.37000 23.06500 22.41600
H  48.60700 22.10500 23.77200
H  46.39900 27.16500 24.21300
H  46.02300 25.79300 23.07700
H  46.84700 26.63800 21.43600
H  48.38000 27.12700 22.22700
H  46.97700 28.27900 22.33800
H  50.60000 29.96000 27.85200
H  49.10900 30.50300 26.93800
H  50.24400 29.22900 26.29300
H  47.44500 28.95100 32.13700
H  49.43900 29.08100 35.94500
H  50.10600 27.60900 35.20300
H  48.40600 27.61300 35.73600

