158

Mg 48.79200 45.20700 43.72700
C  45.26000 45.35700 42.61300
C  48.81000 41.90400 42.53800
C  52.19200 45.11200 43.51400
C  48.79900 48.58000 43.81800
N  47.17300 43.88900 42.56900
C  45.87100 44.08600 42.34600
C  45.30800 42.92200 41.54200
C  46.40300 41.77700 41.68600
C  47.54100 42.51300 42.35900
C  46.00000 40.50400 42.49600
C  44.90300 43.34600 40.07200
C  45.77200 44.30700 39.26000
H  45.31200 44.43600 37.81800
N  50.25600 43.71700 43.44300
C  50.01100 42.44000 43.06700
C  51.19900 41.67300 43.14600
C  52.26500 42.54800 43.28600
C  51.62500 43.85400 43.39600
C  51.34400 40.19000 42.66800
C  53.73900 42.21500 43.47000
O  54.11600 41.03400 43.48300
C  54.75200 43.27500 43.79700
N  50.33800 46.65000 43.75600
C  51.69600 46.41600 43.72300
C  52.47300 47.74400 43.76600
C  51.41800 48.76200 44.00000
C  50.08600 47.96400 43.88500
C  53.55900 47.78000 44.89800
C  51.48400 49.88800 42.96900
C  50.83800 51.23300 43.33500
N  47.34400 46.68300 43.53600
C  47.52100 48.07300 43.53800
C  46.22700 48.74500 43.34500
C  45.34100 47.69300 43.00700
C  46.06900 46.44900 43.13300
C  46.00400 50.29400 43.32700
C  43.95100 47.45300 42.67400
O  42.97200 48.13900 42.59800
C  43.93200 45.96600 42.28100
C  42.69400 45.34600 42.94300
O  41.81500 44.63000 42.45600
O  42.64400 45.64000 44.29300
C  41.34600 45.54400 44.91000
H  48.85600 40.83600 42.31300
H  53.26000 45.13800 43.29100
H  48.90200 49.66700 43.79900
H  44.32800 42.71800 41.97400
H  46.69800 41.43500 40.69400
H  45.87800 39.53000 42.02200
H  45.00900 40.75100 42.87600
H  46.58400 40.33400 43.40000
H  43.97000 43.85100 40.32200
H  44.66200 42.52000 39.40300
H  46.81100 43.98400 39.18200
H  45.61600 45.31200 39.65000
H  51.60200 39.49800 43.47000
H  52.07700 40.25800 41.86500
H  50.48800 39.69400 42.21000
H  55.60800 42.68500 44.12500
H  54.38000 43.81600 44.66600
H  55.07600 43.95600 43.01100
H  53.00800 47.85500 42.82300
H  51.46200 49.20000 44.99700
H  53.72700 46.75800 45.23700
H  53.49900 48.51100 45.70500
H  54.49800 48.05000 44.41600
H  51.02000 49.47400 42.07400
H  52.46700 50.19100 42.60800
H  51.67700 51.92900 43.34100
H  50.49600 51.24300 44.37000
H  50.07400 51.54800 42.62400
H  45.94900 50.55900 44.38300
H  45.07900 50.51300 42.79300
H  46.78800 50.95600 42.96200
H  43.82900 45.91400 41.19700
H  41.27000 44.59100 45.43300
H  40.47500 45.70100 44.27400
H  41.15500 46.30400 45.66700
Mg -6.36800 24.99700 25.96900
C  -4.45500 26.27200 28.68600
C  -7.72500 22.65400 28.16600
C  -7.30600 23.18300 23.34300
C  -4.47100 27.02100 23.90000
N  -5.95400 24.46600 28.12300
C  -5.29600 25.20800 29.08600
C  -5.71800 24.81700 30.50100
C  -6.52000 23.46800 30.21900
C  -6.75300 23.49300 28.73100
C  -5.88100 22.14700 30.83000
C  -6.71100 25.95000 31.06700
C  -6.50700 26.24800 32.57100
H  -5.76500 25.17800 33.38300
N  -7.51500 23.33400 25.77200
C  -8.11000 22.59200 26.79700
C  -8.91700 21.53200 26.21000
C  -8.70600 21.55100 24.80600
C  -7.84800 22.68200 24.58700
C  -9.86600 20.78100 27.06400
C  -9.30100 20.72600 23.68500
O  -9.12800 21.04600 22.49400
C  -9.94000 19.47500 24.05000
N  -5.94200 25.12000 23.89100
C  -6.43700 24.17600 23.03500
C  -5.96100 24.47800 21.58800
C  -5.28000 25.88700 21.77600
C  -5.26000 26.07900 23.26500
C  -4.94800 23.36800 21.12300
C  -6.13900 27.00600 21.08600
C  -5.62000 27.55500 19.76300
N  -4.85500 26.54500 26.20600
C  -4.24900 27.24000 25.22300
C  -3.32500 28.19100 25.80300
C  -3.42500 27.87900 27.19300
C  -4.37500 26.83000 27.32600
C  -2.35700 29.20800 25.17400
C  -2.97200 28.18800 28.54700
O  -2.12800 28.99900 28.95200
C  -3.64700 27.11700 29.56500
C  -2.54200 26.37800 30.24700
O  -1.51100 26.03600 29.67800
O  -2.73000 26.43200 31.59200
C  -1.57300 26.09500 32.40800
H  -8.18800 21.94300 28.85300
H  -7.37700 22.51500 22.48200
H  -4.05200 27.73100 23.18400
H  -4.88300 24.49700 31.12400
H  -7.47300 23.56600 30.74000
H  -5.91500 21.37700 30.05900
H  -6.39400 21.87200 31.75200
H  -4.82300 22.27700 31.05600
H  -7.72500 25.62900 30.82800
H  -6.55400 26.90300 30.56200
H  -7.49500 26.57700 32.89100
H  -5.82700 27.09500 32.66900
H  -10.86300 20.67700 26.63600
H  -9.93400 21.32700 28.00500
H  -9.40300 19.83500 27.34600
H  -10.79400 19.55600 24.72300
H  -9.17700 18.83700 24.49600
H  -10.36500 18.97200 23.18200
H  -6.72500 24.45000 20.81100
H  -4.25800 25.93100 21.40000
H  -3.95400 23.76300 20.91000
H  -5.36800 22.86800 20.25000
H  -4.83800 22.54800 21.83300
H  -6.28300 27.80400 21.81400
H  -7.13500 26.57600 20.98400
H  -6.33100 27.25300 18.99400
H  -4.59600 27.26000 19.53500
H  -5.75100 28.63700 19.77400
H  -2.23600 30.07100 25.82900
H  -2.72200 29.57700 24.21600
H  -1.42900 28.71800 24.88000
H  -4.20800 27.52300 30.40700
H  -1.96500 26.23200 33.41600
H  -0.67200 26.69000 32.26400
H  -1.39100 25.02100 32.40300

