158

Mg 47.92300 15.13800 27.95600
C  45.50800 14.95300 30.57300
C  49.66800 17.34000 29.81200
C  50.03600 15.46100 25.28600
C  45.49200 13.59700 25.84800
N  47.55200 16.13000 29.86300
C  46.58700 15.79100 30.82900
C  46.87000 16.36500 32.20900
C  47.95000 17.47200 31.79700
C  48.53600 16.84500 30.48300
C  47.39400 19.00800 31.63000
C  47.33700 15.20900 33.08700
C  47.03300 15.45400 34.61700
H  48.20800 15.24600 35.64100
N  49.67500 16.22900 27.60800
C  50.23500 17.05600 28.57900
C  51.49800 17.49300 28.12400
C  51.55800 17.08400 26.77300
C  50.39100 16.17100 26.49400
C  52.34700 18.42500 28.86000
C  52.68600 17.36100 25.80300
O  52.53600 16.95400 24.65500
C  53.92800 18.24900 26.06500
N  47.78200 14.65000 25.85900
C  48.84200 14.76700 25.01100
C  48.43100 14.29100 23.54500
C  47.04900 13.60100 23.78800
C  46.71300 14.06700 25.23200
C  48.25400 15.37800 22.52100
C  47.03500 12.06300 23.77900
C  45.86300 11.34000 23.11300
N  45.98600 14.28400 28.08400
C  45.12300 13.69900 27.19900
C  43.98500 13.12300 27.95400
C  44.17600 13.53100 29.22200
C  45.30200 14.33200 29.29200
C  42.83600 12.29500 27.47500
C  43.63000 13.50100 30.55500
O  42.72500 12.89200 30.93400
C  44.46300 14.40600 31.52400
C  43.58000 15.49000 32.00600
O  42.93700 16.30400 31.32900
O  43.41300 15.37600 33.35600
C  42.59700 16.42200 33.94300
H  50.08000 18.11800 30.45800
H  50.67500 15.52700 24.40300
H  44.66100 13.20500 25.25800
H  46.02000 16.86000 32.67900
H  48.80300 17.51800 32.47500
H  47.27900 19.17600 30.56000
H  48.18700 19.68600 31.94400
H  46.37100 19.16800 31.97300
H  48.42300 15.14500 33.02000
H  47.13600 14.26200 32.58700
H  46.25600 14.71400 34.81200
H  46.72600 16.49700 34.69600
H  52.27700 18.47200 29.94700
H  52.20900 19.45400 28.52900
H  53.38000 18.15200 28.64000
H  53.71600 19.24700 26.45000
H  54.47300 18.32700 25.12400
H  54.42600 17.67800 26.84900
H  49.19600 13.60300 23.18500
H  46.24200 13.96200 23.15000
H  48.59300 16.29900 22.99400
H  47.27900 15.49300 22.04700
H  48.91200 15.20200 21.67000
H  47.25600 11.69500 24.78100
H  47.89000 11.69700 23.21100
H  45.17100 11.97400 22.55800
H  45.21700 10.97100 23.91000
H  46.11900 10.53400 22.42500
H  43.15200 11.90500 26.50700
H  42.05400 13.05400 27.48800
H  42.62900 11.62300 28.30700
H  44.95600 13.89800 32.35300
H  43.15800 17.35500 33.87800
H  42.44900 16.32700 35.01900
H  41.64600 16.45100 33.41200
Mg -8.46100 40.86600 42.81200
C  -7.58900 37.59100 42.04200
C  -5.78400 41.94500 40.79200
C  -9.69500 43.86900 43.04600
C  -11.67500 39.59000 43.98700
N  -6.90700 39.88400 41.55700
C  -6.75500 38.53700 41.48500
C  -5.60400 38.23500 40.57200
C  -4.91900 39.59200 40.25000
C  -5.92500 40.54000 40.88900
C  -3.46200 39.76000 40.82700
C  -6.02700 37.48700 39.27500
C  -5.15000 36.31200 38.92000
H  -4.29200 36.63700 37.72700
N  -7.65100 42.66200 42.18800
C  -6.69900 42.92300 41.29500
C  -6.63400 44.37900 41.07700
C  -7.68800 44.99600 41.78000
C  -8.43100 43.82200 42.37800
C  -5.42100 44.96900 40.36900
C  -7.95300 46.52300 41.72900
O  -7.29700 47.30400 41.06400
C  -9.09700 47.10600 42.45600
N  -10.38300 41.60300 43.49400
C  -10.55600 42.94800 43.53800
C  -11.91400 43.36500 44.09600
C  -12.53800 42.00100 44.51500
C  -11.47000 40.97500 43.94000
C  -11.89300 44.37500 45.23000
C  -14.00300 41.78500 44.04500
C  -15.10100 41.30900 45.02600
N  -9.44200 38.99900 43.03400
C  -10.68000 38.63100 43.56900
C  -10.78200 37.18000 43.61000
C  -9.55500 36.77500 43.06300
C  -8.77600 37.90300 42.71700
C  -11.96800 36.38700 44.02700
C  -8.91900 35.57600 42.64200
O  -9.25800 34.39400 42.67400
C  -7.60100 36.09700 41.91600
C  -6.47200 35.46600 42.74400
O  -6.43800 35.53100 43.94900
O  -5.61400 34.74700 41.89400
C  -4.40700 34.11800 42.49300
H  -4.89600 42.25800 40.24000
H  -10.12500 44.87100 43.10900
H  -12.63400 39.21700 44.35000
H  -4.87200 37.62200 41.09800
H  -4.88700 39.69800 39.16500
H  -2.73300 39.51700 40.05300
H  -3.23300 38.92100 41.48300
H  -3.29300 40.67400 41.39600
H  -6.07100 38.19000 38.44300
H  -7.08700 37.24600 39.35000
H  -5.70700 35.38800 38.76800
H  -4.46000 36.04800 39.72100
H  -4.53200 44.52400 40.81500
H  -5.25100 46.03500 40.52400
H  -5.40000 44.74900 39.30200
H  -9.05700 48.19300 42.38700
H  -8.89100 46.83800 43.49200
H  -10.01900 46.75800 41.99000
H  -12.47900 43.88600 43.32400
H  -12.51900 41.84100 45.59300
H  -12.16100 43.96300 46.20300
H  -12.56400 45.22200 45.08900
H  -10.90500 44.83300 45.25600
H  -14.09100 41.24600 43.10200
H  -14.43800 42.73700 43.74100
H  -14.80900 41.22400 46.07300
H  -15.50700 40.38800 44.60800
H  -16.04000 41.86100 44.97700
H  -11.61500 35.49900 44.55100
H  -12.38100 36.11900 43.05400
H  -12.65800 36.91700 44.68400
H  -7.47400 35.74000 40.89400
H  -4.70700 33.50100 43.34100
H  -3.83900 34.91700 42.97100
H  -3.92300 33.50400 41.73400

