158

Mg -0.59400 7.24700 25.79800
C  0.18700 9.19400 28.66500
C  -0.62700 4.52600 27.87000
C  -0.77600 5.34200 23.07300
C  0.13000 10.06800 23.81700
N  -0.29300 6.94600 28.01600
C  -0.09300 7.85100 28.98400
C  -0.26700 7.26000 30.33500
C  -0.10100 5.77300 30.11100
C  -0.39000 5.73700 28.58800
C  1.26000 5.23800 30.43500
C  -1.69900 7.57700 30.95600
C  -1.67800 8.24400 32.35500
H  -0.62800 7.96800 33.46800
N  -0.73900 5.19600 25.57000
C  -0.81000 4.25000 26.48100
C  -1.08100 3.01200 25.86500
C  -1.15600 3.18900 24.46500
C  -0.82800 4.63100 24.29300
C  -1.19700 1.71500 26.66300
C  -1.43000 2.14100 23.37300
O  -1.35800 2.33200 22.12600
C  -1.80600 0.69300 23.71100
N  -0.45400 7.66200 23.75600
C  -0.66500 6.76400 22.86600
C  -0.58800 7.33800 21.45400
C  -0.59100 8.83200 21.75700
C  -0.19200 8.85300 23.17600
C  0.78200 6.86100 20.73100
C  -2.01600 9.46300 21.34000
C  -2.13900 10.13900 20.03800
N  -0.01700 9.24300 26.10600
C  0.27200 10.24200 25.22500
C  0.55300 11.44300 25.89600
C  0.58700 11.12300 27.28800
C  0.19200 9.78300 27.37000
C  0.68200 12.78100 25.41100
C  0.77600 11.61400 28.64900
O  1.14600 12.73200 28.99100
C  0.46600 10.38000 29.54800
C  1.61000 10.23000 30.56600
O  2.59000 9.49100 30.42300
O  1.36000 11.05600 31.66700
C  2.33900 10.82400 32.71900
H  -0.63800 3.58900 28.43000
H  -0.80800 4.91100 22.07100
H  0.22800 10.96400 23.20000
H  0.60100 7.54800 30.92900
H  -0.84400 5.23400 30.69900
H  1.78500 6.00700 31.00000
H  1.84700 5.02700 29.54100
H  1.18500 4.31800 31.01500
H  -2.20300 6.62700 31.13200
H  -2.13800 8.23100 30.20300
H  -2.59800 7.81300 32.75000
H  -1.84500 9.30800 32.18700
H  -2.20900 1.49400 27.00200
H  -0.59500 1.71900 27.57100
H  -0.81200 0.89800 26.05200
H  -0.99800 0.12000 24.16500
H  -2.13000 0.22000 22.78400
H  -2.71800 0.63700 24.30600
H  -1.45600 7.12200 20.83200
H  0.21200 9.31500 21.20000
H  0.88600 5.81300 21.01300
H  1.63900 7.46300 21.03000
H  0.61900 6.89000 19.65300
H  -2.26800 10.25500 22.04400
H  -2.82800 8.74900 21.47900
H  -3.05200 9.74900 19.58900
H  -1.29500 9.88600 19.39600
H  -2.21900 11.21400 20.19600
H  -0.12400 12.95200 24.69700
H  1.59200 13.04300 24.87100
H  0.66900 13.51100 26.22100
H  -0.45600 10.62700 30.07500
H  3.29300 10.38800 32.42200
H  1.81300 10.35300 33.54900
H  2.57900 11.85100 32.99400
Mg 49.53000 35.18900 27.86500
C  47.14800 34.03000 30.32100
C  49.90700 37.99000 29.74300
C  51.29700 36.31000 25.34300
C  48.70600 32.30900 25.93600
N  48.63000 35.89200 29.94200
C  47.87200 35.20300 30.80400
C  48.00700 35.83700 32.18000
C  48.46900 37.35400 31.87500
C  49.09400 37.04100 30.44600
C  47.41200 38.50100 31.85500
C  49.12400 35.13200 33.07600
C  48.92400 35.17400 34.55400
H  48.10100 36.36500 35.20900
N  50.38700 36.90500 27.56200
C  50.52200 37.92500 28.43800
C  51.39300 38.95200 27.92100
C  51.83900 38.52300 26.64000
C  51.16700 37.21800 26.42200
C  51.47600 40.27400 28.66000
C  52.90900 39.17300 25.75900
O  53.30500 38.77700 24.62800
C  53.65900 40.31600 26.41700
N  49.87000 34.35800 25.83600
C  50.79300 35.05900 25.09900
C  51.29900 34.13800 23.96500
C  50.58700 32.74900 24.20400
C  49.63200 33.12200 25.31800
C  51.18800 34.83300 22.56600
C  51.60000 31.61900 24.65900
C  51.29700 30.27300 24.04700
N  48.22200 33.51400 28.00100
C  48.00600 32.43900 27.16600
C  47.08900 31.47500 27.82600
C  46.70700 32.04300 29.03500
C  47.39900 33.29300 29.09500
C  46.74600 30.09900 27.26100
C  45.82300 31.94200 30.24500
O  45.02200 31.03300 30.53500
C  46.03900 33.18000 31.17200
C  46.40300 32.80400 32.54800
O  47.30100 32.05400 32.84700
O  45.56900 33.42100 33.39200
C  45.61600 33.20400 34.80700
H  50.20500 38.83100 30.37300
H  52.13800 36.57500 24.69900
H  48.54600 31.44300 25.29000
H  47.03700 35.78500 32.67500
H  49.28900 37.73300 32.48500
H  47.30900 38.68300 30.78600
H  47.63900 39.38400 32.45300
H  46.50000 38.07900 32.27700
H  50.02700 35.59800 32.68100
H  49.04100 34.06800 32.85500
H  49.81700 35.19900 35.17800
H  48.52000 34.18300 34.75900
H  51.68300 41.09300 27.97100
H  52.15800 40.27900 29.51000
H  50.56200 40.61100 29.14900
H  53.15000 41.23400 26.12400
H  54.57500 40.33800 25.82700
H  53.79400 40.10700 27.47800
H  52.35800 34.13600 24.21900
H  49.91000 32.38700 23.43000
H  52.18800 34.94400 22.14500
H  50.68900 35.80000 22.62100
H  50.74700 34.22700 21.77500
H  51.74700 31.50800 25.73400
H  52.54600 31.93000 24.21700
H  51.26200 29.56400 24.87400
H  52.11200 30.01000 23.37300
H  50.36800 30.29300 23.47600
H  47.16500 29.87200 26.28100
H  45.66300 29.98300 27.22100
H  47.21900 29.46100 28.00800
H  45.13100 33.78200 31.21200
H  46.62800 33.51700 35.06600
H  45.44900 32.13700 34.95600
H  44.90000 33.80300 35.36900

