158

Mg 1.14200 7.74900 26.76400
C  1.65200 9.81700 29.67700
C  1.40000 5.02900 28.85200
C  1.42500 5.77700 24.10100
C  1.16400 10.55600 24.78700
N  1.45400 7.50200 29.00100
C  1.49600 8.48200 30.03900
C  1.38400 7.83700 31.45300
C  1.57400 6.35200 31.08800
C  1.50300 6.27100 29.55800
C  2.81700 5.61500 31.67100
C  0.03600 8.23100 32.18800
C  0.14600 8.41700 33.69600
H  1.34600 7.80100 34.52700
N  1.18300 5.70700 26.50800
C  1.30400 4.76000 27.47100
C  1.43200 3.42300 26.85100
C  1.32100 3.62300 25.46300
C  1.25900 5.04400 25.25600
C  1.72200 2.09900 27.56900
C  1.20000 2.53500 24.36700
O  0.98900 2.88800 23.21800
C  1.14500 1.05000 24.59500
N  1.09800 8.12600 24.69600
C  1.26300 7.12800 23.81900
C  1.39600 7.72800 22.40300
C  0.84100 9.23600 22.51900
C  1.06300 9.37600 24.05700
C  2.72400 7.48900 21.64800
C  -0.69400 9.37100 22.30000
C  -1.14700 10.49200 21.31800
N  1.41700 9.78700 27.08800
C  1.40900 10.85000 26.14400
C  1.68300 12.09100 26.86200
C  1.74100 11.72000 28.20900
C  1.57000 10.31100 28.34600
C  1.86600 13.46700 26.26100
C  2.08900 12.25300 29.53500
O  2.55600 13.36600 29.83900
C  1.87000 11.03400 30.55300
C  3.00200 11.00700 31.47500
O  3.96300 10.22700 31.31400
O  2.83500 11.89300 32.48000
C  3.73900 11.62400 33.63200
H  1.51700 4.18200 29.53200
H  1.53000 5.21700 23.17000
H  1.15500 11.52000 24.27400
H  2.21300 8.32500 31.96500
H  0.72700 5.84000 31.54500
H  2.34700 4.82700 32.26000
H  3.35300 6.39700 32.20900
H  3.36600 5.13600 30.86100
H  -0.59400 7.34900 32.07100
H  -0.37600 9.15100 31.77600
H  -0.72700 8.16700 34.29900
H  0.25300 9.48800 33.86600
H  0.76200 1.72100 27.92100
H  2.18800 2.29800 28.53400
H  2.41100 1.47200 27.00500
H  2.15200 0.67800 24.78400
H  0.79600 0.46700 23.74300
H  0.54200 0.88900 25.48800
H  0.69600 7.23700 21.72800
H  1.43700 9.92200 21.91700
H  3.16700 8.30000 21.07100
H  2.60000 6.64100 20.97300
H  3.46000 7.04600 22.31900
H  -1.25500 9.58200 23.21000
H  -1.11500 8.45300 21.88900
H  -2.06100 10.22600 20.78600
H  -0.39300 10.74500 20.57300
H  -1.37600 11.40000 21.87500
H  1.63100 13.33800 25.20400
H  2.87300 13.86900 26.37600
H  1.15200 14.13200 26.74600
H  0.86800 11.14900 30.96800
H  3.35200 12.40000 34.29300
H  4.74300 11.86600 33.28200
H  3.73400 10.57400 33.92200
Mg 10.11300 47.78900 26.36000
C  8.23800 47.93500 29.46300
C  12.62600 49.32500 27.98400
C  11.69600 47.56900 23.59300
C  7.05300 46.80100 24.76700
N  10.28300 48.67000 28.34900
C  9.48500 48.52700 29.49500
C  10.11400 49.06600 30.77900
C  11.33800 49.83000 30.16000
C  11.46800 49.21200 28.76100
C  11.07900 51.32100 30.09000
C  10.46600 47.93900 31.86200
C  10.13900 48.12400 33.32900
H  10.05700 46.86100 34.17500
N  11.96000 48.14700 25.90200
C  12.90400 48.81300 26.69400
C  14.16000 48.75900 26.02300
C  13.98800 48.25100 24.70300
C  12.53100 47.95600 24.66200
C  15.49100 49.26200 26.61500
C  14.96400 48.14600 23.50500
O  14.61000 47.76500 22.37600
C  16.39400 48.46500 23.61900
N  9.49900 47.26300 24.51400
C  10.34800 47.34200 23.43200
C  9.64300 47.01200 22.07800
C  8.25900 46.55400 22.53800
C  8.26800 46.92700 23.99900
C  9.68300 48.25100 21.18400
C  8.01400 45.01500 22.35900
C  8.84500 44.09800 23.26200
N  8.08600 47.43700 26.94200
C  6.97200 47.05500 26.16300
C  5.76400 47.12800 27.02100
C  6.23000 47.31600 28.31900
C  7.64500 47.53400 28.21000
C  4.44900 46.82200 26.52700
C  5.84400 47.36500 29.75200
O  4.78100 47.17100 30.32700
C  7.22900 47.59900 30.55900
C  7.55200 46.30200 31.16500
O  8.16800 45.39500 30.64000
O  7.00900 46.24500 32.49000
C  7.07100 44.93500 33.15100
H  13.42700 49.74700 28.59400
H  12.26700 47.36000 22.68600
H  6.16600 46.38500 24.28500
H  9.43100 49.80400 31.19900
H  12.23900 49.56300 30.71200
H  10.47200 51.49900 29.20200
H  11.97000 51.94700 30.03300
H  10.58600 51.74300 30.96600
H  11.53500 47.72600 31.84300
H  10.04300 46.98700 31.53900
H  9.26800 48.77300 33.42500
H  10.90300 48.78500 33.74000
H  15.61900 48.93500 27.64700
H  15.47400 50.35200 26.59500
H  16.36700 48.90500 26.07300
H  16.96800 48.36300 22.69900
H  16.87000 47.73300 24.27200
H  16.60500 49.44600 24.04500
H  10.21300 46.24500 21.55300
H  7.50700 47.07200 21.94400
H  8.69500 48.58900 20.87100
H  10.14300 47.90700 20.25700
H  10.26700 49.04000 21.65600
H  8.20300 44.83900 21.30000
H  6.97000 44.86500 22.63300
H  9.58200 44.58900 23.89800
H  9.32500 43.39700 22.57900
H  8.10200 43.65300 23.92300
H  4.45300 46.10400 25.70700
H  4.01300 47.69100 26.03500
H  3.90500 46.37900 27.36100
H  7.12400 48.39000 31.30300
H  8.15900 44.87400 33.14300
H  6.47500 44.16400 32.66200
H  6.77700 45.02200 34.19700

