158

Mg 2.13000 -2.05600 43.80900
C  5.57000 -0.91100 43.20600
C  1.09200 0.65400 42.01400
C  -0.81800 -3.49300 43.54500
C  3.48600 -4.95300 45.17200
N  3.31400 -0.44600 42.53400
C  4.64700 -0.02000 42.65600
C  4.88300 1.38600 42.04000
C  3.38600 1.88400 41.90900
C  2.51300 0.63700 42.17300
C  3.05900 2.95800 42.99600
C  5.64000 1.31300 40.64900
C  6.37000 2.63500 40.35900
H  6.38700 3.19100 38.94300
N  0.37400 -1.46100 42.91200
C  0.09900 -0.28000 42.31600
C  -1.34900 -0.15300 42.11700
C  -1.94000 -1.34000 42.62100
C  -0.74100 -2.17100 43.01100
C  -2.02600 0.92000 41.22000
C  -3.43200 -1.65000 42.56300
O  -4.15000 -0.85800 42.01000
C  -4.05500 -2.85100 43.11200
N  1.47000 -3.96600 44.25300
C  0.14100 -4.29600 44.20700
C  -0.16100 -5.70400 44.71600
C  1.17600 -6.11000 45.38200
C  2.12000 -4.94300 44.91600
C  -1.38000 -6.07100 45.54800
C  1.78700 -7.50700 44.96500
C  2.51200 -8.15100 46.21200
N  4.14200 -2.83400 44.17500
C  4.47400 -4.00400 44.79400
C  5.89700 -4.10400 44.75600
C  6.39400 -2.91700 44.25700
C  5.24100 -2.19900 43.79700
C  6.73800 -5.16100 45.30400
C  7.60600 -2.13200 44.04800
O  8.76300 -2.33800 44.39800
C  7.12400 -0.81200 43.29900
C  7.51200 0.36900 44.12900
O  7.23800 0.57300 45.27200
O  8.19600 1.30300 43.33800
C  8.47700 2.65900 43.82000
H  0.77400 1.64000 41.66900
H  -1.72100 -4.08300 43.37600
H  3.89000 -5.90600 45.51800
H  5.47900 2.02900 42.68800
H  3.31300 2.34100 40.92200
H  2.51000 2.53400 43.83700
H  2.40400 3.73200 42.59700
H  3.93500 3.32700 43.53000
H  4.96400 1.12000 39.81600
H  6.27600 0.43000 40.59700
H  7.39300 2.62500 40.73700
H  5.92700 3.37500 41.02500
H  -2.42700 0.46500 40.31400
H  -1.23900 1.64400 41.01000
H  -2.80900 1.51400 41.69300
H  -5.13900 -2.86700 43.22300
H  -3.72700 -3.11400 44.11800
H  -3.78800 -3.74600 42.55000
H  -0.29000 -6.35600 43.85200
H  1.06000 -5.98100 46.45800
H  -2.09400 -6.68700 45.00100
H  -1.91400 -5.18300 45.88600
H  -1.25100 -6.66300 46.45400
H  2.42800 -7.37100 44.09500
H  1.04200 -8.21000 44.59200
H  1.97800 -9.04900 46.52300
H  2.69100 -7.44700 47.02500
H  3.47500 -8.53900 45.88100
H  7.65400 -4.83300 45.79400
H  7.08400 -5.68500 44.41300
H  6.20400 -5.94500 45.84100
H  7.63700 -0.71100 42.34300
H  7.77400 3.02000 44.57100
H  8.49900 3.43800 43.05800
H  9.47600 2.48700 44.22000
Mg 10.21900 48.76500 25.18600
C  8.25400 48.78000 28.04200
C  12.84700 50.08200 26.94500
C  12.04700 48.32100 22.51100
C  7.30600 48.19700 23.34400
N  10.41300 49.30200 27.24500
C  9.57700 49.02400 28.30500
C  10.20300 49.56200 29.59500
C  11.49300 50.37100 29.10600
C  11.63000 49.87500 27.67900
C  11.39600 51.95400 29.06000
C  10.46300 48.35900 30.65900
C  9.77200 48.56500 31.98300
H  9.68600 47.28800 32.92800
N  12.14700 49.10600 24.82700
C  13.09800 49.62400 25.62100
C  14.40500 49.56300 24.98900
C  14.23300 48.99200 23.69800
C  12.77800 48.84300 23.63900
C  15.76000 49.88300 25.72000
C  15.24400 48.70200 22.61400
O  14.88000 48.35800 21.48800
C  16.69300 48.88000 22.79200
N  9.76500 48.57600 23.08200
C  10.71200 48.29100 22.17000
C  10.07700 47.81600 20.84400
C  8.56400 47.69400 21.17900
C  8.52400 48.24200 22.63300
C  10.43200 48.64600 19.57300
C  8.00900 46.19100 21.03300
C  7.97400 45.26900 22.28800
N  8.20100 48.58800 25.50200
C  7.15200 48.31800 24.71900
C  5.97100 48.14800 25.47200
C  6.39900 48.27100 26.80000
C  7.76100 48.54000 26.75600
C  4.58400 47.85800 24.98400
C  5.86200 48.32900 28.14200
O  4.70800 48.13600 28.56500
C  7.09800 48.58000 28.95500
C  7.32500 47.42000 29.85200
O  7.84400 46.37500 29.48300
O  6.75100 47.67300 31.11100
C  6.49300 46.46800 31.96700
H  13.64400 50.55300 27.52500
H  12.61100 48.18600 21.58600
H  6.37700 47.93200 22.83400
H  9.46300 50.21800 30.05300
H  12.43400 50.10200 29.58600
H  12.10700 52.34900 28.33400
H  11.56100 52.24400 30.09800
H  10.37400 52.21700 28.78500
H  11.53600 48.32300 30.84500
H  10.16900 47.36500 30.32300
H  8.78000 48.96500 31.77600
H  10.32200 49.38000 32.45500
H  15.72200 49.91800 26.80800
H  16.21600 50.81600 25.38800
H  16.35900 49.01400 25.44500
H  16.91500 49.93500 22.95300
H  17.07300 48.59700 21.81000
H  17.19700 48.27900 23.54800
H  10.42700 46.81200 20.60300
H  7.92400 48.33700 20.57400
H  11.22600 49.35100 19.82000
H  9.56700 49.21700 19.23400
H  10.74700 47.91400 18.83100
H  8.58900 45.72500 20.23500
H  6.99600 46.36500 20.67000
H  8.25700 44.27100 21.95400
H  6.94000 45.03800 22.54700
H  8.53600 45.68800 23.12300
H  3.81900 47.71000 25.74500
H  4.68400 47.11200 24.19400
H  4.33200 48.81400 24.52400
H  6.94900 49.43400 29.61500
H  5.44200 46.21900 31.82300
H  6.52200 46.81400 33.00000
H  7.09400 45.56100 32.03500

