158

Mg 2.49200 -1.04800 43.28200
C  5.89000 -0.30100 42.80100
C  1.68500 1.77600 41.52000
C  -0.63700 -2.31900 42.73000
C  3.54000 -4.23400 44.45300
N  3.65500 0.49300 42.22900
C  5.00400 0.59400 42.18700
C  5.37100 1.87200 41.38200
C  4.06400 2.76200 41.45100
C  3.00600 1.62300 41.86100
C  4.05500 4.04300 42.29900
C  5.95700 1.48200 39.96600
C  5.10200 1.02900 38.87200
H  4.97300 1.87200 37.53900
N  0.76300 -0.32000 42.46700
C  0.65900 0.89200 41.75400
C  -0.74600 1.14600 41.38400
C  -1.46400 -0.00700 41.80100
C  -0.48300 -0.95300 42.40700
C  -1.05900 2.44900 40.57300
C  -2.88100 -0.14900 41.52700
O  -3.43500 0.82600 40.96900
C  -3.68900 -1.26200 41.92400
N  1.57800 -2.97300 43.63800
C  0.32600 -3.27400 43.23900
C  0.03300 -4.79600 43.25900
C  1.31200 -5.31300 44.01500
C  2.22200 -4.11900 44.09900
C  -1.28600 -5.08700 44.05800
C  1.87500 -6.62000 43.47200
C  2.07000 -7.69500 44.58500
N  4.32500 -2.06100 43.70600
C  4.55300 -3.34500 44.20100
C  5.96500 -3.53100 44.22900
C  6.56800 -2.36800 43.70200
C  5.53600 -1.49100 43.38400
C  6.58500 -4.72700 44.89900
C  7.82300 -1.67900 43.38800
O  8.99700 -2.02500 43.43600
C  7.38100 -0.33700 42.74200
C  7.99500 0.85900 43.33700
O  8.78100 1.59300 42.73800
O  7.76900 0.95900 44.65400
C  8.61800 2.02400 45.32800
H  1.43600 2.63300 40.89100
H  -1.56400 -2.75100 42.34600
H  3.82000 -5.23000 44.80200
H  6.16500 2.36100 41.94600
H  3.96600 3.08900 40.41600
H  3.22400 3.92700 42.99500
H  3.85700 4.86500 41.61100
H  5.04200 4.21600 42.72800
H  6.74000 0.73600 40.10200
H  6.44700 2.37500 39.57700
H  4.06600 0.98700 39.20800
H  5.40000 0.01900 38.59100
H  -0.26100 2.66800 39.86300
H  -1.20900 3.35300 41.16400
H  -2.01800 2.46400 40.05600
H  -3.59600 -1.28400 43.01000
H  -3.36600 -2.20500 41.48300
H  -4.67500 -1.29300 41.46000
H  -0.10600 -5.21000 42.26100
H  0.96700 -5.50300 45.03100
H  -1.24600 -5.65200 44.98900
H  -1.78400 -5.76100 43.36100
H  -1.96600 -4.24700 44.20300
H  2.83300 -6.34900 43.02800
H  1.38200 -7.07000 42.61000
H  2.79200 -8.41900 44.20700
H  1.12300 -8.10100 44.94000
H  2.42200 -7.05000 45.39100
H  6.76200 -5.54400 44.20100
H  6.09200 -4.99700 45.83300
H  7.56000 -4.43700 45.29000
H  7.82300 -0.30000 41.74600
H  8.27400 3.04500 45.16200
H  9.63700 2.00400 44.94300
H  8.60700 1.84600 46.40300
Mg 25.69900 -8.56200 47.77800
C  27.94300 -6.15800 46.51800
C  23.44800 -7.59100 45.24700
C  23.94400 -11.43400 48.28500
C  28.38500 -9.77400 49.73000
N  25.71600 -6.99600 46.09500
C  26.70000 -6.13900 45.82000
C  26.25600 -5.10900 44.84000
C  24.74900 -5.52000 44.55900
C  24.56800 -6.73800 45.42200
C  23.71300 -4.41700 44.92200
C  27.10600 -4.93900 43.50300
C  27.41700 -3.54300 43.15200
H  27.46200 -3.17300 41.65200
N  23.87700 -9.36200 46.98000
C  23.15400 -8.80300 45.95000
C  21.94800 -9.63300 45.82400
C  21.97400 -10.64500 46.74400
C  23.30600 -10.54400 47.42100
C  20.82500 -9.32000 44.78200
C  20.98300 -11.79100 46.86700
O  20.06000 -11.93100 46.09200
C  21.24300 -12.85000 47.91600
N  26.18300 -10.34100 48.69900
C  25.18600 -11.27700 48.91800
C  25.69200 -12.46800 49.81300
C  27.14700 -11.89500 50.28800
C  27.25300 -10.58800 49.57600
C  24.74700 -12.89000 50.95400
C  28.27000 -12.85900 49.94700
C  29.01400 -12.55000 48.64600
N  27.66800 -7.98300 48.17100
C  28.61900 -8.55700 49.02800
C  29.82000 -7.76900 48.97500
C  29.59000 -6.72600 48.05800
C  28.29600 -6.94800 47.54500
C  31.05900 -8.04200 49.74700
C  30.11500 -5.59500 47.42700
O  31.18300 -4.99200 47.53300
C  29.02800 -5.15800 46.39900
C  28.51100 -3.84300 46.86300
O  27.57200 -3.69700 47.62400
O  29.04300 -2.87000 46.06800
C  28.34000 -1.56200 46.05300
H  22.68500 -7.19000 44.57700
H  23.55800 -12.45100 48.38500
H  29.12800 -10.23400 50.38500
H  26.26700 -4.16900 45.39000
H  24.66300 -5.87800 43.53300
H  24.14000 -3.47000 44.59100
H  23.62400 -4.48900 46.00600
H  22.74100 -4.65700 44.49100
H  26.54800 -5.38500 42.67900
H  28.02700 -5.51500 43.59300
H  28.32300 -3.27200 43.69500
H  26.68900 -2.90700 43.65600
H  20.92000 -8.41300 44.18400
H  19.95700 -9.17700 45.42600
H  20.59600 -10.14100 44.10300
H  21.62900 -12.41000 48.83600
H  21.98100 -13.42400 47.35500
H  20.40100 -13.48800 48.18000
H  25.97200 -13.29700 49.16400
H  27.14000 -11.71200 51.36200
H  25.16400 -12.58300 51.91300
H  24.68800 -13.97800 50.98700
H  23.77400 -12.45600 50.72200
H  27.94700 -13.88300 49.75800
H  28.93400 -12.75500 50.80500
H  29.42400 -13.50300 48.31300
H  29.85900 -11.89800 48.86800
H  28.37000 -12.08500 47.90000
H  30.90200 -8.83700 50.47600
H  31.47800 -7.17400 50.25500
H  31.66700 -8.65600 49.08200
H  29.34800 -5.05800 45.36200
H  28.82300 -0.80900 45.43000
H  28.16800 -1.18100 47.06000
H  27.29900 -1.65000 45.74100

