158

Mg 55.41400 24.45800 45.41000
C  52.91700 26.58000 44.22700
C  53.98100 21.84300 43.73300
C  58.26700 22.75200 45.66200
C  56.99600 27.28100 46.81800
N  53.77600 24.37400 43.84900
C  52.77600 25.30100 43.67700
C  51.47800 24.60600 43.10400
C  51.82300 23.07500 43.22300
C  53.26900 23.04800 43.64400
C  50.79600 22.31900 44.14100
C  51.23100 24.97300 41.64300
C  49.71100 24.88300 41.21500
H  49.36400 24.24700 39.82800
N  56.00100 22.49800 44.96400
C  55.26100 21.56600 44.28100
C  55.89800 20.33500 44.24500
C  57.19000 20.51500 44.90700
C  57.20500 21.98800 45.16100
C  55.20900 19.12000 43.75000
C  58.17500 19.46600 45.14400
O  58.08600 18.28700 44.73400
C  59.41900 19.73500 45.94500
N  57.33700 24.97000 46.09100
C  58.37900 24.08000 46.05300
C  59.67800 24.73700 46.66100
C  59.16600 26.12500 47.13100
C  57.78400 26.19100 46.53000
C  60.56000 23.98400 47.69400
C  60.15300 27.25500 46.69300
C  60.27800 27.69800 45.26700
N  55.00700 26.54900 45.64100
C  55.68400 27.55400 46.33200
C  54.86000 28.75000 46.30700
C  53.79300 28.42100 45.45800
C  53.95200 27.09800 45.07800
C  55.17500 30.08400 46.88600
C  52.59100 28.93000 44.87700
O  52.03600 29.97900 45.15900
C  51.99600 27.81700 44.01000
C  51.62500 28.29000 42.60900
O  52.36000 28.77400 41.69400
O  50.22700 28.30500 42.40000
C  49.82600 28.81700 41.07700
H  53.39700 20.96100 43.46600
H  59.20000 22.20700 45.81900
H  57.44900 28.18900 47.22100
H  50.68900 24.96900 43.76300
H  51.78900 22.57600 42.25500
H  51.32600 21.66700 44.83600
H  50.02300 21.76100 43.61400
H  50.24100 23.05600 44.72300
H  51.75800 24.28300 40.98400
H  51.56600 25.99700 41.47700
H  49.34900 25.88600 41.44100
H  49.23700 24.25800 41.97300
H  55.85500 18.30200 43.43100
H  54.70900 19.41200 42.82600
H  54.50100 18.61200 44.40500
H  60.15900 20.27100 45.35200
H  59.85300 18.74700 46.10100
H  59.14000 20.14600 46.91500
H  60.36400 24.91800 45.83400
H  59.05200 26.15100 48.21400
H  60.85200 24.70200 48.46100
H  61.45700 23.57200 47.23000
H  60.09100 23.11400 48.15200
H  61.15000 26.92800 46.98900
H  59.78800 28.04400 47.35000
H  59.64700 27.14500 44.57100
H  61.26200 27.57600 44.81400
H  60.04800 28.76300 45.28800
H  54.86500 30.11800 47.93100
H  54.67800 30.85500 46.29700
H  56.25300 30.24600 46.86700
H  51.03300 27.51900 44.42600
H  49.58600 29.87600 41.17000
H  49.04200 28.20500 40.63100
H  50.57700 28.64900 40.30500
Mg 27.14000 50.30100 25.91300
C  24.94800 51.30300 28.53200
C  29.42900 49.55000 28.29100
C  29.28100 49.61200 23.40700
C  24.95200 51.73600 23.54100
N  27.12800 50.45000 28.17600
C  26.13200 50.78700 29.00200
C  26.52900 50.62700 30.50300
C  27.99400 50.13100 30.38800
C  28.19700 49.92800 28.87600
C  29.06600 51.09900 30.97400
C  25.49100 49.69600 31.27600
C  24.74600 50.23900 32.53400
H  24.42100 49.26200 33.71500
N  29.09900 49.58400 25.85400
C  29.87200 49.33400 26.94800
C  31.16200 48.90800 26.58100
C  31.15700 48.90800 25.12100
C  29.80900 49.31300 24.75400
C  32.17200 48.31000 27.50700
C  32.24900 48.75500 24.06000
O  32.07100 48.94900 22.86100
C  33.67800 48.54400 24.52200
N  27.16100 50.73800 23.74300
C  28.07800 50.18600 22.91900
C  27.70400 50.31300 21.46600
C  26.24500 50.88300 21.52300
C  26.06200 51.12800 23.01700
C  28.74700 51.09800 20.58300
C  25.03100 50.11000 20.93400
C  24.37300 50.68700 19.68300
N  25.31500 51.37700 25.95000
C  24.55900 51.86900 24.91800
C  23.34200 52.41100 25.44300
C  23.48700 52.16700 26.84300
C  24.63200 51.52800 27.12900
C  22.37200 53.16800 24.77100
C  22.80500 52.44600 28.18000
O  21.75400 53.00400 28.34600
C  23.79100 51.94200 29.31400
C  24.10900 53.05700 30.23200
O  24.96700 53.86600 30.07400
O  23.38600 53.13000 31.41900
C  23.90000 53.99700 32.52200
H  30.13400 49.27500 29.07800
H  29.81300 49.13600 22.58000
H  24.18100 51.99700 22.81300
H  26.57900 51.57400 31.04000
H  28.27500 49.18800 30.85700
H  29.69200 51.43000 30.14500
H  29.80000 50.51200 31.52600
H  28.66000 51.88600 31.61000
H  26.10100 48.83600 31.55100
H  24.79400 49.19100 30.60800
H  23.78600 50.64500 32.21300
H  25.34500 51.02000 33.00100
H  33.01800 47.85600 26.99200
H  31.77200 47.45600 28.05500
H  32.46700 49.07200 28.22800
H  33.93200 49.41000 25.13400
H  34.28200 48.53800 23.61500
H  33.79100 47.61800 25.08600
H  27.71300 49.32400 21.00700
H  26.38300 51.86100 21.06300
H  29.17200 51.84500 21.25300
H  28.37100 51.56700 19.67400
H  29.53700 50.40400 20.29500
H  24.28300 49.97900 21.71600
H  25.37000 49.10500 20.68400
H  24.46300 49.96500 18.87100
H  24.97000 51.49000 19.25000
H  23.34000 51.03100 19.72000
H  22.28200 52.92000 23.71300
H  22.68700 54.21100 24.73500
H  21.37700 53.22800 25.21200
H  23.33200 51.17500 29.93700
H  23.40200 54.96100 32.41500
H  24.97600 54.13700 32.61600
H  23.59500 53.55300 33.47000

