158

Mg -0.28000 6.86700 25.42900
C  0.58300 9.10600 28.03200
C  0.21900 4.19000 27.70000
C  -0.76400 4.66500 22.93800
C  0.42500 9.39600 23.20700
N  0.38100 6.64400 27.59400
C  0.47300 7.74100 28.47000
C  0.38100 7.25000 29.89800
C  0.71800 5.71500 29.79400
C  0.40200 5.47700 28.31000
C  2.19200 5.32300 30.18600
C  -1.01000 7.59400 30.65500
C  -1.01100 7.41400 32.20300
H  0.24400 7.13300 33.06400
N  -0.41600 4.75000 25.32400
C  -0.22200 3.87200 26.34100
C  -0.42200 2.47600 25.88800
C  -0.76000 2.61800 24.51300
C  -0.66200 4.04400 24.24300
C  -0.43700 1.32000 26.87000
C  -0.92300 1.58800 23.47500
O  -1.00800 1.88300 22.29000
C  -0.84500 0.15600 23.88300
N  -0.01100 7.04500 23.38000
C  -0.46100 6.05100 22.52200
C  -0.78800 6.53200 21.08100
C  -0.21800 7.96100 21.20900
C  0.11500 8.16200 22.70000
C  -0.12800 5.60700 19.99300
C  -1.05600 9.06400 20.48900
C  -2.10300 9.74900 21.35700
N  0.16300 8.94600 25.54500
C  0.43100 9.84700 24.53100
C  0.91200 11.09200 25.13900
C  0.79800 10.87400 26.55300
C  0.40800 9.56100 26.70200
C  1.30000 12.38400 24.42800
C  0.97800 11.50300 27.81400
O  1.35500 12.67300 28.11400
C  0.80100 10.40500 28.87800
C  2.06900 10.23300 29.64200
O  3.02300 9.53000 29.33700
O  1.95300 11.04100 30.71600
C  2.99200 10.92000 31.77500
H  0.41500 3.25900 28.23600
H  -1.18000 4.11300 22.09200
H  0.57300 10.18400 22.46600
H  1.22000 7.66100 30.46000
H  0.05200 5.25600 30.52400
H  2.18000 4.93800 31.20600
H  2.84900 6.14600 29.90300
H  2.49300 4.57800 29.45000
H  -1.85400 7.02300 30.26700
H  -1.31900 8.57100 30.28200
H  -1.64900 6.54600 32.36500
H  -1.51900 8.26200 32.66400
H  0.32300 0.57900 26.62300
H  -1.38200 0.82900 26.63600
H  -0.53800 1.57100 27.92600
H  -1.61900 -0.15400 24.58500
H  0.14400 -0.27900 24.02600
H  -1.10700 -0.30700 22.93100
H  -1.87600 6.47200 21.05000
H  0.72900 7.91700 20.67000
H  0.55400 4.87100 20.41900
H  0.38500 6.27100 19.29700
H  -0.85200 5.01000 19.43800
H  -1.54900 8.60900 19.63000
H  -0.29900 9.82200 20.28500
H  -1.90000 10.78400 21.63200
H  -2.14000 9.21400 22.30600
H  -3.15300 9.72200 21.06800
H  1.45800 12.17800 23.37000
H  2.23200 12.82200 24.78500
H  0.52300 13.11000 24.67100
H  0.07700 10.55400 29.67900
H  3.74000 11.68400 31.56000
H  3.48900 9.95200 31.71400
H  2.54700 11.26600 32.70800
Mg 24.94000 2.08300 29.94900
C  27.23400 1.97000 32.67200
C  22.39300 2.43700 32.13700
C  22.85900 1.97200 27.33600
C  27.73600 1.29900 27.81500
N  24.90500 2.13900 32.09500
C  25.88200 2.23200 33.00700
C  25.35800 2.53300 34.38100
C  23.82400 2.46900 34.19500
C  23.69500 2.32800 32.70300
C  23.08100 1.38800 34.96300
C  25.83000 3.92100 34.93200
C  26.62100 3.95000 36.22100
H  26.18000 4.98800 37.21800
N  22.91500 2.16700 29.76700
C  21.99400 2.34900 30.79000
C  20.62500 2.36200 30.24900
C  20.79900 2.12400 28.80900
C  22.25500 2.06200 28.58200
C  19.48500 2.52900 31.05000
C  19.78200 2.01000 27.76300
O  20.05400 1.78300 26.61700
C  18.31600 2.33600 28.10900
N  25.19400 1.49600 27.82500
C  24.20100 1.76900 26.90300
C  24.76300 1.83500 25.47500
C  26.32700 1.69000 25.69600
C  26.45700 1.48700 27.25700
C  24.27000 0.75100 24.42900
C  27.16500 2.84100 25.12900
C  27.25700 4.18800 25.90100
N  27.03500 1.61600 30.14000
C  28.04300 1.22900 29.20200
C  29.30600 1.00300 29.85300
C  28.99800 1.28600 31.20500
C  27.60400 1.63800 31.38500
C  30.55400 0.58500 29.23800
C  29.60900 1.53000 32.51500
O  30.78100 1.32300 32.74700
C  28.50200 2.03900 33.55100
C  28.45100 0.96500 34.62300
O  28.04700 -0.18600 34.47100
O  28.76900 1.54500 35.85600
C  28.50700 0.76600 37.04700
H  21.65300 2.63400 32.91500
H  22.24300 2.00900 26.43500
H  28.57000 1.19100 27.11900
H  25.76900 1.70500 34.95900
H  23.27400 3.38800 34.39700
H  23.70000 0.75000 35.59400
H  22.68900 0.64600 34.26700
H  22.32100 1.91000 35.54600
H  24.91900 4.48500 35.13100
H  26.42100 4.48000 34.20600
H  27.69500 4.13200 36.19400
H  26.47300 3.00400 36.74100
H  18.80100 1.68200 31.00000
H  19.09100 3.51200 30.79000
H  19.58100 2.59900 32.13400
H  18.00600 1.82500 29.02000
H  17.72500 1.88100 27.31400
H  18.26700 3.42500 28.12900
H  24.61200 2.88800 25.23800
H  26.65000 0.73900 25.27300
H  23.24100 0.48900 24.67600
H  24.95900 -0.09000 24.50900
H  24.23800 1.11800 23.40300
H  26.72700 3.08300 24.16100
H  28.11300 2.41800 24.79600
H  28.23300 4.28800 26.37600
H  26.51300 4.17200 26.69800
H  26.99600 5.08500 25.33800
H  31.25100 1.39900 29.04000
H  30.33700 0.10300 28.28500
H  30.93600 -0.13600 29.96100
H  28.64400 3.00300 34.04000
H  27.89200 -0.11200 36.85000
H  27.85500 1.39200 37.65600
H  29.46100 0.53600 37.52200

