158

Mg 0.63200 8.10500 26.61100
C  1.28600 9.95800 29.50400
C  0.48100 5.27000 28.70700
C  0.22800 6.30700 23.95100
C  1.28700 10.98700 24.67700
N  0.74600 7.72900 28.88100
C  0.94200 8.63200 29.82900
C  0.83200 8.03500 31.25400
C  0.69900 6.54000 30.98400
C  0.60100 6.46300 29.42300
C  1.83800 5.74400 31.67400
C  -0.28200 8.69500 32.14300
C  0.17100 9.04800 33.61700
H  -0.37200 8.32900 34.85700
N  0.35400 6.00500 26.39500
C  0.37000 5.03600 27.30500
C  0.15400 3.74800 26.58000
C  -0.02600 4.00700 25.16300
C  0.22300 5.49900 25.15500
C  -0.14600 2.41800 27.29700
C  -0.23800 3.08700 24.05900
O  -0.14900 3.45900 22.90000
C  -0.55500 1.64200 24.29600
N  0.61400 8.62900 24.58900
C  0.45200 7.67700 23.69400
C  0.48000 8.24500 22.27900
C  0.59500 9.82700 22.51300
C  0.81100 9.86900 23.98900
C  1.50400 7.57200 21.30900
C  -0.61200 10.85100 22.09300
C  -2.08000 10.37500 22.36700
N  1.22200 10.05500 26.93500
C  1.41600 11.13300 26.08000
C  1.79200 12.30600 26.77800
C  1.77900 11.87900 28.12400
C  1.37800 10.53300 28.16600
C  2.10900 13.62200 26.25100
C  2.03900 12.26800 29.48100
O  2.32500 13.35400 30.01800
C  1.49300 11.13200 30.40700
C  2.49800 10.91900 31.47600
O  3.50000 10.20500 31.37100
O  2.22000 11.70200 32.63500
C  3.04400 11.64800 33.85900
H  0.36000 4.41600 29.37700
H  0.02800 5.67500 23.08400
H  1.38100 11.81500 23.97000
H  1.79300 8.08600 31.76600
H  -0.16900 6.11100 31.48500
H  1.57700 4.71100 31.90400
H  1.92800 6.16100 32.67600
H  2.76400 5.66500 31.10300
H  -1.12000 8.00700 32.26000
H  -0.59100 9.64100 31.69900
H  -0.06200 10.09300 33.82000
H  1.25600 8.96600 33.68700
H  -1.06700 2.00000 26.88800
H  -0.27600 2.57000 28.36800
H  0.68700 1.72200 27.19800
H  0.21900 1.21600 24.93400
H  -0.59400 1.07400 23.36600
H  -1.55800 1.53300 24.70800
H  -0.52300 8.00400 21.92800
H  1.45700 10.16400 21.93800
H  2.42600 7.32900 21.83600
H  1.58300 8.12700 20.37400
H  1.04700 6.62100 21.03500
H  -0.44300 10.94600 21.02100
H  -0.42800 11.79100 22.61400
H  -2.62100 10.31800 21.42300
H  -2.60600 11.03300 23.05900
H  -2.06500 9.37100 22.79300
H  1.25700 14.27700 26.43000
H  2.39900 13.62000 25.20100
H  2.87800 13.90600 26.97000
H  0.61100 11.44100 30.96900
H  3.22400 12.70100 34.07700
H  3.96100 11.08400 33.68700
H  2.38900 11.15900 34.58000
Mg -5.79800 25.40400 26.14800
C  -4.40300 26.73700 29.12100
C  -7.45000 23.08200 27.93100
C  -6.32000 23.85100 23.27800
C  -3.42600 27.49700 24.34200
N  -5.74100 24.93500 28.21200
C  -5.33600 25.66800 29.24300
C  -5.89300 25.13800 30.56800
C  -6.63900 23.88600 30.22600
C  -6.64900 23.95100 28.71200
C  -5.89700 22.57600 30.68500
C  -6.73200 26.24800 31.29300
C  -6.38600 26.39800 32.82100
H  -5.68500 25.26400 33.52700
N  -6.93500 23.79100 25.63100
C  -7.57400 22.99200 26.52600
C  -8.36600 22.09900 25.78000
C  -8.13900 22.32300 24.39400
C  -7.12400 23.39300 24.36000
C  -9.28400 21.02800 26.41100
C  -8.78700 21.70500 23.21700
O  -8.59000 22.09600 22.06500
C  -9.60200 20.39600 23.32000
N  -4.87400 25.57700 24.08000
C  -5.32800 24.78800 23.12700
C  -4.63800 25.06700 21.73200
C  -3.88800 26.38400 22.02100
C  -4.04200 26.47800 23.54200
C  -3.85400 23.80300 21.23400
C  -4.52200 27.60700 21.35900
C  -3.95700 27.95000 19.96100
N  -4.36100 26.94100 26.60000
C  -3.43700 27.63700 25.75700
C  -2.58600 28.47700 26.57000
C  -2.95900 28.15300 27.85100
C  -3.97700 27.23500 27.85600
C  -1.69400 29.45400 26.03500
C  -2.65700 28.42300 29.33600
O  -1.84500 29.19100 29.84000
C  -3.62000 27.41900 30.19700
C  -2.70700 26.57400 30.89000
O  -2.10100 25.56500 30.51100
O  -2.51800 27.20900 32.13800
C  -1.47300 26.63900 32.97200
H  -8.13100 22.49800 28.55300
H  -6.44500 23.21100 22.40200
H  -2.68200 28.12100 23.84200
H  -5.04600 24.69700 31.09300
H  -7.66600 23.79900 30.58200
H  -5.34100 22.62400 31.62200
H  -5.08400 22.22700 30.04900
H  -6.63500 21.77400 30.68300
H  -7.76900 25.91300 31.29900
H  -6.64100 27.21000 30.78800
H  -7.35300 26.53100 33.30500
H  -5.74300 27.23700 33.08700
H  -10.25400 21.05700 25.91500
H  -9.49500 21.21800 27.46300
H  -8.84500 20.03100 26.41100
H  -9.09200 19.76900 24.05200
H  -9.72800 19.82100 22.40300
H  -10.60600 20.72400 23.59000
H  -5.44600 25.22300 21.01700
H  -2.86400 26.24200 21.67700
H  -2.77900 23.98200 21.20800
H  -4.23900 23.55800 20.24400
H  -4.07700 22.94300 21.86500
H  -4.35100 28.47000 22.00300
H  -5.56100 27.50100 21.04700
H  -3.51200 27.09200 19.45600
H  -3.20500 28.69800 20.21400
H  -4.69500 28.48400 19.36200
H  -0.69800 29.45100 26.47700
H  -2.14000 30.44800 26.06600
H  -1.45200 29.33000 24.98000
H  -4.27300 27.99500 30.85300
H  -1.81700 26.38500 33.97500
H  -0.69300 27.35600 33.22800
H  -0.90100 25.80200 32.57100

