158

Mg 7.55700 2.65300 27.40100
C  9.22800 1.16400 30.15800
C  5.89600 4.74100 29.65600
C  6.12200 3.94700 24.78600
C  8.75000 0.01200 25.46400
N  7.42700 2.72200 29.67600
C  8.29800 2.14600 30.54800
C  8.17000 2.74700 31.98200
C  6.93000 3.77300 31.91900
C  6.76700 3.78300 30.29900
C  5.60700 3.30700 32.54200
C  9.45200 3.44600 32.50300
C  9.25000 4.32700 33.79200
H  10.27900 4.16000 34.87400
N  6.11100 4.17000 27.20800
C  5.53000 4.89500 28.22500
C  4.65400 5.91700 27.67400
C  4.79400 5.72100 26.25700
C  5.72100 4.57800 25.98200
C  3.84900 6.83500 28.43000
C  4.04800 6.41100 25.05400
O  4.29200 6.18100 23.85500
C  3.31600 7.55300 25.36500
N  7.33300 1.92600 25.45900
C  6.77700 2.73100 24.55200
C  6.94000 2.29700 23.06700
C  7.75600 1.02200 23.31000
C  8.01600 0.98200 24.80600
C  5.51100 1.92600 22.50400
C  9.15800 0.91900 22.60800
C  9.49600 -0.48000 21.95200
N  8.63600 0.93400 27.67600
C  9.02500 -0.08900 26.85600
C  9.88600 -1.04000 27.40800
C  10.01600 -0.54300 28.73200
C  9.25600 0.64400 28.87600
C  10.45800 -2.19700 26.73600
C  10.66000 -0.81400 29.98200
O  11.52200 -1.63300 30.40600
C  10.26500 0.39100 30.93200
C  9.74300 -0.16900 32.21600
O  8.71700 -0.86900 32.33800
O  10.70700 0.03500 33.22400
C  10.48000 -0.69300 34.46300
H  5.49000 5.58300 30.22100
H  5.67300 4.26800 23.84400
H  9.24000 -0.82500 24.96200
H  8.05700 1.96300 32.73100
H  7.15700 4.80300 32.19500
H  5.57600 2.25500 32.82700
H  4.92200 3.30400 31.69400
H  5.30400 4.04600 33.28400
H  9.85200 4.06800 31.70300
H  10.16400 2.63400 32.65200
H  8.29700 3.96900 34.18300
H  9.20000 5.37900 33.51400
H  3.80600 6.60000 29.49400
H  2.82100 6.66900 28.11100
H  4.30100 7.80100 28.20400
H  3.93500 8.35100 25.77600
H  2.44300 7.27200 25.95400
H  2.90400 8.02500 24.47300
H  7.46600 3.05800 22.49100
H  7.13300 0.17900 23.01200
H  4.76100 2.06200 23.28300
H  5.37400 0.89700 22.17200
H  5.38500 2.63500 21.68600
H  9.95700 1.16700 23.30700
H  9.18000 1.74700 21.90000
H  9.82000 -0.35100 20.91900
H  8.61700 -1.10700 22.10600
H  10.37100 -0.96900 22.38100
H  11.22100 -1.87200 26.02800
H  9.67800 -2.77300 26.23800
H  10.90700 -2.89100 27.44700
H  11.12600 1.03900 31.09800
H  9.88200 -1.59000 34.29600
H  9.87500 -0.13100 35.17400
H  11.47400 -0.76400 34.90400
Mg -11.77400 38.40000 42.27900
C  -9.57400 35.93300 41.05400
C  -9.85700 40.72100 40.53200
C  -14.27700 40.54300 42.58200
C  -13.98400 35.79600 43.47400
N  -10.05600 38.27300 40.81500
C  -9.19600 37.19100 40.61700
C  -7.84900 37.53300 39.92200
C  -8.02200 39.04400 39.74400
C  -9.41300 39.39100 40.35800
C  -6.89100 39.89300 40.30500
C  -7.63400 36.82300 38.55500
C  -6.31600 36.03800 38.35900
H  -5.47100 36.31600 37.11300
N  -11.94800 40.41300 41.79000
C  -11.04500 41.14200 41.09400
C  -11.56600 42.46700 41.00000
C  -12.83300 42.48100 41.54500
C  -13.07000 41.11000 42.04500
C  -10.74200 43.66100 40.42800
C  -13.78500 43.67800 41.54800
O  -13.46000 44.74700 41.05800
C  -15.18200 43.57800 42.06800
N  -13.93500 38.18100 42.97200
C  -14.66600 39.27700 42.99200
C  -16.06700 38.95400 43.54700
C  -15.94000 37.35300 43.84700
C  -14.50900 37.09700 43.45900
C  -16.67600 39.84400 44.72600
C  -16.94500 36.46300 43.11900
C  -18.17400 36.01600 43.86300
N  -11.84100 36.25500 42.23500
C  -12.75300 35.40700 42.82600
C  -12.10800 34.07000 42.83700
C  -10.86400 34.23600 42.20100
C  -10.78200 35.57200 41.79100
C  -12.60900 32.79200 43.44600
C  -9.58400 33.58000 41.83100
O  -9.15500 32.44900 42.13000
C  -8.73000 34.56600 41.00800
C  -7.39500 34.58600 41.63000
O  -6.46700 33.80800 41.32100
O  -7.28000 35.48900 42.68600
C  -6.04700 35.24200 43.53500
H  -9.14200 41.43100 40.11100
H  -15.07500 41.28500 42.64300
H  -14.65200 35.09100 43.97300
H  -7.03900 37.27400 40.60400
H  -8.09600 39.36100 38.70400
H  -7.09500 40.07300 41.36100
H  -6.70700 40.82100 39.76300
H  -5.97300 39.31500 40.19900
H  -7.68300 37.51100 37.71100
H  -8.51000 36.20600 38.35400
H  -6.63400 34.99600 38.32800
H  -5.78500 36.24600 39.28800
H  -10.80000 43.75200 39.34400
H  -9.71700 43.42000 40.70900
H  -11.00600 44.58800 40.93800
H  -15.74200 44.47800 41.81700
H  -15.06700 43.38900 43.13500
H  -15.73600 42.77500 41.58100
H  -16.76000 39.14500 42.72800
H  -16.07100 37.17100 44.91400
H  -15.75300 40.33200 45.04000
H  -17.07700 39.31000 45.58800
H  -17.34200 40.59600 44.30200
H  -16.48000 35.55000 42.74800
H  -17.20200 36.95300 42.17900
H  -18.79800 35.66900 43.03900
H  -18.66800 36.77400 44.47200
H  -17.97200 35.11900 44.44800
H  -12.84100 32.07800 42.65600
H  -13.48800 33.00700 44.05400
H  -11.80500 32.42700 44.08400
H  -8.63600 34.37400 39.93900
H  -6.16400 35.80800 44.45900
H  -5.11500 35.51600 43.04000
H  -6.00000 34.20800 43.87700

