158

Mg -1.64200 17.20100 26.55500
C  -2.29300 15.15200 29.37700
C  -2.18000 19.95000 28.47400
C  -1.64500 19.18900 23.76200
C  -1.61800 14.34600 24.54800
N  -2.33900 17.53500 28.68800
C  -2.31900 16.55400 29.69000
C  -2.45000 17.20500 31.06400
C  -2.63900 18.74800 30.65500
C  -2.35900 18.71800 29.19700
C  -3.97500 19.42100 31.00700
C  -1.23000 16.78100 31.92100
C  -0.82600 17.73800 33.09000
H  -0.35100 17.09100 34.40900
N  -1.81400 19.30700 26.18600
C  -1.97600 20.33000 27.14700
C  -1.83000 21.64500 26.52200
C  -1.69500 21.39400 25.09600
C  -1.71700 19.93200 24.93700
C  -1.99600 22.97300 27.19100
C  -1.55600 22.41800 24.03700
O  -1.36000 22.00500 22.84400
C  -1.53700 23.96000 24.26200
N  -1.75800 16.84300 24.52100
C  -1.69800 17.76300 23.53600
C  -1.71100 17.14900 22.14100
C  -1.34100 15.67000 22.39600
C  -1.53600 15.58800 23.94200
C  -3.06200 17.25500 21.40700
C  0.11800 15.37800 21.85600
C  1.31000 15.77700 22.69100
N  -1.77900 15.23200 26.88600
C  -1.82500 14.16300 25.94100
C  -1.93100 12.97800 26.67700
C  -2.16200 13.29100 27.97300
C  -2.07100 14.67500 28.06300
C  -2.00900 11.63300 26.07000
C  -2.45300 12.76800 29.27100
O  -2.68300 11.62800 29.68500
C  -2.41800 13.98300 30.21100
C  -1.24600 13.76200 31.14700
O  -0.08700 14.05300 30.93400
O  -1.72900 13.22100 32.32200
C  -0.74700 12.86900 33.32500
H  -2.20300 20.78800 29.17400
H  -1.59200 19.70700 22.80200
H  -1.36700 13.51100 23.89100
H  -3.30500 16.69600 31.51000
H  -1.76300 19.21300 31.10800
H  -4.51200 18.76000 31.68600
H  -4.40600 19.89200 30.12300
H  -3.54300 20.23500 31.58900
H  -0.31200 16.75000 31.33500
H  -1.48000 15.84100 32.41500
H  -1.70200 18.37900 33.18700
H  -0.01700 18.32900 32.66200
H  -1.18700 23.67600 26.99500
H  -1.96700 22.78200 28.26400
H  -3.01000 23.34700 27.04900
H  -0.73200 24.43000 24.82700
H  -2.42000 24.21200 24.84900
H  -1.73100 24.45900 23.31200
H  -0.96000 17.64500 21.52600
H  -1.97500 14.96300 21.86100
H  -3.91700 17.25400 22.08300
H  -3.20500 16.45300 20.68400
H  -3.00500 18.21400 20.89100
H  0.27200 15.83500 20.87800
H  0.44000 14.34500 21.72700
H  1.27300 16.81300 23.02500
H  2.25700 15.69900 22.15700
H  1.29100 15.22000 23.62800
H  -1.59800 11.64500 25.06100
H  -3.07000 11.40100 25.97800
H  -1.45500 10.94600 26.70800
H  -3.31200 13.99000 30.83500
H  -0.61500 13.74700 33.95700
H  0.22900 12.63000 32.90100
H  -1.07700 12.00900 33.90700
Mg 26.51600 50.15300 26.17300
C  24.59800 51.34600 28.78500
C  28.75800 49.19500 28.59000
C  28.61500 49.30300 23.69400
C  24.18400 51.25000 23.86800
N  26.51400 50.12300 28.46800
C  25.63300 50.60700 29.34600
C  26.01400 50.43000 30.75500
C  27.59600 49.94800 30.65100
C  27.65400 49.79600 29.15000
C  28.83100 50.90700 31.21300
C  25.03300 49.40600 31.44000
C  24.43300 49.56600 32.81900
H  25.19600 50.25600 33.97900
N  28.40900 49.26900 26.12900
C  29.20600 48.88400 27.22600
C  30.42800 48.20600 26.71800
C  30.41000 48.42000 25.35200
C  29.10800 49.11300 24.93100
C  31.39600 47.41700 27.66200
C  31.60100 48.09900 24.42400
O  31.57200 48.47500 23.25800
C  32.86200 47.43700 24.87000
N  26.53100 50.38600 24.07100
C  27.42500 49.85900 23.20600
C  27.04600 49.96400 21.67900
C  25.57900 50.66200 21.87000
C  25.38500 50.68900 23.35900
C  28.03400 50.82000 20.90200
C  24.45500 49.87500 21.13400
C  24.13500 50.32900 19.76900
N  24.79700 51.18000 26.25800
C  23.86300 51.46100 25.28500
C  22.69000 52.20000 25.85300
C  22.91600 52.10300 27.24000
C  24.20700 51.53000 27.47200
C  21.52800 52.79300 25.14600
C  22.40300 52.50900 28.52300
O  21.39600 53.14900 28.80100
C  23.46100 51.92900 29.64600
C  23.90700 53.11000 30.47900
O  24.70900 53.92600 30.13500
O  23.33500 53.08700 31.68100
C  23.67400 54.18700 32.63900
H  29.48900 48.80600 29.30200
H  29.25400 48.87900 22.91600
H  23.48700 51.61400 23.11100
H  26.08500 51.39100 31.26600
H  27.61700 48.91800 31.00800
H  28.37800 51.60800 31.91300
H  29.41400 51.34800 30.40400
H  29.46200 50.13600 31.65500
H  25.45700 48.40800 31.32100
H  24.14600 49.30500 30.81400
H  24.29200 48.53300 33.13500
H  23.45300 50.04100 32.76800
H  31.47200 46.36400 27.39300
H  31.09100 47.42200 28.70800
H  32.35100 47.94300 27.66800
H  33.35100 48.11200 25.57300
H  33.47500 47.22000 23.99500
H  32.47000 46.50600 25.28000
H  26.92000 48.95200 21.29400
H  25.53700 51.69800 21.53100
H  28.86800 51.20200 21.49100
H  27.55400 51.65300 20.38800
H  28.37800 50.05300 20.20800
H  23.54200 50.02200 21.71000
H  24.70500 48.81400 21.11900
H  24.49700 49.62700 19.01800
H  24.76500 51.17900 19.50800
H  23.07800 50.56200 19.63700
H  20.59500 52.26200 25.33800
H  21.68000 52.66400 24.07400
H  21.45000 53.81700 25.51100
H  22.88700 51.20300 30.22200
H  24.01600 55.08000 32.11500
H  24.41700 53.74200 33.30100
H  22.83700 54.47900 33.27300

