158

Mg 35.40800 3.29700 30.06200
C  33.06000 4.18400 32.53000
C  37.75800 3.08500 32.40900
C  37.56100 2.59600 27.59600
C  32.85400 3.62400 27.67200
N  35.36800 3.75500 32.15200
C  34.28500 3.97300 33.02400
C  34.72900 4.15900 34.49300
C  36.30400 4.09700 34.29000
C  36.50400 3.57600 32.88600
C  37.18800 5.32800 34.57000
C  34.06700 3.01000 35.32000
C  33.83400 3.42800 36.83700
H  34.58700 4.60300 37.50800
N  37.42000 2.93900 29.97500
C  38.19600 2.84100 31.06200
C  39.56400 2.35300 30.67100
C  39.49500 2.08500 29.29100
C  38.16300 2.58800 28.85800
C  40.58400 1.97800 31.58000
C  40.65100 1.62500 28.27800
O  40.44700 1.66000 27.07100
C  42.12500 1.47300 28.76000
N  35.34100 3.43200 27.85400
C  36.28700 2.94400 27.12100
C  35.83700 2.92300 25.60300
C  34.33400 2.95100 25.67900
C  34.14200 3.35000 27.18500
C  36.49900 3.99900 24.59700
C  33.56000 1.67100 25.22100
C  33.25300 0.55600 26.23000
N  33.43900 3.90400 29.96400
C  32.51400 3.94100 28.97900
C  31.19600 4.22600 29.47500
C  31.35000 4.38400 30.83500
C  32.73100 4.10600 31.10400
C  29.87400 4.27500 28.66300
C  30.63900 4.68700 32.09400
O  29.51800 4.90900 32.31300
C  31.76500 4.67300 33.19800
C  31.91100 6.00300 33.93200
O  32.23500 7.06500 33.42100
O  31.54300 5.76500 35.26400
C  31.48200 7.09800 36.02200
H  38.50300 2.81500 33.16000
H  38.20100 2.27500 26.77100
H  32.02700 3.58200 26.96000
H  34.30300 5.09900 34.84500
H  36.70800 3.27200 34.87600
H  36.61100 6.24300 34.70200
H  37.77300 5.52900 33.67300
H  37.75700 5.15100 35.48400
H  34.70000 2.13500 35.17200
H  33.01800 2.89800 35.04700
H  33.91700 2.55100 37.47800
H  32.77200 3.65700 36.92500
H  40.24200 1.99000 32.61500
H  41.46400 2.57600 31.34200
H  40.83200 0.93100 31.40900
H  42.33100 2.41200 29.27400
H  42.82200 1.33100 27.93400
H  42.21400 0.58300 29.38400
H  36.01900 1.92900 25.19500
H  34.00600 3.80500 25.08700
H  35.89400 4.90600 24.59400
H  36.60200 3.64200 23.57200
H  37.48100 4.30900 24.95300
H  34.01000 1.13100 24.38900
H  32.62300 2.00300 24.77300
H  33.12300 1.00800 27.21300
H  33.95700 -0.27500 26.24300
H  32.25600 0.22200 25.94400
H  29.10800 3.69300 29.17600
H  29.90000 3.79700 27.68400
H  29.46600 5.27000 28.48600
H  31.48800 3.88800 33.90200
H  31.95800 7.90300 35.46200
H  31.94800 7.02100 37.00400
H  30.46200 7.46100 36.14300
Mg 53.96100 24.37100 45.18200
C  51.28400 26.50200 44.30500
C  52.08900 21.77200 44.09700
C  56.67600 22.53100 45.46600
C  55.90400 27.22800 45.79400
N  52.01900 24.25900 44.12700
C  51.02900 25.17600 43.93900
C  49.73500 24.51800 43.54300
C  49.95500 23.01900 43.85400
C  51.43000 22.99700 44.11500
C  49.08300 22.38700 45.05900
C  49.41500 24.79700 42.05100
C  47.93500 24.72300 41.56900
H  47.79800 24.76600 40.05000
N  54.24300 22.41700 44.97700
C  53.39500 21.49800 44.50400
C  53.95100 20.13400 44.54200
C  55.29100 20.26300 45.01500
C  55.47900 21.79000 45.14200
C  53.19200 18.86300 44.24200
C  56.34600 19.16700 45.27100
O  56.11000 17.98800 44.99500
C  57.65200 19.47300 45.79400
N  56.03000 24.85600 45.43800
C  56.94600 23.86500 45.70800
C  58.35700 24.37100 45.80800
C  58.08200 25.91800 45.74300
C  56.53000 26.02200 45.71000
C  59.17300 23.94700 47.08100
C  58.85600 26.66500 44.61200
C  58.22600 26.69800 43.24700
N  53.72500 26.41300 45.08900
C  54.54500 27.45000 45.44300
C  53.79600 28.67100 45.34000
C  52.50200 28.29900 45.00200
C  52.55400 26.95200 44.72500
C  54.35800 30.05100 45.68900
C  51.17400 28.89600 44.78500
O  50.70700 30.06000 44.88500
C  50.37000 27.79000 44.16900
C  49.98200 28.20500 42.85500
O  50.77200 28.39400 41.93000
O  48.62800 28.38700 42.83500
C  48.06200 28.66900 41.55000
H  51.48500 20.92300 43.77000
H  57.58100 21.92300 45.53200
H  56.45900 28.16200 45.90600
H  48.97400 24.92100 44.21100
H  49.81100 22.33500 43.01700
H  49.67600 22.15200 45.94300
H  48.68700 21.41000 44.78300
H  48.24000 23.05000 45.25100
H  50.18600 24.17100 41.60200
H  49.75500 25.81700 41.86700
H  47.41200 25.59500 41.96000
H  47.34300 23.87300 41.90800
H  53.74100 17.92700 44.13800
H  52.58800 19.00200 43.34600
H  52.41000 18.78200 44.99800
H  57.99200 18.53100 46.22300
H  57.34100 20.09600 46.63300
H  58.22300 19.96300 45.00600
H  58.78300 24.02400 44.86700
H  58.45200 26.35800 46.66900
H  58.81800 22.96000 47.37700
H  59.06800 24.63200 47.92200
H  60.21800 23.73200 46.86100
H  59.73500 26.05000 44.41800
H  59.26500 27.61000 44.96800
H  58.82500 26.08100 42.57800
H  58.06200 27.69000 42.82500
H  57.21500 26.29900 43.33700
H  54.95000 30.37700 44.83400
H  54.93600 30.01900 46.61300
H  53.49000 30.70100 45.80100
H  49.52500 27.68400 44.85000
H  48.06800 29.71100 41.22900
H  47.00000 28.42600 41.53700
H  48.54800 28.05100 40.79500

