158

Mg 0.68700 -1.79700 43.35600
C  4.09500 -1.99400 42.65000
C  0.63200 1.09000 41.37400
C  -2.70500 -1.83500 43.45600
C  0.88600 -4.93200 44.83300
N  2.13400 -0.64500 42.12200
C  3.49000 -0.86700 42.11500
C  4.26700 0.24600 41.32300
C  3.19800 1.37700 41.08600
C  1.91100 0.60500 41.62100
C  3.46600 2.76400 41.91300
C  4.97800 -0.20600 40.05600
C  6.31000 0.43600 39.90400
H  6.49500 1.59500 38.87600
N  -0.84500 -0.60800 42.47800
C  -0.69100 0.60900 41.74800
C  -1.98200 1.15700 41.33400
C  -2.97400 0.29700 41.96200
C  -2.23000 -0.81700 42.64500
C  -2.13300 2.35700 40.39600
C  -4.48800 0.56900 42.04400
O  -4.91000 1.56200 41.51900
C  -5.58500 -0.26200 42.70500
N  -0.71800 -3.29000 43.91800
C  -2.04300 -2.94400 44.13900
C  -2.78000 -3.91100 45.01700
C  -1.60300 -4.95900 45.25400
C  -0.36000 -4.38300 44.66300
C  -3.61700 -3.35100 46.19700
C  -1.94100 -6.37000 44.62700
C  -2.52300 -7.47300 45.63600
N  2.22600 -3.17200 43.86400
C  2.13000 -4.40300 44.46100
C  3.46600 -4.90800 44.62500
C  4.28800 -4.01600 43.89300
C  3.48100 -2.99500 43.46600
C  3.81300 -6.22800 45.16400
C  5.62200 -3.78000 43.40500
O  6.67500 -4.42400 43.50800
C  5.51900 -2.46100 42.48100
C  6.54100 -1.44500 42.93400
O  6.50200 -0.66800 43.89400
O  7.58800 -1.70400 42.13800
C  8.79700 -0.83800 42.34700
H  0.58300 2.01400 40.79400
H  -3.77900 -1.86700 43.65300
H  1.00700 -5.87400 45.37300
H  4.97400 0.65600 42.04500
H  3.05900 1.71000 40.05700
H  2.62700 2.82600 42.60500
H  3.39500 3.62500 41.24700
H  4.37900 2.76000 42.50800
H  4.29600 0.07300 39.25300
H  5.03400 -1.29400 40.01500
H  7.10000 -0.27500 39.66100
H  6.62700 0.89800 40.84000
H  -3.16600 2.70700 40.41300
H  -1.96400 2.03700 39.36800
H  -1.43200 3.13500 40.69800
H  -6.59900 0.02200 42.42300
H  -5.48200 -0.34800 43.78600
H  -5.36400 -1.26000 42.32500
H  -3.53800 -4.32400 44.35300
H  -1.47000 -5.06100 46.33100
H  -3.41500 -3.90700 47.11300
H  -4.69600 -3.31300 46.04700
H  -3.38900 -2.32000 46.46900
H  -1.02600 -6.85500 44.28600
H  -2.69900 -6.17600 43.86800
H  -3.56900 -7.56300 45.34300
H  -2.22200 -7.18700 46.64300
H  -2.05200 -8.45500 45.59000
H  3.48000 -6.23600 46.20200
H  4.87600 -6.42100 45.02000
H  3.15700 -6.96600 44.70200
H  5.85300 -2.78900 41.49700
H  9.24900 -1.07000 43.31100
H  8.47600 0.20300 42.35400
H  9.51400 -1.05600 41.55600
Mg -4.83900 25.22600 25.30800
C  -3.28900 26.73200 28.01000
C  -6.44000 23.07000 27.44400
C  -5.99300 23.64400 22.59600
C  -2.93200 27.34700 23.19600
N  -4.84700 24.86700 27.41800
C  -4.16700 25.68600 28.37200
C  -4.57800 25.34300 29.75900
C  -5.40900 24.02500 29.57600
C  -5.58300 23.97300 28.07900
C  -4.78000 22.76700 30.18300
C  -5.23300 26.52600 30.51700
C  -4.89100 26.75900 32.01200
H  -4.80700 25.36800 32.75800
N  -6.08300 23.61400 25.05600
C  -6.67500 22.89800 26.03800
C  -7.55300 21.93100 25.46600
C  -7.41300 21.97400 24.03400
C  -6.50700 23.15700 23.83300
C  -8.42700 21.04400 26.29000
C  -8.08500 21.19600 22.89600
O  -7.90000 21.43500 21.70200
C  -8.95800 20.05800 23.22900
N  -4.54500 25.53200 23.13600
C  -5.11000 24.68200 22.26500
C  -4.53300 24.91900 20.83500
C  -3.79000 26.33200 20.95700
C  -3.71800 26.42400 22.50900
C  -3.65600 23.74700 20.32800
C  -4.63100 27.50100 20.33400
C  -4.15500 28.03400 18.98700
N  -3.53700 26.88900 25.51400
C  -2.77200 27.51100 24.58300
C  -1.90000 28.45100 25.24400
C  -2.04400 28.19000 26.62500
C  -3.02500 27.19100 26.71600
C  -1.02200 29.46300 24.52700
C  -1.54800 28.53100 27.93300
O  -0.67100 29.30800 28.36000
C  -2.36300 27.61600 28.86700
C  -1.49400 26.87900 29.94100
O  -1.05400 25.75800 29.81800
O  -1.51000 27.61700 31.08800
C  -0.88700 26.95600 32.23300
H  -7.02900 22.38200 28.05300
H  -6.18600 23.11900 21.65800
H  -2.41400 28.13700 22.65000
H  -3.68100 25.16100 30.35000
H  -6.41700 24.08900 29.98600
H  -5.53200 22.13400 30.65400
H  -4.12800 23.02000 31.01900
H  -4.32100 22.15700 29.40400
H  -6.31700 26.41400 30.54300
H  -5.11100 27.46300 29.97400
H  -5.61400 27.34900 32.57600
H  -3.94200 27.28700 32.10100
H  -8.12300 19.99700 26.30300
H  -9.34600 21.10400 25.70700
H  -8.59700 21.38600 27.31100
H  -8.40600 19.39200 23.89200
H  -9.28300 19.60400 22.29300
H  -9.90600 20.33200 23.69300
H  -5.41700 24.94100 20.19700
H  -2.80300 26.31800 20.49400
H  -4.27600 22.85400 20.40600
H  -2.75100 23.67600 20.93100
H  -3.39400 23.82700 19.27300
H  -4.60700 28.39500 20.95700
H  -5.64300 27.10500 20.24000
H  -4.02600 29.11600 19.03000
H  -5.03400 27.87400 18.36300
H  -3.28500 27.50600 18.59600
H  -1.41600 30.47600 24.61500
H  -0.96300 29.34000 23.44500
H  -0.08100 29.46300 25.07700
H  -3.12400 28.17200 29.41500
H  -0.79800 25.87300 32.14700
H  -1.41000 27.08800 33.18000
H  0.07900 27.45400 32.31200

