158

Mg 9.30100 3.95900 27.17000
C  10.33700 2.36800 30.03100
C  7.19200 5.85100 29.00600
C  7.89600 4.91400 24.30000
C  10.46200 1.01700 25.31500
N  8.65300 3.99600 29.29100
C  9.43700 3.43900 30.24800
C  9.09200 4.00800 31.61100
C  7.84400 4.95100 31.35900
C  7.89400 5.03200 29.82400
C  6.45700 4.48500 31.93900
C  10.36200 4.51100 32.33000
C  10.06300 5.26000 33.60500
H  11.14600 5.29400 34.68200
N  7.79600 5.29500 26.71300
C  6.98600 5.98100 27.62500
C  6.20300 6.94800 26.84300
C  6.50600 6.76300 25.50400
C  7.46500 5.57900 25.43200
C  5.22200 7.95200 27.48900
C  6.00300 7.54900 24.25700
O  6.49200 7.37000 23.17300
C  4.88200 8.55900 24.49100
N  9.19600 2.97800 25.07500
C  8.56600 3.70500 24.11000
C  8.88400 3.13900 22.72900
C  9.62300 1.85700 23.01000
C  9.81900 1.89800 24.52800
C  7.76100 3.22500 21.64700
C  10.88200 1.46200 22.25200
C  10.99300 0.07800 21.47700
N  10.30900 2.20100 27.56600
C  10.72500 1.18200 26.69400
C  11.46900 0.17900 27.46300
C  11.42500 0.65100 28.76900
C  10.62500 1.84200 28.79800
C  12.20700 -1.03000 26.89400
C  11.87300 0.42100 30.09300
O  12.56700 -0.44400 30.60800
C  11.10700 1.46600 30.97500
C  10.14900 0.79400 31.88300
O  9.14600 0.15300 31.55200
O  10.70500 0.90600 33.21800
C  9.90500 0.41700 34.30600
H  6.54800 6.46900 29.63400
H  7.69400 5.34500 23.31700
H  10.85500 0.20000 24.70700
H  8.86500 3.15100 32.24500
H  8.10000 5.88500 31.85800
H  6.47500 3.46700 32.32800
H  5.74700 4.46000 31.11200
H  5.95300 5.08800 32.69400
H  11.09100 5.04800 31.72400
H  10.96600 3.64700 32.60600
H  9.23500 4.75900 34.10700
H  9.78300 6.26800 33.30100
H  4.23900 7.68300 27.10300
H  5.53600 8.93800 27.14600
H  5.30500 7.83000 28.56900
H  4.12300 8.16600 25.16800
H  4.34000 8.69900 23.55600
H  5.31200 9.47000 24.90800
H  9.65300 3.75000 22.25600
H  8.89900 1.04400 22.94200
H  6.88700 3.63100 22.15700
H  7.38400 2.29900 21.21400
H  8.06600 3.86900 20.82200
H  11.67700 1.47900 22.99700
H  11.24200 2.27000 21.61600
H  10.00000 -0.36500 21.41300
H  11.75900 -0.55200 21.93000
H  11.32500 0.19800 20.44600
H  13.29000 -0.97800 27.00200
H  12.02100 -1.13300 25.82500
H  11.84100 -1.90500 27.43300
H  11.81300 2.01000 31.60300
H  10.06700 1.04300 35.18400
H  10.41600 -0.45100 34.72300
H  8.84100 0.20900 34.19400
Mg -5.45000 25.32200 25.59500
C  -3.82500 26.69200 28.44500
C  -6.77900 22.88500 27.59700
C  -6.82900 23.95800 22.77300
C  -3.36200 27.44800 23.59200
N  -5.40900 24.91300 27.75600
C  -4.80800 25.70400 28.71900
C  -5.36700 25.28300 30.10500
C  -5.89300 23.83000 29.81900
C  -5.94700 23.79800 28.29200
C  -4.84000 22.79600 30.33600
C  -6.42400 26.21700 30.78100
C  -6.17500 26.39200 32.24200
H  -5.64500 25.19200 33.08700
N  -6.64600 23.71100 25.26300
C  -7.09000 22.83900 26.24100
C  -8.18200 22.08500 25.64900
C  -8.17200 22.32400 24.24700
C  -7.16600 23.36400 24.01400
C  -9.02000 21.08700 26.44500
C  -8.94100 21.74900 23.12500
O  -8.79600 22.03100 21.92900
C  -10.13000 20.75500 23.39100
N  -5.20100 25.68800 23.45400
C  -5.87400 25.00000 22.47900
C  -5.48500 25.47000 21.03600
C  -4.43500 26.60200 21.33800
C  -4.26400 26.55700 22.90700
C  -4.94600 24.28700 20.22600
C  -4.91600 27.99500 20.77200
C  -3.76300 28.97100 20.24100
N  -3.98000 26.82800 25.88000
C  -3.23600 27.58300 25.01000
C  -2.36200 28.48600 25.75900
C  -2.61000 28.11100 27.08500
C  -3.60000 27.15300 27.10300
C  -1.40300 29.39100 25.32000
C  -2.26600 28.50700 28.45500
O  -1.53800 29.41600 28.82900
C  -3.09900 27.62800 29.40100
C  -2.07800 26.96400 30.26800
O  -1.07000 26.37900 29.85100
O  -2.39300 27.15500 31.54900
C  -1.56800 26.37100 32.50300
H  -7.27900 22.20300 28.28800
H  -7.35300 23.64600 21.86800
H  -2.75300 28.12900 22.99300
H  -4.55100 25.32200 30.82800
H  -6.83400 23.71200 30.35700
H  -4.11800 23.34200 30.94400
H  -4.52600 22.07300 29.58300
H  -5.33900 22.15000 31.05800
H  -7.39600 25.75200 30.61600
H  -6.32300 27.24000 30.41900
H  -7.17100 26.57200 32.64900
H  -5.62000 27.31900 32.38200
H  -8.93700 21.15000 27.53000
H  -8.74800 20.11200 26.04000
H  -10.07200 21.25600 26.21700
H  -10.59900 20.26400 22.53900
H  -10.80800 21.41700 23.93000
H  -9.79000 20.02900 24.13000
H  -6.38200 25.74800 20.48300
H  -3.43400 26.30200 21.02700
H  -5.84400 23.88300 19.75800
H  -4.47200 23.55900 20.88400
H  -4.18000 24.52000 19.48700
H  -5.36300 28.49700 21.63000
H  -5.65600 27.79500 19.99700
H  -3.64200 29.59600 21.12600
H  -3.95700 29.43300 19.27400
H  -2.87200 28.35000 20.14100
H  -0.74400 28.94500 24.57600
H  -0.80800 29.75700 26.15700
H  -2.00300 30.22500 24.95500
H  -3.84000 28.22200 29.93700
H  -2.18000 25.91600 33.28200
H  -0.70900 26.89700 32.92000
H  -1.11900 25.47300 32.07900

