158

Mg 26.19500 -7.90500 47.73200
C  27.81700 -5.15600 46.41900
C  23.41900 -7.17200 45.74900
C  24.77100 -10.91000 48.73100
C  29.18900 -8.96900 49.15500
N  25.79600 -6.46500 45.91300
C  26.54200 -5.32800 45.74700
C  25.80500 -4.28000 44.95000
C  24.28300 -4.78300 45.10700
C  24.47200 -6.25100 45.65300
C  23.42800 -3.95200 46.11600
C  26.41600 -4.14400 43.45300
C  26.85100 -2.71700 43.04500
H  26.81200 -2.26500 41.59400
N  24.34300 -8.83900 47.35500
C  23.33600 -8.39200 46.51800
C  22.14100 -9.23600 46.69900
C  22.47200 -10.28400 47.57700
C  23.94000 -10.09700 47.92200
C  20.84000 -9.01400 45.82300
C  21.57100 -11.40900 47.98600
O  20.38700 -11.46800 47.67200
C  22.00900 -12.47800 48.89900
N  26.90800 -9.75100 48.67700
C  26.10800 -10.78100 49.07800
C  26.84800 -11.89300 49.96800
C  28.31000 -11.33800 49.89500
C  28.11300 -9.92700 49.24200
C  26.15600 -12.05400 51.43800
C  29.33800 -12.22600 49.13000
C  30.76700 -12.34500 49.74300
N  28.06900 -7.19100 47.86600
C  29.18800 -7.76700 48.40600
C  30.24200 -6.72400 48.53200
C  29.70000 -5.66500 47.83800
C  28.41100 -6.06300 47.24600
C  31.64500 -6.91200 49.14200
C  29.92800 -4.30800 47.35800
O  30.88600 -3.56200 47.51200
C  28.79100 -4.00200 46.31900
C  28.16900 -2.78800 46.91300
O  27.54600 -2.61800 47.97200
O  28.64100 -1.68800 46.24700
C  28.00000 -0.40900 46.36200
H  22.45200 -6.79200 45.41200
H  24.36000 -11.86800 49.05600
H  30.01100 -9.24000 49.82100
H  25.88900 -3.34000 45.49600
H  23.75500 -4.69800 44.15800
H  23.60600 -4.24600 47.15000
H  22.38400 -4.15100 45.87500
H  23.70000 -2.90700 45.96100
H  25.58700 -4.35500 42.77700
H  27.23700 -4.82200 43.22000
H  27.78900 -2.42800 43.51900
H  26.13200 -2.01500 43.46600
H  21.00600 -9.43600 44.83200
H  20.67400 -7.93800 45.86200
H  20.06900 -9.66100 46.24100
H  22.81100 -13.14100 48.57700
H  21.18700 -13.11300 49.23100
H  22.19600 -11.94800 49.83300
H  26.79600 -12.88100 49.51100
H  28.69700 -11.12200 50.89100
H  25.12000 -11.73200 51.33600
H  26.67900 -11.34300 52.07800
H  26.28300 -13.07700 51.79100
H  29.59900 -11.82500 48.15000
H  28.98100 -13.25000 49.02100
H  30.93700 -11.66200 50.57500
H  31.44000 -12.14900 48.90900
H  30.78300 -13.41500 49.95200
H  31.48200 -7.38600 50.11000
H  32.07800 -5.91200 49.11200
H  32.13500 -7.68800 48.55400
H  29.01800 -3.71200 45.29300
H  28.60900 0.23100 47.00000
H  26.99000 -0.46400 46.76800
H  27.96900 0.23400 45.48200
Mg 36.09200 2.01300 28.61500
C  33.97500 3.17500 31.34300
C  38.60300 2.16300 30.90100
C  38.05800 1.34300 26.09200
C  33.32900 2.16300 26.52900
N  36.14700 2.60200 30.80900
C  35.24700 2.91000 31.76800
C  35.74600 2.85400 33.24100
C  37.29700 3.05400 32.94800
C  37.39400 2.45000 31.47600
C  37.91000 4.47700 33.15200
C  35.26100 1.61100 34.08400
C  35.00900 1.92700 35.58700
H  35.68300 3.24700 36.14000
N  38.06500 1.63800 28.49000
C  38.93500 1.81000 29.55200
C  40.26700 1.49000 29.06400
C  40.18300 1.33600 27.64700
C  38.73700 1.39200 27.36000
C  41.45100 1.42300 29.96700
C  41.26200 1.01200 26.62900
O  40.90800 0.75200 25.47300
C  42.72200 0.92400 27.01400
N  35.73800 1.56900 26.64500
C  36.68300 1.36300 25.74000
C  36.16400 1.24900 24.31600
C  34.67100 1.27800 24.47300
C  34.50100 1.65600 25.97400
C  36.78200 2.35500 23.38200
C  33.85600 0.01800 24.24600
C  32.58500 0.21500 23.30400
N  34.10900 2.62700 28.83200
C  33.06600 2.56000 27.87500
C  31.88700 3.12800 28.45000
C  32.13500 3.29400 29.83500
C  33.50700 2.96400 30.03200
C  30.64500 3.39900 27.55800
C  31.62100 3.85500 31.07600
O  30.63300 4.51300 31.24900
C  32.69400 3.54500 32.13400
C  32.85700 4.81000 32.94300
O  33.65100 5.66700 32.81700
O  31.94100 4.73100 33.97700
C  31.95400 5.76500 34.94500
H  39.45500 2.20300 31.58300
H  38.64900 1.14900 25.19500
H  32.48300 2.47100 25.91100
H  35.35900 3.75800 33.70900
H  37.99100 2.45900 33.54200
H  37.13300 5.11100 33.57900
H  38.28400 4.87200 32.20700
H  38.72000 4.39700 33.87700
H  36.09900 0.93100 33.93000
H  34.43200 1.03800 33.66900
H  35.15300 1.07600 36.25300
H  33.93200 2.08500 35.52700
H  41.30400 1.29800 31.04000
H  42.06300 2.31700 29.85000
H  41.92500 0.52000 29.58100
H  42.92200 1.70000 27.75300
H  43.35900 1.05000 26.13900
H  42.89100 -0.06700 27.43400
H  36.44200 0.24400 23.99800
H  34.31500 2.12300 23.88300
H  37.54600 2.99200 23.82900
H  35.97100 2.97500 23.00100
H  37.35500 1.87200 22.59000
H  33.48000 -0.47500 25.14300
H  34.48900 -0.72100 23.75400
H  31.67500 0.09900 23.89300
H  32.50500 -0.50000 22.48600
H  32.60000 1.20800 22.85300
H  30.39800 2.42300 27.14100
H  30.97900 4.09600 26.78900
H  29.70900 3.66400 28.05000
H  32.29900 2.71400 32.71800
H  30.97000 6.03600 35.32800
H  32.64600 6.58500 34.74700
H  32.52400 5.22600 35.70100

