158

Mg 0.09200 7.60400 25.20700
C  0.85700 9.69100 27.79800
C  0.47100 4.89500 27.28900
C  -0.41800 5.61700 22.61600
C  0.28300 10.31800 23.05200
N  0.70800 7.28800 27.28500
C  0.85600 8.34900 28.18900
C  1.19400 7.81000 29.59500
C  1.14500 6.30400 29.36300
C  0.77700 6.10300 27.92800
C  2.45400 5.55500 29.70000
C  0.22100 8.28600 30.65200
C  0.94800 8.67900 32.00600
H  1.52700 7.50700 32.84000
N  -0.20700 5.57400 25.05800
C  -0.07700 4.63200 25.99100
C  -0.25800 3.27000 25.33900
C  -0.51100 3.40700 23.99300
C  -0.45200 4.97400 23.84300
C  -0.07500 2.01700 26.15800
C  -0.77700 2.29800 22.94900
O  -1.17900 2.54700 21.83900
C  -0.50700 0.77700 23.37200
N  0.09100 7.90300 23.15800
C  -0.24900 6.96500 22.25900
C  -0.56900 7.46400 20.88300
C  -0.37300 8.99900 21.05300
C  0.07400 9.09800 22.51100
C  0.19900 6.86700 19.72800
C  -1.54100 9.95400 20.64500
C  -2.85700 9.85200 21.30400
N  0.59200 9.56700 25.33700
C  0.62900 10.53900 24.37700
C  0.78600 11.86000 24.95100
C  1.01400 11.53500 26.29500
C  0.78100 10.14700 26.50100
C  0.84100 13.18500 24.39100
C  1.30200 12.13300 27.55900
O  1.62000 13.27400 27.90100
C  1.20800 10.97200 28.67900
C  2.43000 10.96900 29.54300
O  3.44900 10.38200 29.30800
O  2.17800 11.57800 30.71800
C  3.32900 11.68900 31.69900
H  0.48300 4.09100 28.02800
H  -0.86800 4.96600 21.86300
H  0.14600 11.24100 22.48600
H  2.22800 8.10500 29.77300
H  0.45800 5.87300 30.09100
H  2.68600 4.86100 28.89100
H  2.33400 4.95100 30.59900
H  3.26900 6.25900 29.86800
H  -0.53200 7.52600 30.86200
H  -0.27600 9.16900 30.25000
H  0.23800 9.31300 32.53700
H  1.85000 9.20000 31.68200
H  -1.04700 1.54200 26.03400
H  0.01000 2.36000 27.19000
H  0.85000 1.47600 25.96100
H  -1.34200 0.43100 23.98300
H  0.46200 0.82200 23.86800
H  -0.39000 0.10900 22.51900
H  -1.62800 7.32300 20.66800
H  0.54400 9.30500 20.54900
H  -0.38700 6.60100 18.84800
H  0.69300 5.94200 20.02300
H  0.88200 7.62600 19.34600
H  -1.69900 9.76900 19.58300
H  -1.13100 10.96400 20.61200
H  -2.78400 9.13200 22.11900
H  -3.58400 9.54800 20.55100
H  -3.19200 10.77700 21.77400
H  0.00400 13.71000 24.85200
H  0.68300 13.21900 23.31300
H  1.77900 13.63100 24.72200
H  0.46200 11.37500 29.36400
H  3.75500 10.71400 31.93700
H  3.03700 12.10100 32.66500
H  4.15300 12.24500 31.25200
Mg 10.24100 47.13000 26.05200
C  7.74900 47.31200 28.21900
C  12.50700 48.20100 28.37600
C  12.66800 46.91500 23.57300
C  7.86000 46.62100 23.37900
N  10.03200 47.77000 28.03300
C  8.94200 47.71000 28.76100
C  9.30400 47.89700 30.23200
C  10.75900 48.48600 30.21500
C  11.13000 48.19100 28.76900
C  10.85800 49.98800 30.52800
C  9.07300 46.77700 31.21900
C  9.73500 47.02900 32.53700
H  9.07100 46.38100 33.77800
N  12.25600 47.59200 25.91000
C  13.01200 47.92500 27.01300
C  14.39900 48.02900 26.66100
C  14.50300 47.61200 25.27500
C  13.06900 47.36500 24.81200
C  15.51800 48.57100 27.59600
C  15.77400 47.40800 24.42300
O  15.69600 47.03200 23.28400
C  17.14200 47.77600 24.99600
N  10.26500 46.93000 23.80400
C  11.38400 46.80500 23.03700
C  11.13000 46.38200 21.55000
C  9.62900 46.38500 21.50400
C  9.19400 46.65300 22.98300
C  11.81500 47.30500 20.56000
C  9.03200 45.05100 20.84900
C  7.67400 45.20500 20.17500
N  8.20300 46.84700 25.83200
C  7.37000 46.78600 24.68000
C  5.99500 46.62400 25.15000
C  6.09200 46.85600 26.56700
C  7.45200 47.00400 26.84400
C  4.72400 46.39100 24.34200
C  5.31300 46.90300 27.83400
O  4.13700 46.78900 28.04500
C  6.41900 47.17400 28.95500
C  6.27800 46.01200 29.77700
O  6.86800 45.01500 29.63100
O  5.37900 46.23100 30.74600
C  5.07800 45.23100 31.71700
H  13.20000 48.46100 29.17900
H  13.42000 46.78400 22.79200
H  7.11900 46.52800 22.58200
H  8.70700 48.76600 30.51000
H  11.47100 47.83000 30.71700
H  11.43300 50.41900 29.70800
H  11.52400 50.13200 31.38000
H  9.88300 50.47000 30.59300
H  9.36100 45.81600 30.79300
H  7.99100 46.75400 31.34900
H  9.91000 48.09600 32.67400
H  10.72000 46.56400 32.52000
H  15.10300 48.90200 28.54800
H  16.01600 49.47600 27.24600
H  16.31600 47.83100 27.65500
H  17.58500 47.06100 25.68900
H  17.20600 48.76700 25.44500
H  17.84700 47.74700 24.16400
H  11.45800 45.37300 21.30100
H  9.37000 47.30500 20.97900
H  11.51900 48.32700 20.79600
H  11.35800 47.14200 19.58400
H  12.87400 47.04900 20.51600
H  8.94600 44.34100 21.67200
H  9.81500 44.70600 20.17400
H  7.34400 46.23300 20.02000
H  6.90800 44.60400 20.66400
H  7.85400 44.82200 19.17100
H  4.96200 45.78000 23.47000
H  4.34100 47.33700 23.95900
H  3.97200 45.91700 24.97200
H  6.31100 48.10200 29.51700
H  4.53600 44.34500 31.38500
H  4.39000 45.55800 32.49700
H  5.95400 44.99400 32.32000

