158

Mg 53.65700 24.19900 44.59800
C  51.17900 26.48500 43.87300
C  51.62300 21.61900 43.68200
C  56.41800 22.25700 44.14800
C  55.80000 26.96100 45.08100
N  51.71600 24.07100 43.71000
C  50.81900 25.12700 43.62100
C  49.41000 24.71800 43.15800
C  49.59300 23.19800 43.57100
C  51.08200 22.96900 43.67900
C  48.86100 22.74100 44.86700
C  49.20600 25.08000 41.70000
C  48.23600 24.21200 40.90600
H  48.00700 24.62800 39.44000
N  53.97800 22.21600 43.99600
C  52.98600 21.32400 43.69600
C  53.57600 19.99200 43.60400
C  54.93600 20.17300 43.75700
C  55.12900 21.61000 43.89700
C  52.75100 18.73200 43.39700
C  56.04300 19.05000 43.76800
O  55.74800 17.87400 43.58600
C  57.55800 19.21000 43.98800
N  55.82600 24.60800 44.58500
C  56.70100 23.55900 44.55300
C  58.20500 24.06700 44.87000
C  57.97900 25.58300 45.08900
C  56.44000 25.75300 44.85800
C  58.70800 23.45300 46.17900
C  58.96400 26.44400 44.22900
C  58.82900 26.32100 42.70900
N  53.58300 26.34500 44.69400
C  54.46800 27.29100 44.98900
C  53.80400 28.57700 45.05900
C  52.45500 28.31000 44.64300
C  52.40100 26.95200 44.34900
C  54.46300 29.80400 45.64300
C  51.10300 28.93000 44.58500
O  50.64800 30.04100 44.82500
C  50.27100 27.80000 43.87800
C  50.14500 28.37600 42.46700
O  51.07200 28.62800 41.73300
O  48.82600 28.69500 42.17200
C  48.51900 29.02900 40.74200
H  50.93600 20.77000 43.66000
H  57.28200 21.60200 44.27300
H  56.45800 27.80900 45.28000
H  48.65600 25.28100 43.70800
H  49.28000 22.49600 42.79800
H  48.00900 22.11100 44.61300
H  48.43100 23.62300 45.34100
H  49.56000 22.26500 45.55600
H  50.15800 25.11200 41.17000
H  48.69600 26.04400 41.69900
H  47.29200 24.06000 41.43000
H  48.74400 23.25200 40.81400
H  51.88800 18.94100 42.76400
H  52.42500 18.43900 44.39500
H  53.20200 17.82700 42.99100
H  58.08100 18.25400 43.99400
H  57.69000 19.60900 44.99400
H  58.01600 19.92200 43.30200
H  58.89700 23.99200 44.03100
H  58.12500 25.95000 46.10600
H  57.99700 22.73100 46.58300
H  58.79900 24.21100 46.95600
H  59.72100 23.12600 45.94700
H  59.99300 26.15500 44.44400
H  58.85700 27.46600 44.59400
H  58.49000 27.25000 42.25000
H  58.13600 25.58000 42.31200
H  59.87200 26.21500 42.41100
H  55.53400 29.70700 45.82300
H  53.87500 30.14400 46.49600
H  54.30200 30.64500 44.96900
H  49.25400 27.73400 44.26500
H  49.36400 29.11600 40.05900
H  47.97100 29.95500 40.56700
H  47.86400 28.22500 40.40600
Mg 36.49300 49.19000 24.45400
C  36.42300 47.22000 27.56200
C  34.95800 51.71800 26.30600
C  36.17700 50.82600 21.68900
C  37.37200 46.26600 22.85300
N  35.83200 49.41600 26.73600
C  36.10500 48.57000 27.79900
C  35.59400 49.18300 29.10400
C  34.81300 50.47200 28.59200
C  35.22900 50.59300 27.14800
C  33.27100 50.68900 28.90100
C  36.72900 49.46300 30.20100
C  36.50000 48.85700 31.56900
H  35.01600 48.90200 32.24700
N  35.89800 51.12800 24.07500
C  35.28800 52.00900 25.00200
C  34.97800 53.22300 24.20400
C  35.42500 53.09500 22.83400
C  35.84600 51.68100 22.81500
C  34.34100 54.50400 24.83300
C  35.48900 54.00000 21.71700
O  35.88000 53.66900 20.61900
C  35.05500 55.45000 21.88900
N  36.87000 48.61200 22.55700
C  36.65500 49.51700 21.57900
C  36.88600 48.85100 20.21500
C  37.30100 47.45400 20.58600
C  37.04600 47.41200 22.06200
C  35.82800 48.88600 19.05200
C  38.82600 47.07300 20.22400
C  39.97200 47.61000 21.03000
N  36.85600 47.20200 25.02600
C  37.30200 46.10800 24.23300
C  37.53400 44.92900 24.99700
C  37.20200 45.40000 26.29800
C  36.75700 46.70900 26.26100
C  38.03000 43.62500 24.46600
C  37.17800 44.94600 27.70500
O  37.45400 43.89200 28.21800
C  36.68900 46.09900 28.47600
C  35.50300 45.62300 29.24900
O  34.34800 45.54500 28.84300
O  35.90200 45.17000 30.50000
C  34.87500 44.58400 31.36900
H  34.47400 52.59400 26.74200
H  35.97600 51.30700 20.72900
H  37.68500 45.38500 22.29000
H  34.96100 48.35100 29.41200
H  35.18900 51.26400 29.23900
H  32.72500 50.88600 27.97800
H  33.09400 51.42500 29.68500
H  32.89500 49.84100 29.47300
H  36.97300 50.52300 30.26500
H  37.66100 49.03500 29.83300
H  37.20400 49.42600 32.17500
H  36.87800 47.83500 31.59400
H  35.00000 55.36400 24.70500
H  34.15400 54.53600 25.90600
H  33.40800 54.70600 24.30700
H  33.97200 55.43000 22.00400
H  35.36400 55.98400 20.99000
H  35.63000 55.84200 22.72800
H  37.76600 49.34400 19.80000
H  36.56000 46.76000 20.18900
H  35.62100 49.94600 18.90100
H  34.94500 48.43900 19.50800
H  36.22700 48.40800 18.15700
H  39.07300 47.22000 19.17200
H  38.92900 45.98800 20.24600
H  39.68400 48.61100 21.35000
H  40.93700 47.71800 20.53600
H  40.29500 46.95900 21.84200
H  38.78800 43.84600 23.71400
H  37.20400 42.98400 24.15600
H  38.50500 43.05600 25.26500
H  37.48900 46.54900 29.06500
H  35.27600 44.13100 32.27600
H  34.24900 43.86400 30.84200
H  34.15300 45.33200 31.69600

