158

Mg 47.08500 16.83700 28.88000
C  45.13300 16.85400 31.86100
C  49.39700 18.53300 30.41900
C  48.58200 17.21600 25.82400
C  44.49600 15.19700 27.18300
N  47.28700 17.45700 30.98700
C  46.38200 17.39100 32.01000
C  46.94100 18.07700 33.30300
C  48.32500 18.64300 32.83400
C  48.34000 18.21900 31.33800
C  48.38600 20.15100 32.98100
C  47.00700 17.07600 34.51100
C  47.46600 17.66700 35.85800
H  47.28700 19.19900 36.21700
N  48.82000 17.56100 28.25500
C  49.68600 18.24100 29.03300
C  50.88200 18.53400 28.32100
C  50.66900 18.12900 26.97900
C  49.29000 17.60200 26.98400
C  52.12500 19.14600 28.95300
C  51.65100 18.28000 25.74100
O  51.33100 17.94400 24.57100
C  53.02600 18.95100 25.90900
N  46.53400 16.28100 26.82800
C  47.31300 16.54200 25.75400
C  46.83500 16.02400 24.41600
C  45.59000 15.25600 24.87300
C  45.47300 15.62800 26.38600
C  46.56900 17.08600 23.33700
C  45.59400 13.76000 24.50200
C  44.99200 13.41300 23.14500
N  45.22400 16.11600 29.43800
C  44.26600 15.48700 28.58600
C  43.07400 15.20700 29.35000
C  43.36300 15.70200 30.64100
C  44.70800 16.26800 30.61100
C  41.84000 14.57900 28.79800
C  42.78600 15.87600 32.01500
O  41.66800 15.52500 32.43900
C  43.91200 16.60600 32.84900
C  43.39900 17.83500 33.59100
O  42.94300 18.81900 33.01200
O  43.39200 17.71700 34.92900
C  42.44600 18.51300 35.66300
H  50.14800 19.13700 30.93300
H  49.17500 17.34600 24.91600
H  43.75300 14.61800 26.63100
H  46.20800 18.84600 33.54900
H  49.15800 18.10300 33.28200
H  47.53600 20.52900 33.55100
H  48.24200 20.61700 32.00700
H  49.26600 20.66400 33.36900
H  47.65600 16.22500 34.30500
H  46.07100 16.55000 34.69700
H  48.50000 17.32300 35.80800
H  46.98300 17.17700 36.70300
H  52.89900 18.37900 28.92900
H  51.83000 19.46200 29.95300
H  52.41200 20.00600 28.34700
H  53.54700 18.46800 26.73500
H  52.82900 19.98100 26.20400
H  53.68400 18.90700 25.04200
H  47.58900 15.29000 24.13100
H  44.64600 15.61100 24.45800
H  46.46500 18.06700 23.80100
H  45.75300 16.81200 22.66900
H  47.54200 17.13900 22.84900
H  45.15400 13.16100 25.30000
H  46.65000 13.49500 24.46800
H  43.97300 13.07000 23.32100
H  45.53000 12.58200 22.68900
H  44.93900 14.17400 22.36600
H  41.69000 14.88400 27.76300
H  40.99500 14.88900 29.41200
H  41.92100 13.50500 28.96700
H  44.34700 16.05400 33.68200
H  42.66600 19.57200 35.53300
H  42.57400 18.25100 36.71400
H  41.42900 18.19300 35.43700
Mg -12.20400 16.59600 41.82800
C  -9.67500 14.32600 41.04900
C  -10.34400 19.00600 40.15300
C  -14.94900 18.49600 41.62900
C  -14.31100 13.79700 42.58700
N  -10.26100 16.47500 40.55100
C  -9.36700 15.54600 40.46600
C  -8.05000 16.01900 39.82900
C  -8.28500 17.53300 39.65500
C  -9.76000 17.70800 40.14100
C  -7.26100 18.49500 40.25900
C  -7.70500 15.15700 38.60400
C  -6.16200 15.10400 38.46300
H  -5.53200 15.86700 37.28200
N  -12.55700 18.51100 41.09300
C  -11.72300 19.39500 40.45700
C  -12.33400 20.70600 40.36500
C  -13.70600 20.52100 40.75900
C  -13.77900 19.13300 41.20600
C  -11.66600 21.90100 39.79100
C  -14.78500 21.65900 40.84000
O  -14.55300 22.72300 40.31200
C  -16.21800 21.59100 41.41200
N  -14.39700 16.27100 42.24400
C  -15.29300 17.21000 42.01000
C  -16.74600 16.71300 42.29600
C  -16.50700 15.13900 42.60400
C  -14.98900 15.01700 42.51400
C  -17.48600 17.63900 43.30800
C  -17.36300 14.15000 41.69900
C  -18.70500 13.70900 42.25500
N  -12.02600 14.59000 42.11300
C  -12.98100 13.56500 42.39300
C  -12.36900 12.27400 42.43400
C  -11.05100 12.53000 42.03300
C  -10.91000 13.90700 41.71000
C  -13.04200 11.07100 42.92000
C  -9.74400 11.99600 41.88300
O  -9.29000 10.91100 42.17700
C  -8.78900 13.06200 41.20500
C  -7.59300 13.44000 41.94400
O  -7.35800 13.73700 43.10200
O  -6.56000 13.34500 41.05400
C  -5.27300 13.84900 41.53200
H  -9.67300 19.81500 39.85500
H  -15.80600 19.17000 41.56700
H  -15.01300 12.97700 42.75000
H  -7.35100 15.81000 40.63900
H  -8.41600 17.70800 38.58700
H  -7.60000 19.04700 41.13500
H  -6.79900 19.09500 39.47500
H  -6.45100 17.84800 40.59600
H  -8.09000 15.74200 37.76900
H  -8.15500 14.16400 38.58600
H  -5.76700 14.09100 38.37700
H  -5.68400 15.62000 39.29600
H  -12.25300 22.81900 39.81600
H  -11.58000 21.59400 38.74900
H  -10.70700 22.14700 40.24900
H  -16.81700 21.02000 40.70200
H  -16.51700 22.63900 41.44500
H  -16.30600 20.99300 42.32000
H  -17.30900 16.81900 41.36800
H  -16.90500 15.04000 43.61400
H  -18.25700 18.13400 42.71700
H  -16.77400 18.39400 43.63900
H  -18.03100 17.22000 44.15500
H  -16.81600 13.27400 41.34900
H  -17.57600 14.72700 40.79900
H  -19.41400 14.13200 41.54300
H  -18.83700 14.04600 43.28300
H  -18.63400 12.62300 42.31600
H  -13.92800 11.02200 42.28800
H  -13.48100 11.14000 43.91600
H  -12.45600 10.15200 42.92800
H  -8.60200 12.64000 40.21800
H  -5.15600 14.92500 41.39900
H  -4.45800 13.41700 40.95000
H  -4.90100 13.63000 42.53300

