158

Mg 2.03700 -1.42500 44.14600
C  5.42000 -0.64600 43.60000
C  1.09900 1.41200 42.44900
C  -1.11100 -2.57100 44.18900
C  3.12500 -4.48400 45.59000
N  3.20700 0.10700 42.89100
C  4.57600 0.28500 43.03000
C  4.86600 1.67500 42.41200
C  3.45300 2.33800 42.29700
C  2.47100 1.24900 42.58700
C  3.33600 3.50800 43.26200
C  5.72900 1.70000 41.06700
C  6.52700 2.97700 41.02100
H  6.31600 3.83800 39.76500
N  0.21800 -0.63000 43.55100
C  0.05100 0.57400 42.89400
C  -1.38400 0.79500 42.79900
C  -2.08900 -0.30800 43.32200
C  -1.01000 -1.19400 43.84600
C  -1.98800 1.84900 41.84700
C  -3.61600 -0.51600 43.26000
O  -4.27600 0.36400 42.65900
C  -4.37700 -1.60100 44.01800
N  1.17800 -3.28900 44.68000
C  -0.19100 -3.50800 44.62600
C  -0.58800 -4.98400 44.95400
C  0.79100 -5.63600 45.28200
C  1.79500 -4.41000 45.16600
C  -1.59400 -5.22800 46.11100
C  1.21100 -6.81600 44.35900
C  1.67800 -8.10600 45.09100
N  3.90500 -2.40500 44.56900
C  4.15300 -3.55400 45.21800
C  5.58100 -3.65400 45.53700
C  6.16800 -2.51800 44.88500
C  5.05900 -1.82000 44.32500
C  6.40300 -4.70600 46.38100
C  7.40300 -1.78700 44.58300
O  8.51800 -2.06400 44.89800
C  7.03700 -0.56600 43.68600
C  7.44000 0.78500 44.33300
O  6.95000 1.16500 45.40800
O  8.38300 1.38000 43.57400
C  8.62000 2.72400 44.11100
H  0.81700 2.42400 42.15300
H  -2.12600 -2.95600 44.07400
H  3.65500 -5.34500 46.00100
H  5.47800 2.07700 43.22000
H  3.22300 2.70000 41.29500
H  2.64700 3.31900 44.08500
H  2.94200 4.37400 42.73000
H  4.24700 3.97900 43.63000
H  5.10000 1.55700 40.18800
H  6.34200 0.81200 41.21600
H  7.57600 2.68400 40.99400
H  6.38800 3.55900 41.93200
H  -2.64300 1.53200 41.03500
H  -1.14500 2.45300 41.51100
H  -2.63600 2.37600 42.54600
H  -5.34800 -1.19100 44.29600
H  -3.82500 -1.97300 44.88200
H  -4.67200 -2.36800 43.30200
H  -1.00600 -5.52800 44.10700
H  0.85400 -5.91200 46.33400
H  -2.00800 -4.33800 46.58400
H  -1.08400 -5.61100 46.99500
H  -2.41200 -5.92700 45.93400
H  2.01700 -6.53800 43.68100
H  0.37800 -7.25200 43.80700
H  1.49200 -8.20700 46.16000
H  2.72900 -8.34000 44.91800
H  1.21800 -8.97300 44.61700
H  6.85000 -4.06000 47.13700
H  7.17300 -5.19600 45.78600
H  5.76100 -5.48100 46.80000
H  7.42300 -0.68300 42.67400
H  7.81900 3.39500 43.80100
H  9.50900 3.23100 43.73400
H  8.61400 2.83100 45.19600
Mg 48.74500 25.03600 28.44600
C  49.59700 27.26800 30.90200
C  47.76200 22.77200 30.81900
C  47.64300 23.13000 25.95000
C  50.23900 27.26500 26.12100
N  48.78500 25.02600 30.69700
C  48.92100 26.12700 31.39800
C  48.48400 25.90700 32.87300
C  48.13300 24.38900 32.88100
C  48.18800 24.03000 31.38800
C  48.81300 23.36900 33.76400
C  47.35200 26.85900 33.35200
C  47.77600 27.91500 34.33300
H  46.97500 28.13900 35.59900
N  48.03500 23.07100 28.41300
C  47.73600 22.30300 29.49100
C  47.22300 21.06900 28.99400
C  46.96300 21.25400 27.60000
C  47.53700 22.56900 27.26400
C  46.94000 19.87900 29.85100
C  46.40900 20.25500 26.49400
O  46.38800 20.46400 25.30500
C  45.99800 18.93300 26.92500
N  48.92200 25.13700 26.34900
C  48.22700 24.27300 25.49500
C  48.23700 24.72000 24.10300
C  49.15300 26.01800 24.15300
C  49.48600 26.21100 25.60900
C  48.74300 23.70100 22.99700
C  48.47500 27.10700 23.35800
C  49.44400 27.95600 22.55600
N  49.76400 26.87600 28.52300
C  50.27200 27.67800 27.49200
C  50.77400 28.92200 28.03800
C  50.59600 28.81200 29.41400
C  49.88600 27.54800 29.59900
C  51.33500 30.11000 27.12800
C  50.79400 29.48200 30.63200
O  51.26700 30.54700 30.97200
C  50.09200 28.50000 31.68800
C  51.16600 28.13700 32.65800
O  52.06400 27.37700 32.40600
O  51.01200 28.83400 33.87300
C  51.95500 28.43800 34.94300
H  47.30000 22.16400 31.60000
H  47.06900 22.58700 25.19600
H  50.78200 27.84900 25.37500
H  49.34000 26.06000 33.53100
H  47.08500 24.35400 33.17900
H  49.00300 23.72900 34.77500
H  49.70700 22.99100 33.26800
H  48.12300 22.52700 33.72600
H  46.43400 26.36200 33.66400
H  47.06700 27.46600 32.49300
H  47.56700 28.89400 33.90200
H  48.83400 27.82900 34.58000
H  47.05000 20.07100 30.91900
H  47.69800 19.11700 29.67500
H  45.93100 19.56100 29.59000
H  45.78400 18.27900 26.07900
H  45.08300 19.01700 27.51000
H  46.80700 18.42700 27.45200
H  47.20100 24.99300 23.90300
H  50.06300 25.76800 23.60700
H  48.78200 22.73000 23.49100
H  49.66500 23.97800 22.48600
H  47.94300 23.64100 22.26000
H  48.02800 27.84700 24.02200
H  47.71900 26.72400 22.67200
H  50.47300 27.61400 22.66200
H  49.36200 28.97400 22.93700
H  49.29000 27.96900 21.47700
H  51.42000 31.02800 27.70900
H  50.72600 30.35900 26.26000
H  52.33900 29.94100 26.73700
H  49.38900 29.09800 32.26900
H  51.88200 29.29700 35.61000
H  52.94500 28.42500 34.48600
H  51.74500 27.47900 35.41800

