158

Mg 52.90200 23.25800 44.66200
C  50.57100 25.73000 43.73000
C  50.98300 20.90000 43.10400
C  55.53000 21.23600 44.78700
C  55.01000 25.90700 45.73000
N  51.15300 23.33200 43.29700
C  50.30700 24.47100 43.03700
C  49.28600 24.05200 42.04600
C  49.13300 22.57800 42.36600
C  50.53000 22.19400 42.94600
C  47.99300 22.16200 43.22700
C  49.75300 24.27600 40.59700
C  48.67600 24.44500 39.52200
H  49.06400 25.33300 38.35000
N  53.10500 21.24600 44.18500
C  52.19900 20.46400 43.57300
C  52.73900 19.10700 43.60500
C  54.05100 19.15900 44.05400
C  54.31300 20.62500 44.42800
C  51.96400 18.03400 43.06400
C  54.96400 18.03400 44.12000
O  54.67500 16.96900 43.59500
C  56.26100 18.08900 44.78100
N  54.94800 23.58300 45.06900
C  55.84300 22.56000 45.09900
C  57.24900 22.95500 45.61200
C  57.04300 24.47200 45.91000
C  55.59700 24.67100 45.51500
C  57.84800 22.11100 46.79200
C  58.04600 25.45300 45.30200
C  57.81000 26.05200 43.94800
N  52.81800 25.41500 44.77200
C  53.72900 26.26300 45.41500
C  53.15500 27.58100 45.54400
C  51.85800 27.43100 44.92900
C  51.75500 26.10200 44.42800
C  53.71600 28.81600 46.22600
C  50.66200 28.08000 44.57800
O  50.39400 29.30100 44.67600
C  49.72800 27.05100 43.81800
C  49.51500 27.63000 42.55200
O  50.41300 28.10500 41.88300
O  48.13900 27.58800 42.30100
C  47.70900 28.11300 41.04500
H  50.39300 20.13900 42.58900
H  56.39200 20.60700 45.01900
H  55.65000 26.69600 46.13000
H  48.37800 24.60900 42.27600
H  48.97000 22.10300 41.39800
H  47.42200 23.03700 43.54000
H  48.21200 21.55700 44.10700
H  47.25800 21.67800 42.58400
H  50.45700 23.49400 40.31400
H  50.38600 25.16300 40.59000
H  47.69200 24.72900 39.89600
H  48.45200 23.43600 39.17500
H  52.21800 17.84000 42.02200
H  50.89800 18.23300 43.17700
H  52.10400 17.10800 43.62100
H  56.14100 18.62500 45.72200
H  56.98000 18.52000 44.08400
H  56.55200 17.08500 45.08900
H  57.81300 22.87200 44.68300
H  57.11900 24.56000 46.99400
H  58.52300 21.33900 46.42200
H  56.97600 21.52000 47.07500
H  58.13100 22.70200 47.66300
H  58.97100 24.87900 45.25000
H  58.16000 26.31100 45.96500
H  56.92800 25.62300 43.47300
H  58.65500 25.84600 43.29200
H  57.48700 27.09200 43.99600
H  53.29100 28.63200 47.21300
H  53.39300 29.79700 45.87700
H  54.80200 28.86000 46.30500
H  48.76700 26.97100 44.32700
H  47.35400 29.14300 41.06000
H  47.04400 27.44200 40.50100
H  48.60200 28.16100 40.42300
Mg 0.61800 43.62100 25.56800
C  2.83800 43.51400 28.27100
C  -1.98800 42.94000 27.70000
C  -1.38700 43.78100 22.92900
C  3.41000 43.62000 23.43900
N  0.43300 43.20900 27.60100
C  1.47000 43.30000 28.57200
C  0.90800 43.00800 30.01000
C  -0.45900 42.43600 29.66100
C  -0.71800 42.93300 28.24100
C  -0.72400 40.87300 29.74400
C  0.79800 44.37200 30.84800
C  0.29800 44.34900 32.34500
H  0.28200 43.09600 33.13700
N  -1.42100 43.37500 25.32500
C  -2.32400 43.23800 26.36400
C  -3.67500 43.24000 25.90700
C  -3.53600 43.46700 24.51900
C  -2.06100 43.63500 24.20500
C  -4.81300 43.05700 26.75200
C  -4.62200 43.50000 23.53300
O  -4.33000 43.72200 22.38500
C  -6.06500 43.26200 23.93400
N  0.95400 43.47000 23.53500
C  -0.05400 43.58500 22.61500
C  0.45400 43.64500 21.17500
C  1.95800 43.89000 21.44100
C  2.12200 43.65300 22.90200
C  -0.00100 42.47900 20.16600
C  2.58000 45.26900 20.97600
C  2.19200 46.43400 21.81200
N  2.71200 43.51600 25.74800
C  3.71400 43.67300 24.79800
C  4.90400 43.81500 25.52000
C  4.66000 43.68500 26.83300
C  3.32500 43.60800 26.94300
C  6.23400 43.90300 24.97800
C  5.25900 43.71000 28.12500
O  6.41600 43.77900 28.43700
C  4.11400 43.45500 29.13900
C  4.21100 42.08000 29.77900
O  3.90400 41.01100 29.29500
O  4.71500 42.14900 31.06000
C  4.77600 40.80400 31.79700
H  -2.67900 42.69600 28.51000
H  -2.08500 43.79800 22.08800
H  4.14300 43.79900 22.64900
H  1.54500 42.23100 30.43200
H  -1.23400 42.92000 30.25600
H  -0.77900 40.36000 28.78400
H  -1.58800 40.69800 30.38500
H  0.15500 40.38500 30.16700
H  0.07900 45.02200 30.35000
H  1.74900 44.90000 30.78700
H  -0.70300 44.77700 32.39800
H  0.98300 44.97900 32.91200
H  -5.51500 43.86400 26.54300
H  -4.58400 42.98700 27.81600
H  -5.35100 42.12200 26.60100
H  -6.63200 42.99000 23.04400
H  -6.42800 44.11900 24.50000
H  -5.99500 42.35500 24.53500
H  0.15600 44.61700 20.78000
H  2.57400 43.20800 20.85400
H  -0.21000 42.98200 19.22200
H  -0.79400 41.86100 20.58600
H  0.88200 41.85500 20.02700
H  2.34600 45.45500 19.92800
H  3.66500 45.21200 21.07400
H  3.11500 46.80300 22.25900
H  1.44300 46.11400 22.53600
H  1.87000 47.28100 21.20600
H  6.85800 43.99700 25.86700
H  6.49000 44.82800 24.46200
H  6.48000 43.01200 24.39900
H  4.11500 44.21100 29.92400
H  3.78900 40.37800 31.97700
H  5.38300 40.78300 32.70200
H  5.25900 40.05500 31.16800

