158

Mg 26.53100 51.15700 25.79200
C  24.29500 52.41000 28.09800
C  28.76100 50.45900 28.30300
C  28.92100 50.67300 23.54100
C  24.40000 52.30500 23.18100
N  26.49000 51.46000 27.86400
C  25.52200 51.97200 28.61200
C  25.71800 51.96200 30.11600
C  27.25600 51.57700 30.09200
C  27.54400 51.16100 28.67000
C  28.25500 52.68400 30.51600
C  24.84100 51.01700 30.88000
C  23.93000 51.54800 32.05600
H  24.12700 50.93500 33.49300
N  28.42700 50.41800 25.93500
C  29.18900 50.22300 27.01700
C  30.49300 49.54100 26.63700
C  30.51300 49.54100 25.21300
C  29.27000 50.29400 24.77900
C  31.50200 49.10600 27.68300
C  31.59100 48.92200 24.25800
O  31.52400 49.11500 23.05300
C  32.81600 48.29100 24.91600
N  26.57100 51.40900 23.70000
C  27.67500 51.09100 23.00000
C  27.46100 51.24500 21.45000
C  26.00400 51.72300 21.32900
C  25.61000 51.73800 22.81300
C  28.48800 52.16400 20.73100
C  25.03800 50.88600 20.50500
C  24.56800 51.58200 19.19000
N  24.69700 52.10700 25.65700
C  23.93400 52.48500 24.53400
C  22.69300 53.14700 25.00000
C  22.84300 53.11700 26.43900
C  24.05100 52.48900 26.68900
C  21.60400 53.69300 24.15100
C  22.10500 53.45700 27.64400
O  20.98100 53.95400 27.87100
C  23.07400 53.04900 28.83300
C  23.62300 54.31100 29.51800
O  24.60000 54.99200 29.16200
O  22.78600 54.55200 30.52800
C  23.15100 55.67000 31.43600
H  29.45200 50.21100 29.11200
H  29.68700 50.59300 22.76600
H  23.70500 52.69200 22.43300
H  25.61900 52.95600 30.55400
H  27.38100 50.70400 30.73300
H  28.94400 53.04100 29.75000
H  28.87300 52.44700 31.38200
H  27.65500 53.57300 30.71200
H  25.46400 50.23600 31.31600
H  24.15900 50.45200 30.24400
H  22.88500 51.47200 31.75600
H  24.12000 52.60900 32.21600
H  31.38100 49.56400 28.66500
H  32.42600 49.61400 27.40900
H  31.49300 48.04500 27.93300
H  33.28400 49.13600 25.42100
H  33.51200 48.03500 24.11700
H  32.39100 47.37400 25.32300
H  27.51800 50.20900 21.11700
H  25.82100 52.70800 20.89800
H  28.86400 51.60100 19.87700
H  29.26600 52.41900 21.45100
H  28.00600 53.07200 20.37100
H  24.22400 50.58800 21.16600
H  25.44200 49.91900 20.20700
H  24.57200 50.83400 18.39700
H  25.16700 52.46600 18.97300
H  23.50400 51.81600 19.19300
H  21.26700 52.97200 23.40700
H  21.90800 54.60600 23.64000
H  20.78100 53.97600 24.80800
H  22.49900 52.38700 29.48000
H  23.66400 56.49000 30.93400
H  23.91700 55.35800 32.14600
H  22.19000 55.92000 31.88700
Mg -9.52500 40.32300 42.42100
C  -8.24400 37.25900 41.41200
C  -6.67300 41.74900 41.02400
C  -10.80700 43.30900 43.14800
C  -12.55000 38.75900 43.26400
N  -7.87800 39.64000 41.01100
C  -7.49600 38.30100 40.87600
C  -6.18800 38.06300 40.11500
C  -5.53500 39.48200 40.35200
C  -6.75200 40.35900 40.85800
C  -4.42000 39.62400 41.41700
C  -6.38000 37.78400 38.64400
C  -5.69800 36.42900 38.16800
H  -4.68800 36.34300 37.03800
N  -8.80100 42.30500 42.14200
C  -7.58300 42.70300 41.57600
C  -7.59200 44.15200 41.62500
C  -8.71300 44.61700 42.35400
C  -9.53000 43.42300 42.51500
C  -6.60900 44.94900 40.79900
C  -8.91800 46.05500 42.81400
O  -8.27100 47.02900 42.40800
C  -9.93800 46.39000 43.85900
N  -11.34000 40.91000 43.28100
C  -11.71400 42.23600 43.39900
C  -13.17200 42.43300 43.92300
C  -13.66700 40.94700 43.90500
C  -12.46400 40.11500 43.49500
C  -13.33900 43.26200 45.21400
C  -14.99600 40.74600 43.05200
C  -16.23000 39.86700 43.56400
N  -10.24300 38.46000 42.51000
C  -11.45900 37.97900 42.90900
C  -11.41500 36.51700 42.80700
C  -10.14400 36.23300 42.29700
C  -9.49100 37.44000 42.04600
C  -12.42700 35.61800 43.25800
C  -9.26300 35.11400 41.86500
O  -9.39800 33.90100 41.80600
C  -7.90200 35.81400 41.37800
C  -6.85300 35.40800 42.38300
O  -6.52700 36.02600 43.42300
O  -6.22600 34.21900 41.99800
C  -5.45100 33.62900 43.03800
H  -5.73400 42.19100 40.68300
H  -11.21000 44.23200 43.56800
H  -13.44200 38.21000 43.57200
H  -5.55700 37.32600 40.61000
H  -5.18000 39.91400 39.41600
H  -3.53800 40.04900 40.93900
H  -4.19400 38.65000 41.85100
H  -4.69200 40.29000 42.23600
H  -6.15100 38.60200 37.96100
H  -7.44600 37.58700 38.52700
H  -6.51900 35.73300 37.99200
H  -5.32800 35.90900 39.05100
H  -5.75200 44.45100 40.34500
H  -6.21700 45.79100 41.37100
H  -7.19500 45.45200 40.03000
H  -10.89900 46.36900 43.34600
H  -9.88700 47.39800 44.27200
H  -9.85100 45.70200 44.70100
H  -13.60800 42.96700 43.07900
H  -13.84500 40.68500 44.94800
H  -14.32200 43.18800 45.67800
H  -13.06700 44.29100 44.97900
H  -12.62000 42.93500 45.96500
H  -14.66400 40.31000 42.11000
H  -15.42700 41.73700 42.91100
H  -17.10100 40.52000 43.62600
H  -16.03200 39.48500 44.56500
H  -16.33800 38.94800 42.98800
H  -13.20700 35.58100 42.49800
H  -12.85800 36.11600 44.12700
H  -12.06600 34.59800 43.39100
H  -7.54000 35.54000 40.38700
H  -6.18500 33.24800 43.74700
H  -4.70900 34.22900 43.56600
H  -4.80000 32.91200 42.53800

