158

Mg 41.79700 41.07100 26.28800
C  40.95300 43.40500 28.79800
C  42.65900 38.75700 28.55400
C  43.00200 39.20300 23.72000
C  40.91100 43.63300 23.83300
N  41.83600 41.15000 28.36900
C  41.41200 42.14600 29.25200
C  41.39900 41.67500 30.77300
C  41.96000 40.26800 30.65200
C  42.13000 40.00200 29.08700
C  43.26600 39.91700 31.44800
C  39.92100 41.86500 31.43500
C  39.76300 42.82700 32.62200
H  39.07000 42.32900 33.86300
N  42.76500 39.28000 26.17900
C  42.97800 38.42200 27.20500
C  43.74700 37.27700 26.76200
C  43.80100 37.32100 25.35400
C  43.16300 38.64700 25.05000
C  44.35000 36.21700 27.69300
C  44.39900 36.36000 24.26800
O  44.42800 36.62300 23.06700
C  44.89300 35.00200 24.70600
N  42.10400 41.48900 24.06000
C  42.51200 40.42100 23.30200
C  42.29400 40.80800 21.81600
C  41.31900 42.06400 21.78600
C  41.39400 42.42300 23.27300
C  43.66900 40.98900 21.19000
C  39.90200 41.66200 21.26200
C  38.88300 41.15300 22.28200
N  41.16300 43.07800 26.29700
C  40.83300 43.96900 25.23500
C  40.31300 45.22100 25.78600
C  40.37900 45.03300 27.25000
C  40.96500 43.76300 27.42200
C  39.78300 46.36000 25.03800
C  40.09000 45.69800 28.54300
O  39.69600 46.83100 28.74900
C  40.43600 44.62100 29.62700
C  41.49400 45.11300 30.52800
O  42.68600 44.96000 30.33400
O  40.94800 45.73400 31.55800
C  41.88100 46.17700 32.63400
H  42.71400 38.10800 29.43000
H  43.15300 38.56500 22.84700
H  40.63700 44.32000 23.03000
H  42.08800 42.14100 31.47700
H  41.20800 39.51300 30.88100
H  44.07700 40.04100 30.73100
H  43.21400 38.92000 31.88500
H  43.45000 40.61600 32.26300
H  39.61400 40.86700 31.74800
H  39.25200 42.11900 30.61300
H  39.10300 43.63700 32.31200
H  40.76000 43.23800 32.77900
H  44.31200 35.21900 27.25700
H  43.70700 36.24100 28.57300
H  45.39500 36.48600 27.84500
H  45.63000 35.12100 25.50100
H  45.42200 34.48700 23.90500
H  44.07500 34.45500 25.17600
H  41.87000 39.94300 21.30600
H  41.70300 42.94200 21.26700
H  43.82500 42.00200 20.82100
H  43.87400 40.23300 20.43200
H  44.38700 40.88200 22.00400
H  40.06400 40.90000 20.50100
H  39.47700 42.46100 20.65500
H  39.30900 40.84300 23.23600
H  38.28100 40.29700 21.97700
H  38.18200 41.95600 22.51000
H  39.26700 45.94600 24.17100
H  40.52100 47.04000 24.61300
H  39.03400 46.82100 25.68300
H  39.48100 44.35700 30.08100
H  42.08400 47.22200 32.40400
H  42.78500 45.57400 32.72400
H  41.35600 46.20400 33.58900
Mg -10.14700 39.34000 40.75200
C  -8.82200 36.31300 39.88100
C  -7.19700 40.92800 39.86000
C  -11.71000 42.35100 40.81900
C  -13.27500 37.77100 41.43100
N  -8.32500 38.74100 39.56900
C  -8.00100 37.43700 39.48200
C  -6.58400 37.34800 38.81400
C  -5.93900 38.68500 39.42000
C  -7.20500 39.53600 39.69800
C  -5.21700 38.51300 40.77000
C  -6.74800 37.38100 37.20800
C  -6.03100 36.26000 36.51700
H  -6.78000 35.70100 35.29700
N  -9.53200 41.30200 40.38400
C  -8.26100 41.75100 40.06600
C  -8.25400 43.15400 39.94600
C  -9.59800 43.58100 40.20800
C  -10.34400 42.41100 40.57100
C  -6.96800 43.88300 39.62100
C  -10.09900 44.96500 40.29000
O  -9.29100 45.82100 39.96700
C  -11.43400 45.42400 40.81500
N  -12.30800 39.97200 40.99300
C  -12.60400 41.27400 41.04800
C  -14.06700 41.50300 41.07000
C  -14.64300 40.02400 41.19700
C  -13.34700 39.17500 41.27200
C  -14.65800 42.44600 42.20400
C  -15.51700 39.54300 40.00700
C  -16.95600 39.49500 40.21200
N  -10.90400 37.37800 40.81300
C  -12.14100 36.86700 41.21900
C  -12.03600 35.42300 41.24000
C  -10.71100 35.18600 40.73200
C  -10.16300 36.35900 40.38900
C  -13.01100 34.42800 41.75500
C  -9.73700 34.11800 40.41000
O  -9.86700 32.89500 40.44200
C  -8.47400 34.84000 39.67200
C  -7.21400 34.33500 40.32700
O  -6.87500 34.50100 41.45200
O  -6.54200 33.54800 39.39000
C  -5.35400 32.80200 39.76200
H  -6.23900 41.42200 39.68600
H  -12.31200 43.25800 40.73300
H  -14.23600 37.28800 41.61800
H  -6.06900 36.43000 39.09600
H  -5.30700 39.19500 38.69300
H  -4.26300 39.04000 40.78500
H  -4.94600 37.47700 40.97400
H  -5.89300 38.87600 41.54500
H  -6.29100 38.28400 36.80500
H  -7.81500 37.35600 36.98700
H  -5.77400 35.40900 37.14800
H  -5.09200 36.68800 36.16500
H  -6.92400 44.36400 38.64400
H  -6.04700 43.33900 39.83200
H  -7.06300 44.74100 40.28600
H  -12.18100 45.53300 40.02900
H  -11.40600 46.44900 41.18600
H  -11.75700 44.85000 41.68300
H  -14.48600 42.09200 40.25300
H  -15.13400 39.97000 42.16900
H  -14.53900 43.47800 41.87300
H  -14.00300 42.31900 43.06600
H  -15.70900 42.27800 42.44100
H  -15.24300 38.53000 39.71200
H  -15.39800 40.20900 39.15200
H  -17.25800 39.79200 41.21600
H  -17.27100 38.45100 40.20500
H  -17.41900 39.92500 39.32300
H  -12.61700 33.41900 41.63400
H  -13.86900 34.50100 41.08700
H  -13.22500 34.51300 42.82000
H  -8.41000 34.66500 38.59800
H  -4.69400 32.78900 38.89500
H  -5.55200 31.80600 40.15700
H  -4.84800 33.27200 40.60500

