158

Mg 47.43300 25.15700 28.21100
C  48.68200 27.25800 30.68900
C  46.53400 22.90400 30.63100
C  46.60600 23.16100 25.73800
C  48.88500 27.25800 25.76900
N  47.54000 25.13000 30.42100
C  48.06200 26.12400 31.19400
C  47.72500 25.79700 32.67100
C  47.10900 24.34800 32.65600
C  47.11700 24.06600 31.12400
C  47.98700 23.31800 33.37800
C  46.86200 26.89300 33.40000
C  47.42000 27.47300 34.70600
H  46.37800 27.95400 35.75200
N  46.56600 23.32300 28.23500
C  46.23200 22.56400 29.30700
C  45.45400 21.38500 28.86600
C  45.45600 21.45800 27.39500
C  46.24200 22.69600 27.03900
C  44.90200 20.35500 29.79000
C  44.86500 20.43800 26.51600
O  44.92400 20.60300 25.30300
C  44.09200 19.25700 27.01100
N  47.49600 25.28600 26.08300
C  47.19000 24.29600 25.32200
C  47.43400 24.55300 23.84500
C  47.87800 26.01500 23.80000
C  48.06800 26.26800 25.30100
C  48.39500 23.52100 23.11900
C  46.79100 27.08600 23.30700
C  47.22300 28.05400 22.29300
N  48.61000 26.90000 28.19400
C  49.14700 27.60200 27.08800
C  49.91200 28.77000 27.59000
C  49.71500 28.69100 28.99400
C  48.93700 27.53600 29.32900
C  50.63300 29.83400 26.85800
C  49.96800 29.35600 30.30800
O  50.63600 30.40000 30.48400
C  49.28900 28.46700 31.44500
C  50.28600 27.94300 32.41400
O  50.97900 26.91500 32.33100
O  50.32800 28.70300 33.54500
C  51.22900 28.35700 34.72500
H  46.29400 22.21700 31.44500
H  46.21600 22.38400 25.07800
H  49.32100 27.92500 25.02100
H  48.60800 25.81300 33.31000
H  46.11400 24.34800 33.09900
H  47.43700 23.06000 34.28200
H  48.92900 23.78200 33.67200
H  48.13900 22.42300 32.77500
H  45.86100 26.54700 33.65600
H  46.76600 27.73800 32.71900
H  48.00000 28.37600 34.51600
H  48.13700 26.73500 35.06400
H  43.83200 20.16600 29.69900
H  44.99200 20.62200 30.84300
H  45.43500 19.43200 29.56400
H  43.29300 19.56300 27.68600
H  44.84500 18.53700 27.33200
H  43.48200 18.81400 26.22400
H  46.45700 24.45000 23.37400
H  48.83800 26.10500 23.29100
H  49.45200 23.78700 23.15200
H  48.01400 23.47100 22.09900
H  48.23500 22.50900 23.49300
H  46.32100 27.65600 24.10800
H  46.02300 26.42800 22.89900
H  46.41100 28.14400 21.57100
H  48.12100 27.56700 21.91300
H  47.52400 28.95500 22.82600
H  50.36300 30.87500 27.03400
H  50.44500 29.64100 25.80100
H  51.70800 29.66600 26.91700
H  48.51100 29.00900 31.98300
H  52.21900 28.05700 34.38100
H  50.74500 27.46400 35.12000
H  51.15400 29.19900 35.41300
Mg -11.74500 16.36300 41.69600
C  -8.78100 14.48700 41.49600
C  -10.20700 18.90300 39.95800
C  -14.87100 17.82500 41.26600
C  -13.32300 13.50100 42.86100
N  -9.74700 16.63600 40.78600
C  -8.70600 15.64900 40.75100
C  -7.53800 16.23900 39.97500
C  -7.92000 17.66400 39.65700
C  -9.32500 17.79500 40.23600
C  -7.01500 18.75500 40.31000
C  -7.14200 15.40700 38.70200
C  -5.63500 15.17100 38.50900
H  -5.02000 15.55000 37.07700
N  -12.39000 18.18600 40.90600
C  -11.59200 19.14100 40.28200
C  -12.40100 20.29500 39.95900
C  -13.74100 20.05700 40.44400
C  -13.72900 18.60500 40.90700
C  -11.91300 21.61600 39.35700
C  -14.81600 21.09800 40.48100
O  -14.48900 22.23000 40.10400
C  -16.24100 20.80800 40.90400
N  -13.87300 15.74900 42.09700
C  -14.96600 16.55600 41.87800
C  -16.22000 15.80100 42.17700
C  -15.71500 14.43000 42.76700
C  -14.19000 14.52300 42.57200
C  -17.29100 16.48400 43.10500
C  -16.34200 13.09700 42.29300
C  -16.98600 12.15800 43.34400
N  -11.20400 14.40900 42.30800
C  -11.93700 13.40300 42.74900
C  -11.13700 12.31200 43.11600
C  -9.81400 12.69600 42.77400
C  -9.90300 14.01600 42.19700
C  -11.67100 10.99100 43.54000
C  -8.45800 12.29800 42.72800
O  -7.83900 11.32800 43.21500
C  -7.72600 13.43600 41.89000
C  -6.79100 14.02900 42.80500
O  -6.80200 14.20300 44.02000
O  -5.67600 14.40500 42.07000
C  -4.65700 15.04400 42.86700
H  -9.81000 19.66300 39.28300
H  -15.84500 18.28100 41.07800
H  -13.87900 12.72600 43.39100
H  -6.78300 16.21600 40.76100
H  -7.95800 17.85900 38.58500
H  -6.46500 18.22700 41.08900
H  -7.64600 19.46100 40.84900
H  -6.42800 19.24900 39.53500
H  -7.38800 15.93600 37.78200
H  -7.66000 14.44900 38.66300
H  -5.58700 14.08700 38.61100
H  -4.98400 15.57800 39.28300
H  -12.54000 21.95900 38.53400
H  -10.90200 21.51200 38.96400
H  -11.87000 22.36000 40.15300
H  -16.20500 20.31600 41.87600
H  -16.54000 20.13700 40.09900
H  -16.93800 21.62800 40.73000
H  -16.56800 15.61700 41.16100
H  -15.68100 14.51800 43.85300
H  -18.25100 16.43200 42.59100
H  -17.07700 17.53600 43.29400
H  -17.37800 15.97500 44.06500
H  -15.52200 12.47700 41.93000
H  -17.16800 13.19900 41.59100
H  -17.18200 12.75100 44.23800
H  -16.40200 11.26800 43.57800
H  -17.99000 11.79500 43.12100
H  -12.18500 10.52700 42.69800
H  -12.29900 11.12300 44.42100
H  -10.84300 10.35400 43.85100
H  -7.30000 12.99900 40.98700
H  -4.85300 16.11100 42.75400
H  -3.72500 14.65300 42.45800
H  -4.57600 14.81400 43.92900

