158

Mg 44.53500 4.66100 47.49400
C  42.57900 7.49000 47.00500
C  41.70600 2.80700 46.87900
C  46.44600 1.94900 47.40000
C  47.43600 6.69200 47.73900
N  42.40100 5.13300 46.97900
C  41.82900 6.35300 46.93900
C  40.46600 6.16800 46.41200
C  40.09800 4.69600 46.76500
C  41.50500 4.14900 46.86700
C  39.07000 4.48900 47.90600
C  40.28000 6.55100 44.94200
C  38.99700 7.31200 44.58700
H  39.30400 8.39600 43.57600
N  44.13500 2.58600 47.22100
C  42.84600 2.06000 46.92700
C  43.00600 0.61300 46.72600
C  44.43500 0.33100 46.88400
C  45.06100 1.64400 47.21700
C  41.84800 -0.26400 46.27000
C  44.98900 -1.01200 46.53000
O  44.13100 -1.84400 46.14500
C  46.39200 -1.33000 46.55600
N  46.67000 4.40700 47.24100
C  47.20000 3.13300 47.33900
C  48.69700 3.08700 47.38200
C  49.04200 4.60800 47.63900
C  47.66000 5.29100 47.55700
C  49.22800 2.12000 48.48300
C  49.99500 5.18000 46.57700
C  51.38800 5.55900 46.93500
N  44.95200 6.66400 47.36100
C  46.15600 7.35900 47.51200
C  45.90200 8.81700 47.24100
C  44.46900 8.88600 47.29100
C  43.93200 7.54900 47.29400
C  46.98200 9.90400 47.16200
C  43.38200 9.80200 47.07300
O  43.42400 11.02300 46.93300
C  42.10000 8.93700 47.01100
C  41.23700 9.26600 48.17000
O  41.37800 8.75600 49.29000
O  40.20800 10.13900 47.78500
C  39.19300 10.48600 48.76900
H  40.76500 2.30200 46.64900
H  47.01400 1.01800 47.33600
H  48.31600 7.32700 47.85600
H  39.76500 6.71100 47.04600
H  39.57900 4.22800 45.92900
H  38.81700 5.46500 48.32200
H  39.40700 3.90700 48.76300
H  38.18600 3.99300 47.50500
H  40.35500 5.56300 44.48600
H  41.14400 7.07300 44.53200
H  38.50200 7.68000 45.48500
H  38.39000 6.56800 44.07100
H  41.91400 -0.20800 45.18300
H  40.93100 0.12900 46.70700
H  41.86700 -1.32300 46.52900
H  46.81100 -0.70600 45.76700
H  46.50400 -2.39900 46.37100
H  46.69100 -1.12000 47.58300
H  49.01000 2.76600 46.38800
H  49.48200 4.84000 48.60900
H  48.55400 1.34600 48.85100
H  49.63300 2.68900 49.32000
H  50.02200 1.53400 48.02000
H  49.57300 6.06700 46.10400
H  50.16100 4.46900 45.76800
H  51.52000 5.71000 48.00600
H  51.77000 6.48100 46.49700
H  52.11700 4.85400 46.53500
H  47.85500 9.75100 47.79600
H  46.51900 10.84900 47.44700
H  47.18500 9.92600 46.09100
H  41.49900 9.19500 46.13900
H  38.36900 11.00700 48.28200
H  39.44400 11.09500 49.63700
H  38.85600 9.51300 49.12900
Mg 47.93900 16.89700 28.56000
C  45.70600 16.59200 31.36800
C  50.18400 18.16800 30.63700
C  49.53600 17.48800 25.86900
C  45.16500 15.67900 26.55600
N  47.88400 17.43200 30.69900
C  46.95600 17.17600 31.71700
C  47.42300 17.50100 33.13800
C  48.72800 18.25500 32.77300
C  48.97200 17.92500 31.26000
C  48.83400 19.77100 33.10300
C  47.67400 16.18700 33.87500
C  47.44800 16.15700 35.33300
H  47.41900 17.38200 36.25600
N  49.68900 17.63800 28.29800
C  50.50300 18.07200 29.25600
C  51.78200 18.35900 28.68100
C  51.62500 18.10700 27.24600
C  50.27800 17.67100 27.10300
C  53.00700 18.91100 29.49600
C  52.60100 18.10900 26.07000
O  52.26900 17.93000 24.89200
C  54.10000 18.34300 26.26600
N  47.28500 16.90700 26.39700
C  48.25900 17.14900 25.52200
C  47.83900 16.79500 24.06200
C  46.49800 16.04000 24.35200
C  46.23300 16.25800 25.91300
C  47.71700 17.94000 23.09400
C  46.49800 14.53900 24.01800
C  45.25100 14.00400 23.25000
N  45.86800 16.18900 28.85200
C  44.89700 15.72700 27.97600
C  43.71900 15.44200 28.72700
C  43.97800 15.72600 30.09700
C  45.27900 16.24400 30.05800
C  42.56000 14.70200 28.16100
C  43.44800 15.62100 31.41500
O  42.47100 15.14400 31.87300
C  44.59400 16.12900 32.38000
C  43.95400 17.18000 33.21800
O  43.42100 18.18800 32.80100
O  43.89400 16.70100 34.51300
C  43.19100 17.53700 35.43900
H  51.01500 18.38600 31.31000
H  50.06900 17.61400 24.92500
H  44.37500 15.27100 25.92200
H  46.70800 18.16900 33.61900
H  49.53300 17.83900 33.37800
H  47.87200 20.11500 33.48400
H  48.96900 20.34800 32.18800
H  49.65400 20.06200 33.76000
H  48.69000 15.84100 33.68800
H  47.06500 15.42200 33.39400
H  48.22000 15.57300 35.83300
H  46.52300 15.62000 35.54700
H  53.59700 19.60600 28.89900
H  53.40000 17.89600 29.56500
H  52.52200 19.45700 30.30500
H  54.65300 17.60700 25.68300
H  54.31500 18.09300 27.30500
H  54.36100 19.37600 26.03800
H  48.49300 16.00300 23.69800
H  45.56500 16.47700 23.99800
H  46.91000 17.77000 22.38100
H  48.69100 17.95700 22.60500
H  47.56400 18.86200 23.65400
H  46.71500 14.04600 24.96600
H  47.37800 14.30400 23.41800
H  45.70000 13.48400 22.40400
H  44.54600 14.80800 23.03800
H  44.82700 13.23800 23.89900
H  42.13400 15.13100 27.25400
H  41.78000 14.43300 28.87300
H  43.01900 13.75300 27.88600
H  44.86700 15.27900 33.00600
H  42.31200 18.14700 35.22900
H  43.83800 18.14200 36.07400
H  42.70900 16.74200 36.00800

