158

Mg 25.21500 1.56400 29.80600
C  27.31000 1.49600 32.59500
C  22.52200 1.82800 31.86300
C  23.17600 1.35300 27.07900
C  28.08100 0.88100 27.71200
N  25.02300 1.63200 31.93500
C  26.01100 1.77800 32.92000
C  25.41500 2.12400 34.28000
C  23.84400 1.79000 33.98000
C  23.75200 1.77100 32.44500
C  23.28400 0.43500 34.54400
C  25.75700 3.55800 34.75400
C  26.80600 3.66400 35.93500
H  26.54900 4.53000 37.18200
N  23.11100 1.67000 29.49300
C  22.22700 1.90800 30.48700
C  20.90300 1.92100 29.89200
C  21.03300 1.76500 28.52400
C  22.47800 1.58900 28.29200
C  19.68100 2.04300 30.69200
C  19.99200 1.80700 27.48300
O  20.20400 1.65000 26.26900
C  18.53400 2.06400 27.90400
N  25.53500 0.97600 27.73600
C  24.49200 1.11700 26.78900
C  25.00600 0.93900 25.33200
C  26.59200 1.05300 25.59800
C  26.79200 1.05500 27.10400
C  24.51000 -0.37200 24.62600
C  27.21300 2.15600 24.71300
C  27.23300 3.49300 25.41700
N  27.23700 1.11100 30.04200
C  28.24500 0.87800 29.13000
C  29.49000 0.97400 29.80500
C  29.18500 1.09200 31.15500
C  27.79500 1.21200 31.26900
C  30.82600 0.81900 29.19900
C  29.69100 1.24900 32.50200
O  30.85800 1.18100 32.79500
C  28.55700 1.52500 33.45000
C  28.64000 0.48900 34.52400
O  28.43900 -0.71600 34.32800
O  28.97000 1.12200 35.68900
C  28.97700 0.19000 36.76600
H  21.65600 1.98400 32.50900
H  22.57300 1.35400 26.16900
H  28.96300 1.06100 27.09400
H  25.73000 1.45300 35.07900
H  23.17100 2.50700 34.45100
H  22.90400 -0.18100 33.72900
H  22.46500 0.58200 35.24900
H  24.06500 -0.09900 35.08600
H  24.87700 4.19000 34.87400
H  26.26600 3.92900 33.86500
H  27.69500 4.00800 35.40600
H  27.06200 2.65200 36.25000
H  19.13100 2.97100 30.53700
H  19.81000 2.03400 31.77500
H  19.02700 1.18000 30.57100
H  18.04300 1.28300 28.48500
H  17.92000 2.12000 27.00400
H  18.50400 3.04700 28.37300
H  24.70900 1.83600 24.78800
H  27.03600 0.11900 25.25500
H  23.72200 -0.84000 25.21700
H  25.34700 -1.05600 24.49300
H  24.13000 -0.04300 23.65900
H  26.62900 2.38700 23.82300
H  28.12600 1.77300 24.25800
H  27.21000 3.36400 26.50000
H  26.39700 4.11300 25.09400
H  28.18600 3.98500 25.22900
H  30.88200 1.42000 28.29100
H  30.86700 -0.18800 28.78500
H  31.55900 1.03900 29.97500
H  28.70900 2.53400 33.83600
H  27.98300 0.06900 37.19600
H  29.62500 0.66500 37.50200
H  29.42100 -0.79100 36.59700
Mg 43.19800 41.44500 26.41400
C  42.29100 43.77600 28.85400
C  44.37200 39.43900 28.84800
C  44.07800 39.28200 23.98800
C  42.43900 43.82900 23.96600
N  43.39900 41.63900 28.66000
C  42.74100 42.56300 29.41400
C  42.82100 42.15600 30.91800
C  43.58500 40.82400 30.78500
C  43.87500 40.67000 29.34300
C  44.90300 40.59100 31.65100
C  41.40000 42.08800 31.57300
C  41.25100 42.89900 32.84900
H  40.71300 42.12100 34.10500
N  44.19500 39.62400 26.42700
C  44.58700 38.92900 27.55300
C  45.27400 37.67000 27.07500
C  45.12500 37.63400 25.65600
C  44.47300 38.86000 25.25200
C  45.76700 36.60500 28.02200
C  45.59900 36.52700 24.60900
O  45.68500 36.72100 23.38700
C  45.98100 35.20600 25.27300
N  43.42800 41.58800 24.26300
C  43.67700 40.50600 23.48500
C  43.42000 40.84600 21.98700
C  42.91100 42.33000 22.01300
C  42.87500 42.59700 23.54000
C  44.65900 40.67200 21.11100
C  41.56000 42.57500 21.37700
C  41.37500 43.97200 20.71700
N  42.37500 43.32400 26.39400
C  42.20300 44.17100 25.29700
C  41.57200 45.42100 25.74400
C  41.58400 45.34200 27.19500
C  42.17200 44.05200 27.51500
C  41.22800 46.52600 24.92600
C  41.45200 46.06600 28.45700
O  41.18000 47.24400 28.62700
C  41.77800 45.03200 29.60300
C  42.89500 45.59300 30.40000
O  44.09900 45.49100 30.15700
O  42.40800 46.06300 31.61000
C  43.42400 46.13600 32.71400
H  44.79000 38.76900 29.60300
H  44.05800 38.54700 23.18100
H  42.27000 44.52900 23.14500
H  43.50500 42.88600 31.35100
H  42.91400 39.98200 30.95100
H  44.80900 39.60800 32.11400
H  44.83600 41.22500 32.53500
H  45.80900 40.66000 31.04800
H  41.21700 41.03800 31.80300
H  40.78900 42.33200 30.70400
H  40.53200 43.64300 32.50700
H  42.19700 43.40800 33.03600
H  45.33200 35.60800 28.08100
H  45.87100 37.03000 29.02100
H  46.76800 36.34800 27.67500
H  45.23700 34.94100 26.02300
H  46.97200 35.38700 25.68800
H  46.01000 34.47900 24.46100
H  42.59800 40.25000 21.59000
H  43.61300 43.08200 21.65200
H  44.65400 41.54900 20.46500
H  44.50500 39.71600 20.60900
H  45.55200 40.67600 21.73600
H  40.77500 42.54300 22.13200
H  41.41900 41.79300 20.63100
H  40.64400 44.45300 21.36800
H  40.92500 43.79400 19.74100
H  42.33300 44.49100 20.69000
H  40.31500 46.94900 25.34300
H  40.94100 46.13900 23.94800
H  42.02700 47.25200 24.77200
H  40.84200 44.75800 30.09100
H  44.12200 45.30100 32.66300
H  43.02000 46.04000 33.72200
H  43.91500 47.10400 32.82200

