158

Mg 1.00100 8.36100 26.40300
C  1.81500 10.22800 29.11700
C  1.19600 5.49900 28.46700
C  0.79400 6.49500 23.67400
C  1.37800 11.19600 24.35000
N  1.41900 7.93000 28.57000
C  1.51600 8.91100 29.44300
C  1.52600 8.36400 30.90400
C  1.56600 6.74800 30.68300
C  1.40500 6.71200 29.11200
C  2.82600 5.95800 31.21700
C  0.32800 8.95100 31.79500
C  -0.09700 8.28300 33.16800
H  1.07200 7.71300 33.97100
N  0.95500 6.25000 26.10700
C  1.09600 5.23600 27.06000
C  1.03400 3.99200 26.39100
C  0.79700 4.28400 24.95000
C  0.89200 5.75600 24.86600
C  0.96800 2.71900 27.13400
C  0.51600 3.33000 23.87100
O  -0.02600 3.69000 22.83200
C  0.72200 1.94300 24.04400
N  1.05200 8.85600 24.31900
C  0.77800 7.85500 23.44400
C  0.62300 8.39900 22.01100
C  0.46600 9.93200 22.31800
C  0.98900 10.06100 23.75900
C  1.76400 7.90500 21.09200
C  -0.95300 10.45900 22.15600
C  -1.33000 10.70600 20.69500
N  1.67000 10.29100 26.61100
C  1.82200 11.31300 25.69500
C  2.13300 12.51600 26.42500
C  2.21300 12.14100 27.74400
C  1.88800 10.77300 27.81400
C  2.46400 13.83400 25.81800
C  2.58800 12.54400 29.08900
O  2.89500 13.68200 29.49100
C  2.22500 11.33700 30.07000
C  3.45200 10.93600 30.79100
O  4.38400 10.23600 30.27500
O  3.51000 11.52200 32.02500
C  4.76600 11.49900 32.77000
H  1.17400 4.60300 29.09000
H  0.65400 5.85100 22.80400
H  1.37300 12.11300 23.75700
H  2.50600 8.63500 31.29700
H  0.64000 6.23800 30.94800
H  3.57500 6.53700 31.75700
H  3.28300 5.45300 30.36600
H  2.44200 5.24800 31.95000
H  -0.53000 8.93800 31.12200
H  0.59100 9.99100 31.99200
H  -0.86900 7.52600 33.03000
H  -0.56000 9.04700 33.79300
H  0.26300 2.01000 26.70000
H  0.74600 2.76800 28.20000
H  1.91500 2.18600 27.04300
H  1.66200 1.71700 24.54700
H  0.86500 1.56200 23.03300
H  -0.13100 1.40500 24.45900
H  -0.25100 8.00300 21.49500
H  1.13300 10.54300 21.71100
H  2.34300 7.09600 21.53800
H  2.51000 8.69700 21.16500
H  1.41400 7.76400 20.07000
H  -1.01700 11.30200 22.84500
H  -1.59200 9.70100 22.60800
H  -0.50300 10.44200 20.03500
H  -1.36500 11.79000 20.58400
H  -2.31300 10.38000 20.35500
H  1.48300 14.30700 25.84000
H  3.03100 13.81600 24.88700
H  3.06200 14.41400 26.52200
H  1.53800 11.76600 30.80000
H  5.05700 12.52700 32.98300
H  5.56500 10.83900 32.43200
H  4.51300 11.20900 33.79000
Mg 36.22800 48.69600 24.21000
C  36.39400 46.88500 27.35800
C  34.78400 51.31900 25.85900
C  35.42100 49.94400 21.31400
C  37.23800 45.69300 22.71100
N  35.54700 48.98300 26.34900
C  35.82700 48.15400 27.44500
C  35.45500 48.97300 28.81600
C  34.85600 50.32400 28.30300
C  35.01900 50.21700 26.76800
C  33.36700 50.42200 28.67700
C  36.68600 49.25800 29.65100
C  36.69000 48.56700 30.95100
H  35.41800 48.58700 31.85300
N  35.34600 50.47800 23.66100
C  34.79400 51.41300 24.46700
C  34.39900 52.52200 23.65000
C  34.59200 52.17500 22.27500
C  35.17700 50.84900 22.34100
C  33.79900 53.78800 24.25300
C  34.12700 52.92300 21.03100
O  34.31400 52.44100 19.89800
C  33.53100 54.28500 21.06000
N  36.13600 47.86800 22.28300
C  35.89500 48.66600 21.17300
C  36.30600 48.00900 19.78600
C  37.24900 46.83300 20.37100
C  36.78800 46.72800 21.89500
C  35.04200 47.61100 18.98100
C  38.79600 47.17900 20.21000
C  39.39500 48.36300 20.92800
N  36.81700 46.73600 24.83200
C  37.26200 45.67100 24.10700
C  37.73100 44.62500 24.97200
C  37.34700 45.03900 26.27700
C  36.80100 46.29400 26.17500
C  38.34700 43.34400 24.56800
C  37.21900 44.62000 27.71000
O  37.62500 43.64500 28.31000
C  36.64600 45.84500 28.46700
C  35.50400 45.50100 29.35900
O  34.32700 45.45600 29.04300
O  36.05800 45.12000 30.57100
C  35.15900 44.54400 31.53600
H  34.49200 52.20100 26.43300
H  35.26900 50.39200 20.33000
H  37.71800 44.92500 22.10100
H  34.67700 48.49800 29.41400
H  35.21200 51.24600 28.76300
H  32.81200 50.10300 27.79500
H  33.10000 51.43100 28.99400
H  33.05100 49.75700 29.48000
H  36.86600 50.30800 29.88200
H  37.54600 48.81400 29.14800
H  37.55900 49.07500 31.37100
H  37.06100 47.54300 30.90800
H  32.78000 53.94700 23.90100
H  34.47900 54.60300 24.00700
H  33.65900 53.68300 25.32900
H  34.25200 55.08400 21.23500
H  32.64000 54.43200 21.67100
H  33.10100 54.37400 20.06300
H  36.94900 48.77100 19.34500
H  37.05400 45.91900 19.81000
H  34.20400 48.16600 19.40500
H  34.88600 46.54000 19.11200
H  35.24000 47.86900 17.94100
H  39.05300 47.12700 19.15200
H  39.29700 46.33200 20.67800
H  39.97800 48.89500 20.17700
H  40.01300 47.91000 21.70300
H  38.54500 48.90200 21.34700
H  39.07000 43.06200 25.33400
H  38.91300 43.46700 23.64500
H  37.50500 42.65200 24.59100
H  37.52700 46.20200 29.00000
H  35.55100 44.87500 32.49700
H  35.23100 43.45700 31.48700
H  34.15400 44.96500 31.52700

