158

Mg 16.45900 -2.03800 27.53600
C  15.42200 -0.04900 30.27700
C  18.77600 -3.46600 29.75700
C  17.56600 -3.90500 25.01700
C  14.63700 0.03400 25.39500
N  17.02500 -1.72800 29.81600
C  16.42600 -0.90200 30.67400
C  17.00100 -1.12000 32.05700
C  18.15500 -2.15800 31.89600
C  17.97100 -2.50200 30.39100
C  19.54600 -1.73900 32.32600
C  15.94200 -1.39300 33.11400
C  15.88000 -0.42000 34.32400
H  17.15300 0.26100 34.72100
N  17.83500 -3.56900 27.37000
C  18.71900 -3.93700 28.36700
C  19.53400 -5.09000 27.86100
C  19.18500 -5.23200 26.45900
C  18.12900 -4.23800 26.21300
C  20.59800 -5.75500 28.56900
C  19.64800 -6.21500 25.40400
O  19.22500 -6.20200 24.26100
C  20.62600 -7.25300 25.78300
N  16.01400 -1.95800 25.49200
C  16.67600 -2.85300 24.64500
C  16.33900 -2.48100 23.15700
C  15.27200 -1.33500 23.30400
C  15.35400 -1.02900 24.79700
C  17.61800 -2.17200 22.36300
C  13.78900 -1.56900 22.85800
C  13.07100 -2.67500 23.66800
N  15.26100 -0.40200 27.72700
C  14.52700 0.28100 26.76100
C  13.61800 1.22800 27.40700
C  14.00400 1.14800 28.79900
C  14.96500 0.12100 28.91900
C  12.64900 2.24900 26.70600
C  13.76900 1.72700 30.12000
O  13.01100 2.66200 30.41800
C  14.65700 1.00700 31.13900
C  15.49900 2.10600 31.67900
O  16.59200 2.42300 31.20200
O  14.93400 2.64800 32.76100
C  15.60100 3.71800 33.42500
H  19.38900 -3.96500 30.51100
H  17.98900 -4.32600 24.10200
H  14.03300 0.70700 24.78300
H  17.29500 -0.08000 32.20200
H  17.92600 -3.09700 32.40000
H  20.07500 -1.59700 31.38300
H  19.94400 -2.57200 32.90500
H  19.52200 -0.78200 32.84700
H  15.90800 -2.41400 33.49500
H  14.97500 -1.18900 32.65400
H  15.47700 -0.97800 35.16800
H  15.21600 0.39600 34.03600
H  20.99800 -5.24700 29.44700
H  21.42200 -6.01000 27.90200
H  20.30100 -6.73800 28.93500
H  20.39800 -7.83300 26.67800
H  21.63800 -6.85600 25.86500
H  20.62600 -7.90000 24.90600
H  15.96100 -3.41300 22.73700
H  15.61900 -0.47200 22.73600
H  18.50000 -2.34700 22.97900
H  17.43900 -1.16100 21.99600
H  17.72800 -2.87000 21.53300
H  13.63500 -1.52000 21.78000
H  13.29900 -0.65600 23.19800
H  12.21100 -2.23500 24.17300
H  13.77300 -3.04500 24.41400
H  12.73900 -3.48800 23.02100
H  11.70600 1.83800 27.06700
H  12.54300 2.02100 25.64500
H  12.73300 3.33500 26.74100
H  14.00900 0.67700 31.95100
H  15.35500 4.70600 33.03600
H  16.66600 3.49200 33.45600
H  15.16000 3.81300 34.41800
Mg 30.87700 58.11400 40.00400
C  27.84500 56.48900 39.04200
C  32.54500 55.45300 38.75100
C  33.51900 60.02700 40.01900
C  28.89900 60.79900 40.97800
N  30.21700 56.30700 38.75800
C  28.98600 55.78900 38.59100
C  28.93500 54.43600 37.85700
C  30.44400 54.04900 38.12700
C  31.12200 55.37500 38.58000
C  30.67500 52.97100 39.23700
C  28.64000 54.59200 36.38500
C  27.26500 54.19600 35.84200
H  26.43400 55.21600 35.09800
N  32.82100 57.70800 39.65700
C  33.32700 56.56200 39.15700
C  34.71100 56.57700 39.26200
C  35.08600 57.96300 39.54900
C  33.78100 58.65600 39.77500
C  35.62300 55.35400 39.04600
C  36.37800 58.48200 39.64300
O  37.29500 57.76000 39.39500
C  36.72100 59.91900 40.02600
N  31.15900 60.10400 40.36100
C  32.32100 60.66500 40.19100
C  32.35900 62.10400 40.61600
C  30.99900 62.25800 41.36200
C  30.29800 60.99800 40.86100
C  33.50900 62.57400 41.55000
C  30.25700 63.69800 41.05100
C  29.63300 64.38200 42.24700
N  28.79100 58.57900 40.04200
C  28.15900 59.62900 40.59600
C  26.71000 59.49500 40.54600
C  26.54900 58.17700 40.01700
C  27.83700 57.73500 39.62500
C  25.72100 60.52900 40.84400
C  25.52900 57.23200 39.61200
O  24.31900 57.19400 39.70400
C  26.32000 56.05100 38.92300
C  26.01800 54.85100 39.61300
O  26.44000 54.54300 40.68700
O  25.18800 54.02800 38.87600
C  24.94300 52.67700 39.34300
H  33.04200 54.54100 38.41400
H  34.34600 60.73500 39.94200
H  28.34000 61.64300 41.38700
H  28.36100 53.69400 38.41100
H  30.95500 53.70500 37.22800
H  30.63600 53.47100 40.20500
H  31.64600 52.48100 39.16400
H  29.81200 52.30500 39.22800
H  29.36400 53.94000 35.89500
H  28.79100 55.64400 36.14300
H  26.67800 53.71800 36.62700
H  27.29300 53.39800 35.10100
H  36.24100 55.19600 39.93000
H  36.26600 55.72700 38.24800
H  35.11200 54.42300 38.80200
H  36.45900 60.60300 39.21800
H  37.76500 60.01900 40.32300
H  36.11400 60.03900 40.92300
H  32.43800 62.63100 39.66500
H  31.15900 62.08900 42.42700
H  34.08400 61.71000 41.88300
H  33.24000 63.15100 42.43500
H  34.25600 63.15400 41.00700
H  29.58000 63.71900 40.19700
H  30.93800 64.44000 40.63400
H  29.85200 65.44900 42.28900
H  29.98800 64.01100 43.20900
H  28.54400 64.37100 42.27800
H  26.08200 61.52800 40.59900
H  25.67200 60.39000 41.92400
H  24.72300 60.36800 40.43700
H  25.97100 55.98700 37.89300
H  24.10000 52.74800 40.03100
H  25.76700 52.21500 39.88700
H  24.57000 52.08000 38.51100

