158

Mg 8.29500 2.52000 27.81300
C  9.68100 1.00300 30.49700
C  6.52700 4.50900 29.93100
C  6.64400 3.78500 25.10800
C  9.64900 0.11000 25.66400
N  8.27800 2.85200 29.94000
C  9.00500 2.14400 30.88900
C  8.79300 2.75300 32.29700
C  7.56700 3.72600 32.06000
C  7.51200 3.73000 30.53400
C  6.24200 3.15900 32.67000
C  10.07900 3.39500 32.95400
C  10.39700 2.95200 34.37900
H  10.32000 4.03800 35.42600
N  6.70300 3.97500 27.55200
C  6.14300 4.71200 28.53400
C  5.17400 5.65000 27.93300
C  5.19700 5.42800 26.54600
C  6.30400 4.39400 26.33000
C  4.30300 6.61900 28.76000
C  4.36800 6.08200 25.45800
O  4.38500 5.84400 24.23000
C  3.37800 7.04600 25.85700
N  8.11500 2.01900 25.66400
C  7.49000 2.76800 24.77300
C  7.74200 2.32700 23.32000
C  8.79400 1.15800 23.44700
C  8.85900 1.07400 24.99700
C  6.42300 2.02200 22.50800
C  10.13700 1.38000 22.80400
C  10.75000 0.09400 22.21500
N  9.28800 0.77900 27.93400
C  9.80900 -0.10600 27.00200
C  10.63100 -1.10800 27.60900
C  10.52600 -0.74400 28.99500
C  9.70600 0.43300 29.15300
C  11.39500 -2.29000 27.01600
C  10.92800 -1.15900 30.31700
O  11.55800 -2.11000 30.67500
C  10.48800 -0.05100 31.34300
C  9.76100 -0.65300 32.44400
O  8.86500 -1.44700 32.29700
O  10.27000 -0.25800 33.64400
C  9.73100 -0.89600 34.86300
H  5.93200 5.20300 30.52800
H  6.18200 4.32900 24.28200
H  10.17500 -0.56700 24.98800
H  8.48200 1.95700 32.97300
H  7.68400 4.72800 32.47200
H  5.71700 2.49600 31.98100
H  5.48100 3.90600 32.89800
H  6.41800 2.56800 33.56800
H  10.04400 4.46300 32.74000
H  10.91900 3.02100 32.36800
H  11.45000 2.68000 34.31200
H  9.75200 2.10200 34.60100
H  4.72300 6.62600 29.76600
H  3.26000 6.30500 28.75200
H  4.44400 7.63000 28.37800
H  3.77100 8.03600 26.09000
H  2.72700 6.69000 26.65600
H  2.71500 7.21400 25.00800
H  8.24000 3.12300 22.76500
H  8.43500 0.15600 23.21100
H  5.61600 2.12000 23.23300
H  6.55200 1.03400 22.06700
H  6.20000 2.82200 21.80200
H  10.81600 1.67900 23.60200
H  10.11600 2.17400 22.05600
H  10.87000 0.36200 21.16500
H  10.05300 -0.74400 22.20400
H  11.64600 -0.25300 22.73000
H  12.26700 -2.36000 27.66700
H  11.60800 -1.90800 26.01800
H  10.85200 -3.23000 26.91500
H  11.33500 0.32900 31.91300
H  9.16200 -0.10600 35.35300
H  10.56700 -1.17000 35.50600
H  9.05600 -1.73800 34.70800
Mg 24.82600 1.64900 30.15100
C  26.95200 1.04900 32.79300
C  22.10800 1.53400 32.26700
C  22.79800 1.71700 27.33500
C  27.49000 1.00400 27.86300
N  24.54600 1.29100 32.36800
C  25.57300 1.30100 33.23600
C  25.08900 1.64800 34.61500
C  23.53600 1.55700 34.48800
C  23.35600 1.49600 32.96400
C  22.78500 0.32100 35.12500
C  25.60500 3.03400 35.05400
C  26.76100 2.99900 36.09100
H  26.42500 3.94300 37.29900
N  22.70700 1.58400 29.86200
C  21.79900 1.47500 30.81900
C  20.46400 1.47100 30.24800
C  20.63500 1.58700 28.84000
C  22.09700 1.71400 28.63900
C  19.22300 1.28200 31.09700
C  19.50100 1.77700 27.74200
O  19.65500 2.23600 26.59600
C  18.11500 1.25900 28.08700
N  25.10200 1.56700 27.91800
C  24.14000 1.64900 27.02000
C  24.63700 1.74900 25.62200
C  26.18400 1.64800 25.81500
C  26.26900 1.43800 27.29200
C  24.05000 0.81500 24.56100
C  26.93800 2.86900 25.15500
C  26.96500 4.14600 26.05200
N  26.89700 1.07600 30.23700
C  27.78700 0.93600 29.23800
C  29.10100 0.71700 29.88100
C  28.81000 0.68800 31.26700
C  27.40000 0.88000 31.46000
C  30.45700 0.62000 29.18000
C  29.36900 0.61200 32.65300
O  30.55700 0.59200 32.98800
C  28.17200 0.91800 33.66100
C  28.05500 -0.23000 34.57900
O  27.54700 -1.26700 34.36000
O  28.64400 0.04500 35.77200
C  28.36100 -0.93800 36.88600
H  21.26700 1.67400 32.94900
H  22.19800 1.74600 26.42400
H  28.29400 0.91300 27.12900
H  25.34300 0.89100 35.35800
H  22.97400 2.44600 34.77400
H  23.37400 -0.35000 35.75000
H  22.30500 -0.31600 34.38100
H  22.04800 0.78400 35.78100
H  24.76600 3.65500 35.36800
H  25.92800 3.64700 34.21200
H  27.66200 3.42400 35.64900
H  27.00300 1.97800 36.38500
H  18.47800 2.00000 30.75600
H  19.42000 1.56200 32.13200
H  18.81400 0.27500 31.18300
H  18.06400 0.28700 28.57900
H  17.59600 1.28800 27.12900
H  17.70700 2.04700 28.72000
H  24.51900 2.76300 25.23800
H  26.42200 0.67500 25.38400
H  23.53300 1.28800 23.72700
H  23.45500 0.10900 25.14000
H  24.86300 0.21600 24.15000
H  26.61000 3.13200 24.14900
H  27.96900 2.54100 25.02700
H  26.33800 4.08000 26.94200
H  26.60000 4.92500 25.38300
H  27.99000 4.42700 26.29600
H  30.54200 1.32900 28.35600
H  30.57800 -0.38200 28.76800
H  31.17800 0.88300 29.95400
H  28.40800 1.82300 34.22100
H  27.44800 -0.56200 37.34800
H  29.24900 -0.92200 37.51900
H  28.15600 -1.93700 36.50100

