158

Mg 48.10500 25.37100 28.64500
C  49.25100 27.71300 31.09600
C  47.27500 23.22400 30.92200
C  47.70500 23.24500 26.11500
C  49.76100 27.50400 26.22200
N  48.42200 25.38800 30.81100
C  48.69700 26.47700 31.60300
C  48.24000 26.22500 33.03800
C  47.79900 24.77200 33.00100
C  47.84900 24.38900 31.53500
C  48.54800 23.78900 33.94800
C  47.09500 27.19000 33.51100
C  47.52400 28.23100 34.59900
H  46.68200 28.43700 35.79600
N  47.52600 23.50700 28.57700
C  47.19100 22.72900 29.60800
C  46.58800 21.51700 29.10700
C  46.68300 21.54200 27.68200
C  47.36900 22.78100 27.42300
C  45.93200 20.60000 30.05500
C  46.19200 20.49000 26.65900
O  46.36800 20.54800 25.42900
C  45.36300 19.26100 27.21200
N  48.70100 25.39600 26.45600
C  48.46000 24.34400 25.67200
C  48.95300 24.50900 24.22300
C  49.64400 25.81600 24.32600
C  49.30500 26.30700 25.72300
C  49.64000 23.25200 23.57900
C  49.37700 26.80000 23.14400
C  48.22900 27.84900 23.38200
N  49.17200 27.25900 28.61400
C  49.73500 27.95900 27.54000
C  50.39900 29.14300 28.05800
C  50.16600 29.06800 29.44800
C  49.54500 27.89400 29.70800
C  50.93700 30.25100 27.22000
C  50.37900 29.83400 30.69000
O  50.85600 30.91500 30.93700
C  49.78100 28.93200 31.85500
C  50.84200 28.71500 32.80100
O  51.79000 27.97600 32.72800
O  50.65800 29.54100 33.81000
C  51.72100 29.55600 34.76600
H  46.88200 22.58900 31.71900
H  47.51400 22.48700 25.35300
H  50.26800 28.10800 25.46600
H  49.11700 26.34200 33.67600
H  46.74400 24.53400 33.13900
H  47.89900 23.36900 34.71700
H  49.38000 24.26800 34.46400
H  48.94100 22.89900 33.45600
H  46.25000 26.60100 33.86600
H  46.69800 27.78600 32.68800
H  47.40300 29.16900 34.05700
H  48.57300 28.14400 34.88500
H  46.49200 19.66600 30.00700
H  44.97700 20.32400 29.60800
H  45.86300 20.79600 31.12500
H  45.93000 18.87000 28.05700
H  45.29200 18.42800 26.51300
H  44.38500 19.69600 27.41700
H  48.03100 24.73600 23.68900
H  50.73100 25.75000 24.28500
H  49.00600 22.36600 23.54300
H  50.47100 23.13800 24.27400
H  49.93500 23.54800 22.57200
H  49.13100 26.24800 22.23700
H  50.32600 27.31700 23.00000
H  47.53200 27.67100 22.56300
H  48.54200 28.88900 23.28600
H  47.70000 27.72400 24.32700
H  50.48100 30.14200 26.23600
H  52.02200 30.16700 27.15100
H  50.61500 31.17000 27.70900
H  49.03800 29.53400 32.37900
H  52.71200 29.70600 34.33700
H  51.66100 28.70300 35.44200
H  51.47500 30.37900 35.43700
Mg -12.76400 38.97000 42.37400
C  -10.83500 35.99300 41.57600
C  -10.68900 40.70800 40.18500
C  -14.69800 41.59000 42.77400
C  -15.16000 36.80500 43.72400
N  -10.92000 38.39700 41.07400
C  -10.25600 37.18800 41.03600
C  -8.96000 37.36800 40.26300
C  -8.95900 38.92400 39.90700
C  -10.31000 39.34800 40.35800
C  -7.75200 39.75800 40.46100
C  -8.83100 36.41100 38.99500
C  -7.57400 35.52700 39.00000
H  -6.65500 35.56300 37.65800
N  -12.66100 40.94400 41.65000
C  -11.74300 41.46600 40.76300
C  -12.13500 42.85000 40.34200
C  -13.34400 43.14100 41.14400
C  -13.63300 41.89700 41.89500
C  -11.73200 43.71200 39.16700
C  -14.12900 44.42100 41.05200
O  -13.75600 45.45700 40.50300
C  -15.42100 44.62300 41.76200
N  -14.64300 39.21800 43.16200
C  -15.21500 40.43800 43.30800
C  -16.63100 40.30600 43.92200
C  -16.78400 38.77800 44.18300
C  -15.48600 38.20000 43.57800
C  -16.86400 41.19200 45.19100
C  -18.10600 38.15600 43.81200
C  -18.78900 37.07100 44.68800
N  -12.87800 36.78500 42.75800
C  -13.95800 36.09700 43.35500
C  -13.70300 34.74500 43.36500
C  -12.46800 34.63800 42.78200
C  -11.97200 35.95700 42.38500
C  -14.65100 33.67500 43.81000
C  -11.47400 33.64700 42.30900
O  -11.40200 32.46400 42.43500
C  -10.40000 34.46100 41.44800
C  -9.05400 34.28600 42.06300
O  -8.26500 33.43600 41.70200
O  -8.73400 35.25000 42.94100
C  -7.42300 35.13700 43.60000
H  -10.03500 41.40400 39.65600
H  -15.49900 42.30200 42.98600
H  -15.86300 36.02200 44.01500
H  -8.15000 37.17800 40.96700
H  -8.85100 39.05300 38.83000
H  -7.00200 39.68000 39.67400
H  -7.31400 39.23600 41.31200
H  -8.01300 40.79600 40.66800
H  -8.80600 36.96300 38.05600
H  -9.69600 35.75300 38.91900
H  -7.93600 34.50300 39.09200
H  -6.99400 35.66700 39.91200
H  -12.58300 43.65400 38.48700
H  -10.78300 43.39600 38.73400
H  -11.50600 44.75500 39.39100
H  -16.08000 43.85200 41.36300
H  -15.79500 45.57300 41.38000
H  -15.37400 44.59700 42.85100
H  -17.41600 40.64300 43.24500
H  -16.66600 38.44300 45.21300
H  -17.43500 42.05900 44.85900
H  -15.91100 41.50400 45.61800
H  -17.29500 40.67200 46.04700
H  -17.98800 37.73900 42.81200
H  -18.92500 38.87100 43.74400
H  -18.84800 36.10200 44.19300
H  -19.80300 37.32600 44.99800
H  -18.23500 36.86900 45.60500
H  -14.67500 33.68300 44.89900
H  -14.32500 32.73700 43.36100
H  -15.58700 33.81200 43.26900
H  -10.25900 34.19600 40.40000
H  -6.89700 36.09200 43.58700
H  -6.78000 34.33400 43.23900
H  -7.46800 34.82600 44.64300

