158

Mg 34.76000 2.71000 30.19000
C  32.79300 3.54400 32.94600
C  37.44800 2.52200 32.33000
C  36.67300 2.20300 27.49400
C  31.94800 2.81800 28.17000
N  35.10100 3.20300 32.33800
C  34.11900 3.38700 33.33300
C  34.65100 3.34100 34.73900
C  36.16400 2.97400 34.52100
C  36.26000 2.84100 32.97000
C  37.19900 4.01800 35.00300
C  33.88500 2.20000 35.53900
C  33.59200 2.44200 37.00200
H  34.48200 3.48000 37.75100
N  36.79600 2.41600 29.94800
C  37.74500 2.31500 30.91200
C  39.10300 2.05500 30.30900
C  38.86000 2.03000 28.89100
C  37.40700 2.18200 28.70700
C  40.26100 1.97200 31.20600
C  39.84800 1.88800 27.74300
O  39.51000 1.78700 26.58300
C  41.33400 1.85100 28.01700
N  34.41600 2.58900 28.10900
C  35.36000 2.34300 27.19000
C  34.83800 2.34900 25.73000
C  33.33400 2.13100 26.08400
C  33.21400 2.55900 27.53900
C  35.22000 3.66900 24.99300
C  32.91500 0.67900 25.88800
C  32.12800 0.23200 24.62700
N  32.68300 3.04800 30.43300
C  31.67700 3.05500 29.54100
C  30.46200 3.51800 30.20400
C  30.86800 3.70600 31.52900
C  32.23500 3.40800 31.62200
C  29.13900 3.71400 29.60400
C  30.34300 4.16400 32.77400
O  29.20000 4.47800 33.09900
C  31.62800 4.11600 33.78600
C  31.90800 5.39100 34.43600
O  32.78300 6.22700 34.17400
O  31.02500 5.46600 35.50000
C  31.39000 6.53600 36.46700
H  38.22700 2.33800 33.07200
H  37.14300 2.27200 26.51100
H  31.08400 2.93600 27.51200
H  34.55600 4.29200 35.26200
H  36.51600 1.99900 34.85800
H  36.82800 4.90500 35.51600
H  37.82800 4.52000 34.26800
H  37.86900 3.58700 35.74600
H  34.48900 1.29300 35.56800
H  32.88900 2.00000 35.14500
H  33.76400 1.51700 37.55300
H  32.54000 2.70300 37.11500
H  41.01900 1.40900 30.66000
H  39.97500 1.54400 32.16700
H  40.88200 2.82500 31.47900
H  41.66900 0.94400 28.52000
H  41.66200 2.73000 28.57200
H  41.97600 1.97000 27.14400
H  35.22900 1.50600 25.16100
H  32.87400 2.80200 25.35900
H  36.26900 3.91100 25.16400
H  34.54300 4.45700 25.32300
H  35.10500 3.64600 23.90900
H  32.36600 0.23900 26.72000
H  33.80500 0.05900 25.77800
H  31.23700 -0.32000 24.92700
H  32.67300 -0.38700 23.91500
H  31.84200 1.12500 24.07200
H  28.83200 4.75900 29.64400
H  28.38700 3.15500 30.16100
H  29.09300 3.45600 28.54600
H  31.21900 3.37300 34.47100
H  30.92900 6.33000 37.43300
H  31.00500 7.47800 36.07800
H  32.47200 6.57400 36.59700
Mg -5.91300 25.62100 25.65600
C  -4.15500 26.66300 28.51800
C  -7.92300 23.70700 27.66400
C  -7.28300 24.09600 22.84900
C  -3.75100 27.32300 23.62500
N  -5.98800 25.19300 27.86300
C  -5.19800 25.79900 28.79900
C  -5.75500 25.30400 30.16800
C  -6.74400 24.15400 29.85900
C  -6.92600 24.35400 28.37900
C  -6.24000 22.71400 30.10100
C  -6.30900 26.52800 30.99600
C  -5.58100 26.79600 32.38600
H  -4.81700 25.56600 32.96500
N  -7.44500 24.20600 25.29500
C  -8.22600 23.64800 26.30200
C  -9.15700 22.72900 25.74500
C  -9.04200 22.80100 24.32200
C  -7.91200 23.76200 24.07100
C  -10.20000 21.95800 26.58000
C  -9.82400 22.11700 23.27400
O  -9.63900 22.25400 22.05100
C  -10.85700 21.12200 23.64400
N  -5.71400 25.84700 23.56400
C  -6.26800 25.01900 22.56600
C  -5.63400 25.18000 21.23000
C  -4.72400 26.38700 21.40600
C  -4.75100 26.62600 22.97000
C  -4.99600 23.86200 20.61900
C  -5.06200 27.65300 20.53700
C  -4.26700 27.66800 19.17000
N  -4.25400 26.71200 25.94000
C  -3.45400 27.36700 25.01900
C  -2.45100 28.23100 25.71100
C  -2.73500 27.89500 27.08400
C  -3.83200 26.96000 27.18700
C  -1.46100 29.15200 25.10400
C  -2.33500 28.28000 28.46900
O  -1.60100 29.15800 28.81500
C  -3.14800 27.31600 29.48500
C  -2.12500 26.37900 29.95800
O  -1.99500 25.15600 29.58900
O  -1.42200 26.99400 30.98400
C  -0.65500 26.07300 31.79600
H  -8.45700 23.01900 28.32300
H  -7.56500 23.55000 21.94600
H  -3.09500 27.79400 22.89000
H  -4.79900 24.93300 30.53900
H  -7.68200 24.32400 30.38800
H  -5.25600 22.84300 30.55100
H  -6.10900 22.22100 29.13800
H  -6.98000 22.19200 30.70700
H  -7.32100 26.24000 31.28200
H  -6.32200 27.41000 30.35700
H  -6.35200 27.00000 33.12900
H  -4.99200 27.71200 32.37800
H  -11.15000 22.28000 26.15400
H  -10.21100 22.13400 27.65600
H  -9.93800 20.90400 26.48400
H  -10.36300 20.42100 24.31800
H  -10.97200 20.56700 22.71300
H  -11.77500 21.64800 23.90500
H  -6.47100 25.51400 20.61700
H  -3.67700 26.12800 21.24600
H  -3.94300 23.94400 20.35000
H  -5.66200 23.50200 19.83500
H  -5.00500 23.22700 21.50500
H  -4.76200 28.51500 21.13200
H  -6.12600 27.72500 20.31300
H  -4.96200 27.92600 18.37200
H  -3.81400 26.69400 18.98700
H  -3.39500 28.30200 19.33000
H  -1.26400 28.85900 24.07300
H  -0.46800 29.01700 25.53400
H  -1.83500 30.17300 25.03500
H  -3.50100 27.88300 30.34600
H  -1.39200 25.71000 32.51300
H  -0.01800 26.76900 32.34300
H  -0.11000 25.29400 31.26300

