158

Mg 34.89700 2.96300 29.80000
C  32.69600 4.12400 32.31400
C  37.27500 2.59800 32.18700
C  37.13300 2.17400 27.39100
C  32.42800 3.60000 27.52600
N  34.94000 3.29200 32.07600
C  33.92900 3.73900 32.89200
C  34.39500 3.75300 34.36600
C  35.92900 3.55200 34.22500
C  36.13200 3.17800 32.71400
C  36.85400 4.76800 34.62900
C  33.60300 2.58400 35.15400
C  33.36900 2.70200 36.72300
H  33.89400 4.06100 37.38800
N  36.97400 2.37000 29.77500
C  37.71600 2.25300 30.86600
C  39.05000 1.69500 30.50300
C  39.04800 1.49300 29.05300
C  37.70300 2.06500 28.67200
C  40.09900 1.32700 31.44400
C  40.05800 0.91300 28.05500
O  39.79200 0.81900 26.86200
C  41.27100 0.24200 28.53500
N  34.82400 3.07400 27.72400
C  35.85700 2.60200 26.95100
C  35.45500 2.74000 25.45200
C  33.90200 2.96300 25.55400
C  33.70200 3.22400 27.05000
C  36.18500 3.88600 24.69200
C  32.96500 1.79400 25.00500
C  31.53900 2.22700 24.51700
N  32.93400 3.66900 29.89700
C  32.05700 3.81900 28.86600
C  30.78200 4.31100 29.28000
C  30.99800 4.46300 30.67500
C  32.33700 4.06500 31.02300
C  29.47900 4.33300 28.49400
C  30.38000 4.79700 31.94000
O  29.28900 5.22000 32.20200
C  31.38900 4.51900 33.10400
C  31.67100 5.82600 33.79600
O  32.29500 6.78400 33.37000
O  31.07600 5.83000 35.06100
C  31.30400 7.05200 35.82800
H  38.10700 2.46500 32.88100
H  37.95400 2.08500 26.67700
H  31.61600 3.78500 26.82000
H  34.17600 4.75200 34.74400
H  36.20500 2.72000 34.87300
H  37.36100 4.57400 35.57400
H  36.35700 5.72500 34.78800
H  37.68600 4.91100 33.93900
H  34.19900 1.69100 34.96400
H  32.59900 2.42800 34.75900
H  33.89300 1.90300 37.24800
H  32.32100 2.56200 36.98900
H  41.02700 1.86400 31.24400
H  40.22800 0.24500 31.41700
H  39.72400 1.50600 32.45100
H  40.97200 -0.37100 29.38600
H  41.92200 1.00000 28.97200
H  41.79800 -0.33600 27.77500
H  35.54700 1.77400 24.95600
H  33.62500 3.86200 25.00400
H  37.11400 4.21400 25.15800
H  35.56900 4.78400 24.65100
H  36.56800 3.62100 23.70600
H  33.02200 1.04600 25.79600
H  33.53100 1.46400 24.13400
H  31.30400 2.13700 23.45600
H  31.48300 3.31600 24.52200
H  30.81700 1.89700 25.26300
H  28.66300 4.52700 29.18900
H  29.20100 3.41200 27.98100
H  29.53100 5.04100 27.66600
H  31.11000 3.71800 33.78800
H  30.55700 7.83100 35.67400
H  32.27400 7.53400 35.71100
H  31.24400 6.60800 36.82200
Mg -11.63400 38.31000 41.46700
C  -9.39200 35.69600 40.65900
C  -9.66600 40.49500 39.72400
C  -14.10300 40.52000 41.73600
C  -13.88300 35.77000 42.73800
N  -9.73200 38.10300 40.38500
C  -9.04000 36.92700 40.09000
C  -7.81700 37.24800 39.19800
C  -7.87500 38.81500 39.01900
C  -9.08000 39.20600 39.83900
C  -6.57300 39.56500 39.33500
C  -7.98600 36.49300 37.83500
C  -7.00300 35.33100 37.59500
H  -6.16900 35.33100 36.30100
N  -11.90800 40.14900 40.79200
C  -10.89200 40.94200 40.14900
C  -11.25600 42.35100 40.17100
C  -12.62200 42.35700 40.70500
C  -12.93700 40.98800 41.06500
C  -10.34000 43.51400 39.52500
C  -13.41700 43.61800 40.72400
O  -12.89300 44.66600 40.38900
C  -14.87800 43.73400 41.31100
N  -13.74800 38.07900 42.01200
C  -14.45300 39.24100 42.18500
C  -15.87700 38.89700 42.71400
C  -15.81800 37.36100 42.80600
C  -14.37700 37.07500 42.56300
C  -16.09600 39.59500 44.09900
C  -16.78600 36.52900 41.92000
C  -18.02300 36.01100 42.64900
N  -11.59300 36.26700 41.83800
C  -12.52900 35.39500 42.41500
C  -11.86600 34.08600 42.63600
C  -10.59500 34.13200 41.92600
C  -10.58100 35.45500 41.39600
C  -12.39100 32.81500 43.29200
C  -9.41600 33.42700 41.54000
O  -9.02500 32.27900 41.77600
C  -8.62400 34.40400 40.65300
C  -7.19100 34.48800 41.21000
O  -6.34100 33.62800 41.10400
O  -7.04100 35.70600 41.96100
C  -5.63400 35.89500 42.56300
H  -8.97700 41.18000 39.22700
H  -14.84500 41.31300 41.84500
H  -14.49000 34.93800 43.10000
H  -6.82400 37.03300 39.59300
H  -8.05800 39.10700 37.98500
H  -6.41400 39.71700 40.40300
H  -6.61700 40.54700 38.86400
H  -5.73900 38.93200 39.03300
H  -7.79900 37.23700 37.06100
H  -8.98600 36.06000 37.80600
H  -7.41500 34.32200 37.55300
H  -6.31100 35.16400 38.42000
H  -10.66000 43.90500 38.55900
H  -9.30100 43.22000 39.67200
H  -10.48900 44.43800 40.08400
H  -15.54600 43.22900 40.61300
H  -15.15400 44.78700 41.36800
H  -14.92300 43.33600 42.32500
H  -16.65800 39.32100 42.08300
H  -16.03100 37.27400 43.87100
H  -16.49300 40.57800 43.84600
H  -15.11700 39.68200 44.56900
H  -16.71900 39.15000 44.87500
H  -16.26200 35.65400 41.53600
H  -17.26100 37.17600 41.18200
H  -17.97100 34.93800 42.83200
H  -18.91200 36.31600 42.09700
H  -18.08900 36.49200 43.62400
H  -11.99700 32.76500 44.30700
H  -12.11400 31.96000 42.67500
H  -13.46800 32.96800 43.35100
H  -8.64500 34.03800 39.62600
H  -4.99000 35.86400 41.68400
H  -5.25200 35.15400 43.26600
H  -5.54800 36.84700 43.08700

