158

Mg 7.18800 2.72800 27.65500
C  8.75100 1.40400 30.50800
C  5.05000 4.52400 29.69900
C  5.45600 3.78300 24.89900
C  8.92400 0.39900 25.67900
N  6.87200 2.84000 29.84700
C  7.71000 2.29800 30.85100
C  7.29000 2.77500 32.28600
C  6.05700 3.67700 31.92600
C  5.99900 3.70000 30.33800
C  4.69100 3.41200 32.59200
C  8.50800 3.37700 33.09000
C  8.22300 4.39300 34.21900
H  8.94300 4.04600 35.54300
N  5.58200 4.15300 27.31800
C  4.92200 4.79600 28.30700
C  3.98200 5.71300 27.68500
C  4.13900 5.54700 26.25900
C  5.11900 4.51000 26.06400
C  3.10900 6.65900 28.47800
C  3.55800 6.33600 25.17900
O  3.84400 6.07100 24.05500
C  2.46800 7.49800 25.44600
N  7.00200 2.01000 25.62700
C  6.24700 2.57000 24.73700
C  6.42300 2.02800 23.30400
C  7.74300 1.15100 23.55300
C  7.89400 1.16900 25.04300
C  5.22500 1.15900 22.69800
C  9.00100 1.78100 22.89400
C  9.81900 2.74900 23.72900
N  8.56300 1.20400 27.96500
C  9.22000 0.38700 27.06900
C  10.10400 -0.46800 27.75800
C  10.01000 -0.04500 29.13600
C  9.04100 0.92200 29.15600
C  11.01900 -1.50400 27.10700
C  10.62200 -0.19300 30.42800
O  11.58300 -0.88200 30.79300
C  9.72200 0.66700 31.45400
C  9.11000 -0.46700 32.27500
O  8.14000 -1.10100 31.93300
O  9.81000 -0.51000 33.43000
C  9.26500 -1.38600 34.44100
H  4.47800 5.06600 30.45400
H  5.11900 4.22900 23.96000
H  9.65900 -0.14500 25.08300
H  6.98700 1.90500 32.86700
H  6.33400 4.67000 32.28000
H  4.21100 4.34900 32.87300
H  4.74600 2.72400 33.43600
H  3.91500 3.07700 31.90500
H  9.25000 3.83400 32.43600
H  9.02600 2.59700 33.64900
H  7.14100 4.38900 34.35000
H  8.39300 5.41700 33.88700
H  3.38800 7.71300 28.46100
H  3.07400 6.41100 29.53900
H  2.08200 6.55800 28.12700
H  1.51000 7.04300 25.69900
H  2.38300 7.99700 24.48100
H  2.84000 8.23300 26.15900
H  6.61000 2.87200 22.63900
H  7.54000 0.11800 23.27300
H  4.30600 1.44700 23.20900
H  5.32400 0.07900 22.80600
H  5.19800 1.27900 21.61500
H  8.54500 2.38500 22.11000
H  9.55200 0.95400 22.44500
H  9.24800 3.07700 24.59800
H  9.91000 3.70500 23.21400
H  10.86100 2.45300 23.84900
H  10.70200 -1.79300 26.10400
H  10.90300 -2.41400 27.69500
H  12.07800 -1.24700 27.13800
H  10.35600 1.36100 32.00500
H  8.94700 -2.34900 34.04100
H  8.42400 -0.96200 34.98900
H  10.13300 -1.58200 35.07000
Mg -13.31700 15.91000 43.43300
C  -10.00600 14.84900 42.61000
C  -12.52000 18.92800 41.99600
C  -16.57200 16.62200 43.45900
C  -13.90400 12.67500 44.62500
N  -11.35400 16.87500 42.49100
C  -10.20400 16.16400 42.17300
C  -9.24100 17.10200 41.42100
C  -10.11700 18.40300 41.22100
C  -11.41500 18.10600 41.94800
C  -9.49200 19.74500 41.70300
C  -8.79500 16.42100 40.05300
C  -7.24300 16.36900 39.92700
H  -6.66000 15.19800 39.20400
N  -14.37700 17.59300 42.84000
C  -13.81300 18.80600 42.52900
C  -14.86600 19.77400 42.35100
C  -16.11300 19.14100 42.62800
C  -15.77000 17.70100 43.02500
C  -14.63300 21.13500 41.77700
C  -17.41000 19.74000 42.48700
O  -17.61600 20.87100 42.02400
C  -18.65600 18.99300 42.84300
N  -15.01900 14.80700 43.86400
C  -16.26500 15.40000 43.96900
C  -17.28400 14.50900 44.79500
C  -16.33300 13.27500 45.12300
C  -14.94900 13.57600 44.45900
C  -17.85100 15.10700 46.10000
C  -16.82000 11.94500 44.49300
C  -17.73800 11.13700 45.39400
N  -12.23800 14.12000 43.61700
C  -12.56200 12.90600 44.16600
C  -11.40900 12.01000 44.13300
C  -10.39200 12.73600 43.53400
C  -10.90000 13.96800 43.31800
C  -11.39000 10.63400 44.61200
C  -9.00400 12.67800 43.19400
O  -8.24700 11.72300 43.34200
C  -8.70500 14.09800 42.64000
C  -7.76100 14.66400 43.60700
O  -7.91400 15.48400 44.50100
O  -6.47200 14.28100 43.18200
C  -5.43400 15.18900 43.72600
H  -12.25700 19.82900 41.43800
H  -17.65000 16.78500 43.52400
H  -14.20100 11.72700 45.07900
H  -8.42400 17.26700 42.12400
H  -10.30100 18.55400 40.15700
H  -10.06700 20.08100 42.56600
H  -9.34000 20.58300 41.02300
H  -8.43800 19.60600 41.94200
H  -9.17700 17.01600 39.22400
H  -9.15900 15.43000 39.77900
H  -6.84100 16.34600 40.94000
H  -6.90700 17.30500 39.48000
H  -15.10100 21.18700 40.79400
H  -13.58200 21.42600 41.77300
H  -15.25500 21.89900 42.24400
H  -18.90900 18.12000 42.24200
H  -19.49000 19.69500 42.84900
H  -18.54500 18.66400 43.87600
H  -18.01200 14.21700 44.03800
H  -16.17100 13.31900 46.20000
H  -17.28800 15.96900 46.45700
H  -17.95000 14.31200 46.84000
H  -18.86100 15.48000 45.93200
H  -16.00000 11.30000 44.17500
H  -17.27700 12.22300 43.54400
H  -18.61400 10.83400 44.82100
H  -18.16800 11.68900 46.22900
H  -17.37500 10.17600 45.75700
H  -10.53500 10.19500 44.09800
H  -12.33100 10.21100 44.25900
H  -11.39900 10.60800 45.70200
H  -8.24600 14.09500 41.65100
H  -4.46000 14.82100 43.40500
H  -5.39500 15.08000 44.81000
H  -5.53800 16.23500 43.43800

