158

Mg 6.46700 54.48600 40.32400
C  6.66100 50.97200 40.16400
C  9.80200 54.59700 39.55500
C  6.11700 57.81700 39.97600
C  2.94900 54.16300 40.53300
N  7.98700 52.95400 39.95400
C  7.85800 51.59500 39.92500
C  9.24200 50.95500 39.96900
C  10.22200 52.13500 40.14700
C  9.26900 53.30500 39.79700
C  11.00500 52.27200 41.49900
C  9.57900 50.11500 38.72500
C  9.39300 50.88500 37.45300
H  8.03800 50.86600 36.66000
N  7.72800 55.99200 39.86000
C  9.06200 55.79900 39.53900
C  9.62900 57.03700 39.27400
C  8.67800 58.03900 39.50300
C  7.42200 57.34300 39.84900
C  11.10300 57.23900 38.95900
C  8.89500 59.52900 39.29300
O  9.99100 60.03200 39.19400
C  7.70300 60.43000 39.31000
N  4.78200 55.73300 40.05800
C  4.93400 57.09000 40.02100
C  3.53900 57.76400 40.09300
C  2.55600 56.64700 40.39600
C  3.47800 55.40500 40.28200
C  3.40700 58.95500 41.08900
C  1.21800 56.62000 39.62900
C  -0.08200 56.78500 40.41000
N  5.02100 52.93900 40.39000
C  3.67500 52.98300 40.62400
C  3.19300 51.53200 40.81700
C  4.34800 50.73200 40.76200
C  5.37000 51.61300 40.35300
C  1.76300 51.06100 41.06300
C  4.93700 49.36300 41.02000
O  4.33800 48.37400 41.38700
C  6.43200 49.44600 40.48200
C  6.24900 48.71800 39.23500
O  5.72700 49.09500 38.20400
O  6.81500 47.46700 39.44300
C  6.58800 46.56100 38.26500
H  10.87900 54.56600 39.37800
H  5.92800 58.88800 40.08200
H  1.89000 53.97100 40.71500
H  9.20400 50.20800 40.76200
H  10.99300 51.95100 39.39800
H  10.64800 51.52700 42.21100
H  10.87800 53.26600 41.92700
H  12.06600 52.11000 41.30900
H  9.02300 49.17800 38.68600
H  10.61200 49.76900 38.71300
H  10.25100 50.72600 36.79900
H  9.39600 51.95600 37.65500
H  11.64500 56.39100 38.54000
H  11.73600 57.82600 39.62400
H  10.99900 57.86500 38.07200
H  6.79200 60.19100 38.76200
H  8.00500 61.34600 38.80100
H  7.38200 60.76700 40.29500
H  3.40000 58.26200 39.13300
H  2.19400 56.80700 41.41100
H  3.28500 59.85100 40.47900
H  4.32200 59.00900 41.67900
H  2.54800 58.88500 41.75700
H  1.17000 55.71500 39.02300
H  1.27700 57.44700 38.92200
H  -0.77500 55.97300 40.18600
H  -0.75100 57.58300 40.08600
H  0.01700 56.96400 41.48000
H  1.22400 51.77600 41.68500
H  1.75900 50.05000 41.46900
H  1.45700 50.99900 40.01800
H  7.17800 49.03500 41.16100
H  7.00500 47.01000 37.36300
H  5.49900 46.53700 38.31500
H  6.93900 45.53500 38.37600
Mg -9.71700 39.37800 42.43300
C  -8.07600 36.42500 41.50200
C  -7.16000 41.17500 40.92700
C  -11.65100 42.19100 42.46600
C  -12.50500 37.50100 43.43800
N  -7.95000 38.89200 41.18200
C  -7.36100 37.60400 41.10400
C  -6.08500 37.64400 40.19200
C  -5.60600 39.11600 40.54600
C  -6.96900 39.79400 40.85500
C  -4.60300 39.46900 41.65500
C  -6.17100 37.42200 38.64300
C  -5.74200 36.04700 38.15900
H  -4.57000 35.94100 37.10500
N  -9.42400 41.39700 41.88400
C  -8.29100 41.96300 41.33700
C  -8.41700 43.37300 41.23400
C  -9.63300 43.72700 41.83600
C  -10.34400 42.40400 42.09100
C  -7.37300 44.22600 40.63500
C  -10.18300 45.15800 41.96200
O  -9.51900 46.11100 41.49200
C  -11.46800 45.39300 42.69400
N  -11.79800 39.81000 42.87100
C  -12.28900 40.99800 42.78900
C  -13.76100 41.04300 43.37200
C  -14.08800 39.59100 43.69300
C  -12.68200 38.90000 43.43600
C  -14.00900 42.04300 44.51800
C  -15.24200 39.01400 42.84600
C  -14.93800 38.78800 41.31700
N  -10.19300 37.33500 42.66300
C  -11.38500 36.74300 43.06700
C  -11.10400 35.25900 42.95400
C  -9.82900 35.15600 42.42200
C  -9.34100 36.44000 42.15400
C  -11.97800 34.12000 43.40300
C  -8.76800 34.18200 41.98400
O  -8.77000 32.97000 42.01000
C  -7.55700 35.05900 41.41000
C  -6.36800 34.90700 42.33600
O  -5.89900 35.75700 43.13700
O  -5.75700 33.69500 42.13100
C  -4.61700 33.23500 43.01100
H  -6.21800 41.60400 40.58100
H  -12.25900 43.08800 42.59900
H  -13.44000 37.13600 43.86800
H  -5.20000 37.11500 40.54600
H  -5.28900 39.53700 39.59200
H  -4.75400 40.43700 42.13300
H  -3.57800 39.46000 41.28400
H  -4.60900 38.65200 42.37600
H  -5.52700 38.07500 38.05500
H  -7.20800 37.60800 38.36500
H  -6.66800 35.63100 37.76200
H  -5.41000 35.50400 39.04500
H  -6.95700 44.83900 41.43400
H  -7.71500 44.89500 39.84600
H  -6.51200 43.67500 40.25500
H  -12.30000 45.14500 42.03500
H  -11.52100 46.45300 42.94100
H  -11.47400 44.89000 43.66100
H  -14.38100 41.38700 42.54500
H  -14.42300 39.43700 44.71900
H  -14.40400 41.53700 45.40000
H  -14.64700 42.87800 44.22700
H  -13.00700 42.29900 44.86400
H  -16.12900 39.64800 42.85900
H  -15.71800 38.14600 43.30400
H  -13.91900 38.92600 40.95700
H  -15.64100 39.33700 40.69000
H  -15.05400 37.71700 41.15500
H  -11.43600 33.20000 43.18300
H  -12.95600 34.24100 42.93700
H  -12.03000 34.16600 44.49100
H  -7.34200 34.77900 40.37900
H  -4.85600 33.00200 44.04900
H  -3.83500 33.99400 43.05400
H  -4.15900 32.37600 42.52000

