158

Mg 24.00300 -5.67400 45.78200
C  26.13400 -3.34500 44.38400
C  21.55000 -4.74100 43.47900
C  22.16800 -8.66900 46.19000
C  26.74300 -7.24800 47.32400
N  23.88100 -4.17000 44.16500
C  24.85100 -3.29100 43.76300
C  24.42600 -2.27300 42.68900
C  22.86500 -2.49800 42.81200
C  22.74800 -3.98600 43.48200
C  22.15400 -1.47200 43.69700
C  25.16600 -2.62400 41.28800
C  26.09400 -1.52800 40.59800
H  26.01900 -1.26200 39.08300
N  21.96600 -6.50700 45.10600
C  21.20800 -5.86600 44.18100
C  19.97600 -6.62200 44.07800
C  20.11800 -7.83400 44.80900
C  21.40800 -7.72600 45.52300
C  18.75400 -6.23700 43.20400
C  19.01100 -8.89100 44.89100
O  17.88700 -8.69700 44.36300
C  19.16900 -10.13200 45.79100
N  24.36300 -7.60500 46.63400
C  23.49700 -8.64300 46.69000
C  23.99700 -9.84000 47.53600
C  25.43700 -9.40200 47.87500
C  25.56500 -8.01600 47.26400
C  23.05800 -10.23100 48.66400
C  26.53200 -10.44800 47.42700
C  26.95000 -11.46100 48.55400
N  25.99700 -5.23900 46.03700
C  27.01000 -5.96700 46.68700
C  28.25300 -5.23400 46.58900
C  28.02300 -4.15100 45.61800
C  26.59300 -4.30300 45.38400
C  29.51300 -5.52800 47.22200
C  28.56000 -3.04400 44.82800
O  29.63700 -2.56700 44.69500
C  27.35900 -2.44500 44.03100
C  27.19700 -0.95500 44.22000
O  26.68200 -0.46100 45.19400
O  27.75200 -0.30400 43.19800
C  27.70500 1.09500 43.07900
H  20.78000 -4.44800 42.76300
H  21.56900 -9.55100 46.42500
H  27.58900 -7.65700 47.87900
H  24.86600 -1.33400 43.02700
H  22.52500 -2.47000 41.77700
H  22.83000 -0.96900 44.38700
H  21.40500 -2.00800 44.28000
H  21.62900 -0.76900 43.04900
H  24.47100 -3.08400 40.58500
H  25.84500 -3.43700 41.54800
H  27.10800 -1.78200 40.90600
H  25.74700 -0.63500 41.11800
H  18.62800 -6.97100 42.40900
H  18.79400 -5.25900 42.72500
H  17.95900 -6.10300 43.93800
H  19.24500 -9.86300 46.84400
H  19.99500 -10.71400 45.38200
H  18.24400 -10.70500 45.85700
H  23.89600 -10.61200 46.77400
H  25.56600 -9.28700 48.95100
H  23.57400 -10.43100 49.60300
H  22.50700 -11.14200 48.43200
H  22.31000 -9.48000 48.92100
H  27.47000 -10.05200 47.03700
H  26.09200 -11.08500 46.66000
H  26.98200 -12.37800 47.96700
H  26.19700 -11.36300 49.33700
H  27.97000 -11.20100 48.83700
H  29.88000 -4.67800 47.79700
H  30.27000 -5.72500 46.46200
H  29.54700 -6.40900 47.86200
H  27.65500 -2.64100 43.00000
H  28.68200 1.57800 43.06500
H  27.29500 1.52700 43.99200
H  27.07000 1.42400 42.25600
Mg 36.93900 49.14600 24.69600
C  36.70200 47.45400 27.74400
C  35.21000 51.84900 25.97500
C  36.61500 50.36300 21.50600
C  38.03600 46.13000 23.24700
N  35.91000 49.54200 26.61800
C  36.14500 48.78200 27.75200
C  35.56400 49.53000 28.97600
C  35.27000 50.98800 28.42300
C  35.41400 50.80000 26.91100
C  33.94500 51.61600 28.82600
C  36.58100 49.60700 30.18500
C  36.08900 49.08500 31.54500
H  36.02800 50.20100 32.61400
N  36.11400 50.91400 23.86800
C  35.58500 51.91500 24.60300
C  35.23900 53.02500 23.65100
C  35.69000 52.66500 22.34300
C  36.17300 51.29200 22.51100
C  34.60100 54.30800 24.15200
C  35.68400 53.45200 21.07400
O  36.29100 53.03800 20.15500
C  34.88400 54.79400 20.89500
N  37.30600 48.36000 22.68200
C  37.05600 49.05300 21.52500
C  37.19400 48.13400 20.37300
C  38.13500 47.00500 20.99200
C  37.74700 47.14900 22.40700
C  35.91400 47.60400 19.66100
C  39.67300 47.25900 20.56500
C  40.40400 46.06500 20.16600
N  37.35700 47.21900 25.31000
C  37.81600 46.13000 24.59300
C  37.95700 44.97300 25.47600
C  37.56600 45.44000 26.74400
C  37.17100 46.79000 26.58300
C  38.39800 43.58900 25.10700
C  37.34100 45.11800 28.14800
O  37.57100 44.08300 28.78000
C  36.84600 46.43200 28.79700
C  35.51200 46.12400 29.40600
O  34.42500 45.91500 28.89800
O  35.72300 46.01600 30.72500
C  34.68900 45.39200 31.48000
H  34.87600 52.76700 26.46400
H  36.49200 50.66600 20.46400
H  38.53100 45.21800 22.90800
H  34.63800 49.07700 29.33100
H  36.10800 51.66600 28.58200
H  34.14700 52.68400 28.90200
H  33.51600 51.31200 29.78100
H  33.24100 51.36400 28.03300
H  37.03300 50.59200 30.29800
H  37.45500 49.00300 29.94000
H  36.69200 48.25700 31.91800
H  35.02700 48.86200 31.43900
H  33.86000 54.67900 23.44500
H  35.33200 55.07400 24.41100
H  34.06600 53.96400 25.03700
H  35.46700 55.49200 21.49500
H  33.85000 54.61200 21.18800
H  35.04200 55.19700 19.89500
H  37.68400 48.70700 19.58600
H  37.91900 45.95900 20.77600
H  35.81100 46.52300 19.75600
H  36.00400 47.88000 18.61000
H  35.04600 48.04700 20.14900
H  40.23900 47.66600 21.40300
H  39.57500 47.92600 19.70800
H  39.90700 45.19700 20.59900
H  41.46400 46.06700 20.42200
H  40.50300 45.94600 19.08700
H  39.29100 43.56500 24.48200
H  37.66000 43.02000 24.54200
H  38.59600 43.06400 26.04200
H  37.58200 46.72500 29.54500
H  34.55700 44.42600 30.99300
H  33.88000 46.12300 31.48300
H  35.03900 45.15400 32.48500

