158

Mg 23.92600 -6.59900 45.75400
C  26.32900 -4.09600 45.26900
C  21.59900 -4.59800 44.15200
C  21.86400 -9.23300 45.86900
C  26.59500 -8.61100 46.95800
N  23.97800 -4.63600 44.84900
C  25.08000 -3.89600 44.68500
C  24.67400 -2.63200 43.82900
C  23.11600 -2.59900 43.95300
C  22.85700 -4.01600 44.42600
C  22.49800 -1.54700 44.90100
C  25.24500 -2.73300 42.38200
C  25.50500 -1.37600 41.75500
H  24.65200 -1.04900 40.50800
N  21.96600 -6.86600 45.10800
C  21.20300 -5.89200 44.44800
C  19.90700 -6.47700 44.21500
C  19.98900 -7.86100 44.63600
C  21.27900 -8.01700 45.23100
C  18.85300 -5.71500 43.33700
C  18.92800 -8.89600 44.53600
O  18.05000 -8.67400 43.77000
C  19.00000 -10.26300 45.13600
N  24.17400 -8.54500 46.31700
C  23.19800 -9.46300 46.34500
C  23.70300 -10.84800 46.95400
C  25.16100 -10.60600 46.88900
C  25.34300 -9.14000 46.66400
C  23.09900 -11.23400 48.34800
C  25.88400 -11.42100 45.78000
C  26.97700 -12.41100 46.08900
N  26.05400 -6.42200 46.15800
C  26.96400 -7.31600 46.67300
C  28.21500 -6.66500 46.91100
C  28.02300 -5.38100 46.25800
C  26.70500 -5.30900 45.79800
C  29.46100 -7.25800 47.42500
C  28.63400 -4.08400 45.95100
O  29.72700 -3.64400 46.15600
C  27.50800 -3.25900 45.10800
C  27.27300 -1.84200 45.63700
O  27.07700 -1.59500 46.82300
O  27.34700 -0.96600 44.65800
C  27.61100 0.41000 45.00700
H  20.80900 -3.96700 43.73900
H  21.27600 -10.15200 45.81500
H  27.31600 -9.36000 47.29200
H  24.90700 -1.67400 44.29400
H  22.60400 -2.49800 42.99600
H  23.24900 -0.91400 45.37300
H  21.90400 -1.95500 45.71900
H  21.82100 -0.96500 44.27600
H  24.43200 -3.17700 41.80700
H  26.14700 -3.33600 42.27400
H  26.56700 -1.27400 41.53100
H  25.35700 -0.53700 42.43500
H  19.12500 -5.24500 42.39200
H  18.53300 -4.84400 43.91000
H  17.90700 -6.20800 43.11300
H  18.00500 -10.70800 45.10600
H  19.19500 -10.02000 46.18000
H  19.73200 -10.91000 44.65200
H  23.36600 -11.56600 46.20600
H  25.54800 -10.82400 47.88400
H  22.08200 -11.56300 48.12900
H  23.09900 -10.32300 48.94600
H  23.58500 -12.00900 48.94000
H  26.43800 -10.72200 45.15300
H  25.19300 -12.02200 45.18900
H  26.65500 -13.44400 45.95900
H  27.55100 -12.21800 46.99500
H  27.60200 -12.25900 45.20800
H  29.39000 -7.73300 48.40300
H  30.28100 -6.54100 47.38000
H  29.79000 -7.92800 46.63100
H  27.85400 -3.22600 44.07400
H  27.95000 1.05600 44.19700
H  28.27100 0.49600 45.87000
H  26.66100 0.90700 45.20300
Mg 48.84000 45.43400 42.90000
C  45.40600 45.45800 41.66700
C  48.90200 41.99400 41.98100
C  52.17900 45.41600 43.17400
C  48.87100 48.87700 42.71400
N  47.39600 43.90900 41.82100
C  46.00000 44.16000 41.50200
C  45.25600 42.88700 41.19000
C  46.38800 41.80800 41.25900
C  47.67300 42.57000 41.76400
C  46.11800 40.62700 42.29200
C  44.46300 42.95000 39.79300
C  45.24400 43.29300 38.50100
H  45.44600 42.32200 37.29300
N  50.30500 43.87700 42.76800
C  50.11400 42.54600 42.42000
C  51.34000 41.88500 42.71600
C  52.30500 42.81000 43.16900
C  51.60600 44.15100 43.03600
C  51.59500 40.41800 42.43900
C  53.78000 42.64000 43.63800
O  54.18800 41.47800 43.63800
C  54.77700 43.62900 44.26000
N  50.32400 46.95800 42.74800
C  51.61900 46.65300 43.14000
C  52.36500 48.00900 43.26600
C  51.40100 49.05200 42.60100
C  50.15400 48.27600 42.70300
C  52.78100 48.39100 44.77200
C  51.70600 49.37200 41.13700
C  52.30100 50.68100 40.74200
N  47.44400 46.88800 42.48400
C  47.62500 48.21300 42.59700
C  46.27100 48.86100 42.48000
C  45.46200 47.76700 41.98000
C  46.16200 46.58200 42.06200
C  45.90800 50.33300 42.60200
C  44.13400 47.47900 41.60800
O  43.13500 48.23300 41.58600
C  44.05500 46.02800 41.29100
C  42.81700 45.44900 41.91500
O  41.79600 44.98200 41.36100
O  42.94300 45.41100 43.27100
C  41.70900 45.24800 44.06400
H  48.92700 40.90500 41.89700
H  53.26600 45.33900 43.24000
H  48.85200 49.96800 42.77200
H  44.52900 42.78400 41.99600
H  46.66800 41.37600 40.29800
H  46.81000 40.80700 43.11500
H  46.22100 39.62200 41.88400
H  45.13500 40.69200 42.75900
H  43.60700 43.57900 40.03800
H  44.11600 41.94300 39.56100
H  46.23700 43.69800 38.69700
H  44.68100 44.16200 38.15900
H  51.61000 39.78500 43.32600
H  52.48600 40.17500 41.85900
H  50.78900 39.92100 41.90000
H  55.50700 43.22200 44.96000
H  54.12900 44.29900 44.82400
H  55.30200 44.18400 43.48100
H  53.32400 47.83400 42.77800
H  51.33700 49.98800 43.15600
H  53.86500 48.28600 44.82600
H  52.29800 47.74500 45.50400
H  52.52100 49.39400 45.10900
H  50.91200 49.14800 40.42400
H  52.42900 48.65400 40.75100
H  53.37600 50.53700 40.63100
H  52.06000 51.41700 41.50900
H  51.82800 51.12600 39.86700
H  44.90400 50.57000 42.25000
H  46.55200 50.97900 42.00600
H  46.03200 50.65500 43.63500
H  43.99600 46.00900 40.20300
H  41.34600 44.22200 44.01700
H  40.95000 45.96600 43.75400
H  42.01700 45.55700 45.06400

