158

Mg 41.00200 9.52100 30.24100
C  43.07000 10.64100 32.58300
C  38.89500 8.12500 32.63300
C  38.95400 8.37500 27.74300
C  43.30300 10.60500 27.74400
N  40.98700 9.32400 32.28600
C  41.92900 10.02200 33.09300
C  41.58400 9.92300 34.57900
C  40.35700 8.85100 34.57700
C  40.11200 8.69400 33.07800
C  40.62300 7.53800 35.35700
C  41.25900 11.29300 35.31300
C  41.96500 11.48600 36.64700
H  41.32300 12.21000 37.90300
N  39.17100 8.45000 30.17700
C  38.49000 7.97800 31.30000
C  37.16600 7.41000 30.79800
C  37.18300 7.41700 29.36500
C  38.48300 8.09200 29.01500
C  36.18500 6.69900 31.69700
C  36.19700 6.83300 28.36500
O  36.37700 6.67200 27.17200
C  34.92700 6.18200 28.87400
N  41.11200 9.58900 28.03400
C  40.15700 8.93900 27.27000
C  40.41700 9.16700 25.69200
C  41.83500 9.86300 25.75500
C  42.12400 10.04000 27.25300
C  40.26100 7.84100 24.87900
C  41.90000 11.18200 24.87300
C  41.19100 12.40800 25.54100
N  42.96700 10.33900 30.10700
C  43.68600 10.85900 29.09100
C  44.84500 11.52800 29.59900
C  44.69200 11.51600 31.01600
C  43.51600 10.73300 31.23900
C  45.96700 12.10700 28.83300
C  45.12200 11.98000 32.31300
O  46.09400 12.66100 32.68800
C  44.14200 11.38700 33.38000
C  44.92500 10.65400 34.38600
O  45.32100 9.47900 34.33300
O  45.08600 11.42400 35.48200
C  45.66700 10.90400 36.74000
H  38.08500 7.91700 33.33600
H  38.40300 8.02200 26.86900
H  44.00900 10.79000 26.93200
H  42.50500 9.63900 35.08800
H  39.43900 9.27900 34.98000
H  40.61100 6.72200 34.63400
H  39.97100 7.39800 36.21900
H  41.65000 7.49700 35.72000
H  40.20800 11.32700 35.60000
H  41.42400 12.12100 34.62300
H  42.81900 12.08600 36.33400
H  42.46100 10.58000 36.99500
H  36.49800 6.68100 32.74100
H  36.06300 5.65900 31.39600
H  35.20300 7.16800 31.74600
H  34.24500 5.85200 28.09000
H  34.45300 7.00400 29.41000
H  35.04700 5.29100 29.49100
H  39.78000 9.99900 25.39600
H  42.52700 9.07400 25.46000
H  39.99700 6.94700 25.44400
H  41.07000 7.45600 24.25900
H  39.38500 8.06400 24.26900
H  41.36200 11.08900 23.93000
H  42.92400 11.41500 24.58000
H  40.69700 12.95200 24.73700
H  42.03500 12.97600 25.93200
H  40.44100 11.95300 26.18900
H  45.73100 12.94000 28.17000
H  46.27200 11.33100 28.13100
H  46.73700 12.27500 29.58700
H  43.75000 12.29300 33.84300
H  46.32500 10.05400 36.56000
H  44.89300 10.66400 37.46900
H  46.28100 11.74100 37.07200
Mg 16.91500 52.20300 25.67800
C  18.36700 50.59100 28.38700
C  14.44700 53.29600 27.91800
C  15.46100 53.79500 23.20500
C  19.27600 50.85200 23.59900
N  16.43800 51.74400 27.96500
C  17.29000 51.25100 28.82500
C  16.87300 51.42700 30.24800
C  15.45100 52.04400 30.03000
C  15.41200 52.34900 28.51800
C  14.23400 51.11400 30.49100
C  17.82800 52.44400 31.03900
C  18.19700 52.11400 32.52400
H  17.27600 52.64200 33.63200
N  15.23000 53.43200 25.60300
C  14.39700 53.80100 26.64100
C  13.46400 54.70900 26.15500
C  13.72200 54.87000 24.73000
C  14.89800 54.09600 24.49200
C  12.45700 55.42600 27.11000
C  13.05900 55.76400 23.71600
O  13.27200 55.75700 22.49600
C  11.93100 56.67500 24.25200
N  17.38900 52.51800 23.72800
C  16.58000 53.07900 22.84700
C  17.18300 53.13600 21.43800
C  18.57200 52.30200 21.62700
C  18.43400 51.87200 23.08200
C  16.20900 52.59500 20.31300
C  19.87800 53.01700 21.30200
C  19.95400 54.46300 21.86800
N  18.46800 50.86800 25.86000
C  19.37700 50.36100 24.96000
C  20.36600 49.53300 25.59800
C  19.97700 49.58700 26.96400
C  18.85000 50.40400 27.03300
C  21.59300 48.93500 24.90500
C  20.43800 49.22600 28.30300
O  21.37100 48.53100 28.70900
C  19.49400 50.00700 29.26500
C  18.80200 48.97700 30.15600
O  17.96600 48.12800 29.81500
O  19.29500 49.12600 31.40000
C  19.08900 48.02900 32.38900
H  13.80600 53.73200 28.68800
H  14.98200 54.21200 22.31600
H  19.92100 50.47000 22.80600
H  16.81500 50.45300 30.73400
H  15.39700 53.03400 30.48200
H  13.60800 51.66200 31.19500
H  14.55200 50.25500 31.08200
H  13.59400 50.82000 29.65900
H  17.32300 53.41000 31.03100
H  18.76100 52.53000 30.48200
H  19.16800 52.54600 32.76700
H  18.36700 51.03800 32.52100
H  12.65300 56.49700 27.06300
H  12.50600 55.27300 28.18800
H  11.41100 55.31500 26.82400
H  12.46100 57.26900 24.99600
H  11.18600 56.01700 24.69800
H  11.42000 57.21700 23.45700
H  17.53900 54.09600 21.06400
H  18.42800 51.46200 20.94700
H  15.24800 53.02800 20.59100
H  16.12000 51.52200 20.48200
H  16.54300 52.85900 19.30900
H  20.02800 53.02800 20.22200
H  20.73900 52.45800 21.66700
H  19.11300 54.87300 22.42700
H  20.10300 55.17900 21.06000
H  20.87700 54.51300 22.44700
H  21.71500 47.95000 25.35500
H  22.47600 49.53700 25.12100
H  21.46700 48.86600 23.82500
H  20.02200 50.78700 29.81400
H  18.13000 47.51600 32.31700
H  19.07900 48.57600 33.33200
H  19.91600 47.32600 32.29400

