158

Mg 8.39700 3.56200 28.22200
C  9.93100 1.93600 30.88800
C  6.40900 5.28900 30.34000
C  6.67100 4.54400 25.59800
C  9.97200 1.05200 26.15600
N  8.18900 3.57800 30.30400
C  9.01400 2.95800 31.21000
C  8.81900 3.47100 32.64200
C  7.40400 4.18400 32.48900
C  7.34300 4.44900 30.99800
C  6.20600 3.24500 32.90300
C  10.00900 4.37900 33.20700
C  10.65300 3.91300 34.50800
H  10.89300 4.86100 35.71300
N  6.84700 4.88800 27.96500
C  6.16200 5.49000 28.96100
C  5.16100 6.32800 28.37300
C  5.24500 6.20100 26.98700
C  6.24100 5.14800 26.79900
C  4.04900 7.11600 29.11100
C  4.41100 6.81800 25.85400
O  4.53700 6.57400 24.68900
C  3.35900 7.77400 26.15800
N  8.38900 2.94700 26.18100
C  7.62100 3.57500 25.29600
C  7.68700 2.86900 23.88600
C  8.93100 1.93900 24.03600
C  9.22300 2.04300 25.55500
C  6.25500 2.25500 23.43900
C  10.30900 2.43700 23.41300
C  11.21300 1.32000 22.71800
N  9.64700 1.78900 28.43400
C  10.21100 0.91600 27.53800
C  11.05800 -0.03000 28.21800
C  11.04000 0.33800 29.54100
C  10.11000 1.37300 29.60500
C  11.91400 -1.15400 27.52700
C  11.62500 0.10500 30.86700
O  12.50300 -0.64500 31.25800
C  10.83300 1.17800 31.77700
C  10.12000 0.33300 32.72900
O  9.06100 -0.32400 32.56700
O  10.86600 0.33900 33.91400
C  10.38200 -0.40400 35.12300
H  5.81700 5.93800 30.98900
H  6.01100 4.83700 24.77900
H  10.40600 0.28200 25.51500
H  8.78200 2.59700 33.29300
H  7.41800 5.10200 33.07700
H  6.49900 2.21000 33.08000
H  5.50100 3.22000 32.07300
H  5.73100 3.72300 33.76000
H  9.64800 5.39800 33.34500
H  10.74400 4.47500 32.40800
H  11.67000 3.61800 34.25000
H  10.15700 3.06100 34.97300
H  3.09800 6.78300 28.69500
H  4.26700 8.16200 28.89500
H  3.91900 7.02100 30.18900
H  2.61400 7.30800 26.80200
H  2.97300 8.12400 25.20100
H  3.67500 8.51100 26.89700
H  7.93900 3.61400 23.13100
H  8.82800 0.92700 23.64500
H  5.51100 2.47500 24.20400
H  6.53900 1.21000 23.31400
H  5.93600 2.73500 22.51300
H  10.89200 3.07400 24.07800
H  10.04400 3.09400 22.58400
H  10.97900 1.32200 21.65300
H  11.04000 0.37000 23.22300
H  12.23500 1.55400 23.01700
H  12.89200 -1.14100 28.00800
H  12.05300 -1.01500 26.45500
H  11.54200 -2.16200 27.71500
H  11.46100 1.84400 32.36800
H  10.34400 0.37700 35.88200
H  11.16600 -1.11600 35.37800
H  9.46900 -0.96300 34.91700
Mg 25.47600 1.83100 29.67100
C  27.71200 1.69300 32.54300
C  23.00800 2.02500 31.85800
C  23.47200 1.45000 27.07000
C  28.24700 0.74400 27.74100
N  25.35400 2.00700 31.96300
C  26.39400 2.00000 32.91800
C  25.87900 2.36600 34.30300
C  24.30700 2.32800 34.04400
C  24.14700 2.14700 32.54500
C  23.53400 1.28300 34.87500
C  26.37000 3.72100 34.86800
C  27.39000 3.73600 36.06000
H  26.93600 4.57600 37.37500
N  23.54400 1.77400 29.46800
C  22.65100 1.90100 30.51800
C  21.28900 1.77500 30.01800
C  21.39400 1.66800 28.60100
C  22.83800 1.60500 28.30000
C  20.12700 2.02800 30.94400
C  20.35800 1.49700 27.50100
O  20.58700 1.26300 26.32200
C  18.93600 1.61400 27.85900
N  25.79100 1.18500 27.65300
C  24.81700 1.35900 26.73800
C  25.38400 1.24500 25.32900
C  26.90700 1.05900 25.51900
C  27.00600 0.93300 27.07300
C  24.72000 0.24100 24.33000
C  27.65200 2.41600 24.98900
C  27.65900 3.74400 25.84200
N  27.52700 1.45600 29.99100
C  28.49800 0.94800 29.08800
C  29.79100 0.82800 29.77100
C  29.46400 0.97400 31.09200
C  28.10600 1.35100 31.21800
C  31.07400 0.54600 29.00600
C  30.09500 0.93900 32.42900
O  31.21600 0.66100 32.75300
C  28.96800 1.47700 33.39400
C  28.78600 0.50100 34.52700
O  28.08100 -0.51300 34.49100
O  29.46900 0.98200 35.64800
C  29.30900 0.05900 36.75800
H  22.17000 2.09100 32.55600
H  22.82900 1.46500 26.18800
H  29.17200 0.66100 27.16600
H  26.09200 1.51500 34.95000
H  23.77600 3.22900 34.35200
H  22.45400 1.42900 34.87000
H  24.02200 1.10100 35.83300
H  23.51000 0.35600 34.30300
H  25.55300 4.42900 35.00300
H  26.85800 4.19300 34.01500
H  28.37100 4.13400 35.80100
H  27.49900 2.71100 36.41600
H  19.93700 3.10100 30.92800
H  20.25300 1.68000 31.97000
H  19.20700 1.60100 30.54500
H  18.33300 1.27400 27.01800
H  18.75000 2.64900 28.14700
H  18.82300 0.92100 28.69300
H  25.20600 2.26600 24.99200
H  27.40900 0.19000 25.09400
H  24.02700 -0.35300 24.92500
H  25.40700 -0.44800 23.83800
H  24.20200 0.81800 23.56400
H  27.24600 2.71900 24.02400
H  28.71000 2.20000 24.83700
H  27.07000 3.52400 26.73300
H  27.23600 4.56700 25.26800
H  28.59900 4.03400 26.31100
H  31.04600 0.10700 28.00800
H  31.73600 -0.02100 29.66000
H  31.57800 1.50400 28.87200
H  29.19600 2.45800 33.81100
H  29.32200 -0.96600 36.38900
H  28.47000 0.39300 37.36900
H  30.19700 0.11400 37.38800

