158

Mg 1.71500 -1.43900 43.52000
C  4.98700 -0.68900 42.89900
C  0.77300 1.29300 41.37900
C  -1.50000 -2.58400 43.22400
C  2.65400 -4.53300 44.99300
N  2.77200 0.16000 42.30700
C  4.13300 0.24900 42.21100
C  4.56200 1.37100 41.29500
C  3.21200 2.19700 41.03900
C  2.18400 1.19200 41.62900
C  3.03500 3.52700 41.57800
C  5.33700 0.87800 40.05300
C  6.59700 1.72100 39.58500
H  6.53700 2.37100 38.26000
N  -0.12200 -0.65700 42.62500
C  -0.29400 0.49600 41.85500
C  -1.68900 0.60200 41.61800
C  -2.42300 -0.53600 42.02000
C  -1.31800 -1.29600 42.64300
C  -2.30800 1.84000 40.92600
C  -3.93300 -0.69800 41.98100
O  -4.64700 0.15700 41.41900
C  -4.61600 -1.76700 42.74000
N  0.65200 -3.29000 44.12600
C  -0.65800 -3.50200 43.86600
C  -1.00600 -4.92900 44.33300
C  0.25700 -5.42900 45.07200
C  1.28100 -4.35900 44.71700
C  -2.33800 -5.08200 45.11400
C  0.71700 -6.89400 44.93600
C  0.84500 -7.77000 46.21400
N  3.40000 -2.41200 44.00600
C  3.66900 -3.60100 44.58600
C  5.13000 -3.75000 44.73900
C  5.68700 -2.59200 44.19400
C  4.59600 -1.83700 43.68600
C  5.79300 -5.00100 45.34500
C  6.91500 -1.97400 43.78900
O  8.07300 -2.29200 43.90100
C  6.52300 -0.68800 43.03700
C  7.15500 0.41600 43.81400
O  7.18000 0.64400 45.01200
O  7.70300 1.26600 42.87800
C  8.42400 2.41700 43.42200
H  0.51000 2.03800 40.62500
H  -2.53000 -2.92000 43.36000
H  3.10000 -5.43300 45.42200
H  5.19800 2.02100 41.89600
H  3.13100 2.30900 39.95800
H  3.85400 3.63000 42.28900
H  2.08300 3.65900 42.09300
H  3.07800 4.33700 40.85000
H  4.71000 0.80700 39.16500
H  5.73700 -0.08800 40.36000
H  7.43500 1.03000 39.49300
H  6.74400 2.56400 40.26000
H  -2.90100 1.55700 40.05600
H  -1.53400 2.50700 40.54500
H  -2.99200 2.27600 41.65400
H  -5.70200 -1.69300 42.79800
H  -4.22100 -1.58300 43.73900
H  -4.32400 -2.73900 42.34300
H  -1.10800 -5.48200 43.40000
H  -0.02400 -5.42500 46.12500
H  -3.10300 -5.46100 44.43600
H  -2.70200 -4.11900 45.47200
H  -2.34000 -5.88900 45.84600
H  1.70000 -6.80000 44.47300
H  0.13700 -7.40300 44.16700
H  1.88700 -7.76300 46.53500
H  0.62600 -8.77600 45.85700
H  0.26000 -7.34600 47.03000
H  5.38100 -5.89900 44.88400
H  5.46300 -5.04700 46.38300
H  6.84200 -5.09700 45.06700
H  7.03000 -0.61000 42.07600
H  7.77300 3.08600 43.98300
H  8.80200 2.96600 42.55900
H  9.21000 1.98300 44.04100
Mg -0.88200 34.91300 25.71600
C  -2.54500 33.02000 28.20800
C  0.30600 36.92400 28.17200
C  0.27800 36.87200 23.35400
C  -2.51600 32.98800 23.36100
N  -1.16800 34.96200 27.92900
C  -1.80400 34.12300 28.72700
C  -1.62400 34.39500 30.25400
C  -0.85500 35.75700 30.12900
C  -0.46100 35.89000 28.63300
C  -1.56000 37.01000 30.74200
C  -0.80400 33.27200 31.04200
C  -1.39800 32.75700 32.29200
H  -0.44500 32.38200 33.43400
N  0.15500 36.69400 25.77800
C  0.62100 37.33700 26.83900
C  1.45300 38.38000 26.42300
C  1.55700 38.32900 25.03400
C  0.67200 37.24900 24.61500
C  2.12400 39.23600 27.41900
C  2.26900 39.19300 24.07400
O  2.27200 39.06500 22.84900
C  3.09900 40.33000 24.67300
N  -1.32700 35.10800 23.67500
C  -0.59600 35.89500 22.94500
C  -0.84600 35.72700 21.41500
C  -1.49500 34.34400 21.41500
C  -1.82300 34.12500 22.94800
C  -1.69300 36.84400 20.74200
C  -0.53000 33.13200 20.89200
C  0.62600 32.51600 21.71800
N  -2.38800 33.33100 25.74600
C  -3.00100 32.70700 24.69400
C  -3.91900 31.66900 25.18100
C  -3.63900 31.69600 26.62000
C  -2.82900 32.77300 26.87400
C  -4.56900 30.60800 24.47000
C  -3.93000 31.05400 27.95300
O  -4.60500 30.11500 28.30000
C  -3.32500 31.94500 28.97400
C  -4.46300 32.48400 29.73800
O  -5.07300 33.50200 29.48700
O  -4.61900 31.67600 30.81500
C  -5.40900 32.07900 31.94100
H  0.81800 37.41800 29.00100
H  0.88100 37.31800 22.56000
H  -2.91300 32.31700 22.59600
H  -2.67000 34.47800 30.55000
H  0.05000 35.73000 30.73700
H  -1.08800 37.20100 31.70600
H  -2.58500 36.67700 30.90800
H  -1.63100 37.91000 30.13100
H  0.15600 33.63000 31.41400
H  -0.72700 32.45400 30.32600
H  -1.84900 31.80400 32.01500
H  -2.09800 33.54800 32.56200
H  1.84400 40.25500 27.15200
H  3.19100 39.02100 27.35100
H  1.88400 39.03400 28.46300
H  3.67900 40.84300 23.90600
H  3.84200 40.08000 25.43000
H  2.46800 41.10000 25.11800
H  0.10600 35.72600 20.88500
H  -2.45600 34.31600 20.90200
H  -2.52000 36.55700 20.09200
H  -1.06800 37.42900 20.06800
H  -2.05700 37.52800 21.50800
H  -0.11500 33.58000 19.98900
H  -1.30900 32.43500 20.58300
H  0.40000 32.61300 22.77900
H  1.60900 32.92000 21.47600
H  0.67800 31.43100 21.61700
H  -4.08400 29.66000 24.70600
H  -4.52400 30.76500 23.39300
H  -5.63200 30.53800 24.69800
H  -2.71900 31.35300 29.66000
H  -6.28200 32.55600 31.49700
H  -4.83400 32.79500 32.52900
H  -5.65200 31.18800 32.52000

