158

Mg 17.43300 -2.83100 27.95600
C  16.42400 -0.60800 30.41500
C  19.65000 -4.38400 30.27200
C  19.14200 -4.41300 25.43100
C  15.98900 -0.72600 25.56300
N  17.94200 -2.50900 30.05800
C  17.36200 -1.52800 30.87600
C  17.80300 -1.63300 32.38000
C  18.78500 -2.82100 32.24900
C  18.87500 -3.22700 30.73700
C  20.12600 -2.43800 32.84600
C  16.53400 -1.91900 33.30900
C  16.72600 -2.42600 34.79600
H  18.03700 -2.08400 35.48700
N  18.96500 -4.31900 27.86300
C  19.66600 -4.89000 28.88700
C  20.34300 -6.03600 28.36900
C  20.14700 -6.09500 26.98200
C  19.42000 -4.87900 26.70300
C  21.24600 -6.78700 29.23900
C  20.62200 -7.13200 26.01700
O  20.42800 -7.11500 24.79600
C  21.49700 -8.24900 26.51500
N  17.64900 -2.49700 25.83600
C  18.40800 -3.32600 25.03600
C  18.06700 -3.09600 23.49900
C  16.96700 -1.95400 23.60100
C  16.77900 -1.73200 25.10400
C  19.19400 -2.63100 22.48400
C  15.58400 -2.49300 22.99600
C  14.45100 -2.93400 23.87500
N  16.30800 -1.06400 27.87800
C  15.80200 -0.33400 26.87100
C  15.01800 0.75900 27.42600
C  15.21600 0.67000 28.80500
C  16.03000 -0.43500 29.05400
C  14.12100 1.64800 26.53300
C  14.94800 1.34100 30.07200
O  14.29300 2.33300 30.29200
C  15.80100 0.56700 31.13300
C  16.72100 1.55400 31.81400
O  17.81900 1.89500 31.42700
O  16.11600 2.00800 33.04500
C  16.89000 2.91200 33.87500
H  20.22400 -4.86400 31.06600
H  19.51600 -4.88000 24.51800
H  15.31300 -0.23500 24.85900
H  18.25800 -0.70300 32.72100
H  18.45400 -3.69300 32.81300
H  20.14700 -1.58700 33.52700
H  20.82500 -2.34000 32.01600
H  20.52800 -3.26900 33.42600
H  15.94600 -2.63500 32.73500
H  15.97600 -1.00900 33.52900
H  16.65600 -3.51400 34.82800
H  15.85900 -2.05800 35.34400
H  21.71400 -6.26000 30.07100
H  22.20100 -7.07200 28.79900
H  20.72800 -7.62800 29.69900
H  22.55200 -7.97600 26.47100
H  21.42200 -9.08400 25.81900
H  21.26300 -8.66700 27.49400
H  17.71000 -4.03100 23.06700
H  17.33700 -1.00100 23.22400
H  19.42500 -3.31400 21.66700
H  20.04000 -2.34300 23.10900
H  18.76400 -1.85100 21.85600
H  15.71100 -3.32300 22.30100
H  15.13000 -1.63700 22.49500
H  14.51700 -3.25400 24.91400
H  13.93400 -3.71900 23.32300
H  13.76300 -2.09700 23.75700
H  13.19900 1.94900 27.02900
H  13.84400 1.06800 25.65200
H  14.57700 2.62700 26.38500
H  15.09400 0.20900 31.88100
H  16.34900 3.82500 34.12400
H  17.90400 3.07400 33.51000
H  17.04100 2.35400 34.79900
Mg 40.49200 9.01300 28.83900
C  42.61300 10.37500 31.26000
C  38.90300 7.18600 31.28500
C  38.71600 7.43000 26.38600
C  42.91300 9.91000 26.42900
N  40.79400 8.65000 31.09800
C  41.54300 9.57000 31.80400
C  41.04500 9.55000 33.29200
C  40.02500 8.31800 33.32800
C  39.89700 7.96800 31.84300
C  40.33500 7.06400 34.21200
C  40.49600 10.92400 33.68400
C  40.02300 11.10100 35.12800
H  40.81500 11.91500 36.18900
N  39.02300 7.61700 28.75400
C  38.51200 6.93500 29.88300
C  37.34800 6.13600 29.46700
C  37.19000 6.34300 28.06900
C  38.35900 7.14600 27.68100
C  36.40000 5.39700 30.36100
C  36.04500 5.95400 27.14700
O  36.07700 6.29500 25.94900
C  34.86400 5.02500 27.53100
N  40.83500 8.68200 26.67700
C  39.92200 7.97100 25.92200
C  40.27100 8.11000 24.40900
C  41.65600 8.93000 24.46000
C  41.83600 9.19600 25.96200
C  40.37100 6.73100 23.60900
C  41.74400 10.16700 23.53200
C  41.04200 11.53100 23.91800
N  42.32700 10.00600 28.77100
C  43.14600 10.36100 27.73500
C  44.20900 11.08200 28.16100
C  44.04000 11.23500 29.54000
C  42.88900 10.47400 29.88500
C  45.37600 11.47400 27.32200
C  44.54700 11.76400 30.79500
O  45.46900 12.51200 31.07600
C  43.61400 11.34000 31.91200
C  44.31200 10.78300 33.12400
O  44.46500 9.61100 33.32500
O  44.59900 11.74100 34.03300
C  45.08100 11.29100 35.32800
H  38.33700 6.65200 32.05100
H  38.10800 7.07200 25.55200
H  43.72200 10.16700 25.74200
H  41.93300 9.28000 33.86400
H  39.04600 8.75900 33.51900
H  41.28900 7.11800 34.73700
H  40.17600 6.19300 33.57600
H  39.53600 7.00400 34.95100
H  39.62600 11.00800 33.03200
H  41.20300 11.71700 33.43900
H  40.07600 10.10000 35.55600
H  39.01900 11.52300 35.17000
H  36.81000 5.44600 31.36900
H  36.14000 4.36700 30.11800
H  35.55800 6.08800 30.31800
H  35.31400 4.12800 27.95500
H  34.32300 4.59700 26.68800
H  34.24000 5.45100 28.31700
H  39.49700 8.69700 23.91500
H  42.44500 8.28500 24.07400
H  39.84400 6.83000 22.66000
H  39.88600 5.89700 24.11700
H  41.42300 6.58900 23.36000
H  41.38600 9.84000 22.55600
H  42.79000 10.41600 23.35200
H  40.41100 11.48000 24.80500
H  40.36100 11.84800 23.12800
H  41.82800 12.26800 24.08000
H  45.13400 12.02700 26.41500
H  45.97000 10.61100 27.02100
H  46.01000 12.08500 27.96500
H  43.04100 12.19900 32.26200
H  44.19400 10.95600 35.86600
H  45.62900 12.02000 35.92500
H  45.80000 10.48400 35.19200

