158

Mg 17.08800 -2.99200 27.57900
C  16.24900 -1.02400 30.24400
C  18.65700 -5.19000 29.68900
C  17.88600 -4.76600 24.89000
C  15.55500 -0.56100 25.42100
N  17.37600 -3.10800 29.69000
C  16.93000 -2.18600 30.60600
C  17.27200 -2.68900 32.06900
C  18.09500 -3.98900 31.81600
C  18.01500 -4.13400 30.29700
C  19.54200 -4.04400 32.45300
C  16.01100 -2.92100 32.93900
C  16.11800 -2.54200 34.48600
H  17.43500 -1.91800 35.07600
N  18.05300 -4.83000 27.34300
C  18.72100 -5.51700 28.32300
C  19.34200 -6.73400 27.70400
C  19.04900 -6.67200 26.27400
C  18.29400 -5.40300 26.11800
C  20.00000 -7.80400 28.55100
C  19.42000 -7.72300 25.25000
O  19.16200 -7.61400 24.01100
C  20.17600 -8.95100 25.55400
N  16.81200 -2.73100 25.42800
C  17.25300 -3.55500 24.52500
C  17.00000 -3.07500 23.03600
C  16.21700 -1.70200 23.27900
C  16.22400 -1.63400 24.82000
C  18.23100 -2.92700 22.11000
C  14.67000 -1.71300 22.88200
C  13.52200 -2.19600 23.79600
N  15.99300 -1.18200 27.77200
C  15.43300 -0.30700 26.82500
C  14.78700 0.79700 27.50400
C  15.05700 0.53200 28.89200
C  15.83300 -0.64800 28.96800
C  14.01200 1.94400 26.84400
C  14.91400 1.06900 30.16100
O  14.43300 2.08200 30.48900
C  15.61400 0.09000 31.17700
C  16.60400 0.80800 31.93300
O  17.77500 1.08000 31.59400
O  15.95400 1.19200 33.07700
C  16.79100 2.08000 33.95900
H  19.18800 -5.84500 30.38300
H  18.14900 -5.29100 23.97000
H  15.11300 0.20800 24.78500
H  17.96100 -2.00900 32.56900
H  17.53800 -4.85800 32.16600
H  19.80200 -3.06800 32.86300
H  20.28600 -4.28800 31.69500
H  19.66900 -4.78700 33.24100
H  15.66000 -3.95100 32.88200
H  15.19900 -2.34000 32.50000
H  15.85100 -3.37600 35.13500
H  15.36900 -1.75700 34.58400
H  19.41400 -8.72200 28.53700
H  20.13100 -7.45500 29.57500
H  20.98100 -8.01400 28.12400
H  21.11000 -8.90200 26.11300
H  20.40900 -9.43600 24.60600
H  19.43700 -9.55400 26.08200
H  16.22900 -3.74700 22.66200
H  16.64900 -0.76100 22.93700
H  18.49200 -1.88000 21.95600
H  18.14900 -3.59400 21.25200
H  19.16700 -3.15400 22.62000
H  14.62800 -2.24900 21.93300
H  14.45300 -0.66800 22.66200
H  12.68300 -2.45200 23.14900
H  13.16300 -1.33200 24.35600
H  13.83600 -2.98400 24.48100
H  13.94800 1.80300 25.76500
H  14.41200 2.89800 27.18800
H  12.99500 1.89300 27.23200
H  14.82100 -0.27400 31.83100
H  17.80400 1.71600 34.12800
H  16.39700 2.13000 34.97300
H  16.96700 3.06000 33.51500
Mg 30.73100 59.43000 38.86200
C  27.74600 57.94500 37.64700
C  32.52500 56.69600 37.84700
C  33.52100 61.25600 39.14700
C  28.77500 62.34400 39.40700
N  30.23100 57.66200 37.75600
C  28.96700 57.10700 37.48200
C  28.98000 55.69500 36.83100
C  30.46500 55.27200 37.19900
C  31.12100 56.61000 37.65400
C  30.62200 54.31000 38.43900
C  28.56300 55.64800 35.31500
C  27.72900 54.50500 34.74000
H  26.53200 54.97800 33.83100
N  32.79000 58.96400 38.58700
C  33.26700 57.80200 38.26000
C  34.68100 57.93600 38.21300
C  35.06500 59.20700 38.75900
C  33.78200 59.85100 38.85800
C  35.54800 56.71400 37.86500
C  36.48500 59.64100 38.94600
O  37.34300 58.84400 38.70000
C  36.92000 61.00300 39.43800
N  31.09800 61.51000 39.21300
C  32.35300 62.02900 39.32500
C  32.41700 63.51600 39.63000
C  30.91000 63.82700 39.69200
C  30.15400 62.49600 39.41800
C  33.33300 63.88500 40.77600
C  30.39300 65.01600 38.90500
C  29.71600 66.10200 39.73700
N  28.68200 60.04100 38.75000
C  28.09500 61.18000 39.04900
C  26.66200 61.14800 38.81600
C  26.46000 59.84700 38.29900
C  27.75200 59.23100 38.22200
C  25.56700 62.24300 38.78700
C  25.48200 58.84800 37.77400
O  24.31500 58.91600 37.45800
C  26.26700 57.60800 37.47900
C  25.81300 56.63400 38.52900
O  25.60400 56.98600 39.67300
O  25.60100 55.32300 38.04200
C  25.21100 54.30100 39.03900
H  32.99600 55.76400 37.52900
H  34.44800 61.73300 39.47200
H  28.10400 63.15500 39.69600
H  28.23700 55.20800 37.46200
H  31.04800 54.84800 36.38100
H  29.66500 53.78700 38.45800
H  30.72800 54.88100 39.36200
H  31.37400 53.52500 38.36800
H  29.45200 55.52200 34.69800
H  28.06800 56.58500 35.06000
H  27.27000 53.86400 35.49300
H  28.43100 53.83800 34.24000
H  34.97700 55.94800 37.33900
H  35.98500 56.33900 38.79000
H  36.28800 56.95400 37.10200
H  37.98200 61.24100 39.36500
H  36.45000 61.17000 40.40700
H  36.50400 61.65300 38.66900
H  32.65700 63.98600 38.67700
H  30.74700 64.04000 40.74800
H  34.15000 64.57300 40.55900
H  33.92000 63.04100 41.13800
H  32.79100 64.28800 41.63100
H  29.64200 64.51400 38.29500
H  31.14500 65.41100 38.22200
H  29.44900 65.66800 40.70100
H  28.79100 66.41700 39.25500
H  30.33400 66.98000 39.92300
H  24.70000 61.70900 39.17600
H  25.32000 62.38400 37.73500
H  25.83200 63.12700 39.36700
H  25.96800 57.13200 36.54500
H  25.98700 54.31700 39.80400
H  25.21100 53.29200 38.62800
H  24.22600 54.45400 39.48000

