158

Mg -2.24000 34.58700 26.49700
C  -3.92700 32.65500 29.02000
C  -1.25100 36.72300 28.96700
C  -1.03400 36.63300 24.05400
C  -4.05800 32.84100 24.12500
N  -2.49200 34.57100 28.77800
C  -3.18300 33.67700 29.56400
C  -2.91700 33.99900 31.06300
C  -2.28400 35.47000 30.97500
C  -1.94300 35.62300 29.51400
C  -2.86700 36.73000 31.64000
C  -2.14900 32.88100 31.72600
C  -2.78100 32.19900 32.94300
H  -2.05500 32.11000 34.24500
N  -1.16100 36.37900 26.51500
C  -0.81600 37.05800 27.64000
C  0.06200 38.16400 27.24100
C  0.15900 38.07700 25.80900
C  -0.77000 37.04400 25.39100
C  0.88100 38.99100 28.23900
C  1.05600 38.80500 24.84300
O  0.99400 38.65200 23.60700
C  2.17500 39.58300 25.46100
N  -2.54400 34.72400 24.48300
C  -1.90400 35.60300 23.71800
C  -2.36800 35.50300 22.29000
C  -2.91100 34.06200 22.21800
C  -3.20200 33.82500 23.70700
C  -3.50700 36.50400 21.81800
C  -1.89000 33.08300 21.50500
C  -0.55900 32.61900 22.14600
N  -3.64300 33.11600 26.49700
C  -4.25500 32.44500 25.44600
C  -5.07800 31.31300 25.89300
C  -4.93200 31.40300 27.31400
C  -4.04200 32.45200 27.59100
C  -5.83400 30.39400 25.10800
C  -5.36300 30.76800 28.59300
O  -6.12600 29.79600 28.77600
C  -4.71400 31.54000 29.66700
C  -5.82000 32.14500 30.42700
O  -6.37800 33.19200 30.13800
O  -6.04100 31.49700 31.64400
C  -6.94300 32.17800 32.57600
H  -0.99400 37.36700 29.81200
H  -0.63900 37.17200 23.19100
H  -4.66200 32.40800 23.32500
H  -3.90100 34.11800 31.51800
H  -1.36000 35.38200 31.54600
H  -3.88300 36.47800 31.94400
H  -3.11200 37.50800 30.91600
H  -2.21300 37.17300 32.39100
H  -1.18200 33.31000 31.98900
H  -1.98600 32.18500 30.90300
H  -3.07400 31.19200 32.64400
H  -3.80000 32.55500 33.10000
H  0.53100 39.03500 29.27100
H  0.84000 40.01000 27.85400
H  1.93200 38.70500 28.20600
H  2.86400 39.60700 24.61700
H  2.71900 38.97500 26.18400
H  1.92100 40.60600 25.73700
H  -1.62800 35.72800 21.52100
H  -3.86700 33.92100 21.71400
H  -3.30400 36.89400 20.82000
H  -3.57500 37.38600 22.45400
H  -4.42600 35.91600 21.83500
H  -1.64200 33.47800 20.52000
H  -2.49600 32.18200 21.41200
H  0.20800 32.48200 21.38300
H  -0.55400 31.62000 22.58300
H  -0.10500 33.26900 22.89400
H  -5.74100 30.61000 24.04400
H  -6.88300 30.53600 25.37100
H  -5.61400 29.33300 25.23100
H  -4.19000 30.97700 30.44000
H  -7.76400 31.53700 32.89700
H  -7.43000 33.03800 32.11600
H  -6.44400 32.49400 33.49300
Mg -12.26300 15.90400 42.01500
C  -8.98600 15.09000 40.96600
C  -11.97900 18.71100 40.15200
C  -15.31400 16.83200 43.12200
C  -12.73300 12.67200 43.29200
N  -10.69200 16.66000 40.47600
C  -9.35500 16.32100 40.49100
C  -8.44100 17.38300 39.92600
C  -9.46900 18.55900 39.62800
C  -10.83300 17.96700 40.14200
C  -9.08400 19.90400 40.23000
C  -7.65900 16.91300 38.68400
C  -6.09400 17.08300 38.72100
H  -5.33500 17.63900 37.54400
N  -13.51900 17.51400 41.63300
C  -13.20000 18.55500 40.80100
C  -14.28500 19.50400 40.84000
C  -15.27800 18.99000 41.74700
C  -14.74200 17.71000 42.20500
C  -14.33500 20.79100 40.05200
C  -16.57000 19.69800 42.09800
O  -16.81100 20.80700 41.60000
C  -17.72700 18.99000 42.80100
N  -13.79100 14.94900 43.06500
C  -14.96800 15.50900 43.43600
C  -15.89000 14.41400 44.08300
C  -15.16200 13.00600 43.82500
C  -13.80700 13.55600 43.39600
C  -16.14900 14.60400 45.65200
C  -15.85400 12.07400 42.82300
C  -15.51000 10.53400 42.81300
N  -11.16400 14.14200 42.16300
C  -11.48900 12.92600 42.69800
C  -10.25300 12.13500 42.61500
C  -9.23700 12.94900 41.99600
C  -9.86800 14.16100 41.72400
C  -10.21000 10.80900 43.22000
C  -7.80100 12.97700 41.56500
O  -6.89500 12.10100 41.67600
C  -7.60200 14.45000 40.87300
C  -6.58200 15.15700 41.76500
O  -6.89700 15.78100 42.77100
O  -5.30200 14.90000 41.34100
C  -4.18000 15.15800 42.19300
H  -11.87800 19.72600 39.76200
H  -16.34000 17.02800 43.44100
H  -12.85700 11.65500 43.66900
H  -7.70100 17.68000 40.67000
H  -9.67300 18.54900 38.55700
H  -8.16500 19.81000 40.80800
H  -9.88300 20.23900 40.89100
H  -9.01000 20.66300 39.45100
H  -7.95800 17.44800 37.78200
H  -7.88800 15.87100 38.46400
H  -5.63400 16.09600 38.68200
H  -5.86800 17.61700 39.64400
H  -15.31600 21.01600 39.63300
H  -13.69100 20.83900 39.17400
H  -14.18600 21.69400 40.64300
H  -18.62100 19.59100 42.63900
H  -17.67200 19.01100 43.88900
H  -17.87800 17.98100 42.41600
H  -16.83500 14.48100 43.54200
H  -15.14400 12.65900 44.85900
H  -15.86000 13.80600 46.33700
H  -17.21900 14.77700 45.76300
H  -15.69100 15.50500 46.06200
H  -15.84500 12.46100 41.80400
H  -16.91300 12.05400 43.08400
H  -14.57500 10.33900 43.33800
H  -15.37000 10.13500 41.80800
H  -16.37400 10.04000 43.25800
H  -11.13900 10.27600 43.01700
H  -9.92300 10.78500 44.27200
H  -9.34700 10.35300 42.73600
H  -7.09000 14.33000 39.91800
H  -4.37700 15.45500 43.22200
H  -3.62800 15.99000 41.75600
H  -3.50200 14.30600 42.25100

