158

Mg 47.54300 16.74600 28.31100
C  45.83300 16.60800 31.46700
C  49.96500 18.75100 29.96700
C  49.05600 17.16700 25.47400
C  44.91300 15.14100 26.91200
N  47.76100 17.73300 30.44900
C  47.01900 17.33900 31.56700
C  47.55100 18.01800 32.82100
C  48.73200 18.84500 32.22800
C  48.91000 18.39100 30.79100
C  48.48000 20.38100 32.21300
C  47.98200 17.02000 33.93500
C  47.83300 17.59100 35.45100
H  47.91200 19.08900 35.62200
N  49.36100 17.72000 27.79900
C  50.13000 18.51100 28.64200
C  51.31000 18.85100 27.87900
C  51.07000 18.45800 26.47100
C  49.81000 17.68800 26.54300
C  52.50600 19.60700 28.47900
C  51.75500 18.70600 25.24600
O  51.33900 18.27900 24.21800
C  52.92500 19.60200 25.26300
N  47.07000 16.15200 26.46100
C  47.84500 16.46800 25.44100
C  47.19700 15.98200 24.14400
C  46.14000 14.97600 24.63700
C  45.96900 15.52600 26.08700
C  46.71300 17.12600 23.19500
C  46.58500 13.48700 24.67000
C  46.16200 12.71100 23.40500
N  45.68400 16.11000 28.94500
C  44.67500 15.50900 28.21900
C  43.56200 15.16500 29.12000
C  44.01900 15.58000 30.37300
C  45.26400 16.12700 30.25500
C  42.30000 14.32100 28.88400
C  43.72100 15.44800 31.74600
O  42.81900 14.85600 32.31900
C  44.88200 16.12200 32.55900
C  44.29200 17.22900 33.33000
O  43.66100 18.19500 32.94100
O  44.48000 16.96600 34.66000
C  43.92900 17.82200 35.70300
H  50.75300 19.19600 30.57900
H  49.47600 17.26100 24.47000
H  44.10300 14.52200 26.52100
H  46.74800 18.64400 33.21100
H  49.68800 18.66800 32.72200
H  47.62900 20.75500 32.78300
H  48.39900 20.60600 31.15000
H  49.44000 20.73700 32.58800
H  49.06400 16.94900 33.82700
H  47.51300 16.03800 33.87400
H  48.44400 17.04700 36.17100
H  46.82300 17.28200 35.72100
H  53.45200 19.06600 28.48900
H  52.27500 19.90000 29.50400
H  52.57900 20.44500 27.78500
H  53.41800 19.65600 24.29200
H  53.67100 19.13400 25.90500
H  52.69600 20.63200 25.54000
H  47.97200 15.35700 23.69800
H  45.18800 15.11300 24.12500
H  46.27900 16.63200 22.32600
H  47.61700 17.59400 22.80500
H  45.93200 17.68300 23.71400
H  46.39300 13.01800 25.63500
H  47.66200 13.31800 24.65600
H  47.04100 12.16500 23.06300
H  45.75900 13.38000 22.64500
H  45.36400 12.04300 23.73100
H  41.92600 14.33600 27.86000
H  41.54000 14.46800 29.65100
H  42.62000 13.29500 29.06400
H  45.26400 15.28900 33.14900
H  42.90600 17.55800 35.97300
H  43.80600 18.85400 35.37400
H  44.56500 17.85100 36.58700
Mg 0.23300 42.83900 25.86300
C  1.40400 42.74900 29.15200
C  -2.82700 41.79400 27.20400
C  -0.87300 42.58400 22.77400
C  3.38900 43.71100 24.81600
N  -0.60200 42.37300 28.01900
C  0.06100 42.51400 29.15000
C  -0.85300 42.42000 30.45700
C  -2.24100 41.98500 29.79100
C  -1.92100 42.02400 28.27400
C  -2.71800 40.53000 30.17600
C  -0.93100 43.82100 31.16100
C  -0.92900 43.80300 32.71800
H  -1.60700 42.62900 33.51000
N  -1.55300 42.21700 25.06300
C  -2.71000 41.94000 25.79200
C  -3.76800 41.62200 24.83100
C  -3.27600 41.77800 23.49600
C  -1.86600 42.21300 23.77100
C  -5.15500 41.05700 25.21800
C  -4.00800 41.55700 22.12400
O  -3.42200 41.57500 20.97600
C  -5.49000 41.25700 22.05600
N  1.13200 43.08600 24.07000
C  0.46400 42.85300 22.91700
C  1.43400 43.02400 21.73800
C  2.62300 43.80900 22.34000
C  2.40200 43.55000 23.87200
C  1.79400 41.74200 20.96100
C  2.66200 45.36700 22.02500
C  3.60200 45.83900 20.87700
N  2.09900 43.00400 26.71100
C  3.27300 43.34800 26.13200
C  4.34400 43.44600 27.19000
C  3.63000 43.17800 28.39600
C  2.29600 42.93400 28.04200
C  5.83600 43.65800 27.09700
C  3.78100 43.01500 29.78200
O  4.77300 43.10600 30.51400
C  2.33400 42.88800 30.34200
C  2.29600 41.69900 31.27300
O  2.43000 40.54100 30.90700
O  2.25300 42.17100 32.54900
C  2.55200 41.17200 33.59000
H  -3.79900 41.52200 27.62000
H  -1.21600 42.47700 21.74300
H  4.30200 44.14900 24.40700
H  -0.49200 41.57800 31.04800
H  -3.03200 42.72200 29.93500
H  -2.82100 39.75800 29.41400
H  -3.65300 40.62700 30.72900
H  -2.10000 39.98100 30.88600
H  -1.79900 44.36700 30.79000
H  0.00500 44.36100 31.01900
H  -1.32100 44.69500 33.20700
H  0.09000 43.87100 33.09900
H  -5.90200 41.53800 24.58700
H  -5.37200 41.19200 26.27800
H  -5.16800 40.00100 24.94900
H  -5.75000 40.39800 22.67400
H  -5.72800 41.04500 21.01300
H  -6.16100 42.09100 22.26200
H  1.03900 43.69400 20.97500
H  3.58600 43.40400 22.02800
H  1.02800 40.99500 21.17200
H  2.77000 41.28900 21.13400
H  1.72100 41.90500 19.88500
H  3.01200 45.88400 22.91900
H  1.60700 45.54100 21.81300
H  3.04800 46.44400 20.15900
H  3.93100 44.96300 20.31800
H  4.37300 46.54000 21.19800
H  6.17400 43.40000 26.09300
H  6.30300 43.18100 27.95900
H  6.00600 44.72100 27.26500
H  2.12100 43.81200 30.88100
H  3.33700 41.54300 34.24900
H  2.89900 40.21200 33.20800
H  1.62600 41.11300 34.16200

