158

Mg 35.48700 -0.26700 29.83700
C  33.48300 1.22600 32.24200
C  37.85600 -1.02800 32.30900
C  37.77500 -1.13600 27.42300
C  33.23800 0.81600 27.39000
N  35.59300 0.16400 32.07700
C  34.63500 0.79100 32.83500
C  34.89400 0.58500 34.33300
C  36.49300 0.08700 34.23200
C  36.62900 -0.32300 32.75200
C  37.59700 1.14100 34.61000
C  33.95500 -0.39100 35.02500
C  33.64700 -0.11200 36.46800
H  34.22800 1.09400 37.20800
N  37.50300 -1.05400 29.90800
C  38.27800 -1.36600 31.00400
C  39.48500 -2.10000 30.62500
C  39.47800 -2.08400 29.22100
C  38.18800 -1.41900 28.77900
C  40.43100 -2.78800 31.61800
C  40.47300 -2.63200 28.21900
O  40.27700 -2.76700 27.01800
C  41.81900 -3.07900 28.72000
N  35.49000 -0.21000 27.74600
C  36.54700 -0.60900 26.95600
C  36.29800 -0.23600 25.46100
C  34.74800 0.18800 25.43200
C  34.45900 0.25000 26.95800
C  37.33800 0.76100 24.94200
C  33.75500 -0.79100 24.66100
C  32.39600 -0.17700 24.19100
N  33.64400 0.70600 29.75000
C  32.84700 1.08300 28.70500
C  31.66300 1.69800 29.19000
C  31.83800 1.84500 30.59600
C  33.13200 1.27700 30.84100
C  30.56100 2.13100 28.31400
C  31.29300 2.40500 31.84800
O  30.35800 3.16000 32.12800
C  32.27400 1.90100 32.93900
C  32.69000 3.11100 33.60100
O  33.61100 3.86400 33.34000
O  31.83500 3.22700 34.71700
C  32.01000 4.45000 35.53500
H  38.61700 -1.31000 33.04000
H  38.58300 -1.23100 26.69400
H  32.51500 1.23200 26.68600
H  34.88800 1.51200 34.90600
H  36.72800 -0.69500 34.95400
H  37.07700 2.02500 34.97800
H  38.16500 1.38400 33.71200
H  38.13700 0.77400 35.48300
H  34.57000 -1.28500 34.92100
H  33.05100 -0.49600 34.42400
H  33.95900 -0.97900 37.05000
H  32.56600 -0.00700 36.56200
H  40.32500 -3.85100 31.39900
H  40.09800 -2.51500 32.62000
H  41.45600 -2.42300 31.56600
H  42.32500 -3.42700 27.82000
H  41.79500 -3.85000 29.49100
H  42.27000 -2.18200 29.14300
H  36.43500 -1.11700 24.83500
H  34.71700 1.22700 25.10400
H  37.91400 1.14500 25.78400
H  36.75400 1.56800 24.50100
H  37.90100 0.40800 24.07700
H  33.47100 -1.68900 25.20900
H  34.31700 -1.16800 23.80700
H  32.34700 -0.63900 23.20400
H  32.57800 0.89200 24.29700
H  31.69600 -0.57400 24.92600
H  29.96000 1.24900 28.09600
H  30.97800 2.47500 27.36800
H  30.10100 3.01800 28.75000
H  31.83200 1.23200 33.67800
H  31.02200 4.85400 35.75400
H  32.46800 5.26000 34.96600
H  32.49000 4.29900 36.50200
Mg -10.28500 40.90600 42.74100
C  -9.39500 37.61500 41.74600
C  -7.38500 42.06300 41.48100
C  -11.42100 43.92600 43.13900
C  -13.43100 39.56300 43.46000
N  -8.62000 39.96300 41.62400
C  -8.41000 38.59300 41.40400
C  -7.15300 38.40000 40.52300
C  -6.48400 39.83000 40.57100
C  -7.51100 40.68200 41.30600
C  -5.18400 39.86000 41.32700
C  -7.31100 37.83400 39.07400
C  -6.55000 36.49900 38.72600
H  -5.37500 36.59300 37.74300
N  -9.52800 42.67000 42.31200
C  -8.28000 42.99200 41.86500
C  -8.07800 44.42400 41.77700
C  -9.22800 44.96500 42.35700
C  -10.10900 43.89400 42.65600
C  -6.77900 45.02000 41.44800
C  -9.37000 46.45200 42.69700
O  -8.64500 47.28100 42.15100
C  -10.37700 46.93600 43.70200
N  -12.23700 41.61700 42.99500
C  -12.34600 42.90500 43.38700
C  -13.69400 43.14200 44.09800
C  -14.42400 41.78300 43.83600
C  -13.28700 40.92200 43.46200
C  -13.64100 43.60900 45.58100
C  -15.48400 41.81800 42.72500
C  -16.90100 41.66700 43.26100
N  -11.21700 38.95300 42.87600
C  -12.51200 38.60600 43.04500
C  -12.72600 37.22700 42.93600
C  -11.42800 36.73200 42.52900
C  -10.60800 37.86200 42.35400
C  -14.06600 36.43500 43.02200
C  -10.71500 35.52400 42.15700
O  -11.00300 34.32300 42.12200
C  -9.35700 36.12800 41.47900
C  -8.28800 35.38000 42.05400
O  -7.84400 35.39300 43.18200
O  -7.78900 34.55800 41.09400
C  -6.80900 33.56700 41.40700
H  -6.45600 42.48800 41.09600
H  -11.88300 44.91300 43.21500
H  -14.45500 39.19600 43.56300
H  -6.55600 37.66500 41.06300
H  -6.39200 40.20500 39.55200
H  -4.81600 38.83400 41.35400
H  -5.36100 40.28200 42.31700
H  -4.44700 40.49400 40.83400
H  -7.00500 38.63300 38.39800
H  -8.37600 37.60800 39.02600
H  -7.31400 35.88600 38.24800
H  -6.25400 35.99400 39.64500
H  -7.07900 45.89700 40.87500
H  -6.20000 44.38900 40.77400
H  -6.16700 45.27300 42.31400
H  -9.88300 47.79800 44.15100
H  -10.48700 46.19700 44.49500
H  -11.26600 47.13800 43.10400
H  -14.22100 43.90300 43.52400
H  -14.82400 41.37800 44.76500
H  -14.25900 44.48400 45.78300
H  -12.60300 43.90000 45.74200
H  -13.79600 42.90700 46.39900
H  -15.21400 40.96500 42.10300
H  -15.44600 42.67100 42.04700
H  -17.47000 42.39700 42.68500
H  -16.92500 41.90100 44.32500
H  -17.28500 40.66700 43.05700
H  -14.86700 36.83900 42.40300
H  -14.28100 36.26000 44.07600
H  -13.80700 35.45800 42.61200
H  -9.54900 35.95200 40.42100
H  -6.48900 33.72200 42.43800
H  -5.95900 33.66400 40.73200
H  -7.31500 32.60200 41.39000

