158

Mg -1.15600 18.52300 26.77100
C  -1.75000 16.36700 29.47700
C  -2.05700 21.11800 28.92100
C  -0.78400 20.59400 24.33500
C  -1.08000 15.83500 24.63300
N  -1.44500 18.79800 29.18200
C  -1.66500 17.70000 29.95700
C  -2.10800 18.19200 31.44500
C  -2.50400 19.70000 31.15700
C  -2.01100 19.89600 29.69300
C  -4.01000 20.04000 31.35900
C  -0.96200 18.12500 32.49400
C  -1.46500 17.54800 33.82600
H  -0.38400 17.34300 34.89600
N  -1.27100 20.58500 26.60300
C  -1.66700 21.46500 27.63000
C  -1.77400 22.77600 27.02500
C  -1.28100 22.63700 25.65300
C  -1.11800 21.20000 25.51200
C  -2.27700 24.00900 27.68600
C  -0.94300 23.66200 24.54600
O  -0.26300 23.36800 23.57600
C  -1.28200 25.06100 24.69900
N  -1.16900 18.24900 24.68800
C  -0.83100 19.28100 23.94900
C  -0.35900 18.88900 22.52800
C  -0.45600 17.29700 22.63900
C  -0.88800 17.05500 24.07900
C  -1.32800 19.41800 21.40900
C  0.79100 16.39000 22.28700
C  0.45300 15.21300 21.35800
N  -1.34800 16.51800 26.92100
C  -1.27500 15.53600 25.97600
C  -1.44600 14.27800 26.62200
C  -1.59300 14.53500 28.00900
C  -1.58700 15.93300 28.11300
C  -1.54400 12.98800 25.88400
C  -1.82400 13.95800 29.27100
O  -1.89800 12.79400 29.60600
C  -1.98600 15.19100 30.26100
C  -0.93400 15.01000 31.29800
O  0.21100 15.36300 31.22800
O  -1.48700 14.24900 32.25500
C  -0.62600 13.77900 33.42200
H  -2.52300 21.95300 29.44800
H  -0.65200 21.26000 23.48000
H  -0.87600 14.91600 24.08000
H  -3.04400 17.66400 31.62700
H  -1.89100 20.40600 31.71700
H  -4.60200 19.13900 31.51900
H  -4.49200 20.63500 30.58400
H  -3.96200 20.74200 32.19100
H  -0.50100 19.10100 32.64700
H  -0.13200 17.63900 31.98200
H  -1.96700 16.58400 33.73400
H  -2.16000 18.29100 34.21500
H  -1.88300 24.94400 27.28600
H  -1.95800 24.06100 28.72700
H  -3.35600 23.86300 27.62200
H  -1.20000 25.53000 23.71800
H  -0.70700 25.62400 25.43500
H  -2.35100 24.94600 24.87700
H  0.62800 19.30100 22.31900
H  -1.28200 17.00100 21.99300
H  -1.98400 18.64700 21.00300
H  -0.72900 19.64600 20.52700
H  -1.92800 20.22300 21.83400
H  1.31000 15.93500 23.13000
H  1.45800 17.08600 21.77800
H  0.17600 15.72700 20.43700
H  -0.49500 14.77700 21.67200
H  1.20500 14.42400 21.36100
H  -2.37500 13.16400 25.20000
H  -1.82200 12.20200 26.58600
H  -0.63500 12.75700 25.32900
H  -3.01700 15.12400 30.60800
H  0.15400 14.50200 33.66200
H  -0.18900 12.78100 33.44400
H  -1.22900 13.81100 34.33000
Mg 44.56000 5.00000 48.08000
C  42.52400 7.76600 47.49700
C  41.78100 2.99300 47.13500
C  46.64200 2.37600 47.79700
C  47.28700 7.19900 48.18500
N  42.49000 5.36000 47.27800
C  41.95800 6.57700 47.01400
C  40.50900 6.54300 46.49400
C  40.18800 5.03400 46.70700
C  41.49900 4.37400 47.12100
C  39.10200 4.67500 47.76400
C  40.30500 7.19200 45.06500
C  38.88000 7.70300 44.63500
H  38.48200 7.35000 43.17700
N  44.20800 2.94600 47.76700
C  43.01800 2.34000 47.35700
C  43.28100 0.91800 47.30500
C  44.66400 0.67400 47.48000
C  45.22300 2.01000 47.70900
C  42.14800 -0.06800 47.11300
C  45.34800 -0.68500 47.61700
O  44.70800 -1.68100 47.32900
C  46.78600 -0.90100 48.10100
N  46.63600 4.84600 47.85900
C  47.24600 3.63000 47.91600
C  48.75500 3.83500 48.07200
C  48.95100 5.35800 47.90100
C  47.51400 5.84700 47.92900
C  49.33900 3.19600 49.31000
C  49.80100 5.91100 46.65900
C  49.06400 6.08700 45.28300
N  44.87400 7.01500 48.07600
C  46.01400 7.74600 48.20200
C  45.62600 9.17000 48.32600
C  44.25800 9.21400 48.01700
C  43.83300 7.86600 47.89600
C  46.49000 10.39200 48.46000
C  43.12000 10.07000 47.80000
O  42.90400 11.29600 47.83500
C  41.96400 9.11400 47.48800
C  40.96000 9.34800 48.43400
O  40.97100 9.11800 49.59600
O  39.84100 9.95100 47.86000
C  38.70000 10.12900 48.73200
H  40.93500 2.37900 46.82000
H  47.41200 1.61700 47.95400
H  48.12700 7.88400 48.32100
H  39.85900 7.03400 47.21800
H  39.90000 4.71300 45.70600
H  38.18800 4.38400 47.24700
H  38.88800 5.58900 48.31700
H  39.39800 3.94100 48.51500
H  40.39400 6.27600 44.48100
H  41.09200 7.81500 44.63900
H  38.91800 8.78600 44.52600
H  38.13000 7.41300 45.37200
H  41.24000 0.38700 46.71800
H  42.03400 -0.68300 48.00600
H  42.52100 -0.71900 46.32200
H  47.12500 -0.28400 48.93300
H  47.45100 -0.65900 47.27200
H  46.82300 -1.98800 48.17000
H  49.13100 3.27800 47.21400
H  49.35300 5.72400 48.84600
H  49.27200 2.11000 49.36100
H  48.92200 3.76500 50.14000
H  50.39400 3.46200 49.37400
H  50.45400 5.07100 46.42200
H  50.39400 6.78600 46.92400
H  49.47500 5.40100 44.54300
H  49.20200 7.09300 44.88700
H  48.02700 5.79300 45.45000
H  46.32900 10.90400 49.40900
H  46.23200 11.06400 47.64100
H  47.49800 10.01000 48.29900
H  41.60600 9.37400 46.49200
H  39.06700 10.44900 49.70600
H  38.04400 9.25900 48.77800
H  38.04200 10.92900 48.39300

