158

Mg 1.56400 -0.69600 43.79500
C  4.96800 -0.57600 42.95200
C  1.12400 2.02800 41.78100
C  -1.72000 -1.58000 43.65800
C  2.19700 -3.83400 45.32700
N  2.91700 0.56400 42.46700
C  4.24000 0.39700 42.29400
C  4.80000 1.50500 41.39000
C  3.53500 2.36600 41.10900
C  2.46500 1.62200 41.79800
C  3.54000 3.89500 41.35800
C  5.45000 0.87300 40.14800
C  6.80700 1.54000 39.77900
H  6.86100 2.20400 38.43400
N  -0.13500 0.23700 43.05000
C  -0.10000 1.35400 42.23200
C  -1.41400 1.62600 41.86400
C  -2.25400 0.65000 42.44100
C  -1.38400 -0.32200 43.05100
C  -1.73200 2.89900 41.14200
C  -3.81900 0.73000 42.39200
O  -4.43900 1.72600 41.98800
C  -4.68200 -0.29900 42.86900
N  0.42700 -2.45400 44.47000
C  -0.90000 -2.58200 44.22700
C  -1.44700 -3.98000 44.54600
C  -0.13900 -4.72400 45.06900
C  0.89300 -3.59500 44.91500
C  -2.54900 -3.83600 45.57400
C  0.30500 -6.01400 44.28300
C  0.65700 -7.32900 45.11600
N  3.23300 -1.91600 44.24700
C  3.30900 -3.10900 44.93600
C  4.74300 -3.41800 45.12300
C  5.42000 -2.44300 44.38300
C  4.43600 -1.58000 43.80400
C  5.32000 -4.69800 45.79800
C  6.73600 -2.06500 43.89600
O  7.81100 -2.62600 44.01400
C  6.50200 -0.82200 42.98400
C  7.23200 0.17000 43.65500
O  6.89300 0.65700 44.71800
O  8.28600 0.50400 42.83600
C  8.89100 1.81300 43.18900
H  0.92700 2.99600 41.31800
H  -2.71900 -1.99000 43.49500
H  2.34100 -4.76100 45.88600
H  5.45200 2.05100 42.07100
H  3.22900 2.45600 40.06600
H  4.47300 4.45300 41.43800
H  3.14100 4.08600 42.35500
H  2.96800 4.41400 40.58800
H  4.82900 1.00700 39.26200
H  5.64000 -0.18700 40.31700
H  7.54700 0.74100 39.74900
H  7.05200 2.35000 40.46600
H  -1.74800 2.55700 40.10700
H  -0.98600 3.68100 41.28400
H  -2.65900 3.39000 41.43700
H  -5.74100 -0.13000 42.67500
H  -4.49700 -0.40500 43.93800
H  -4.41100 -1.23500 42.38100
H  -1.82100 -4.38300 43.60500
H  -0.31200 -4.89200 46.13200
H  -2.40300 -4.55500 46.38100
H  -3.44700 -4.14600 45.03900
H  -2.62100 -2.78800 45.86300
H  1.18500 -5.90300 43.64900
H  -0.48200 -6.25500 43.56800
H  0.78600 -7.04400 46.16100
H  1.50800 -7.82700 44.65100
H  -0.19700 -7.98200 44.94100
H  5.75100 -4.44700 46.76700
H  6.11600 -5.13200 45.19300
H  4.50200 -5.38600 46.01000
H  6.98200 -1.12600 42.05400
H  8.21000 2.54800 43.61800
H  9.16900 2.18100 42.20200
H  9.85300 1.75900 43.69800
Mg -10.62900 39.58200 41.79600
C  -9.48700 36.39000 41.26800
C  -7.62800 40.90200 40.50200
C  -12.05700 42.67100 41.55100
C  -13.91000 38.26000 42.28800
N  -8.72400 38.75200 41.14300
C  -8.50700 37.35400 40.96100
C  -7.19900 37.17000 40.24100
C  -6.51900 38.63100 40.19200
C  -7.62800 39.46600 40.65700
C  -5.27800 38.81500 41.09100
C  -7.45400 36.56100 38.80900
C  -6.91300 35.09600 38.54900
H  -6.65800 34.69000 37.12200
N  -9.87300 41.54400 41.23900
C  -8.63100 41.86200 40.83000
C  -8.52100 43.25300 40.66100
C  -9.72500 43.80500 41.09700
C  -10.62900 42.67100 41.25000
C  -7.24700 43.98900 40.26100
C  -10.08600 45.28600 41.15100
O  -9.32000 46.18100 40.67600
C  -11.28700 45.60500 42.02200
N  -12.71000 40.34800 41.81300
C  -12.95800 41.65000 41.92600
C  -14.48200 41.94200 41.95600
C  -15.05800 40.51800 42.10800
C  -13.82200 39.62000 42.05200
C  -14.93900 43.03000 43.03000
C  -16.08800 40.10600 41.00200
C  -17.34900 39.32800 41.45600
N  -11.53400 37.71500 41.98000
C  -12.85600 37.35900 42.19400
C  -12.87500 35.88300 42.26100
C  -11.59500 35.46500 41.83900
C  -10.81800 36.60700 41.67000
C  -14.06800 35.12700 42.66800
C  -10.79700 34.25300 41.62300
O  -11.08300 33.09100 41.87100
C  -9.42300 34.86900 41.09700
C  -8.23300 34.42700 41.92400
O  -7.69200 34.97100 42.91600
O  -7.84200 33.20500 41.39300
C  -6.50600 32.74000 41.76000
H  -6.72100 41.19500 39.96800
H  -12.54900 43.63500 41.40800
H  -14.84500 37.70300 42.37400
H  -6.54800 36.54700 40.85500
H  -6.12700 38.84300 39.19700
H  -5.44200 39.47600 41.94200
H  -4.48200 39.17000 40.43500
H  -4.95400 37.89400 41.57500
H  -7.12800 37.12500 37.93500
H  -8.54000 36.54500 38.71800
H  -7.64000 34.37300 38.91900
H  -6.03400 34.91400 39.16700
H  -7.29700 44.32500 39.22500
H  -6.42200 43.28300 40.35800
H  -7.06900 44.86000 40.89100
H  -11.35200 44.84200 42.79900
H  -12.23600 45.56800 41.48800
H  -11.23600 46.64000 42.35900
H  -14.58000 42.32000 40.93800
H  -15.46800 40.31000 43.09600
H  -14.88600 44.01900 42.57400
H  -14.20300 42.98900 43.83200
H  -15.98000 42.84600 43.29700
H  -15.73800 39.39600 40.25300
H  -16.29000 40.90900 40.29400
H  -17.19600 38.26400 41.27200
H  -18.25000 39.60500 40.91000
H  -17.50000 39.36400 42.53500
H  -13.72800 34.11200 42.87600
H  -14.74000 35.28300 41.82400
H  -14.53300 35.53500 43.56500
H  -9.31700 34.54300 40.06200
H  -6.67400 32.33300 42.75700
H  -5.78600 33.55800 41.74400
H  -6.17600 31.96300 41.07000

