158

Mg 16.94800 -1.74400 27.76500
C  15.70900 0.64300 30.29000
C  18.74100 -3.21800 30.12200
C  18.60800 -3.31200 25.24700
C  15.47300 0.48000 25.38100
N  17.24400 -1.22700 29.91300
C  16.59500 -0.36200 30.79600
C  17.07600 -0.57400 32.26400
C  18.03800 -1.83000 32.19000
C  18.07100 -2.07300 30.61900
C  19.49000 -1.74700 32.86400
C  15.86500 -0.64200 33.16200
C  15.97900 -0.07600 34.56700
H  17.35700 0.31600 35.17500
N  18.44700 -3.12900 27.71400
C  19.04000 -3.65600 28.84500
C  19.88800 -4.74800 28.45200
C  19.82700 -4.83800 27.04100
C  18.90400 -3.75800 26.60600
C  20.59400 -5.64000 29.43900
C  20.31500 -5.89500 26.15500
O  20.18000 -5.83600 24.90600
C  21.04300 -7.13300 26.74100
N  16.93600 -1.54700 25.66200
C  17.70900 -2.32200 24.87000
C  17.70800 -1.82100 23.44600
C  16.53300 -0.71800 23.39300
C  16.30400 -0.56900 24.91300
C  19.16900 -1.35900 23.00800
C  15.29400 -1.14000 22.46000
C  14.09700 -1.78100 23.18200
N  15.67000 -0.00100 27.77400
C  15.17000 0.71200 26.74800
C  14.34300 1.85100 27.22500
C  14.58200 1.80800 28.63100
C  15.32800 0.68400 28.91000
C  13.47100 2.81600 26.43100
C  14.38400 2.49300 29.83500
O  13.79100 3.58600 29.99500
C  15.02600 1.77600 30.98400
C  16.07400 2.59300 31.68200
O  17.17800 2.78600 31.24400
O  15.49700 3.09800 32.87000
C  16.50000 3.93500 33.56600
H  19.02200 -3.79800 31.00400
H  19.26000 -3.66000 24.44300
H  15.06400 1.23200 24.70300
H  17.63600 0.35100 32.40300
H  17.59200 -2.71400 32.64400
H  19.48600 -0.81700 33.43100
H  20.25200 -1.59400 32.10000
H  19.64300 -2.53800 33.59900
H  15.53600 -1.65800 33.37800
H  15.00500 -0.18800 32.66900
H  15.57900 -0.80200 35.27500
H  15.32800 0.79700 34.61900
H  20.20800 -6.65900 29.39500
H  20.36300 -5.19300 30.40600
H  21.66200 -5.64000 29.22300
H  21.21200 -7.76600 25.87000
H  20.29400 -7.59500 27.38500
H  21.99800 -6.79100 27.13900
H  17.51300 -2.62800 22.73900
H  16.78400 0.21800 22.89400
H  19.90100 -1.44900 23.81000
H  19.14500 -0.30500 22.73000
H  19.59600 -2.00200 22.23900
H  15.56500 -1.76600 21.60900
H  14.86100 -0.21800 22.06900
H  13.28200 -1.07000 23.31400
H  14.48800 -2.08400 24.15300
H  13.79500 -2.70500 22.69000
H  13.03100 3.53000 27.12800
H  12.61400 2.28700 26.01500
H  14.03700 3.27200 25.61900
H  14.16100 1.46900 31.57200
H  16.73400 4.81300 32.96400
H  17.43200 3.42100 33.80500
H  16.06500 4.27000 34.50800
Mg 40.57700 8.95500 28.80600
C  42.13200 10.07700 31.83000
C  38.23700 7.36600 30.91000
C  39.26000 7.43700 26.11900
C  43.27900 9.91900 26.93500
N  40.21900 8.91500 31.05900
C  40.94400 9.41500 32.13600
C  40.37500 9.06500 33.47700
C  39.21600 8.04500 33.05300
C  39.25100 8.07200 31.58800
C  39.35600 6.64100 33.62900
C  39.90800 10.35600 34.22200
C  40.19700 10.24100 35.72500
H  41.11600 11.28800 36.45300
N  38.90300 7.71400 28.54000
C  38.15500 7.08400 29.51900
C  37.18400 6.25300 28.93300
C  37.40700 6.32300 27.56700
C  38.55500 7.24500 27.32300
C  36.14900 5.33700 29.73600
C  36.59500 5.64600 26.50900
O  36.91000 5.67000 25.32600
C  35.36500 4.94400 26.81300
N  41.27900 8.68600 26.86700
C  40.44900 8.10600 25.94600
C  41.02600 8.21200 24.48600
C  42.30600 9.08700 24.76900
C  42.27400 9.31300 26.26000
C  41.19000 6.90700 23.76400
C  42.58500 10.34900 23.87900
C  41.86700 11.64900 24.42200
N  42.29700 9.80200 29.23900
C  43.34000 10.20400 28.38100
C  44.40800 10.91800 29.13500
C  43.93500 10.86100 30.47800
C  42.69900 10.19700 30.46600
C  45.69400 11.39000 28.55100
C  44.34000 11.14400 31.79100
O  45.39400 11.60900 32.20400
C  43.09900 10.68500 32.74500
C  43.66900 9.61700 33.64200
O  44.09100 8.47600 33.24800
O  43.83900 10.19600 34.87000
C  44.52100 9.40200 35.93200
H  37.51800 6.95200 31.61900
H  38.90100 7.00200 25.18300
H  44.16700 10.29700 26.42500
H  41.11800 8.56700 34.10100
H  38.22000 8.48000 33.13400
H  40.15100 6.56600 34.37200
H  39.61900 5.96700 32.81400
H  38.38600 6.25000 33.93400
H  38.82800 10.50000 34.16800
H  40.43300 11.22600 33.82700
H  40.55600 9.26500 36.05100
H  39.23600 10.28100 36.23800
H  36.55700 5.13000 30.72500
H  36.09100 4.35300 29.27100
H  35.18400 5.84100 29.78900
H  35.54700 3.88800 27.01200
H  34.74600 4.92500 25.91600
H  34.73900 5.28900 27.63500
H  40.34500 8.79900 23.87000
H  43.12500 8.40000 24.55600
H  40.99100 5.98800 24.31600
H  42.23500 6.93800 23.45500
H  40.53300 7.00900 22.90100
H  42.29400 10.19000 22.84100
H  43.66000 10.42300 23.71800
H  42.55900 12.37400 24.85200
H  41.17500 11.38800 25.22300
H  41.41600 12.22800 23.61700
H  45.51400 12.01300 27.67500
H  46.36300 10.57300 28.27900
H  46.04000 12.06000 29.33900
H  42.82900 11.51600 33.39600
H  44.45500 9.95500 36.86900
H  45.56700 9.19100 35.71100
H  43.99200 8.46900 36.12400

