158

Mg 53.65700 23.73000 44.51300
C  50.91900 25.72300 43.80900
C  51.99900 21.06400 43.04800
C  56.60800 22.04600 44.40700
C  55.42600 26.56800 45.41600
N  51.74800 23.55100 43.34100
C  50.76000 24.42700 43.38900
C  49.60900 23.91500 42.49200
C  49.75500 22.33700 42.61700
C  51.28800 22.28300 43.02000
C  48.66200 21.54200 43.52700
C  49.74000 24.36900 41.03000
C  48.45200 24.36800 40.14500
H  48.03000 22.95300 39.63100
N  54.18300 21.81600 43.82800
C  53.27100 20.82900 43.41800
C  53.89800 19.56700 43.42600
C  55.25900 19.81400 43.83200
C  55.44200 21.28400 44.02000
C  53.23200 18.26500 43.14600
C  56.32600 18.71300 43.87500
O  56.09900 17.55900 43.55800
C  57.69900 18.94900 44.28300
N  55.83900 24.29600 44.53300
C  56.77100 23.39000 44.67300
C  58.15400 23.99100 44.83400
C  57.82200 25.53000 45.15200
C  56.23300 25.49700 45.05000
C  58.98000 23.22300 45.91800
C  58.48700 26.58000 44.19800
C  59.65900 27.31300 44.81400
N  53.23100 25.70700 44.75500
C  54.04300 26.73900 45.17400
C  53.28700 27.93600 45.40900
C  52.02800 27.60900 44.87400
C  52.05900 26.23900 44.47000
C  53.79800 29.07900 46.14000
C  50.69800 28.12600 44.58800
O  50.18900 29.21700 44.81500
C  50.01100 26.88000 43.73900
C  49.55700 27.42100 42.47200
O  50.27800 27.88500 41.60700
O  48.23100 27.36400 42.44100
C  47.51000 28.06300 41.35700
H  51.51000 20.14400 42.72300
H  57.52600 21.48700 44.59800
H  55.97700 27.41900 45.82200
H  48.64400 24.27000 42.85400
H  49.70500 21.88000 41.62800
H  48.63600 21.88300 44.56200
H  49.01900 20.51300 43.56900
H  47.65600 21.35500 43.15300
H  50.40200 23.69700 40.48300
H  50.11800 25.37700 40.86100
H  48.75700 25.04400 39.34700
H  47.61100 24.77400 40.70700
H  53.70300 17.50900 43.77400
H  53.41500 17.97300 42.11200
H  52.17500 18.32800 43.40700
H  58.17200 19.37900 43.40100
H  58.11700 17.98000 44.55500
H  57.71800 19.53700 45.20100
H  58.53000 23.90300 43.81500
H  57.94900 25.81000 46.19800
H  59.48600 23.84800 46.65300
H  59.66900 22.54200 45.41600
H  58.25800 22.66300 46.51200
H  57.75900 27.38000 44.06600
H  58.91000 26.22300 43.25900
H  59.30800 28.31800 45.05000
H  60.57300 27.24100 44.22500
H  59.94900 26.88300 45.77300
H  54.86700 29.29600 46.13900
H  53.58400 29.03400 47.20800
H  53.26300 29.93500 45.72800
H  49.05600 26.72900 44.24100
H  47.95400 27.70500 40.42800
H  47.79500 29.11400 41.39300
H  46.42600 27.94900 41.33700
Mg 35.68000 49.45000 25.18600
C  35.66800 48.06800 28.32800
C  34.70600 52.53500 26.68000
C  35.15700 50.75500 22.19400
C  35.84600 46.27700 23.81900
N  35.09400 50.16800 27.28900
C  35.32500 49.39800 28.40400
C  35.24300 50.27200 29.65100
C  34.73200 51.65000 29.12100
C  34.86000 51.46700 27.59400
C  33.37700 52.22200 29.67600
C  36.63300 50.33000 30.39100
C  36.64700 50.01100 31.90100
H  35.52600 50.52700 32.82800
N  35.30500 51.46700 24.51100
C  34.93000 52.56900 25.29600
C  34.70000 53.73600 24.45200
C  34.75700 53.20100 23.07700
C  35.13800 51.75800 23.16100
C  34.44000 55.23900 24.94000
C  34.39500 53.86900 21.79300
O  34.45800 53.31900 20.66600
C  33.85300 55.17100 21.76400
N  35.45400 48.56600 23.19400
C  35.40500 49.34600 22.15200
C  35.53200 48.58100 20.81600
C  35.91900 47.17600 21.40700
C  35.75500 47.30300 22.87500
C  34.20200 48.58400 20.00000
C  37.33400 46.71900 20.95500
C  38.52100 47.26200 21.69700
N  35.66000 47.54700 25.87800
C  35.82700 46.34700 25.19200
C  36.09100 45.31900 26.17700
C  35.95400 45.90000 27.42800
C  35.72900 47.25000 27.18500
C  36.48700 43.89300 25.83500
C  36.10700 45.64900 28.76800
O  36.28300 44.55300 29.39500
C  35.98900 47.09100 29.45300
C  34.76500 46.88300 30.30400
O  33.57600 47.04800 29.92400
O  35.14500 46.32900 31.53700
C  34.01400 45.79800 32.35800
H  34.40300 53.53400 27.00000
H  34.96400 51.14000 21.19100
H  36.10200 45.35900 23.28700
H  34.50200 49.82800 30.31600
H  35.46100 52.43000 29.34200
H  32.56100 51.65400 29.23000
H  33.38200 53.26500 29.35800
H  33.33900 52.06200 30.75400
H  36.99700 51.35500 30.31600
H  37.36300 49.59400 30.05300
H  37.62400 50.36100 32.23500
H  36.41300 48.95200 32.00800
H  34.95800 55.41400 25.88300
H  33.36700 55.37600 25.07200
H  34.93400 55.94500 24.27300
H  33.38500 55.17800 20.78000
H  34.59700 55.95900 21.88300
H  33.01700 55.29300 22.45300
H  36.47500 48.93300 20.39800
H  35.33300 46.28100 21.20200
H  33.39900 49.00200 20.60900
H  33.90000 47.57700 19.71400
H  34.17200 49.32000 19.19700
H  37.53700 46.90300 19.90000
H  37.40100 45.63200 20.99500
H  39.22400 47.79600 21.05800
H  38.98300 46.35800 22.09200
H  38.20500 47.83900 22.56700
H  35.63200 43.22500 25.94800
H  37.40100 43.59500 26.34900
H  36.81000 43.70000 24.81200
H  36.81200 47.32400 30.12800
H  33.30200 46.58200 32.61400
H  34.34600 45.13300 33.15500
H  33.49100 45.15800 31.64800

