158

Mg 47.71600 24.88400 28.60100
C  48.43200 27.11400 31.22900
C  47.27100 22.41800 31.09900
C  47.21200 22.59100 26.17500
C  49.04800 27.08200 26.33300
N  47.91200 24.70400 30.85400
C  48.01500 25.86100 31.70100
C  47.87800 25.46600 33.17700
C  47.58200 23.93500 33.12200
C  47.72000 23.60200 31.60000
C  48.59000 23.07700 33.97800
C  46.76600 26.31600 33.91500
C  47.23100 26.87800 35.26200
H  46.16300 26.89600 36.31800
N  47.12300 22.80000 28.64800
C  46.99100 21.96200 29.73200
C  46.55500 20.57800 29.24100
C  46.44200 20.65800 27.86000
C  46.97600 22.00700 27.49300
C  46.26200 19.47100 30.13100
C  45.92100 19.55400 26.93200
O  45.88800 19.72800 25.73100
C  45.31700 18.25000 27.41600
N  47.95200 24.90200 26.54500
C  47.74800 23.82400 25.78300
C  48.26600 24.04200 24.36500
C  48.53300 25.55100 24.33600
C  48.66800 25.83500 25.82500
C  49.55300 23.26400 23.90700
C  47.53600 26.48200 23.54800
C  47.39700 26.21100 22.09900
N  48.67600 26.70300 28.71900
C  49.16800 27.48500 27.72000
C  49.79700 28.68400 28.27500
C  49.58300 28.57800 29.66200
C  48.77900 27.41200 29.86400
C  50.69700 29.64200 27.60900
C  49.80000 29.14800 30.94700
O  50.53600 30.08500 31.23000
C  49.02500 28.33500 32.02400
C  50.08100 27.90300 33.02900
O  51.01800 27.20900 32.87000
O  49.85100 28.67400 34.15500
C  50.80600 28.48400 35.22500
H  47.13700 21.56300 31.76500
H  47.19300 21.90300 25.32700
H  49.36100 27.86600 25.64000
H  48.83700 25.56100 33.68600
H  46.56000 23.65700 33.37700
H  49.37200 22.60700 33.38200
H  48.07400 22.27100 34.49800
H  49.01800 23.74200 34.72900
H  45.77900 25.89200 34.10400
H  46.48300 27.19500 33.33700
H  47.63300 27.89100 35.28100
H  48.06300 26.28200 35.63700
H  46.37700 19.66800 31.19600
H  46.99400 18.70500 29.87100
H  45.25900 19.05800 30.02300
H  46.06300 17.69500 27.98500
H  45.11300 17.70600 26.49400
H  44.45400 18.23000 28.08300
H  47.38200 23.82900 23.76400
H  49.52500 25.68300 23.90300
H  49.69800 22.42400 24.58600
H  50.46000 23.86000 23.81200
H  49.37200 22.64800 23.02600
H  47.76600 27.53600 23.70400
H  46.50800 26.37400 23.89300
H  46.54100 25.58900 21.83800
H  48.33600 25.76000 21.77800
H  47.32500 27.23500 21.73400
H  50.68900 29.60700 26.51900
H  51.71300 29.37400 27.90100
H  50.42000 30.65900 27.88300
H  48.25900 28.96100 32.48100
H  50.66100 29.08100 36.12500
H  51.84000 28.72000 34.97500
H  50.72700 27.42400 35.46700
Mg 4.51700 53.21600 40.59600
C  4.76500 49.70400 40.72300
C  7.78900 53.28500 39.45100
C  3.96500 56.31100 39.73500
C  1.38000 53.03200 42.11400
N  6.01100 51.56400 39.94700
C  5.93700 50.21900 40.15500
C  7.31000 49.51900 39.87000
C  8.23900 50.74200 39.79600
C  7.33800 51.97400 39.72500
C  9.42100 50.81400 40.90300
C  7.47200 48.47400 38.66100
C  6.58900 48.59300 37.38300
H  7.00700 49.39300 36.12400
N  5.70400 54.61900 39.56000
C  7.02900 54.48600 39.18400
C  7.48900 55.70900 38.53100
C  6.35900 56.57200 38.66900
C  5.23600 55.84800 39.33800
C  8.83100 55.79200 37.89500
C  6.34500 58.01000 38.18900
O  7.31900 58.58200 37.71700
C  5.04400 58.80800 38.17900
N  2.84800 54.42900 40.75800
C  2.95900 55.67300 40.35300
C  1.77500 56.45200 40.82900
C  0.88900 55.36400 41.58600
C  1.70400 54.15900 41.47900
C  2.13700 57.76900 41.67900
C  -0.60600 55.35000 41.04800
C  -1.66100 55.38300 42.08200
N  3.34000 51.74800 41.40700
C  2.11700 51.79800 42.07500
C  1.74500 50.53600 42.59600
C  2.68100 49.64700 42.04300
C  3.62500 50.44400 41.37100
C  0.56400 50.19300 43.43800
C  3.15100 48.28500 41.99000
O  2.55200 47.35700 42.54900
C  4.55400 48.25000 41.12800
C  4.41100 47.44400 39.92700
O  3.61800 47.61900 39.02700
O  5.08700 46.29100 40.13800
C  4.64800 45.09100 39.29500
H  8.79100 53.43800 39.04600
H  3.68700 57.36500 39.66400
H  0.44100 53.06700 42.67100
H  7.50100 48.84200 40.70200
H  8.85500 50.68700 38.89900
H  9.27700 51.72600 41.48200
H  10.45800 50.81500 40.56800
H  9.27500 50.00800 41.62200
H  7.17600 47.49900 39.04900
H  8.51500 48.49000 38.34500
H  5.60800 48.98300 37.65400
H  6.32200 47.57900 37.08400
H  8.93800 55.09200 37.06600
H  9.60600 55.71200 38.65800
H  8.85300 56.75000 37.37600
H  5.14300 59.63500 37.47500
H  4.96300 59.23100 39.18100
H  4.20800 58.23200 37.78200
H  1.21900 56.72400 39.93200
H  0.93900 55.73100 42.61100
H  1.57100 57.90300 42.60100
H  1.84100 58.66800 41.13900
H  3.19100 57.77300 41.95600
H  -0.75900 54.42800 40.48700
H  -0.80100 56.19800 40.39100
H  -1.36200 55.24300 43.12100
H  -2.45800 54.64500 41.99000
H  -2.22800 56.30700 41.97000
H  0.73200 50.33500 44.50600
H  0.41500 49.11600 43.36200
H  -0.34500 50.66300 43.06300
H  5.31600 47.92600 41.83800
H  5.08300 45.19400 38.30100
H  3.56300 45.03800 39.20200
H  4.94500 44.20300 39.85400

