158

Mg 26.95200 49.63100 26.32500
C  24.84600 50.69600 28.87800
C  29.04000 48.33500 28.71700
C  28.96200 48.80000 23.86700
C  24.78700 51.40800 24.07000
N  26.90300 49.57400 28.56000
C  25.93000 49.95500 29.38600
C  26.11000 49.40900 30.85000
C  27.58200 48.87900 30.80200
C  27.93400 48.94200 29.28000
C  28.63900 49.55500 31.69200
C  24.94000 48.53700 31.40200
C  24.38900 49.04000 32.84200
H  25.42600 49.57400 33.86100
N  28.70700 48.69200 26.28000
C  29.42800 48.18900 27.34700
C  30.57800 47.51000 26.85700
C  30.66400 47.79600 25.45000
C  29.42100 48.44200 25.11900
C  31.57200 46.80900 27.79700
C  31.69900 47.43000 24.34700
O  31.67300 47.84300 23.19300
C  32.91700 46.57700 24.68500
N  26.92900 50.26400 24.27400
C  27.89400 49.62300 23.46800
C  27.49600 49.77800 21.96200
C  26.23200 50.65100 22.00800
C  25.92400 50.75600 23.55000
C  28.67800 50.47500 21.25000
C  25.05700 50.19300 21.08700
C  24.89300 51.00900 19.75700
N  25.17500 50.86100 26.34100
C  24.42800 51.54800 25.40700
C  23.28200 52.17700 25.95200
C  23.42600 51.90400 27.33300
C  24.55700 51.06600 27.53000
C  22.29400 53.08000 25.31800
C  22.73200 52.06900 28.63300
O  21.71000 52.58900 29.02300
C  23.67200 51.27600 29.67300
C  24.15200 52.36200 30.54400
O  25.02400 53.21000 30.21900
O  23.40000 52.36300 31.69600
C  23.66300 53.32000 32.68700
H  29.66600 48.05700 29.56700
H  29.49200 48.38300 23.00800
H  24.06500 51.93000 23.43800
H  26.13300 50.21300 31.58600
H  27.51900 47.82200 31.06200
H  29.35200 48.79900 32.01900
H  28.26200 49.97000 32.62700
H  29.27100 50.28000 31.18000
H  25.18600 47.47900 31.48500
H  24.12100 48.56700 30.68300
H  23.76500 48.27600 33.30500
H  23.66200 49.83800 32.69200
H  31.38000 45.75000 27.62100
H  31.56900 46.86000 28.88600
H  32.58400 47.15500 27.58700
H  33.78500 47.15800 24.99500
H  33.18500 46.06500 23.76100
H  32.56400 45.95000 25.50400
H  27.31400 48.76500 21.60200
H  26.54400 51.67300 21.79600
H  29.13200 51.23000 21.89300
H  28.42200 50.93400 20.29500
H  29.33400 49.63800 21.01100
H  24.10400 50.15000 21.61300
H  25.41200 49.21500 20.76000
H  23.83000 51.13600 19.55300
H  25.31400 50.41600 18.94400
H  25.40700 51.96900 19.73100
H  21.60500 52.44400 24.76100
H  22.84700 53.64300 24.56700
H  21.79700 53.77600 25.99500
H  23.21800 50.53300 30.32800
H  24.04700 54.27900 32.34000
H  24.30900 52.86700 33.43800
H  22.77300 53.64800 33.22400
Mg -1.37800 34.69900 27.24100
C  -3.10300 32.58500 29.54300
C  0.06100 36.25900 29.91600
C  -0.13400 36.77800 25.09700
C  -3.08700 33.00600 24.66600
N  -1.45100 34.42900 29.45100
C  -2.29600 33.54500 30.14100
C  -2.02600 33.73100 31.67600
C  -1.38400 35.12800 31.73600
C  -0.88700 35.29800 30.31200
C  -2.33300 36.23800 32.25700
C  -1.21900 32.58900 32.43700
C  -2.02400 31.74200 33.48200
H  -1.33100 31.61600 34.87400
N  -0.15800 36.26000 27.48300
C  0.40500 36.80500 28.63300
C  1.35000 37.77100 28.31300
C  1.30300 37.93000 26.88800
C  0.23600 36.99600 26.42100
C  2.12300 38.53500 29.39600
C  2.14900 38.88400 25.95000
O  2.07900 39.02300 24.72000
C  3.24800 39.65300 26.64500
N  -1.62200 34.93000 25.20500
C  -0.94600 35.89500 24.50700
C  -1.14300 35.80500 23.00000
C  -2.20400 34.60500 22.87600
C  -2.28300 34.10200 24.35600
C  -1.41700 37.14800 22.32400
C  -1.70800 33.41300 21.95000
C  -2.65600 33.13800 20.77200
N  -2.83400 33.18000 27.08800
C  -3.38400 32.55800 25.96200
C  -4.12500 31.35100 26.39100
C  -4.05200 31.33500 27.80700
C  -3.28700 32.52900 28.17000
C  -4.72900 30.36800 25.49200
C  -4.45600 30.64200 28.95400
O  -5.17000 29.66200 29.05300
C  -3.83700 31.44700 30.17100
C  -4.93900 31.87500 31.06300
O  -5.52800 32.97300 31.01500
O  -5.27500 30.96600 32.00800
C  -6.30000 31.31800 33.02200
H  0.60900 36.62500 30.78700
H  0.38800 37.37000 24.34200
H  -3.63400 32.46300 23.89300
H  -3.02300 33.67500 32.11400
H  -0.47000 35.28900 32.30800
H  -3.22100 36.24000 31.62400
H  -1.82200 37.20100 32.25000
H  -2.67000 36.00100 33.26600
H  -0.28800 32.92900 32.89100
H  -0.91800 31.81200 31.73400
H  -2.28700 30.72100 33.20300
H  -2.96900 32.23800 33.70600
H  1.62000 39.48700 29.56700
H  3.18700 38.69200 29.22200
H  1.97000 37.97600 30.31900
H  4.01700 39.19300 27.26600
H  2.76600 40.42200 27.24800
H  3.71500 40.30800 25.90900
H  -0.22400 35.42900 22.55000
H  -3.19200 34.93100 22.55100
H  -1.75000 37.82000 23.11500
H  -2.25500 37.12100 21.62800
H  -0.46000 37.49800 21.93800
H  -1.53100 32.46200 22.45100
H  -0.72100 33.72800 21.61100
H  -2.07900 33.51100 19.92500
H  -3.58300 33.70200 20.87000
H  -2.73000 32.07300 20.55600
H  -5.65200 30.69600 25.01400
H  -4.77600 29.34300 25.86100
H  -3.93100 30.30500 24.75200
H  -3.15900 30.79900 30.72600
H  -5.93300 32.11200 33.67100
H  -6.47800 30.46400 33.67600
H  -7.30600 31.58000 32.69500

