158

Mg 45.75300 24.09500 28.37800
C  46.61300 26.30200 30.88200
C  44.62100 21.84800 30.71000
C  45.76000 21.66300 26.01000
C  47.80400 25.93800 26.07800
N  45.55400 24.12500 30.45100
C  45.97000 25.17200 31.28300
C  45.60200 24.87500 32.80100
C  45.05000 23.44300 32.64800
C  45.06800 23.08500 31.19000
C  45.73800 22.43400 33.56300
C  44.47100 25.82700 33.31500
C  43.98000 25.56100 34.74800
H  44.58800 26.43400 35.90100
N  45.10600 22.14200 28.30600
C  44.66500 21.34000 29.37600
C  44.26400 20.04700 28.85900
C  44.39400 20.09800 27.42200
C  45.07900 21.35400 27.19200
C  43.93100 18.88500 29.74200
C  43.80000 19.15200 26.32200
O  43.99300 19.27500 25.11300
C  42.90500 18.10900 26.76100
N  46.63100 23.87300 26.21700
C  46.33200 22.81800 25.48600
C  47.03800 22.83600 24.10800
C  47.69600 24.26000 24.13100
C  47.39800 24.75200 25.57800
C  47.96700 21.67900 23.70500
C  47.35100 25.26700 23.03300
C  46.09800 26.09900 23.20200
N  46.87800 25.87100 28.44400
C  47.58100 26.49500 27.43400
C  48.09600 27.69800 27.94200
C  47.75500 27.71200 29.28400
C  47.06100 26.49600 29.56900
C  48.86900 28.73600 27.18900
C  47.80800 28.48000 30.52200
O  48.28300 29.57000 30.85800
C  47.02400 27.55200 31.60100
C  48.09500 27.20100 32.65300
O  49.08700 26.55500 32.34600
O  47.77700 27.54100 33.97300
C  48.88300 27.47800 34.95600
H  44.20900 21.13400 31.42700
H  45.78500 20.85100 25.28000
H  48.53000 26.49400 25.48000
H  46.55100 25.01200 33.31900
H  43.97600 23.48600 32.82400
H  46.36600 21.69100 33.07100
H  45.03200 22.06200 34.30500
H  46.39200 22.97000 34.25100
H  43.70100 25.78300 32.54400
H  44.94000 26.81000 33.28500
H  44.22700 24.52800 34.99500
H  42.89400 25.64800 34.73900
H  44.74800 18.16600 29.68500
H  43.00700 18.40200 29.42400
H  43.87300 19.25300 30.76700
H  42.41400 17.46100 26.03500
H  42.10400 18.50300 27.38700
H  43.42500 17.46000 27.46400
H  46.23900 22.86800 23.36800
H  48.78000 24.21700 24.02700
H  48.97300 22.04500 23.49900
H  47.64800 21.23900 22.76000
H  47.95700 20.85000 24.41300
H  47.40200 24.71600 22.09400
H  48.24300 25.89200 22.98500
H  45.71700 25.99300 24.21800
H  45.34300 25.81400 22.47000
H  46.32700 27.15900 23.08900
H  49.05300 28.56700 26.12800
H  49.88500 28.67300 27.57800
H  48.39800 29.71200 27.30400
H  46.15200 28.03300 32.04400
H  49.01500 26.46800 35.34600
H  48.75300 28.18300 35.77700
H  49.78500 27.72000 34.39500
Mg 47.54000 33.87000 26.75400
C  45.49100 33.09400 29.51500
C  48.17200 36.81400 28.46700
C  48.97300 35.04100 24.00400
C  46.20700 31.24000 25.02700
N  47.17100 34.65000 28.94500
C  46.37700 34.09000 29.88500
C  46.59700 34.76900 31.26100
C  47.07200 36.19800 30.71600
C  47.50400 35.92100 29.29500
C  46.07100 37.36200 30.78600
C  47.61400 34.00800 32.19000
C  47.28200 33.78300 33.63800
H  46.31400 34.78600 34.19400
N  48.50000 35.62100 26.36300
C  48.72400 36.72200 27.15600
C  49.45000 37.74500 26.50200
C  49.76600 37.19800 25.20900
C  49.09000 35.87500 25.15800
C  49.92900 39.04600 27.18700
C  50.61300 37.83200 24.05500
O  51.01700 37.20700 23.08100
C  51.02300 39.29300 24.14200
N  47.44000 33.27400 24.67400
C  48.30200 33.83000 23.85200
C  48.31100 33.07600 22.51700
C  47.46300 31.80100 22.85400
C  47.01700 32.09000 24.27300
C  47.89600 33.81900 21.24100
C  48.14600 30.42600 22.57100
C  48.97200 29.84600 23.71500
N  46.08300 32.47300 27.12300
C  45.68200 31.41900 26.33400
C  44.72100 30.56200 27.07300
C  44.56000 31.17700 28.27600
C  45.44900 32.30800 28.29900
C  44.11000 29.29800 26.64100
C  43.90300 31.13500 29.56600
O  43.04300 30.41300 30.06000
C  44.36000 32.46400 30.23900
C  44.61500 31.98700 31.63100
O  45.27900 30.94800 31.93500
O  43.87300 32.69100 32.59400
C  43.80500 32.06600 33.96400
H  48.36300 37.81900 28.84900
H  49.51800 35.42800 23.14000
H  45.90500 30.30700 24.54600
H  45.62500 34.88200 31.74000
H  47.87900 36.59200 31.33200
H  46.36800 38.15000 31.47900
H  45.13400 36.87200 31.05000
H  45.94000 37.85200 29.82100
H  48.56600 34.53700 32.15100
H  47.72000 33.05400 31.67400
H  48.11900 33.82700 34.33500
H  46.90500 32.76100 33.59000
H  50.84200 39.48300 26.78400
H  50.22400 38.62000 28.14600
H  49.09000 39.72600 27.33700
H  50.33700 39.97100 24.64900
H  51.30200 39.75800 23.19700
H  52.00000 39.29700 24.62500
H  49.35600 32.82300 22.34000
H  46.50500 31.86500 22.34000
H  47.45100 34.79700 21.42800
H  47.24500 33.23200 20.59400
H  48.83100 33.92400 20.69000
H  48.85900 30.37800 21.74800
H  47.30400 29.78600 22.31100
H  49.08000 30.57100 24.52200
H  49.96900 29.67300 23.30900
H  48.44300 28.97400 24.10100
H  43.21800 29.52600 26.05700
H  43.80500 28.74900 27.53200
H  44.65500 28.66100 25.94500
H  43.47900 33.10100 30.16600
H  44.85300 31.92300 34.22700
H  43.20600 31.15600 33.98700
H  43.23500 32.75600 34.58700

