158

Mg -1.34400 16.96800 25.91200
C  -1.93100 14.84000 28.76500
C  -1.79600 19.72400 28.02000
C  -1.25200 18.83700 23.26300
C  -1.57300 14.09300 23.97800
N  -1.93800 17.30900 28.12800
C  -2.10500 16.24100 29.11600
C  -2.44900 16.93500 30.47500
C  -2.33900 18.48600 30.23100
C  -1.92300 18.50200 28.72300
C  -3.56100 19.38200 30.59800
C  -1.72700 16.45100 31.76300
C  -1.97300 17.20400 33.08000
H  -1.90200 16.31400 34.27900
N  -1.42700 19.04300 25.63500
C  -1.66900 19.98800 26.60500
C  -1.61300 21.27500 25.96000
C  -1.42200 21.07200 24.60300
C  -1.28800 19.61000 24.45900
C  -1.80300 22.54100 26.79500
C  -1.52100 22.13000 23.52200
O  -1.30300 21.88400 22.31900
C  -1.91500 23.56700 23.90800
N  -1.27300 16.46900 23.86500
C  -1.20800 17.48300 22.92300
C  -1.44900 16.93800 21.46800
C  -1.70300 15.39900 21.74400
C  -1.55300 15.29600 23.28300
C  -2.67400 17.65400 20.69900
C  -0.68100 14.50500 21.00400
C  0.80500 14.64500 21.49000
N  -1.45500 14.89500 26.22100
C  -1.43900 13.84800 25.32400
C  -1.53000 12.66300 26.06900
C  -1.61700 12.97800 27.39500
C  -1.75300 14.34300 27.45800
C  -1.63500 11.25000 25.44000
C  -1.72600 12.45300 28.72400
O  -1.66900 11.26900 29.07900
C  -1.89200 13.61800 29.66400
C  -0.79900 13.59900 30.60400
O  0.31100 14.06400 30.50100
O  -1.22400 12.77500 31.62400
C  -0.38800 12.67900 32.85700
H  -1.76500 20.61300 28.65200
H  -1.31100 19.56400 22.45000
H  -1.87700 13.17000 23.48100
H  -3.50000 16.69500 30.63700
H  -1.43600 18.93600 30.64300
H  -4.10600 18.82500 31.36100
H  -4.18500 19.47400 29.70900
H  -3.32700 20.43200 30.77300
H  -0.69300 16.30700 31.44800
H  -2.20400 15.49700 31.98900
H  -2.96000 17.66300 33.11900
H  -1.18500 17.95500 33.14200
H  -2.77400 22.98100 26.56900
H  -0.97400 23.19500 26.52600
H  -1.85300 22.33700 27.86500
H  -1.80800 24.18400 23.01600
H  -1.24600 23.99000 24.65800
H  -2.91100 23.54700 24.35000
H  -0.55200 17.01400 20.85300
H  -2.72300 15.03400 21.62700
H  -3.26900 16.98600 20.07600
H  -2.36700 18.52200 20.11600
H  -3.34700 17.92500 21.51300
H  -0.70200 14.97900 20.02300
H  -0.99100 13.46400 21.10100
H  0.99000 15.26400 22.36800
H  1.36800 15.07200 20.66000
H  1.17800 13.63200 21.64200
H  -0.93300 11.28000 24.60700
H  -2.66600 10.98700 25.20200
H  -1.26500 10.49700 26.13500
H  -2.89200 13.51200 30.08500
H  -1.03200 12.67400 33.73600
H  0.28400 13.53300 32.93600
H  0.15400 11.73400 32.83100
Mg 35.57300 48.71100 25.38000
C  35.75900 46.92900 28.39100
C  34.47000 51.37800 27.10100
C  35.23700 50.10300 22.44800
C  36.91500 45.76500 23.93100
N  35.22400 49.15800 27.56400
C  35.51200 48.31900 28.57200
C  35.33800 49.05700 29.93000
C  34.67100 50.42000 29.49100
C  34.81400 50.33500 27.98800
C  33.17900 50.62100 29.77800
C  36.73300 49.23400 30.67600
C  36.61100 49.50800 32.18400
H  35.11000 49.51800 32.70200
N  34.94400 50.49700 24.87300
C  34.51800 51.50100 25.66500
C  34.03400 52.58600 24.87500
C  34.27400 52.24800 23.52800
C  34.82400 50.91900 23.57500
C  33.51500 53.74700 25.52400
C  34.05300 53.08300 22.27100
O  34.33900 52.69600 21.15900
C  33.40800 54.40700 22.49700
N  36.01800 47.98500 23.46800
C  35.80000 48.80700 22.40600
C  36.13200 48.07500 21.07200
C  36.94500 46.81800 21.61400
C  36.67400 46.87000 23.07800
C  34.83100 47.71800 20.25900
C  38.44100 46.83200 21.00100
C  38.60700 45.72100 19.94100
N  35.98000 46.68100 25.97300
C  36.50200 45.62900 25.23400
C  36.57800 44.46300 26.07300
C  36.22800 44.93300 27.32800
C  35.93400 46.28400 27.18800
C  36.94700 43.07300 25.65000
C  36.20100 44.56300 28.74900
O  36.60600 43.50400 29.26100
C  35.89900 45.91800 29.51700
C  34.75400 45.83400 30.40400
O  33.63300 46.16700 30.13800
O  35.06700 45.34500 31.63300
C  33.91300 45.11600 32.49100
H  34.17500 52.30400 27.60000
H  35.21500 50.47200 21.42000
H  37.32900 44.84000 23.52300
H  34.65600 48.46200 30.53700
H  35.23600 51.25400 29.90800
H  33.21600 51.48700 30.43900
H  32.77200 49.72500 30.24600
H  32.59000 50.86300 28.89300
H  37.34100 49.98800 30.17700
H  37.35500 48.35400 30.51100
H  37.13700 50.43400 32.41300
H  37.14200 48.79100 32.81100
H  34.20600 54.53400 25.22300
H  33.19600 53.68100 26.56400
H  32.56600 53.89300 25.00700
H  34.00300 55.10000 23.09100
H  32.45200 54.20200 22.97900
H  33.24600 54.77700 21.48400
H  36.74500 48.71900 20.44200
H  36.33300 46.01800 21.19700
H  34.05000 48.39000 20.61500
H  34.63700 46.65900 20.42500
H  35.02500 47.99200 19.22200
H  39.17200 46.76900 21.80800
H  38.68900 47.74000 20.45100
H  38.78400 46.23400 18.99500
H  37.69800 45.12200 19.87700
H  39.46300 45.06000 20.07200
H  37.97200 43.18100 25.29700
H  36.18400 42.76800 24.93400
H  36.92100 42.43400 26.53200
H  36.72600 46.12800 30.19500
H  33.59100 46.11600 32.78300
H  34.22400 44.55600 33.37300
H  33.05300 44.67000 31.99200

