158

Mg 8.53400 3.99400 27.85500
C  9.80900 2.03800 30.49600
C  6.72500 5.83700 30.02700
C  7.43000 5.56400 25.19400
C  10.12100 1.59800 25.77600
N  8.27400 3.90600 30.04900
C  9.05000 3.16200 31.00000
C  8.77600 3.54600 32.40200
C  7.77100 4.81000 32.13900
C  7.59800 4.90000 30.65800
C  6.48700 4.67600 32.94000
C  10.07000 3.92000 33.28600
C  9.84600 3.60100 34.77400
H  10.92900 3.97400 35.72600
N  7.20800 5.52000 27.64600
C  6.56100 6.17600 28.62200
C  5.79000 7.19900 28.07100
C  5.87300 7.08100 26.64700
C  6.84600 6.01400 26.42300
C  5.05900 8.20400 28.94900
C  5.25300 7.85100 25.54900
O  5.50500 7.71600 24.36300
C  4.22400 8.79400 25.92500
N  8.63800 3.47900 25.84200
C  8.19200 4.46200 24.96500
C  8.68200 4.19600 23.53700
C  9.48600 2.90400 23.64900
C  9.48600 2.64500 25.16800
C  7.47600 4.17000 22.52400
C  10.88800 3.00000 22.97200
C  11.26500 2.25000 21.68800
N  9.84000 2.22700 28.01900
C  10.30400 1.35900 27.08200
C  10.97900 0.29900 27.67000
C  10.93400 0.60500 28.98400
C  10.10600 1.70700 29.23100
C  11.62000 -0.87500 26.95800
C  11.37800 0.20200 30.24000
O  12.13300 -0.70400 30.56900
C  10.65700 1.18800 31.34000
C  9.75400 0.43200 32.25300
O  8.64400 -0.03500 31.98900
O  10.31700 0.38000 33.44900
C  9.47200 -0.20900 34.53600
H  6.11000 6.42300 30.71300
H  7.13800 6.06700 24.27000
H  10.70500 0.96600 25.10300
H  8.19800 2.75100 32.87200
H  8.28100 5.68500 32.54200
H  5.68600 4.07300 32.51300
H  5.98700 5.62600 33.12800
H  6.63600 4.29500 33.95000
H  10.21300 5.00000 33.27000
H  10.98400 3.43100 32.95200
H  9.67100 2.52900 34.87200
H  9.04900 4.29000 35.05300
H  5.10500 8.13800 30.03600
H  4.01200 8.19500 28.64700
H  5.40700 9.20800 28.70800
H  3.82800 9.22800 25.00700
H  4.51900 9.58700 26.61200
H  3.53500 8.11100 26.42300
H  9.35800 4.99400 23.22800
H  9.08100 1.97200 23.25500
H  6.54600 3.91000 23.02900
H  7.65400 3.42300 21.75000
H  7.30800 5.17000 22.12600
H  11.69000 2.80100 23.68200
H  11.18200 4.03100 22.77400
H  10.32700 1.81000 21.34800
H  12.02100 1.51900 21.97000
H  11.51600 2.92700 20.87000
H  12.64000 -0.58500 26.70500
H  11.01500 -1.11300 26.08300
H  11.53200 -1.74100 27.61400
H  11.41400 1.83800 31.77900
H  9.12000 -1.22900 34.38000
H  8.62200 0.46700 34.63200
H  10.09100 -0.01100 35.41100
Mg -10.42000 40.04800 39.14000
C  -9.17800 36.85700 38.67700
C  -7.29800 41.34300 38.54800
C  -11.80100 43.08600 39.16800
C  -13.74100 38.61300 39.18100
N  -8.48200 39.16100 38.69100
C  -8.16200 37.86400 38.60000
C  -6.62500 37.68600 38.51500
C  -6.12200 39.12600 38.85100
C  -7.36600 39.95000 38.70000
C  -5.40600 39.17800 40.19200
C  -6.10100 37.04700 37.18400
C  -6.74400 37.51600 35.87300
H  -7.19900 36.50400 34.87200
N  -9.67600 41.93100 38.87300
C  -8.34300 42.27800 38.74700
C  -8.29800 43.75900 38.63000
C  -9.62600 44.27100 38.78000
C  -10.41300 43.09900 38.91600
C  -7.02300 44.54200 38.43600
C  -9.98600 45.80400 38.73500
O  -9.06800 46.60600 38.56900
C  -11.38700 46.38500 38.95000
N  -12.48800 40.76200 39.04800
C  -12.72100 42.03700 39.30900
C  -14.19500 42.36200 39.63600
C  -14.84900 41.00300 39.25300
C  -13.66500 40.04400 39.15200
C  -14.37000 42.74900 41.12600
C  -15.64500 40.96300 37.91900
C  -17.12500 40.56400 38.03000
N  -11.30500 38.10700 39.14400
C  -12.62200 37.72500 39.19100
C  -12.75100 36.24500 39.27700
C  -11.40300 35.84900 39.04200
C  -10.62000 36.99400 38.90700
C  -14.01300 35.39900 39.54600
C  -10.48900 34.70700 38.95700
O  -10.80000 33.55900 38.98100
C  -9.04900 35.37400 38.69900
C  -8.33300 34.83500 39.88800
O  -8.76700 34.90400 41.05300
O  -7.23100 34.12500 39.48600
C  -6.31700 33.64900 40.50900
H  -6.30200 41.73800 38.33600
H  -12.23700 44.08400 39.23700
H  -14.68300 38.06700 39.26100
H  -6.52600 37.04800 39.39300
H  -5.54400 39.38100 37.96200
H  -5.92400 39.88800 40.83700
H  -4.39700 39.46400 39.89600
H  -5.32200 38.24700 40.75200
H  -6.07100 35.96000 37.26900
H  -5.07600 37.40600 37.27800
H  -5.94900 38.07500 35.38000
H  -7.60600 38.16700 36.02100
H  -6.93700 45.12200 37.51800
H  -6.07400 44.00700 38.48700
H  -6.92300 45.29800 39.21500
H  -12.13200 46.09200 38.21000
H  -11.44800 47.45700 39.13900
H  -11.58000 45.88000 39.89700
H  -14.60000 43.13800 38.98600
H  -15.46600 40.69400 40.09700
H  -15.11900 42.14200 41.63500
H  -14.70300 43.78600 41.16100
H  -13.46200 42.78800 41.72700
H  -15.16700 40.15000 37.37200
H  -15.59200 41.93300 37.42500
H  -17.68700 41.40800 38.43000
H  -17.25900 39.74000 38.73000
H  -17.49700 40.22400 37.06300
H  -13.77300 34.36200 39.31300
H  -14.89700 35.79100 39.04200
H  -14.31900 35.41600 40.59200
H  -8.65500 34.78400 37.87100
H  -5.72500 34.51600 40.80200
H  -5.79000 32.92800 39.88400
H  -6.77800 33.11000 41.33700

