158

Mg 7.92800 3.05500 27.49100
C  9.60300 2.00600 30.32900
C  6.51100 5.60400 29.44000
C  6.30800 4.17800 24.73500
C  9.34200 0.55600 25.60900
N  8.10600 3.76000 29.61500
C  8.70900 3.03800 30.57800
C  8.53800 3.76100 32.00700
C  7.51700 4.84400 31.60500
C  7.33200 4.68700 30.11200
C  6.03600 4.74400 32.31500
C  9.88200 4.42400 32.46500
C  9.76700 5.22800 33.80100
H  10.77000 4.82000 34.97000
N  6.63800 4.64000 27.14500
C  6.14500 5.57200 28.08900
C  5.27700 6.52800 27.39300
C  5.08800 6.00600 26.00100
C  5.99800 4.86000 25.90700
C  4.54000 7.76700 28.09800
C  4.25400 6.55400 24.84900
O  4.26600 6.06600 23.70000
C  3.56500 7.87200 25.05600
N  7.72400 2.30400 25.44000
C  7.02000 3.00200 24.49900
C  7.12300 2.34400 23.07900
C  8.20700 1.21400 23.38800
C  8.48600 1.34800 24.88700
C  5.83100 1.67900 22.49800
C  9.49900 1.03900 22.53600
C  10.75600 1.89900 22.87100
N  9.11600 1.53300 27.86900
C  9.71800 0.61100 26.97900
C  10.59500 -0.22200 27.74000
C  10.64100 0.30500 29.05800
C  9.64400 1.34700 29.09900
C  11.44100 -1.38000 27.16300
C  11.17100 0.07900 30.34300
O  11.96000 -0.74000 30.78500
C  10.47900 1.24400 31.27700
C  9.81600 0.62700 32.49200
O  8.84700 -0.04500 32.55500
O  10.67900 0.89300 33.53900
C  10.33600 0.36900 34.90000
H  6.23900 6.41200 30.12200
H  5.85100 4.56300 23.82200
H  9.63500 -0.26800 24.95500
H  8.12100 3.10900 32.77500
H  7.81700 5.88000 31.76800
H  5.16200 4.96600 31.70300
H  5.93300 5.45000 33.13900
H  5.80300 3.81400 32.83500
H  10.20900 5.07200 31.65100
H  10.65000 3.68700 32.69900
H  8.76900 5.18100 34.23700
H  9.95300 6.25700 33.49400
H  4.96500 8.75200 27.90200
H  4.55400 7.64900 29.18100
H  3.46200 7.73400 27.93900
H  2.68100 7.68000 25.66400
H  3.09200 8.23800 24.14400
H  4.24900 8.59000 25.50800
H  7.57500 3.06000 22.39400
H  7.62300 0.29400 23.38200
H  5.05100 1.60200 23.25500
H  6.04200 0.66000 22.17500
H  5.46300 2.23900 21.63800
H  9.34600 1.34900 21.50200
H  9.76000 -0.01400 22.63600
H  10.44000 2.70800 23.52900
H  11.16500 2.39700 21.99200
H  11.56400 1.26300 23.23300
H  11.05800 -1.85300 26.25900
H  11.41900 -2.18100 27.90100
H  12.47300 -1.08000 26.97800
H  11.32100 1.91300 31.45600
H  9.33800 0.68000 35.20900
H  11.08600 0.75600 35.59000
H  10.42800 -0.71200 34.79200
Mg 26.07000 49.51000 26.79000
C  24.23600 50.73600 29.45000
C  28.55400 48.62900 29.08800
C  28.24900 49.02900 24.25400
C  23.73600 50.75000 24.54000
N  26.24100 49.53000 29.08400
C  25.36600 50.03200 29.92800
C  25.79100 49.66300 31.38700
C  27.20000 49.11400 31.17100
C  27.39200 49.11700 29.67300
C  28.37400 49.75000 31.89500
C  24.68000 48.63800 31.97400
C  24.35800 48.94800 33.42900
H  25.30900 49.47400 34.48300
N  28.06700 48.86800 26.69600
C  28.92300 48.58100 27.72000
C  30.20000 48.12800 27.23000
C  30.13600 48.20300 25.81400
C  28.80500 48.71100 25.51700
C  31.30800 47.62000 28.13600
C  31.24800 47.95200 24.79900
O  30.99100 48.01500 23.60800
C  32.63900 47.64300 25.10600
N  25.96700 49.85900 24.60500
C  26.94400 49.48800 23.79800
C  26.46800 49.45900 22.39200
C  25.05700 50.06800 22.47200
C  24.86200 50.14700 23.91300
C  27.42500 49.93800 21.30500
C  23.99000 49.24500 21.71200
C  23.11300 49.88300 20.59600
N  24.39600 50.50600 26.91500
C  23.53800 50.93000 25.88700
C  22.46500 51.65000 26.47600
C  22.70200 51.62800 27.89200
C  23.92500 50.94500 28.11100
C  21.42100 52.26700 25.76100
C  22.12500 52.02400 29.18600
O  21.14900 52.66400 29.52800
C  23.05500 51.35800 30.35000
C  23.46400 52.47200 31.26800
O  24.30200 53.32900 31.13700
O  22.92700 52.13300 32.47700
C  23.36200 53.06100 33.55600
H  29.22800 48.17900 29.82000
H  28.93800 48.80400 23.43800
H  22.93000 51.06200 23.87300
H  25.83600 50.49700 32.08700
H  27.29800 48.05000 31.38600
H  27.82800 50.37100 32.60500
H  28.97600 50.39800 31.25900
H  28.91900 48.91700 32.33900
H  25.13600 47.65400 31.87200
H  23.80600 48.69900 31.32500
H  24.08300 47.92500 33.68400
H  23.45200 49.55000 33.50700
H  31.97800 47.11900 27.43700
H  31.09100 46.78300 28.80000
H  31.90100 48.37000 28.65900
H  33.07700 48.32600 25.83300
H  33.22300 47.71300 24.18800
H  32.72000 46.57500 25.30900
H  26.36600 48.38200 22.26100
H  25.15700 51.05800 22.02600
H  28.08100 50.72800 21.67100
H  26.88000 50.32700 20.44400
H  27.92100 49.06900 20.87300
H  23.36200 48.76800 22.46500
H  24.52100 48.37900 21.31700
H  23.62300 50.76500 20.20700
H  22.07400 50.07400 20.86600
H  23.14900 49.19300 19.75300
H  21.03000 51.67200 24.93600
H  21.78400 53.19000 25.30900
H  20.67400 52.45600 26.53100
H  22.59000 50.52400 30.87600
H  23.92600 52.52400 34.31800
H  22.46300 53.40600 34.06500
H  23.78700 54.01200 33.23600

