158

Mg 35.77900 1.63300 29.89900
C  33.52300 2.79400 32.19700
C  38.23600 1.90200 32.36200
C  38.16600 1.13500 27.50700
C  33.39500 2.04100 27.52600
N  35.90900 2.54400 31.98800
C  34.80200 2.69700 32.71100
C  35.08300 2.76000 34.21900
C  36.69900 2.72700 34.24300
C  36.98300 2.31400 32.77900
C  37.32600 4.12100 34.62400
C  34.32500 1.61300 34.97500
C  33.81600 1.94000 36.40400
H  34.36600 3.32800 36.95500
N  37.87600 1.36800 29.92100
C  38.63800 1.42600 31.07400
C  39.93200 0.97800 30.71600
C  39.98200 0.69200 29.30500
C  38.64700 1.04000 28.84600
C  41.11600 0.79600 31.67800
C  41.09400 0.26400 28.39600
O  41.00600 -0.08500 27.27500
C  42.50800 0.27300 28.98100
N  35.83400 1.67900 27.79700
C  36.90600 1.39900 27.00000
C  36.48700 1.41700 25.47100
C  34.92900 1.72200 25.59800
C  34.72300 1.72900 27.09800
C  37.42800 2.26100 24.51300
C  34.00100 0.62700 24.77500
C  33.33100 1.37300 23.53400
N  33.76100 2.20500 29.80400
C  32.92000 2.34100 28.78100
C  31.66900 2.85800 29.17800
C  31.82400 2.98700 30.60100
C  33.11600 2.65900 30.85300
C  30.44700 3.04900 28.34700
C  31.17200 3.42200 31.79600
O  30.06800 3.90600 32.00500
C  32.19800 3.27100 32.91400
C  32.33300 4.69600 33.45900
O  33.09500 5.57800 33.03100
O  31.55500 4.94900 34.52900
C  31.49500 6.35400 35.06300
H  38.97300 1.95700 33.16500
H  38.89800 0.97400 26.71300
H  32.76400 2.19000 26.64800
H  34.79300 3.70300 34.68200
H  37.20200 1.97700 34.85300
H  38.25600 3.93200 35.16000
H  36.70000 4.81700 35.18200
H  37.67700 4.62200 33.72100
H  35.01800 0.77400 35.03400
H  33.51000 1.18900 34.38900
H  34.19200 1.14100 37.04200
H  32.72800 1.94200 36.45100
H  41.90500 1.54700 31.64700
H  41.60400 -0.15600 31.46900
H  40.67600 0.72600 32.67300
H  43.22700 0.04600 28.19400
H  42.70800 -0.58400 29.62400
H  42.64400 1.24400 29.45700
H  36.66300 0.38300 25.17300
H  34.70500 2.71100 25.19800
H  36.84900 3.04700 24.02600
H  37.90100 1.53200 23.85600
H  38.09100 2.81300 25.17900
H  33.20100 0.20200 25.38200
H  34.61000 -0.13200 24.28400
H  32.89400 0.60400 22.89500
H  33.99100 1.94500 22.88200
H  32.50100 1.98900 23.87700
H  30.26300 2.11100 27.82500
H  30.75200 3.77200 27.59100
H  29.65700 3.44600 28.98500
H  31.67100 2.58300 33.57500
H  32.52300 6.70000 35.17400
H  31.15700 6.39100 36.09800
H  30.79800 6.84300 34.38200
Mg 35.43900 49.41900 24.50800
C  35.82000 47.63400 27.35800
C  34.18300 52.03000 26.23500
C  34.78200 51.04900 21.52100
C  36.58000 46.63800 22.68200
N  35.02100 49.75100 26.55600
C  35.35800 48.95000 27.64000
C  35.02100 49.57100 28.98400
C  34.45400 50.95700 28.54900
C  34.62700 50.89600 27.04800
C  32.97400 51.12100 28.94300
C  36.29500 49.65100 29.91900
C  36.11900 49.17000 31.37900
H  34.74800 48.93300 31.90200
N  34.53100 51.26300 23.98800
C  34.15300 52.22200 24.87200
C  33.66900 53.34900 24.16100
C  33.92000 53.06200 22.74700
C  34.44800 51.71900 22.69900
C  33.28100 54.57200 24.86500
C  33.67200 53.95800 21.54300
O  33.99800 53.71300 20.40400
C  33.07600 55.36400 21.83000
N  35.71800 48.92400 22.41300
C  35.32700 49.73800 21.31600
C  35.84500 49.17900 19.94700
C  36.48600 47.78300 20.41600
C  36.23700 47.76200 21.92400
C  34.66800 49.03400 18.99300
C  37.95900 47.61900 19.88000
C  38.46400 46.15500 19.51100
N  36.19800 47.54200 24.93900
C  36.63600 46.50200 24.11000
C  37.10400 45.44000 24.89400
C  36.71500 45.78400 26.17700
C  36.24800 47.07900 26.13600
C  37.71800 44.08200 24.28500
C  36.64600 45.31200 27.56900
O  36.95600 44.25600 28.07500
C  35.99500 46.51000 28.45600
C  34.83100 46.00400 29.13300
O  33.71700 45.85000 28.65400
O  35.27500 45.46300 30.30600
C  34.28400 44.71600 31.13100
H  33.68500 52.75800 26.87800
H  34.58700 51.49700 20.54400
H  36.92100 45.72600 22.18800
H  34.21100 49.02000 29.46200
H  34.94100 51.88600 28.84700
H  32.72400 50.65800 29.89700
H  32.30000 50.68900 28.20300
H  32.71200 52.17500 29.04000
H  36.75000 50.63800 29.84500
H  37.14200 49.03600 29.61400
H  36.61600 49.84400 32.07700
H  36.71000 48.27900 31.59000
H  33.73300 55.43800 24.38100
H  33.54200 54.49300 25.92100
H  32.23300 54.84400 24.74000
H  32.17300 55.11800 22.38900
H  32.70200 55.80600 20.90600
H  33.76200 56.06400 22.30600
H  36.58400 49.80000 19.44100
H  35.80700 47.09900 19.90800
H  34.83400 48.42500 18.10500
H  34.23800 50.00500 18.74600
H  33.87400 48.53300 19.54600
H  38.71500 48.13500 20.47300
H  37.96600 48.14500 18.92600
H  39.38200 45.97200 20.07100
H  38.72600 46.10800 18.45400
H  37.69900 45.42800 19.78400
H  37.14600 43.83600 23.39000
H  37.62800 43.31100 25.05100
H  38.78100 44.18200 24.06400
H  36.73400 46.75800 29.21700
H  34.86800 44.10300 31.81800
H  33.75300 44.03200 30.46800
H  33.55200 45.32400 31.66200

