158

Mg 42.60800 3.67700 48.25800
C  40.92100 6.66500 47.96900
C  39.79900 1.96200 47.67900
C  44.41100 0.78700 47.99700
C  45.63800 5.54100 48.19000
N  40.67800 4.28500 47.84500
C  40.12400 5.54000 47.80900
C  38.63500 5.62900 47.57100
C  38.27600 4.08300 47.70000
C  39.64900 3.33700 47.75200
C  37.43800 3.68400 48.92400
C  38.16300 6.17500 46.15700
C  39.04300 5.77600 44.95100
H  39.38500 6.82800 43.86100
N  42.13900 1.58700 48.10100
C  40.91900 1.11900 47.79900
C  40.84100 -0.32200 47.70100
C  42.18300 -0.70400 47.81700
C  42.97300 0.54400 47.98900
C  39.61200 -1.16600 47.43000
C  42.68900 -2.13200 47.66600
O  41.86500 -3.02800 47.47600
C  44.17700 -2.53100 47.53400
N  44.72600 3.23700 48.04400
C  45.19500 1.98200 48.06800
C  46.70300 1.91700 48.20300
C  47.10200 3.43400 48.02200
C  45.75900 4.13500 48.00200
C  47.26700 1.31800 49.56600
C  47.83000 3.73100 46.71200
C  48.91400 4.84000 46.72400
N  43.23600 5.68300 48.00900
C  44.44200 6.30400 48.19700
C  44.29700 7.75600 48.25600
C  42.90900 7.93600 48.14200
C  42.33000 6.67500 48.07300
C  45.34300 8.68100 48.20500
C  41.93500 8.94400 48.03000
O  41.99000 10.15900 47.97900
C  40.55300 8.11100 47.99400
C  39.66000 8.47500 49.10900
O  39.58600 7.87400 50.21200
O  38.85500 9.51700 48.75100
C  37.67100 9.77200 49.68500
H  38.87100 1.45100 47.41500
H  45.06100 -0.09000 47.96700
H  46.61300 6.00400 48.35700
H  38.29700 6.27600 48.38000
H  37.71700 3.78500 46.81300
H  36.99600 4.56500 49.39100
H  37.98800 3.01300 49.58400
H  36.54100 3.23800 48.49400
H  37.96000 7.24600 46.15300
H  37.30500 5.62700 45.76800
H  38.73200 4.83200 44.50500
H  40.06600 5.62600 45.29500
H  39.74500 -1.96800 46.70400
H  38.77100 -0.55200 47.10900
H  39.31000 -1.69200 48.33600
H  44.67200 -1.99300 46.72500
H  44.05800 -3.57300 47.23600
H  44.77800 -2.53300 48.44300
H  47.09900 1.36300 47.35200
H  47.67100 3.80200 48.87500
H  47.64500 0.31300 49.37900
H  46.51500 1.36700 50.35300
H  48.14700 1.88500 49.86900
H  47.04700 4.09900 46.05000
H  48.23300 2.87100 46.17700
H  48.71800 5.42200 45.82300
H  49.91500 4.43900 46.56800
H  48.77900 5.57500 47.51700
H  45.76000 8.76500 47.20100
H  46.16400 8.30000 48.81300
H  45.08200 9.64500 48.63900
H  40.02200 8.43300 47.09800
H  36.85200 9.09200 49.44800
H  37.35900 10.79600 49.47900
H  37.96900 9.60300 50.71900
Mg 35.48900 1.71800 29.81000
C  33.16400 2.71100 32.20700
C  37.87800 1.71300 32.39700
C  37.94900 1.37200 27.56800
C  33.16100 1.94900 27.35700
N  35.57100 2.43500 32.08000
C  34.44500 2.56400 32.81000
C  34.76900 2.73700 34.30800
C  36.27400 2.67600 34.32800
C  36.57400 2.15800 32.87600
C  37.21100 3.87000 34.74400
C  33.98400 1.62500 35.08000
C  33.41300 2.07800 36.45600
H  34.04100 3.26600 37.18000
N  37.59100 1.45900 29.96100
C  38.36000 1.56500 31.10200
C  39.71500 1.19500 30.75800
C  39.77900 1.10000 29.37800
C  38.40800 1.37600 28.89100
C  40.89600 1.07700 31.81100
C  41.06600 0.78600 28.46900
O  40.88700 0.63700 27.26000
C  42.47600 0.73400 29.07800
N  35.55300 1.63100 27.80000
C  36.66300 1.44300 27.00700
C  36.30300 1.24000 25.49900
C  34.75500 1.00700 25.59500
C  34.47200 1.58600 27.04700
C  36.88700 2.35300 24.66400
C  34.35800 -0.45700 25.36300
C  33.95400 -0.88100 23.92100
N  33.46600 2.22000 29.71400
C  32.69000 2.37500 28.62000
C  31.33900 2.62200 29.12500
C  31.44100 2.82900 30.52500
C  32.78400 2.58500 30.83100
C  30.18200 2.84400 28.24000
C  30.75200 3.22200 31.77700
O  29.64000 3.61900 31.99700
C  31.83600 3.18800 32.89400
C  31.97500 4.58500 33.30700
O  32.71700 5.40100 32.76800
O  31.10800 4.84700 34.38400
C  31.14000 6.26300 34.81800
H  38.55800 1.71400 33.25100
H  38.69300 1.31700 26.77100
H  32.54700 1.86700 26.45800
H  34.38800 3.73700 34.51700
H  36.49600 1.86100 35.01700
H  36.66800 4.81100 34.83700
H  37.96300 4.11800 33.99500
H  37.63100 3.79100 35.74600
H  34.71200 0.82600 35.22300
H  33.17000 1.15700 34.52600
H  33.57500 1.19700 37.07700
H  32.33200 2.14900 36.33900
H  40.43500 1.18000 32.79300
H  41.63800 1.87300 31.75800
H  41.40900 0.11700 31.86700
H  42.62700 -0.13000 29.72400
H  42.57100 1.69100 29.59200
H  43.29000 0.65000 28.35800
H  36.82100 0.34000 25.16800
H  34.22800 1.68300 24.92200
H  36.21200 2.92000 24.02300
H  37.71800 1.91400 24.11100
H  37.38500 3.09600 25.28600
H  33.57000 -0.71600 26.07100
H  35.19300 -1.02500 25.77200
H  34.80500 -0.74600 23.25400
H  33.09400 -0.25800 23.67700
H  33.64700 -1.91600 24.07300
H  29.85000 1.87300 27.87100
H  30.46600 3.49200 27.41100
H  29.41700 3.42300 28.75600
H  31.58800 2.51400 33.71400
H  32.07800 6.49400 35.32200
H  30.27100 6.47400 35.44100
H  30.95200 6.95000 33.99200

