158

Mg 35.86400 0.77700 29.93100
C  33.33800 1.69400 32.19800
C  38.20400 1.26000 32.42000
C  38.25500 0.70200 27.51200
C  33.37900 1.16400 27.28300
N  35.82600 1.24500 32.06000
C  34.62700 1.57100 32.75500
C  34.92800 1.72400 34.24900
C  36.49300 1.94700 34.25200
C  36.92100 1.50800 32.84600
C  36.79200 3.48900 34.46800
C  34.32500 0.47200 35.00200
C  33.94100 0.41100 36.47400
H  34.83200 1.42200 37.29500
N  37.92000 0.68000 29.97500
C  38.65800 0.86300 31.12500
C  39.98700 0.36200 30.74700
C  40.09800 0.33300 29.36200
C  38.69500 0.57700 28.87900
C  41.15400 0.33300 31.75100
C  41.25500 0.12400 28.42100
O  41.21900 0.23100 27.16900
C  42.60800 -0.13000 28.92600
N  35.79500 0.89200 27.76400
C  36.95800 0.91100 26.99800
C  36.68700 0.77400 25.51700
C  35.11000 0.86200 25.40600
C  34.71300 0.87600 26.91400
C  37.47200 1.67700 24.49300
C  34.28900 -0.07900 24.49500
C  33.15900 0.63800 23.75100
N  33.76600 1.27800 29.68600
C  32.89300 1.37000 28.60200
C  31.56200 1.60200 29.02000
C  31.72700 1.75300 30.39200
C  33.08800 1.55300 30.76700
C  30.37400 1.79000 28.21000
C  30.98100 2.04100 31.65500
O  29.79900 2.18400 31.81400
C  32.02700 2.11000 32.86700
C  32.05400 3.46100 33.46200
O  32.35000 4.47000 32.83000
O  31.55500 3.50500 34.72100
C  31.49700 4.76700 35.35700
H  38.97100 1.34000 33.19300
H  39.02600 0.52200 26.76000
H  32.59300 1.10500 26.52700
H  34.36700 2.58400 34.61600
H  36.92300 1.32600 35.03800
H  37.41500 3.53400 35.36200
H  35.90800 4.07000 34.73200
H  37.38200 3.91700 33.65800
H  35.12700 -0.26500 35.05100
H  33.47500 -0.01200 34.52200
H  34.00600 -0.61900 36.82300
H  32.91000 0.76000 36.52000
H  42.03600 0.82400 31.34100
H  41.52200 -0.66000 32.01000
H  40.94100 0.89900 32.65800
H  43.35000 -0.47700 28.20700
H  42.52700 -0.85700 29.73500
H  43.00200 0.82400 29.27400
H  36.98600 -0.25900 25.33600
H  34.86000 1.89300 25.15700
H  38.12400 2.30400 25.10100
H  36.79200 2.26700 23.87900
H  37.94200 0.91100 23.87600
H  33.86500 -0.91300 25.05300
H  34.95900 -0.41900 23.70500
H  33.56600 1.30300 22.98900
H  32.47100 1.24300 24.34200
H  32.62300 -0.16300 23.24100
H  30.61900 2.20600 27.23300
H  29.73700 2.57300 28.62100
H  29.80300 0.89100 27.97600
H  31.78000 1.38000 33.63700
H  32.28400 4.68700 36.10600
H  30.55100 4.82500 35.89600
H  31.56700 5.54900 34.60100
Mg 16.14100 51.89300 25.63400
C  17.90300 50.66100 28.43700
C  13.52000 52.65200 27.81000
C  14.26300 52.35300 23.02300
C  18.75700 50.57000 23.52600
N  15.71800 51.47200 27.87200
C  16.69100 51.24000 28.78700
C  16.29500 51.66900 30.23300
C  14.84400 52.28100 30.05900
C  14.64300 52.09400 28.47500
C  13.68800 51.57600 30.80500
C  17.28200 52.65000 30.87900
C  17.47400 52.53000 32.36800
H  16.43900 51.65600 33.20800
N  14.17600 52.52800 25.42500
C  13.28700 52.86100 26.43600
C  12.15200 53.44400 25.81600
C  12.25100 53.16600 24.44800
C  13.62800 52.69700 24.23100
C  11.03900 53.97400 26.64600
C  11.23400 53.29800 23.33700
O  11.44800 52.93600 22.20500
C  9.85500 53.89300 23.53800
N  16.59600 51.67600 23.54100
C  15.49300 51.82700 22.72400
C  15.83600 51.31300 21.25600
C  17.31900 50.82400 21.38500
C  17.55400 51.04700 22.88100
C  14.77100 50.21100 20.82200
C  18.39800 51.57900 20.46600
C  19.35100 50.67100 19.60500
N  17.97400 50.94600 25.91000
C  18.94500 50.48500 24.95500
C  19.94700 49.65900 25.67400
C  19.63500 49.79100 27.06000
C  18.37000 50.49900 27.12500
C  20.95200 48.78500 25.21800
C  20.09200 49.44000 28.40200
O  21.02000 48.76300 28.76500
C  19.06600 50.17800 29.32800
C  18.73800 49.30500 30.44200
O  17.78000 48.59700 30.39900
O  19.73100 49.34900 31.46700
C  19.42700 48.55600 32.67400
H  12.77900 53.14100 28.44600
H  13.74800 52.45900 22.06600
H  19.58900 50.19100 22.92800
H  16.17500 50.70300 30.72400
H  14.78600 53.32200 30.37700
H  13.01000 51.21100 30.03400
H  13.04200 52.20800 31.41500
H  14.01000 50.71200 31.38600
H  16.96500 53.68400 30.74500
H  18.23700 52.65900 30.35300
H  17.39300 53.53400 32.78500
H  18.50900 52.29200 32.61200
H  11.40900 54.84400 27.18900
H  10.73100 53.24400 27.39500
H  10.10000 54.28900 26.19200
H  9.38700 53.34100 24.35300
H  9.37200 53.94400 22.56200
H  10.02900 54.91800 23.86400
H  15.80300 52.21700 20.64800
H  17.27600 49.75300 21.18800
H  13.87200 50.33600 21.42500
H  15.13700 49.18500 20.84200
H  14.57800 50.32900 19.75500
H  18.91400 52.34100 21.05000
H  17.88000 52.19800 19.73300
H  19.11900 49.62600 19.80900
H  20.36100 51.00700 19.83800
H  19.26400 50.82300 18.52900
H  20.98400 48.64500 24.13800
H  20.82800 47.88600 25.82300
H  21.96300 49.16800 25.35600
H  19.67300 50.93800 29.82000
H  20.14500 47.74100 32.58700
H  18.36400 48.31700 32.64800
H  19.64100 49.22000 33.51200

