158

Mg 0.60100 8.25600 26.84600
C  1.19600 10.16900 29.65800
C  0.84800 5.42300 28.92300
C  0.56700 6.22600 24.14800
C  0.79500 11.01500 24.83700
N  0.99800 7.85600 29.08400
C  0.96000 8.82100 30.02800
C  0.86200 8.21500 31.39700
C  1.17100 6.65400 31.15000
C  1.01400 6.61200 29.64200
C  2.55200 6.18700 31.58600
C  -0.51500 8.49300 32.13300
C  -0.49800 8.29800 33.68800
H  0.63600 7.71600 34.50600
N  0.65400 6.09300 26.54900
C  0.64700 5.15000 27.55900
C  0.36100 3.85800 26.99500
C  0.28000 4.07600 25.60600
C  0.46200 5.48900 25.36300
C  0.29500 2.59000 27.78400
C  0.10900 3.02800 24.37100
O  -0.18400 3.42400 23.20200
C  0.32000 1.63700 24.71200
N  0.91200 8.54500 24.76200
C  0.71500 7.55400 23.83000
C  0.83900 8.10700 22.45900
C  0.62700 9.64800 22.72400
C  0.73500 9.75200 24.22300
C  2.12000 7.75500 21.57400
C  -0.75300 10.19800 22.24600
C  -0.82200 11.42700 21.28300
N  0.87000 10.17500 27.13800
C  0.88700 11.21200 26.21200
C  1.14700 12.47000 26.85000
C  1.27400 12.08800 28.19800
C  1.13700 10.70100 28.30900
C  1.27900 13.84600 26.29100
C  1.47600 12.62400 29.50000
O  1.66500 13.80800 29.90600
C  1.28800 11.44100 30.51100
C  2.23000 11.44000 31.67600
O  3.45100 11.69800 31.60500
O  1.56400 11.13900 32.81600
C  2.41600 11.02000 34.03900
H  0.76200 4.52700 29.54100
H  0.55200 5.59800 23.25500
H  0.82100 11.90600 24.20600
H  1.63400 8.72600 31.97200
H  0.38600 6.01400 31.55200
H  2.93200 5.46300 30.86500
H  2.42000 5.61700 32.50500
H  3.28000 6.98200 31.74500
H  -1.30500 7.80900 31.82400
H  -0.76600 9.46700 31.71300
H  -1.35600 7.65200 33.87200
H  -0.68900 9.28800 34.10300
H  1.27100 2.11600 27.68200
H  -0.46600 1.99300 27.28000
H  0.15100 2.78900 28.84600
H  0.63600 0.94600 23.93000
H  -0.52100 1.25800 25.29200
H  1.19000 1.68000 25.36700
H  -0.06400 7.68100 22.02200
H  1.46600 10.26200 22.39800
H  2.75300 7.16900 22.24000
H  2.65200 8.61300 21.16300
H  1.83600 7.10600 20.74500
H  -1.27500 10.55800 23.13300
H  -1.35000 9.36800 21.86900
H  0.20300 11.60300 20.95600
H  -1.30100 12.23700 21.83300
H  -1.53400 11.10100 20.52500
H  0.28800 14.13500 25.94100
H  1.95200 13.73200 25.44100
H  1.70100 14.53200 27.02500
H  0.35000 11.77200 30.95700
H  2.76800 11.96200 34.46000
H  3.36800 10.53500 33.82200
H  1.80600 10.45900 34.74700
Mg 0.77400 42.76900 26.56000
C  3.37000 42.90500 28.97400
C  -1.36700 42.03300 28.95100
C  -1.42200 42.52900 24.14500
C  3.28700 43.34100 24.17200
N  1.04900 42.52700 28.74800
C  2.15800 42.70100 29.48700
C  1.71800 42.73100 30.91400
C  0.28400 42.16100 30.93000
C  -0.06600 42.18100 29.44600
C  0.03300 40.83500 31.59800
C  1.95300 44.18100 31.54900
C  1.61200 44.31300 33.09500
H  1.38500 43.06400 34.03600
N  -1.10100 42.30900 26.54400
C  -1.86300 42.10600 27.67400
C  -3.24400 41.95400 27.28000
C  -3.31900 41.97400 25.84300
C  -1.92100 42.27500 25.46100
C  -4.33300 41.64800 28.32800
C  -4.50500 41.73800 24.88700
O  -4.46600 41.80100 23.72400
C  -5.76600 41.26600 25.47400
N  0.89200 43.20100 24.49300
C  -0.16300 42.98000 23.65000
C  0.26700 42.78700 22.13200
C  1.68500 43.35500 22.24500
C  1.94800 43.26100 23.72400
C  0.18900 41.24600 21.73900
C  1.78000 44.78900 21.84200
C  2.92500 45.22300 20.86900
N  2.88100 43.15800 26.54300
C  3.76500 43.37100 25.48500
C  5.10300 43.46400 25.96000
C  5.01500 43.22600 27.34500
C  3.64700 43.08700 27.60200
C  6.35100 43.77200 25.16600
C  5.78900 43.18000 28.57400
O  7.03600 43.22100 28.76900
C  4.71200 43.00600 29.69900
C  5.10000 41.89500 30.62500
O  5.02000 40.69400 30.37500
O  5.50400 42.41700 31.83900
C  5.51300 41.43900 32.97200
H  -2.17300 41.77200 29.63900
H  -2.17100 42.38800 23.36400
H  4.05400 43.57800 23.43200
H  2.44600 42.06400 31.37500
H  -0.26700 42.95800 31.43100
H  -0.00700 40.03500 30.85800
H  -0.78300 40.85900 32.31900
H  0.99000 40.55200 32.03800
H  1.28400 44.89300 31.06700
H  2.97000 44.49900 31.31800
H  0.77800 44.97200 33.33700
H  2.57000 44.66200 33.48200
H  -5.12300 42.37700 28.14800
H  -4.10900 41.96500 29.34600
H  -4.82800 40.67700 28.34800
H  -6.26400 42.16400 25.83900
H  -5.62600 40.41000 26.13500
H  -6.41800 40.81700 24.72400
H  -0.44500 43.35900 21.53800
H  2.37400 42.69800 21.71400
H  0.02100 40.67100 22.65000
H  1.06200 40.93500 21.16600
H  -0.65400 41.05900 21.07400
H  1.90800 45.44500 22.70300
H  0.88000 45.11900 21.32300
H  2.50800 45.37500 19.87400
H  3.69100 44.50700 20.57200
H  3.55600 46.02200 21.25700
H  6.09900 44.54500 24.44000
H  6.68600 42.87800 24.64100
H  7.19800 44.07000 25.78400
H  4.76700 43.90400 30.31400
H  6.54000 41.14500 33.18800
H  4.87200 40.57700 32.79200
H  4.95100 41.88300 33.79400

