158

Mg 6.59200 54.03900 41.64700
C  5.53300 50.59700 41.05400
C  9.76200 53.04600 40.54500
C  7.35500 57.27700 41.65600
C  3.26700 54.67500 42.55200
N  7.44600 52.17600 40.63000
C  6.84600 50.93400 40.61800
C  7.73200 49.85900 40.08200
C  9.08500 50.51800 40.26600
C  8.76300 52.02700 40.44600
C  10.05300 49.97300 41.35900
C  7.53100 49.37400 38.55600
C  6.82400 50.35400 37.65100
H  7.66000 51.03100 36.52900
N  8.33800 55.04000 41.08400
C  9.57100 54.41300 40.72200
C  10.52100 55.47900 40.57700
C  9.84200 56.76200 40.76800
C  8.45800 56.41800 41.15600
C  11.93800 55.22400 40.13600
C  10.55300 58.08500 40.59400
O  11.72600 58.18600 40.30400
C  9.78200 59.39200 40.65800
N  5.38400 55.75800 41.85400
C  6.00900 56.95900 42.08300
C  4.91800 58.00100 42.40400
C  3.65400 57.19000 42.71600
C  4.07300 55.77900 42.38900
C  5.44700 59.08300 43.51000
C  2.36100 57.58300 41.94000
C  1.08400 57.75900 42.73300
N  4.76900 52.87000 41.78100
C  3.54100 53.29100 42.25300
C  2.57000 52.22800 42.34600
C  3.33600 51.13600 41.90400
C  4.66100 51.57500 41.53200
C  1.21900 52.33000 42.94200
C  3.40200 49.67400 41.69500
O  2.56100 48.78700 41.97700
C  4.81300 49.29600 41.16700
C  4.64900 48.43900 39.93800
O  4.24000 48.71100 38.86400
O  5.20600 47.21500 40.31200
C  5.23900 46.16600 39.36800
H  10.75100 52.89200 40.11000
H  7.61900 58.33700 41.66000
H  2.20500 54.79600 42.77900
H  7.72700 48.98500 40.73300
H  9.66300 50.46700 39.34200
H  9.69000 49.14500 41.96900
H  10.31800 50.69900 42.12700
H  10.93300 49.59800 40.83800
H  6.99500 48.42500 38.56100
H  8.49500 49.05700 38.15900
H  6.29900 51.18800 38.11600
H  6.06700 49.73400 37.17000
H  12.00100 55.80400 39.21500
H  12.16100 54.18500 39.89700
H  12.61300 55.68400 40.85800
H  10.48000 60.20400 40.45800
H  9.27600 59.48100 41.62000
H  9.02900 59.31400 39.87400
H  4.85800 58.64400 41.52600
H  3.40500 57.13100 43.77600
H  5.59900 60.05400 43.03800
H  6.38100 58.67900 43.90000
H  4.70900 59.13900 44.31000
H  2.08100 56.75400 41.28900
H  2.49900 58.48400 41.34300
H  1.34500 57.74500 43.79100
H  0.35100 56.96500 42.58600
H  0.63100 58.73300 42.54900
H  0.65700 53.04500 42.34000
H  1.25500 52.63500 43.98800
H  0.77400 51.35200 43.12100
H  5.36300 48.76600 41.94500
H  5.87600 45.44700 39.88500
H  5.56900 46.43700 38.36600
H  4.20400 45.82300 39.34300
Mg 9.95000 47.14300 25.80000
C  7.67900 47.42600 28.43200
C  12.36000 48.54500 27.97300
C  12.26400 46.76800 23.37400
C  7.39600 46.40900 23.70000
N  9.99400 47.88400 27.97600
C  8.94500 47.73900 28.92300
C  9.44200 48.25300 30.29000
C  10.90200 48.86800 29.97600
C  11.11300 48.36400 28.56200
C  11.16500 50.34800 30.13500
C  9.48700 47.19000 31.47300
C  10.15600 47.57900 32.82800
H  9.23800 47.28900 34.02100
N  12.01500 47.69200 25.63100
C  12.83700 48.16100 26.66600
C  14.17400 48.10100 26.22100
C  14.19400 47.47400 24.89200
C  12.78200 47.30400 24.56900
C  15.41100 48.52500 27.10900
C  15.34300 46.97000 24.12800
O  15.23100 46.51000 22.96100
C  16.75500 46.93300 24.75100
N  9.86900 46.76400 23.84900
C  10.93300 46.62800 22.99700
C  10.47700 46.08900 21.64900
C  8.95300 46.15200 21.65800
C  8.69700 46.46500 23.16100
C  11.07100 46.81200 20.46700
C  8.21100 44.93100 21.04000
C  7.20500 45.17900 19.84800
N  7.90500 47.01500 25.95400
C  6.96900 46.69300 25.04000
C  5.69200 46.48700 25.64600
C  5.92100 46.90000 26.98100
C  7.31700 47.10300 27.08400
C  4.33500 46.21700 24.98100
C  5.19900 47.11000 28.23400
O  4.06900 46.94900 28.58200
C  6.32100 47.50200 29.21600
C  6.07400 46.51900 30.33900
O  6.53600 45.39900 30.42000
O  5.28700 47.05500 31.29500
C  5.08200 46.38000 32.53900
H  13.09600 48.83900 28.72500
H  12.97700 46.57000 22.57100
H  6.55000 46.22800 23.03400
H  8.77400 49.06500 30.57400
H  11.61600 48.29600 30.56900
H  10.53000 50.84500 30.86800
H  10.94300 50.83800 29.18700
H  12.21800 50.53100 30.34800
H  9.65700 46.14400 31.21500
H  8.45700 46.94600 31.73300
H  10.37900 48.64400 32.75800
H  11.08500 47.01600 32.91800
H  15.09100 49.03500 28.01800
H  16.02300 49.23100 26.54700
H  16.01500 47.72100 27.52800
H  16.61000 46.78700 25.82100
H  17.38000 47.79500 24.51500
H  17.32400 46.08500 24.37000
H  10.84600 45.06800 21.55100
H  8.66400 47.05100 21.11200
H  12.13400 46.59800 20.35800
H  11.03700 47.89100 20.61700
H  10.51300 46.51600 19.58000
H  7.70600 44.44100 21.87200
H  8.94200 44.23600 20.62500
H  7.46800 44.47100 19.06200
H  7.22400 46.20600 19.48400
H  6.14600 45.02500 20.05500
H  4.46500 45.85800 23.96000
H  3.80300 47.16300 24.87500
H  3.90200 45.46900 25.64500
H  6.23100 48.54200 29.52700
H  4.73500 47.05700 33.32100
H  5.99600 45.91000 32.90100
H  4.32800 45.59300 32.53300

