158

Mg -1.72300 17.74700 26.55900
C  -2.32000 15.53100 29.23400
C  -2.38600 20.37800 28.70300
C  -1.91500 19.71800 23.78200
C  -1.80800 14.93400 24.42800
N  -2.47900 17.93900 28.74700
C  -2.34200 16.89600 29.66100
C  -2.51500 17.40500 31.11800
C  -2.73500 18.96600 30.90800
C  -2.49000 19.15700 29.38000
C  -3.95000 19.62600 31.61000
C  -1.30800 16.98200 32.10600
C  -1.01400 17.76100 33.36000
H  -0.48700 17.06100 34.54500
N  -2.00200 19.77900 26.31200
C  -2.15200 20.68500 27.36900
C  -2.05800 22.04900 26.75700
C  -1.87000 21.87200 25.37900
C  -1.97300 20.38700 25.08500
C  -1.87400 23.37700 27.56100
C  -1.50100 22.88900 24.26000
O  -1.39000 22.56900 23.06000
C  -1.21800 24.28700 24.51200
N  -1.73900 17.37800 24.38700
C  -1.83300 18.39100 23.42800
C  -1.98000 17.80400 22.01400
C  -1.80800 16.22400 22.27300
C  -1.87200 16.20600 23.76900
C  -3.23400 18.30000 21.21000
C  -0.56600 15.54700 21.61500
C  0.74300 16.23800 21.80100
N  -1.98100 15.66000 26.80100
C  -1.93100 14.66200 25.85300
C  -2.11700 13.37700 26.49300
C  -2.22400 13.69700 27.86200
C  -2.16300 15.08300 27.96100
C  -2.28600 12.13000 25.79500
C  -2.37700 13.08700 29.05600
O  -2.39900 11.93300 29.40600
C  -2.45200 14.28600 30.04500
C  -1.23400 14.08300 30.85800
O  -0.12400 14.39300 30.47600
O  -1.58300 13.36300 31.93400
C  -0.38100 12.84300 32.75500
H  -2.59600 21.23900 29.34200
H  -2.03000 20.49200 23.02000
H  -1.85700 14.14000 23.68000
H  -3.37000 16.81000 31.43700
H  -1.77400 19.41100 31.16400
H  -4.54300 20.31100 31.00500
H  -3.66400 20.28400 32.43000
H  -4.66300 18.91200 32.02300
H  -0.42800 16.94900 31.46300
H  -1.48100 15.96200 32.45000
H  -1.79000 18.47600 33.62900
H  -0.12500 18.32800 33.08500
H  -0.84500 23.72900 27.63700
H  -2.45400 23.33100 28.48300
H  -2.36500 24.20900 27.05700
H  -2.15400 24.61600 24.96400
H  -1.01000 24.97100 23.69000
H  -0.44400 24.40100 25.27200
H  -1.08400 18.16200 21.50600
H  -2.69500 15.72700 21.87900
H  -3.95600 17.48700 21.12000
H  -3.00100 18.51300 20.16700
H  -3.54900 19.23100 21.68100
H  -0.74800 15.38300 20.55300
H  -0.51800 14.52000 21.97600
H  1.30400 16.50800 20.90600
H  1.26800 15.48500 22.38800
H  0.68000 17.02100 22.55600
H  -3.25600 12.09300 25.30000
H  -2.26600 11.27900 26.47600
H  -1.37400 12.00800 25.21000
H  -3.31500 14.13600 30.69400
H  -0.29200 11.76600 32.90000
H  -0.61500 13.22500 33.74800
H  0.57000 13.30500 32.48800
Mg 16.89800 52.97800 26.85200
C  18.72000 51.21800 29.32700
C  14.65500 53.70400 29.26400
C  14.92700 54.20700 24.50500
C  18.99400 51.51000 24.35100
N  16.80400 52.66300 28.99900
C  17.67100 51.95500 29.81600
C  17.25500 51.92800 31.28100
C  15.75800 52.28600 31.09300
C  15.77700 52.98000 29.72300
C  14.95600 50.97700 31.30000
C  18.08900 53.01700 31.98800
C  18.47600 52.81400 33.43700
H  17.40700 52.08900 34.26700
N  15.08900 53.97700 26.87300
C  14.36200 54.25200 27.99200
C  13.22700 55.01800 27.63100
C  13.16900 54.99100 26.22900
C  14.45300 54.40100 25.77700
C  12.28700 55.55700 28.68500
C  11.98900 55.45700 25.28200
O  12.22500 55.53800 24.08900
C  10.60200 55.92200 25.81700
N  17.09700 53.02900 24.73400
C  16.05700 53.60800 24.01000
C  16.26100 53.34700 22.49600
C  17.62100 52.57500 22.49800
C  17.93700 52.44400 23.97000
C  15.11400 52.58500 21.90900
C  18.69700 53.14800 21.54800
C  19.71300 54.19700 22.04300
N  18.53300 51.59200 26.77500
C  19.30100 51.16000 25.73900
C  20.41700 50.43800 26.30800
C  20.26900 50.43900 27.69500
C  19.05500 51.05600 27.92400
C  21.56400 49.90900 25.49000
C  20.83700 50.13200 28.97000
O  21.95000 49.74100 29.26900
C  19.84500 50.61700 30.04700
C  19.46400 49.44900 30.95400
O  18.83400 48.49400 30.51400
O  19.78500 49.63200 32.29600
C  19.24200 48.68500 33.27700
H  13.97900 53.94600 30.08700
H  14.48200 54.75300 23.67100
H  19.50200 50.93500 23.57400
H  17.60900 51.06100 31.83900
H  15.38200 52.90800 31.90600
H  15.09700 50.27000 30.48200
H  13.87600 51.02700 31.43400
H  15.36600 50.50900 32.19500
H  17.55200 53.96500 32.00900
H  19.01800 53.19100 31.44600
H  18.71800 53.79300 33.85100
H  19.41300 52.25900 33.40000
H  11.96400 56.56000 28.40700
H  12.72600 55.48000 29.68000
H  11.35200 54.99800 28.70900
H  10.00100 55.16000 26.31300
H  9.92800 56.34200 25.07100
H  10.82200 56.80500 26.41700
H  16.37500 54.30000 21.98100
H  17.42800 51.55400 22.17000
H  14.57700 53.17400 21.16500
H  14.49500 52.11600 22.67400
H  15.57700 51.73400 21.41100
H  18.21100 53.88100 20.90300
H  19.17800 52.35800 20.97200
H  19.41500 54.50900 23.04400
H  19.67200 55.09000 21.42000
H  20.73300 53.81800 22.10000
H  21.97500 50.62900 24.78200
H  21.08400 49.17400 24.84200
H  22.36700 49.37700 25.99900
H  20.35200 51.28700 30.74200
H  19.61500 47.69100 33.03000
H  18.15800 48.58500 33.20900
H  19.63100 49.07400 34.21800

