158

Mg 30.14300 57.94800 41.52000
C  27.28900 56.25600 40.30200
C  32.03800 55.37900 40.22800
C  32.90000 59.91000 41.89100
C  28.00400 60.57000 42.17100
N  29.65100 56.02800 40.38600
C  28.45400 55.56700 40.03200
C  28.61700 54.22400 39.26100
C  30.04200 53.85700 39.70500
C  30.62200 55.18200 40.13900
C  30.00900 52.69200 40.76600
C  28.42900 54.53500 37.74500
C  27.07300 53.95900 37.15300
H  26.39400 54.60400 35.84500
N  32.10300 57.69200 41.19000
C  32.68300 56.55200 40.62400
C  34.08300 56.72000 40.41600
C  34.41600 58.05800 40.84300
C  33.11800 58.62600 41.32400
C  35.01700 55.60200 39.98500
C  35.76900 58.68600 40.81000
O  36.72500 57.99800 40.46300
C  35.97900 60.04900 41.20300
N  30.40400 59.98700 41.74800
C  31.66100 60.55400 42.00500
C  31.48700 62.10700 42.35200
C  29.96400 62.16600 42.65000
C  29.38400 60.78900 42.11900
C  32.36900 62.68000 43.46800
C  29.19000 63.37200 42.00300
C  28.32000 64.06300 42.99600
N  27.99600 58.34600 41.50900
C  27.33900 59.47900 41.69900
C  25.88800 59.26500 41.53900
C  25.83200 58.00000 40.98300
C  27.13300 57.51700 40.98500
C  24.80700 60.20100 41.87700
C  24.89500 56.96200 40.46800
O  23.68100 56.83700 40.37600
C  25.87400 55.88800 39.95000
C  25.44400 54.60000 40.64300
O  25.84300 54.12000 41.66400
O  24.43500 54.03800 39.90400
C  23.78700 52.81700 40.46200
H  32.62400 54.49900 39.95400
H  33.67500 60.52500 42.35300
H  27.34000 61.42600 42.30700
H  27.84000 53.51200 39.54100
H  30.60000 53.55700 38.81800
H  29.14300 52.03400 40.69900
H  30.27600 53.08700 41.74700
H  30.88600 52.07600 40.56900
H  29.27100 54.35200 37.07700
H  28.20300 55.59400 37.62100
H  26.32700 53.95600 37.94900
H  27.22900 52.92600 36.84200
H  35.69600 55.44500 40.82300
H  35.48000 55.98500 39.07500
H  34.70400 54.63500 39.59100
H  35.67700 60.13600 42.24700
H  35.31900 60.66700 40.59500
H  37.02100 60.35600 41.11200
H  31.82600 62.71700 41.51400
H  29.80300 62.10400 43.72700
H  33.15800 63.38000 43.19000
H  32.81100 61.83200 43.99000
H  31.76600 63.23100 44.19000
H  28.65100 62.98800 41.13700
H  29.91200 64.12800 41.69200
H  28.49900 65.13900 43.00300
H  28.55500 63.92000 44.05100
H  27.27100 63.91400 42.74100
H  24.70900 60.75100 40.94100
H  25.10300 60.98700 42.57100
H  23.81300 59.83700 42.13900
H  25.79800 55.80300 38.86600
H  22.73500 52.90000 40.18900
H  23.88500 52.75300 41.54500
H  24.13400 51.89100 40.00300
Mg 16.64500 53.54600 25.56500
C  17.92300 51.81800 28.39700
C  14.31300 54.85300 27.56500
C  15.11500 54.57700 22.83800
C  19.01200 51.71600 23.62500
N  16.23600 53.41500 27.74000
C  16.92600 52.73000 28.72500
C  16.48300 53.26800 30.10000
C  15.17200 53.97200 29.75900
C  15.20900 54.12100 28.26700
C  13.91300 53.26100 30.39700
C  17.55500 54.12900 30.82400
C  17.96700 53.76400 32.31400
H  17.01600 52.86900 33.08100
N  15.00700 54.71800 25.22900
C  14.15800 55.12600 26.18000
C  13.01800 55.81300 25.58800
C  13.27600 55.82800 24.19200
C  14.49800 55.03700 24.03400
C  11.89800 56.24400 26.53300
C  12.43100 56.39300 23.06300
O  12.80500 56.23400 21.91200
C  11.18100 57.29600 23.35100
N  17.19000 53.41100 23.53800
C  16.35400 53.89500 22.55400
C  16.67200 53.37400 21.12700
C  18.05200 52.65300 21.39100
C  18.17900 52.63800 22.93700
C  15.55800 52.45100 20.53100
C  19.25900 53.42400 20.80800
C  19.65200 53.08000 19.40600
N  18.10900 51.95300 25.87200
C  19.00900 51.41300 25.00800
C  19.97300 50.54700 25.78200
C  19.49600 50.64100 27.09500
C  18.41700 51.53300 27.12900
C  21.16700 49.92600 25.21200
C  19.84000 50.32800 28.48600
O  20.74300 49.63800 28.96900
C  18.82400 51.15900 29.40900
C  18.10300 50.21100 30.28800
O  16.99300 49.76000 30.07900
O  19.00400 49.74200 31.25900
C  18.54500 48.73900 32.18000
H  13.58100 55.23300 28.28100
H  14.63800 54.88800 21.90600
H  19.81000 51.30600 23.00200
H  16.31000 52.39500 30.73000
H  15.12200 54.97900 30.17200
H  14.17700 52.26700 30.75700
H  13.20600 53.01200 29.60500
H  13.34900 53.94600 31.02900
H  17.21100 55.16100 30.89800
H  18.46100 54.15600 30.21900
H  18.06600 54.71800 32.83100
H  19.00000 53.42600 32.40200
H  11.62700 55.55900 27.33700
H  10.96800 56.53100 26.04200
H  12.27000 57.20000 26.90200
H  11.30200 57.92400 24.23400
H  10.37700 56.62100 23.64300
H  10.92900 58.00000 22.55800
H  16.71900 54.29200 20.54100
H  17.94600 51.62700 21.04100
H  15.30200 52.84000 19.54600
H  14.56800 52.50300 20.98300
H  15.85500 51.40900 20.40400
H  20.14200 53.39800 21.44600
H  19.00700 54.48300 20.86500
H  20.73900 53.16700 19.38600
H  19.19400 53.81200 18.74100
H  19.46300 52.07000 19.04300
H  21.91400 50.00600 26.00200
H  21.60100 50.39700 24.33000
H  20.89500 48.91000 24.92900
H  19.44400 51.92000 29.88300
H  18.06900 49.15000 33.07100
H  19.42000 48.18300 32.51600
H  17.82200 48.08300 31.69500

