158

Mg 47.12300 17.22300 28.31500
C  45.10900 17.13700 31.22100
C  49.48400 18.95600 30.21700
C  48.70500 17.71000 25.49300
C  44.53700 15.66000 26.57700
N  47.29400 17.89000 30.49100
C  46.37400 17.73500 31.45300
C  46.94600 18.06700 32.83800
C  48.24800 18.90300 32.45500
C  48.38500 18.58800 30.93800
C  48.26000 20.49900 32.76800
C  47.11300 16.86100 33.78100
C  46.88300 17.07600 35.29800
H  46.45400 18.49000 35.76000
N  48.94200 17.97200 27.96300
C  49.75800 18.66000 28.84700
C  50.95900 19.08400 28.09100
C  50.77400 18.75100 26.68700
C  49.43600 18.14400 26.62900
C  52.13600 19.70700 28.84800
C  51.69600 19.01900 25.51500
O  51.38800 18.70000 24.37400
C  53.03100 19.62700 25.78600
N  46.67300 16.74900 26.40400
C  47.45500 17.07600 25.34100
C  47.03300 16.46700 24.02100
C  45.97700 15.47600 24.52200
C  45.63000 16.08100 25.92600
C  46.60000 17.60700 23.04100
C  46.34000 13.97100 24.47500
C  45.58900 13.13700 23.43600
N  45.21500 16.60000 28.73400
C  44.28900 15.94500 27.89900
C  43.15800 15.61100 28.61900
C  43.41900 16.01200 29.94700
C  44.70900 16.69300 29.94600
C  41.94000 14.87100 28.01700
C  42.93100 15.97500 31.31900
O  41.91000 15.44200 31.77000
C  44.03800 16.70500 32.12000
C  43.46900 17.68600 33.11300
O  43.24400 18.90100 32.94000
O  43.01600 16.92000 34.14100
C  42.27300 17.66000 35.11600
H  50.21000 19.53700 30.79000
H  49.39400 17.82400 24.65400
H  43.79500 15.17100 25.94100
H  46.18300 18.67400 33.32400
H  49.15100 18.49900 32.91100
H  48.24500 21.07900 31.84400
H  49.07600 20.78400 33.43100
H  47.39100 20.69800 33.39500
H  48.12600 16.49600 33.61300
H  46.46500 16.02000 33.53600
H  47.84800 16.96800 35.79200
H  46.35000 16.27600 35.81300
H  52.03100 20.79200 28.81400
H  53.01300 19.27300 28.36700
H  52.22400 19.43200 29.89900
H  52.78500 20.44900 26.45800
H  53.49900 20.00900 24.87800
H  53.64600 18.86500 26.26400
H  47.94400 16.08100 23.56500
H  45.04700 15.61100 23.97100
H  47.40400 17.67700 22.30900
H  46.47600 18.56800 23.54100
H  45.65000 17.23600 22.65700
H  46.12800 13.66100 25.49900
H  47.42300 13.92200 24.36400
H  46.30700 12.38200 23.11800
H  45.35200 13.70200 22.53400
H  44.75500 12.56700 23.84600
H  41.99500 13.82500 28.31600
H  41.89500 14.91600 26.92800
H  41.00900 15.23100 28.45600
H  44.51900 15.97600 32.77200
H  41.23600 17.80500 34.81300
H  42.81300 18.57500 35.36100
H  42.29800 17.08000 36.03900
Mg 47.51000 25.81800 28.17500
C  48.41500 28.10000 30.65500
C  46.40000 23.66800 30.51700
C  46.64000 23.73800 25.66900
C  48.79600 28.08600 25.79700
N  47.36200 25.93100 30.38200
C  47.66000 27.04400 31.16800
C  47.13300 26.82600 32.64800
C  46.69800 25.28800 32.60200
C  46.82800 24.88900 31.05600
C  47.43500 24.30800 33.57500
C  45.99500 27.89900 33.11700
C  45.27800 27.48000 34.36900
H  45.18400 28.50000 35.59900
N  46.64500 23.91100 28.12200
C  46.30400 23.12100 29.15100
C  45.79600 21.81300 28.72400
C  45.83600 21.83500 27.25400
C  46.37400 23.17600 26.92800
C  45.27000 20.76800 29.66500
C  45.39200 20.77100 26.18600
O  45.46100 20.88900 24.98900
C  44.79600 19.51500 26.68500
N  47.78700 25.86700 26.09000
C  47.12300 24.97900 25.27300
C  47.10600 25.40600 23.78600
C  47.81100 26.81100 23.82700
C  48.20200 26.91800 25.32100
C  47.78200 24.42400 22.78200
C  46.93600 27.95900 23.26900
C  47.05600 28.27900 21.77200
N  48.67300 27.58500 28.18700
C  49.07400 28.40900 27.17300
C  49.66300 29.60300 27.67400
C  49.50100 29.50600 29.03600
C  48.82000 28.27300 29.31700
C  50.25900 30.74200 26.84000
C  49.75600 30.21500 30.28400
O  50.24100 31.28200 30.49400
C  48.96100 29.37000 31.36800
C  49.78300 29.00800 32.54100
O  50.71100 28.26500 32.50500
O  49.36500 29.71600 33.64500
C  50.14800 29.55500 34.93400
H  46.05400 23.04700 31.34600
H  46.26900 23.02300 24.93100
H  49.11000 28.76000 24.99800
H  47.96700 26.95100 33.33800
H  45.66100 25.23900 32.93300
H  47.57100 23.34900 33.07500
H  46.84700 24.05000 34.45600
H  48.46300 24.59300 33.80200
H  45.25000 28.09500 32.34600
H  46.50300 28.83900 33.33400
H  45.63600 26.55600 34.82400
H  44.28000 27.10500 34.14500
H  44.18700 20.63900 29.65800
H  45.56800 20.87300 30.70800
H  45.68900 19.79800 29.40000
H  44.00900 19.87000 27.35100
H  45.60700 19.03800 27.23500
H  44.36400 18.90000 25.89500
H  46.07600 25.55600 23.46200
H  48.67100 26.76400 23.15900
H  48.27700 23.63100 23.34300
H  48.45300 24.89000 22.06000
H  46.97600 23.84800 22.32700
H  47.09000 28.85800 23.86600
H  45.87900 27.75100 23.43900
H  47.79400 27.63900 21.28600
H  47.40900 29.29700 21.61100
H  46.08800 28.29000 21.27200
H  50.41200 31.59100 27.50700
H  49.54300 31.00800 26.06200
H  51.20000 30.35800 26.44500
H  48.15800 30.00800 31.73700
H  49.40800 29.15100 35.62500
H  50.53000 30.48400 35.35700
H  51.02200 28.94400 34.70800

