158

Mg 16.22500 -2.89400 28.32500
C  15.15700 -0.76100 30.86600
C  18.64800 -4.17500 30.33400
C  17.65000 -4.56600 25.72400
C  14.32700 -0.99200 26.02400
N  16.83600 -2.48000 30.33700
C  16.20700 -1.64500 31.26500
C  16.87400 -1.75300 32.64400
C  18.04200 -2.81700 32.38100
C  17.87500 -3.14100 30.89100
C  19.53600 -2.35800 32.77600
C  15.79700 -2.13600 33.73100
C  15.68000 -1.29000 35.04100
H  16.89200 -0.51400 35.60500
N  17.73100 -4.44900 28.11100
C  18.58100 -4.81300 29.06500
C  19.50200 -5.82500 28.58000
C  19.29900 -5.96600 27.17000
C  18.13600 -4.98400 26.92200
C  20.58100 -6.39200 29.42000
C  19.84800 -6.94200 26.15800
O  19.50400 -6.93800 24.93800
C  20.94000 -7.86600 26.59800
N  16.08300 -2.74400 26.14400
C  16.83800 -3.45200 25.37600
C  16.65900 -2.94000 23.91000
C  15.48300 -1.97200 23.99200
C  15.20900 -1.92900 25.45200
C  17.89700 -2.27500 23.26200
C  14.22700 -2.37900 23.09500
C  13.98300 -1.44800 21.89100
N  15.11100 -1.20300 28.32300
C  14.25900 -0.64000 27.34200
C  13.41600 0.31000 27.97500
C  13.76600 0.33400 29.28100
C  14.77500 -0.63100 29.51100
C  12.30200 1.06500 27.28500
C  13.45300 0.94400 30.55200
O  12.69300 1.89200 30.87100
C  14.39000 0.33400 31.61900
C  15.33100 1.39300 32.14500
O  16.48800 1.51400 31.79900
O  14.76300 2.17100 33.16300
C  15.60000 3.20900 33.82200
H  19.52300 -4.46500 30.91900
H  18.13900 -4.97100 24.83500
H  13.69000 -0.42900 25.33800
H  17.35200 -0.84800 33.01800
H  17.91900 -3.71500 32.98700
H  20.15700 -3.24800 32.87500
H  19.46700 -1.73300 33.66600
H  20.06200 -1.88700 31.94500
H  16.07700 -3.13000 34.07800
H  14.81000 -2.17600 33.27200
H  15.55600 -2.00100 35.85800
H  14.71000 -0.79500 34.99900
H  20.92400 -7.35300 29.03700
H  20.31300 -6.52000 30.46900
H  21.34500 -5.62000 29.51200
H  21.77800 -7.22600 26.87700
H  21.24700 -8.54500 25.80300
H  20.70000 -8.42500 27.50200
H  16.35000 -3.74100 23.23800
H  15.76400 -0.96400 23.68700
H  18.12300 -2.61500 22.25100
H  18.73000 -2.54800 23.90900
H  17.78500 -1.19200 23.31900
H  13.30900 -2.43900 23.68100
H  14.29100 -3.36400 22.63200
H  12.91700 -1.57900 21.70800
H  14.57200 -1.82200 21.05300
H  14.23300 -0.40600 22.09000
H  11.91800 0.74300 26.31700
H  12.47000 2.13800 27.19800
H  11.42800 0.95400 27.92700
H  13.80700 -0.03500 32.46200
H  15.87000 3.85500 32.98600
H  16.53500 2.77200 34.17300
H  15.02900 3.59800 34.66500
Mg -11.90600 15.30600 41.90200
C  -9.02100 13.39100 41.58700
C  -10.49800 17.85200 40.32300
C  -15.00300 16.69100 41.66100
C  -13.57400 12.18100 42.72000
N  -10.12400 15.42500 40.80300
C  -9.02500 14.61700 40.94500
C  -7.82400 15.27400 40.31000
C  -8.15400 16.72600 40.34200
C  -9.73700 16.68300 40.43000
C  -7.68400 17.56700 41.53100
C  -7.35300 14.68700 38.92800
C  -5.89000 14.79700 38.64300
H  -5.44100 15.46600 37.38800
N  -12.67000 17.12800 41.17400
C  -11.85300 18.08600 40.70800
C  -12.64800 19.31300 40.60100
C  -13.99400 19.02100 40.91900
C  -13.95700 17.60700 41.26500
C  -12.10900 20.64100 40.31900
C  -15.18400 19.91200 41.06200
O  -15.10200 21.12800 40.82600
C  -16.60900 19.43600 41.47200
N  -13.89600 14.50900 42.01000
C  -14.97600 15.35500 42.04300
C  -16.31600 14.61700 42.30800
C  -15.83800 13.14200 42.32100
C  -14.31800 13.28700 42.33900
C  -17.09400 15.18200 43.55100
C  -16.24400 12.28200 41.12000
C  -17.00300 11.01100 41.39800
N  -11.39300 13.27100 42.31100
C  -12.15000 12.16500 42.71500
C  -11.32200 10.95500 42.93000
C  -10.05700 11.46300 42.58300
C  -10.21200 12.81700 42.09700
C  -11.78200 9.44800 43.33800
C  -8.67300 11.06700 42.46500
O  -8.05500 10.08900 42.88100
C  -7.96400 12.30500 41.77300
C  -6.94700 12.80600 42.66400
O  -7.10000 13.40200 43.74800
O  -5.76700 12.57800 42.01200
C  -4.68600 13.43400 42.51600
H  -9.94600 18.72500 39.96800
H  -15.97800 17.16800 41.77500
H  -13.97300 11.17800 42.88500
H  -6.99500 15.02000 40.97100
H  -7.72600 17.20900 39.46400
H  -7.47100 16.93000 42.38900
H  -8.34200 18.38700 41.82000
H  -6.70300 17.89400 41.18700
H  -7.98700 15.23900 38.23500
H  -7.67500 13.66600 38.72400
H  -5.36900 13.83900 38.66000
H  -5.47200 15.24100 39.54700
H  -12.17400 20.86600 39.25500
H  -11.08300 20.47200 40.64800
H  -12.49500 21.39000 41.01000
H  -17.35700 20.20800 41.29500
H  -16.52600 19.18600 42.53000
H  -16.83800 18.56000 40.86600
H  -16.93700 14.82800 41.43700
H  -16.22700 12.61800 43.19300
H  -17.83100 15.93100 43.26300
H  -16.44400 15.62500 44.30600
H  -17.57800 14.34700 44.05700
H  -15.32600 11.99800 40.60600
H  -16.81200 12.92000 40.44300
H  -16.50300 10.04400 41.33800
H  -17.68600 11.02800 40.55000
H  -17.57400 10.97400 42.32600
H  -12.85900 9.44500 43.50500
H  -11.27300 9.27500 44.28600
H  -11.45200 8.76100 42.55900
H  -7.72800 11.96200 40.76600
H  -3.89600 13.42300 41.76500
H  -4.21400 13.14500 43.45600
H  -4.98000 14.47800 42.61800

