158

Mg 39.91500 9.05200 29.53400
C  41.68700 10.57300 32.02100
C  37.57400 8.06100 31.72800
C  38.37700 7.22800 26.95100
C  42.74300 9.42700 27.40600
N  39.77300 9.26500 31.69000
C  40.50400 9.99600 32.53700
C  39.88500 10.16000 33.97100
C  38.65800 9.24900 33.80700
C  38.65200 8.85600 32.30200
C  38.63300 7.95200 34.78800
C  39.50900 11.63000 34.42700
C  38.41500 11.82000 35.52600
H  38.81900 12.68600 36.63400
N  38.04800 8.00500 29.29400
C  37.27600 7.63600 30.37800
C  36.07800 6.99100 29.89200
C  36.21000 6.90300 28.50600
C  37.55500 7.40500 28.14900
C  34.99500 6.49000 30.78100
C  35.24700 6.28100 27.49600
O  35.49800 6.16100 26.33500
C  33.89500 5.73100 27.86800
N  40.58400 8.23500 27.56900
C  39.77900 7.54400 26.73100
C  40.41900 7.42000 25.31500
C  41.78500 8.07200 25.49300
C  41.70200 8.68800 26.90700
C  40.52500 5.94500 24.73900
C  42.11400 9.16000 24.41400
C  41.32400 10.50800 24.60200
N  41.81300 9.87500 29.65100
C  42.78600 10.05700 28.69600
C  43.84000 10.87100 29.23400
C  43.50400 11.09900 30.51400
C  42.19800 10.48600 30.75200
C  45.04700 11.28700 28.52000
C  43.90900 11.61500 31.72500
O  44.93600 12.25400 31.97500
C  42.74800 11.33000 32.73100
C  43.30700 10.52400 33.90800
O  43.86200 9.42800 33.81000
O  42.99900 11.13000 35.09200
C  42.98600 10.27800 36.24600
H  36.89000 7.80900 32.54200
H  37.88900 6.72300 26.11500
H  43.50400 9.63700 26.65100
H  40.58300 9.79400 34.72400
H  37.74700 9.78500 34.07100
H  38.67600 7.00800 34.24600
H  37.79700 7.90900 35.48600
H  39.55400 7.96900 35.37000
H  39.06700 12.11900 33.55900
H  40.33700 12.30300 34.65300
H  38.23400 10.85500 35.99900
H  37.49500 12.12900 35.03000
H  34.02300 6.80700 30.40300
H  35.12200 6.93700 31.76700
H  35.10600 5.40800 30.85600
H  34.02000 4.87900 28.53600
H  33.41000 5.28900 26.99800
H  33.18400 6.44700 28.27900
H  39.89900 8.04000 24.58500
H  42.59500 7.35900 25.64600
H  40.18600 5.23400 25.49200
H  41.59400 5.90900 24.53000
H  40.00200 5.85000 23.78700
H  41.85400 8.63600 23.49400
H  43.18700 9.35000 24.42100
H  40.85700 10.79500 23.65900
H  41.95900 11.30400 24.99200
H  40.57300 10.45300 25.38900
H  45.07600 12.37600 28.48100
H  45.13400 10.95000 27.48800
H  45.93100 10.95100 29.06200
H  42.35400 12.30000 33.03300
H  43.17800 10.90000 37.11900
H  43.85600 9.65000 36.43900
H  42.07900 9.67300 36.22800
Mg 47.54700 34.83400 27.92100
C  45.47300 33.51300 30.40600
C  48.34300 37.41900 30.08500
C  49.21400 36.27600 25.46800
C  46.50100 32.24700 25.86900
N  47.00000 35.34000 30.00600
C  46.24200 34.66800 30.85400
C  46.57100 35.04400 32.26300
C  47.00700 36.59700 32.04700
C  47.48500 36.43000 30.62500
C  45.84800 37.71900 32.04900
C  47.76900 34.19400 32.84900
C  47.97000 34.33200 34.34100
H  47.13400 35.35700 35.11000
N  48.62100 36.60900 27.78200
C  48.86100 37.53900 28.75700
C  49.71500 38.57300 28.31400
C  50.05800 38.22200 26.92100
C  49.34200 36.98400 26.68100
C  50.12300 39.75800 29.10800
C  50.91100 38.97100 25.93500
O  51.05000 38.55300 24.76300
C  51.62300 40.28800 26.29500
N  47.75700 34.39800 25.89900
C  48.53500 35.11000 25.07600
C  48.48100 34.52000 23.63400
C  47.82300 33.13900 23.84600
C  47.37400 33.21700 25.30400
C  47.77900 35.42200 22.57300
C  48.58400 31.82000 23.52500
C  50.11400 31.80600 23.63500
N  46.24900 33.26000 28.04700
C  45.93600 32.25200 27.09800
C  44.97300 31.28100 27.69300
C  44.73000 31.73700 28.96800
C  45.48500 32.96100 29.08400
C  44.37600 30.00200 26.98000
C  43.97600 31.56400 30.18600
O  43.17300 30.73000 30.54700
C  44.38000 32.70100 31.08100
C  44.71400 32.21500 32.40600
O  45.65800 31.41700 32.59700
O  43.84300 32.73700 33.31500
C  44.03600 32.32100 34.75000
H  48.57600 38.15800 30.85400
H  49.76300 36.64700 24.60100
H  46.20600 31.42500 25.21300
H  45.74000 34.88100 32.95000
H  47.76800 36.94800 32.74400
H  44.92700 37.20700 32.32900
H  45.63800 38.25400 31.12300
H  46.06100 38.43700 32.84000
H  48.68000 34.53800 32.35900
H  47.67300 33.14200 32.57800
H  49.00700 34.56100 34.58700
H  47.71500 33.35800 34.75700
H  50.70100 39.34600 29.93500
H  49.29700 40.25600 29.61400
H  50.79000 40.43900 28.58000
H  52.35300 39.99500 27.04900
H  50.96200 41.09700 26.60500
H  52.13100 40.56700 25.37200
H  49.46400 34.30200 23.21700
H  46.88500 33.02800 23.30300
H  47.65200 36.41600 23.00300
H  46.76500 35.08900 22.35300
H  48.39300 35.63100 21.69700
H  48.55600 31.75300 22.43700
H  48.15000 30.91900 23.95900
H  50.49000 31.86900 22.61400
H  50.43100 30.82400 23.98700
H  50.47800 32.49000 24.40100
H  44.83400 30.05800 25.99200
H  43.29100 29.97900 27.07400
H  44.76900 29.14100 27.52100
H  43.41800 33.21000 31.02400
H  43.16900 31.82800 35.18800
H  44.24800 33.22500 35.32100
H  44.87400 31.62500 34.76800

