158

Mg -1.95300 17.60700 27.94500
C  -2.48700 15.69000 30.75800
C  -2.71700 20.42400 29.97700
C  -1.69900 19.43400 25.19800
C  -1.37100 14.63500 26.02200
N  -2.52900 18.00200 30.06800
C  -2.55700 17.05000 31.07800
C  -2.75400 17.68600 32.41900
C  -3.07900 19.17100 32.14500
C  -2.77900 19.22200 30.62600
C  -4.55200 19.54700 32.43300
C  -1.57900 17.45300 33.42300
C  -1.99700 17.01100 34.85000
H  -0.89400 16.96900 35.94700
N  -2.05400 19.65200 27.61200
C  -2.45200 20.60700 28.56200
C  -2.37300 21.90000 27.87300
C  -2.02100 21.61800 26.51100
C  -1.89800 20.23500 26.37500
C  -2.39800 23.19000 28.70500
C  -1.74800 22.53700 25.35000
O  -1.47600 22.19300 24.24700
C  -1.73300 24.06500 25.50200
N  -1.77700 17.10200 25.85800
C  -1.50700 18.07300 24.96300
C  -1.11100 17.40000 23.63300
C  -0.84800 15.90900 23.89900
C  -1.27300 15.88700 25.36700
C  -2.15700 17.66700 22.55200
C  0.64500 15.44800 23.73200
C  1.73000 16.04500 24.66200
N  -2.02900 15.58600 28.21900
C  -1.81700 14.48800 27.35700
C  -1.98500 13.28200 28.11400
C  -2.28000 13.71700 29.40700
C  -2.18000 15.13700 29.45100
C  -1.81600 11.82600 27.67600
C  -2.55500 13.27000 30.74000
O  -2.65500 12.14300 31.16900
C  -2.57400 14.51000 31.65500
C  -1.43000 14.28000 32.52400
O  -0.27400 14.51000 32.23000
O  -1.82500 13.74300 33.74300
C  -0.78100 13.19300 34.63900
H  -3.06900 21.27400 30.56500
H  -1.57100 20.01300 24.28200
H  -1.25500 13.79800 25.33200
H  -3.70300 17.30200 32.79200
H  -2.28400 19.77400 32.58300
H  -4.89600 20.15700 31.59800
H  -4.55100 20.20600 33.30100
H  -5.20100 18.67200 32.45900
H  -1.01800 18.38500 33.48800
H  -0.96900 16.65300 33.00400
H  -2.49000 16.04100 34.90400
H  -2.71400 17.75900 35.18600
H  -3.20000 23.91300 28.55400
H  -1.49800 23.80100 28.63600
H  -2.33300 22.96000 29.76800
H  -1.95000 24.41100 24.49100
H  -0.80100 24.47000 25.89500
H  -2.60400 24.38500 26.07400
H  -0.20400 17.83200 23.21100
H  -1.39700 15.20600 23.27200
H  -2.98200 16.95600 22.53200
H  -1.73000 17.55500 21.55500
H  -2.59500 18.65000 22.72600
H  1.00000 15.75400 22.74800
H  0.68500 14.36800 23.87400
H  2.04600 16.99500 24.23100
H  2.64200 15.44800 24.68200
H  1.29000 16.13500 25.65500
H  -1.10300 11.67200 26.86500
H  -2.84100 11.63600 27.35800
H  -1.57400 11.16600 28.50900
H  -3.46000 14.51500 32.28900
H  0.25500 13.35800 34.34200
H  -0.94600 12.13700 34.85400
H  -1.05200 13.67600 35.57800
Mg 35.46100 48.21100 26.39300
C  36.07500 46.19600 29.08600
C  34.35000 50.75000 28.44500
C  34.99200 50.16500 23.75300
C  36.51200 45.70600 24.19900
N  35.18200 48.41600 28.50600
C  35.53900 47.43100 29.44700
C  35.29400 47.99900 30.89900
C  34.45700 49.37300 30.57000
C  34.70800 49.54300 29.04700
C  32.93800 49.34000 30.84900
C  36.66300 48.29100 31.61100
C  36.78600 48.02000 33.10800
H  36.22800 49.20700 33.88900
N  34.82400 50.24200 26.14300
C  34.37700 51.11200 27.08000
C  34.02700 52.33700 26.50800
C  34.33100 52.25100 25.14300
C  34.81100 50.86200 24.94900
C  33.53700 53.55400 27.20200
C  34.30000 53.34600 24.08600
O  34.71100 53.05900 22.94400
C  33.80200 54.72300 24.36500
N  35.62100 47.93000 24.24900
C  35.31400 48.89100 23.39100
C  35.32100 48.45800 21.94000
C  35.96700 47.02300 22.07600
C  36.06500 46.82200 23.57100
C  33.81500 48.35000 21.39200
C  37.40200 46.86400 21.41600
C  38.53900 47.52000 22.16800
N  36.00100 46.28400 26.55900
C  36.54400 45.44700 25.60700
C  36.97600 44.16600 26.30000
C  36.78200 44.44000 27.67400
C  36.26600 45.72400 27.77900
C  37.59200 43.02300 25.56500
C  36.92700 43.91900 28.96500
O  37.24300 42.78300 29.29400
C  36.55100 45.10500 29.98100
C  35.60400 44.64500 31.00200
O  34.43600 44.29300 30.77100
O  36.19100 44.64600 32.27600
C  35.42900 43.99100 33.28200
H  33.91600 51.50200 29.10700
H  34.70500 50.82800 22.93400
H  36.80000 44.90400 23.51600
H  34.64000 47.31100 31.43500
H  34.84700 50.24700 31.09100
H  32.65800 50.10600 31.57100
H  32.68400 48.36500 31.26700
H  32.32200 49.49500 29.96300
H  36.99700 49.28600 31.31700
H  37.44000 47.68000 31.15200
H  37.81500 47.76700 33.36100
H  36.19000 47.13300 33.32700
H  32.80700 54.16500 26.67100
H  34.34300 54.20900 27.53200
H  32.97300 53.27100 28.09000
H  34.15600 55.38800 23.57800
H  34.36400 55.11100 25.21500
H  32.73500 54.88900 24.51800
H  35.90500 49.14900 21.33200
H  35.33200 46.29700 21.56800
H  33.03100 48.52400 22.12900
H  33.60800 47.34100 21.03500
H  33.66000 49.10900 20.62500
H  37.27900 47.43400 20.49500
H  37.45600 45.83000 21.07500
H  38.17100 48.18700 22.94800
H  39.11100 48.11100 21.45300
H  39.14700 46.70900 22.57100
H  37.70200 43.31800 24.52100
H  37.03500 42.08600 25.56200
H  38.52700 42.75900 26.05900
H  37.47500 45.25900 30.53800
H  34.95900 43.05800 32.97200
H  34.57100 44.62700 33.49800
H  36.02000 43.68900 34.14800

