158

Mg 18.04900 -0.82800 27.38400
C  17.09600 1.21000 30.11400
C  20.11800 -2.55500 29.61400
C  19.13500 -2.49100 24.78900
C  16.62700 1.73800 25.20200
N  18.43800 -0.70200 29.58600
C  17.89000 0.12400 30.54500
C  18.43300 -0.20900 32.01100
C  19.55300 -1.26800 31.71400
C  19.40700 -1.53700 30.21500
C  20.95900 -0.73100 32.07600
C  17.19800 -0.77600 32.77700
C  17.05400 -0.44200 34.26100
H  18.17100 0.28000 35.03200
N  19.34100 -2.33800 27.28100
C  20.08400 -3.02000 28.28400
C  20.74200 -4.14600 27.64600
C  20.46100 -4.10000 26.24800
C  19.65800 -2.94500 26.03800
C  21.50600 -5.13500 28.48500
C  20.90800 -5.03700 25.23100
O  20.61400 -4.94900 24.06900
C  21.73600 -6.32700 25.59800
N  17.88600 -0.39900 25.34900
C  18.32900 -1.36000 24.46400
C  17.93300 -0.98300 23.07200
C  17.30700 0.42900 23.18700
C  17.22900 0.61600 24.68200
C  19.17500 -1.05100 22.15500
C  15.97000 0.61300 22.41600
C  14.72600 -0.04200 23.05800
N  16.91000 1.04700 27.63900
C  16.31000 1.85300 26.57800
C  15.47200 2.76100 27.26300
C  15.70200 2.57300 28.63500
C  16.61600 1.49800 28.80100
C  14.65100 3.88000 26.64300
C  15.37100 3.01400 29.98600
O  14.59800 3.87400 30.33100
C  16.31000 2.16200 30.93400
C  17.11500 3.04200 31.78500
O  18.35400 3.12400 31.84100
O  16.37100 3.77600 32.60400
C  16.98600 4.75200 33.54400
H  20.89900 -3.00800 30.22800
H  19.39000 -3.08000 23.90600
H  16.30300 2.42300 24.41500
H  18.66900 0.74200 32.48900
H  19.39900 -2.16500 32.31200
H  21.64200 -0.65500 31.23100
H  21.35100 -1.44800 32.79800
H  20.90100 0.25400 32.53800
H  17.11600 -1.86300 32.76600
H  16.25700 -0.45800 32.32700
H  17.02100 -1.41000 34.75900
H  16.12100 0.06600 34.50500
H  21.19700 -6.18000 28.50500
H  21.55700 -4.94700 29.55800
H  22.53700 -5.26600 28.15300
H  22.56700 -5.97700 26.21000
H  22.15700 -6.68200 24.65700
H  21.09100 -6.99700 26.16500
H  17.10900 -1.65000 22.82000
H  17.98300 1.17000 22.76100
H  19.26000 -0.20900 21.46800
H  19.09100 -1.89500 21.47100
H  20.08600 -1.02200 22.75300
H  16.13100 0.18700 21.42600
H  15.76900 1.67700 22.29200
H  13.93800 0.69200 23.23200
H  14.91200 -0.50700 24.02600
H  14.41600 -0.84600 22.39000
H  14.16000 3.49400 25.74900
H  15.32300 4.69200 26.36600
H  13.88500 4.18200 27.35700
H  15.71700 1.76700 31.75900
H  17.08000 5.69200 33.00100
H  17.90300 4.53100 34.09100
H  16.13100 4.99800 34.17400
Mg 25.92800 49.69600 26.46900
C  24.21000 51.08900 29.09200
C  28.37700 48.74100 28.88000
C  27.93100 48.60700 23.99400
C  24.08900 51.56600 24.13600
N  26.35700 50.02800 28.77600
C  25.27600 50.41200 29.61200
C  25.67100 50.18300 31.09900
C  27.15500 49.60200 30.97000
C  27.37100 49.48100 29.48000
C  28.27200 50.38100 31.75600
C  24.63300 49.20800 31.82500
C  23.99700 49.69400 33.22400
H  24.96900 50.04500 34.35600
N  27.79300 48.59700 26.51100
C  28.60900 48.26900 27.56200
C  29.64900 47.46600 27.07800
C  29.56300 47.47500 25.60600
C  28.34200 48.22300 25.27600
C  30.72100 46.78600 27.94400
C  30.49300 46.82500 24.63400
O  30.45100 46.98200 23.40700
C  31.69100 45.96900 25.04500
N  26.00000 50.02900 24.33600
C  26.93000 49.42900 23.56900
C  26.70400 49.66000 22.03500
C  25.18300 50.35400 22.09100
C  25.12200 50.77100 23.57400
C  27.79200 50.58400 21.39200
C  23.95100 49.46900 21.60200
C  23.43900 49.81800 20.19200
N  24.48000 51.02800 26.54600
C  23.74400 51.60500 25.51600
C  22.65600 52.30000 26.00500
C  22.74500 52.10700 27.40300
C  23.94500 51.38400 27.71000
C  21.60000 53.18400 25.29400
C  22.18100 52.39700 28.66800
O  21.19800 53.12100 28.91000
C  23.01100 51.70700 29.82800
C  23.35400 52.77000 30.84100
O  24.11800 53.67500 30.60500
O  22.61200 52.54100 31.98700
C  23.15600 53.40400 33.08900
H  29.19500 48.33700 29.48100
H  28.43000 48.00500 23.23100
H  23.35000 52.06300 23.50500
H  25.73600 51.15600 31.58700
H  27.21700 48.62500 31.44900
H  28.56600 49.92200 32.70000
H  27.91400 51.35500 32.08900
H  29.15400 50.68300 31.19100
H  25.01100 48.18800 31.89800
H  23.77900 49.22000 31.14800
H  23.37400 48.91500 33.66300
H  23.44700 50.63300 33.15800
H  30.80700 45.71800 27.74300
H  30.60200 46.97300 29.01100
H  31.59800 47.31200 27.56700
H  32.27200 46.61600 25.70300
H  32.23500 45.60700 24.17300
H  31.38100 45.04200 25.52700
H  26.72800 48.63700 21.65900
H  25.30500 51.27800 21.52700
H  27.37100 51.36500 20.75900
H  28.38200 50.00900 20.67800
H  28.37300 51.04200 22.19200
H  23.14000 49.67600 22.29900
H  24.19500 48.40700 21.56000
H  23.43600 48.90400 19.59900
H  24.17500 50.48600 19.74500
H  22.42400 50.18900 20.33200
H  21.10900 52.71100 24.44300
H  22.04300 54.13200 24.99000
H  20.77700 53.39400 25.97700
H  22.44800 50.87000 30.24100
H  24.21400 53.22800 33.28500
H  22.63500 53.41400 34.04600
H  23.02600 54.44800 32.80400

