158

Mg 47.15200 16.28600 28.58000
C  45.12600 15.78600 31.30500
C  49.32600 17.99100 30.57700
C  49.21700 16.63800 25.87300
C  44.70200 15.03500 26.42400
N  47.12500 16.81200 30.69600
C  46.30700 16.45500 31.71800
C  46.77200 16.89300 33.08700
C  47.98700 17.77100 32.70400
C  48.09300 17.60200 31.14200
C  47.86700 19.28100 33.13700
C  47.23600 15.63600 33.93900
C  47.07100 15.81100 35.48700
H  46.72100 17.16900 36.04500
N  48.97000 17.19800 28.22900
C  49.73500 17.85700 29.18000
C  50.99500 18.25400 28.64800
C  51.05800 17.78100 27.32800
C  49.74100 17.13700 27.08800
C  52.05600 19.05800 29.50300
C  52.12300 17.84300 26.38300
O  52.00300 17.50500 25.22800
C  53.45800 18.49200 26.70600
N  46.99200 15.94000 26.33000
C  47.98900 16.11500 25.47200
C  47.48700 15.98900 23.99200
C  46.12400 15.35800 24.17800
C  45.92200 15.42700 25.72000
C  47.44700 17.30200 23.20600
C  45.96100 13.94400 23.49500
C  46.06400 12.72800 24.38100
N  45.35000 15.49800 28.76500
C  44.40900 15.04500 27.81900
C  43.20300 14.60000 28.56800
C  43.49800 14.81400 29.90900
C  44.77600 15.40000 30.01900
C  41.91800 14.10000 28.02600
C  42.99700 14.72100 31.26700
O  41.89500 14.30100 31.70200
C  43.99600 15.45100 32.22000
C  43.32900 16.60400 32.88300
O  42.97800 17.63600 32.36900
O  43.02100 16.24500 34.18600
C  42.59800 17.39300 35.08400
H  50.01900 18.46100 31.27800
H  49.77000 16.94500 24.98300
H  43.92600 14.62700 25.77300
H  45.98600 17.46900 33.57600
H  48.89600 17.51400 33.24800
H  46.93900 19.42300 33.69100
H  47.89000 19.85900 32.21300
H  48.72300 19.51500 33.77100
H  48.25900 15.40200 33.64700
H  46.54900 14.81400 33.73600
H  47.96000 15.46600 36.01500
H  46.26600 15.11500 35.72300
H  52.99200 18.51000 29.39300
H  51.92500 19.11400 30.58400
H  52.02200 20.09600 29.17200
H  53.45300 19.51000 27.09500
H  53.94400 18.69900 25.75300
H  54.06400 17.89800 27.39000
H  48.04400 15.27200 23.38900
H  45.42800 16.00000 23.63700
H  47.69300 18.08300 23.92600
H  46.46000 17.64900 22.90000
H  48.02400 17.37100 22.28300
H  46.72900 13.87700 22.72500
H  45.00700 13.92100 22.96900
H  46.94800 12.18000 24.05600
H  45.24500 12.01800 24.26400
H  46.14600 13.04600 25.42000
H  42.02700 13.86300 26.96800
H  41.03300 14.72100 28.16000
H  41.74200 13.11800 28.46700
H  44.26500 14.77800 33.03400
H  41.54600 17.37500 35.36900
H  43.07300 18.35200 34.87700
H  43.07200 17.16800 36.03900
Mg 36.03000 48.80100 24.71900
C  36.39400 47.06500 27.67000
C  34.91200 51.53200 26.56000
C  35.50400 50.60600 21.85100
C  37.20300 46.07100 22.93400
N  35.82000 49.26200 26.93800
C  35.83500 48.30400 27.92900
C  35.49900 48.91100 29.27400
C  34.78500 50.28200 28.89800
C  35.13300 50.36600 27.34400
C  33.31000 50.36200 29.25700
C  36.82800 49.15800 30.03200
C  36.75300 48.78200 31.50200
H  35.37500 48.81900 32.18400
N  35.29500 50.74500 24.28400
C  34.97800 51.72600 25.20300
C  34.55300 52.89000 24.45900
C  34.74400 52.69200 23.05500
C  35.21300 51.27400 22.98400
C  33.97700 54.14600 25.15400
C  34.38600 53.56100 21.83100
O  34.42000 53.16800 20.65400
C  33.93700 54.97200 22.06800
N  36.11300 48.36300 22.73000
C  35.86700 49.18600 21.69500
C  36.26300 48.55400 20.33900
C  37.01000 47.28200 20.78800
C  36.79100 47.26700 22.28600
C  34.99200 48.35000 19.45700
C  38.46300 47.14800 20.33200
C  39.46900 47.94000 21.20500
N  36.62200 46.90000 25.12600
C  37.10400 45.90200 24.32600
C  37.49500 44.82200 25.18900
C  37.31700 45.18000 26.52600
C  36.76900 46.51600 26.44900
C  38.13100 43.53200 24.78000
C  37.43400 44.78700 27.89400
O  37.77600 43.74300 28.45300
C  36.88500 46.03900 28.66100
C  35.84300 45.52800 29.50800
O  34.72200 45.16700 29.03000
O  36.25700 45.30500 30.77100
C  35.27300 44.59700 31.55700
H  34.55200 52.37800 27.15000
H  35.42500 51.03700 20.85000
H  37.60400 45.20800 22.39900
H  34.77000 48.24700 29.73900
H  35.37200 51.09800 29.32000
H  33.08700 51.28800 29.78700
H  32.86600 49.60100 29.89800
H  32.72800 50.30700 28.33700
H  37.27400 50.14100 29.88700
H  37.54900 48.49200 29.55700
H  37.18000 49.64500 32.01300
H  37.20100 47.83300 31.79600
H  33.38000 53.84300 26.01400
H  33.34000 54.69600 24.46200
H  34.75800 54.79900 25.54200
H  32.93300 55.02300 22.48900
H  33.87000 55.51900 21.12800
H  34.63600 55.48800 22.72600
H  36.95800 49.25500 19.87700
H  36.39400 46.53400 20.28800
H  34.39900 47.49700 19.78700
H  35.16200 48.20500 18.39000
H  34.40200 49.26100 19.55800
H  38.62600 47.57300 19.34200
H  38.61900 46.07000 20.32900
H  40.44000 47.46000 21.32800
H  39.05000 48.07600 22.20200
H  39.61000 48.88700 20.68400
H  37.22300 42.93700 24.68100
H  38.84000 43.12700 25.50200
H  38.67000 43.69700 23.84600
H  37.76900 46.34800 29.21800
H  35.72400 43.98100 32.33600
H  34.71600 43.89400 30.93900
H  34.61400 45.35200 31.98700

