158

Mg 35.75300 49.97200 25.62800
C  35.76600 47.89600 28.50900
C  34.22100 52.30100 27.40700
C  35.78100 51.70600 22.83700
C  37.21000 47.23300 23.87000
N  35.13500 50.04200 27.77500
C  35.23000 49.11800 28.77600
C  34.91200 49.78600 30.14700
C  34.30300 51.17400 29.72100
C  34.60200 51.21000 28.16700
C  32.84900 51.52100 30.13900
C  36.15700 49.85700 31.15700
C  35.92300 49.31600 32.55700
H  34.43800 49.44700 33.08500
N  34.98500 51.66600 25.16000
C  34.37500 52.53600 26.02900
C  33.90600 53.69900 25.31100
C  34.27100 53.51500 23.96200
C  35.07700 52.29300 23.93000
C  33.09900 54.71700 25.95300
C  33.93800 54.31200 22.72600
O  34.39300 54.10100 21.63400
C  32.88500 55.35400 22.81400
N  36.40500 49.52100 23.63100
C  36.34200 50.42700 22.66100
C  36.54600 49.82500 21.24800
C  37.47200 48.59100 21.76800
C  36.99200 48.42300 23.15500
C  35.27500 49.46300 20.44400
C  38.99100 48.61300 21.34600
C  39.95600 49.04300 22.38000
N  36.34300 47.99900 26.04100
C  36.87700 47.00000 25.19900
C  36.99900 45.76800 25.94700
C  36.60000 46.13600 27.26000
C  36.17300 47.42600 27.23800
C  37.37600 44.43200 25.47400
C  36.43800 45.55800 28.54400
O  36.73800 44.42000 28.97000
C  35.86900 46.74200 29.45500
C  34.58400 46.29700 30.05800
O  33.49400 46.17300 29.55300
O  34.84900 45.88000 31.41200
C  33.63800 45.65300 32.18300
H  33.77600 53.17100 27.89500
H  35.78700 52.17800 21.85300
H  37.79300 46.52200 23.28100
H  34.13200 49.20200 30.63600
H  34.91600 51.87800 30.28300
H  32.13000 51.60900 29.32400
H  32.84200 52.40400 30.77800
H  32.47100 50.67500 30.71200
H  36.40000 50.91300 31.27400
H  37.03400 49.45000 30.65500
H  36.57200 49.85100 33.24900
H  36.36300 48.32000 32.59600
H  32.05200 54.66100 25.65500
H  33.31700 55.73000 25.61300
H  33.17400 54.77200 27.03900
H  33.21500 56.19300 23.42700
H  32.03600 54.93800 23.35700
H  32.62800 55.68000 21.80600
H  37.05900 50.60200 20.68100
H  37.14100 47.62400 21.38800
H  34.32800 49.71300 20.92300
H  35.28400 48.38300 20.30100
H  35.25800 50.04900 19.52500
H  39.12000 49.23200 20.45800
H  39.34300 47.61400 21.08900
H  40.62500 49.81200 21.99300
H  40.57800 48.24100 22.77700
H  39.46900 49.47500 23.25500
H  37.31600 44.54100 24.39100
H  36.66100 43.71400 25.87700
H  38.36000 44.27800 25.91800
H  36.61000 46.95300 30.22600
H  32.73800 46.21700 31.93800
H  33.84000 45.78200 33.24600
H  33.43100 44.58200 32.18100
Mg -0.35700 43.10900 25.77000
C  2.22300 42.52500 28.27000
C  -2.63800 41.96000 28.11000
C  -2.66500 43.45800 23.41300
C  2.25000 43.66200 23.51700
N  -0.15100 42.34400 27.93400
C  0.94400 42.29200 28.74600
C  0.58000 41.95200 30.20500
C  -0.89200 41.47900 29.97500
C  -1.27300 41.91400 28.55600
C  -1.23500 39.93600 30.16200
C  0.77100 43.14700 31.17300
C  1.18700 42.72300 32.59100
H  0.57600 41.44500 33.13900
N  -2.42000 42.85200 25.80400
C  -3.23000 42.35700 26.84700
C  -4.62600 42.60700 26.49800
C  -4.65100 43.00600 25.11300
C  -3.20900 43.12100 24.68400
C  -5.73200 42.56600 27.55200
C  -5.79400 43.43400 24.29800
O  -5.63000 43.86700 23.17400
C  -7.18900 43.36300 24.79800
N  -0.22900 43.53000 23.83800
C  -1.30100 43.50000 22.99300
C  -0.93100 43.97400 21.52100
C  0.59100 44.36800 21.71700
C  0.90500 43.86700 23.09000
C  -1.33400 42.99800 20.39100
C  1.06800 45.83500 21.53500
C  2.30800 46.09200 20.63500
N  1.78900 43.24000 25.83100
C  2.67100 43.44900 24.81700
C  4.09800 43.44500 25.32300
C  3.92400 43.10700 26.69900
C  2.57800 42.90800 26.94500
C  5.33100 43.64300 24.64100
C  4.57400 42.92000 27.91700
O  5.78900 42.92600 28.22400
C  3.50600 42.55000 28.97700
C  3.84000 41.36400 29.77200
O  3.77000 40.18700 29.40500
O  4.37800 41.69300 31.00300
C  4.58900 40.57400 31.92900
H  -3.31400 41.56200 28.87000
H  -3.42000 43.63300 22.64300
H  3.01100 43.83900 22.75400
H  1.22100 41.12900 30.51900
H  -1.57000 41.95600 30.68300
H  -0.35100 39.40300 30.51500
H  -1.40200 39.57100 29.14900
H  -2.05100 39.74000 30.85700
H  -0.23700 43.53200 31.32500
H  1.38200 43.95600 30.77100
H  0.95400 43.58000 33.22300
H  2.25700 42.54200 32.48200
H  -6.70800 42.20200 27.23000
H  -5.91000 43.54600 27.99500
H  -5.48900 41.85600 28.34200
H  -7.43500 43.62600 25.82700
H  -7.52300 42.33500 24.65600
H  -7.86200 43.85400 24.09500
H  -1.45900 44.90800 21.32700
H  1.15800 43.82700 20.95900
H  -2.14100 42.30800 20.63600
H  -0.51700 42.28600 20.27400
H  -1.68800 43.46100 19.47000
H  1.24400 46.22600 22.53700
H  0.21300 46.43900 21.23300
H  3.19700 45.79000 21.18900
H  2.43200 47.11800 20.28800
H  2.19200 45.37800 19.82000
H  5.33200 44.39500 23.85100
H  5.57500 42.66600 24.22400
H  6.10100 43.89100 25.37200
H  3.46100 43.32100 29.74600
H  5.18100 39.77500 31.48500
H  3.57800 40.38000 32.28800
H  5.05200 40.92400 32.85300

