158

Mg 46.44600 23.94700 28.19700
C  47.05400 26.12100 30.78100
C  45.86300 21.40300 30.42900
C  46.25300 21.88800 25.56400
C  47.19800 26.61900 26.03800
N  46.47000 23.78800 30.26700
C  46.69500 24.84000 31.21300
C  46.46700 24.33700 32.64300
C  46.32800 22.76000 32.44900
C  46.13800 22.65600 30.96700
C  47.64600 22.00000 32.86000
C  45.22900 25.03100 33.26700
C  45.61700 25.68700 34.68400
H  44.49700 25.89400 35.76700
N  46.08300 21.93600 28.02200
C  45.82100 21.04300 29.04000
C  45.44300 19.78900 28.47500
C  45.51500 19.90500 27.02500
C  45.95600 21.28300 26.82600
C  45.21300 18.58700 29.38400
C  45.27400 18.86700 25.98600
O  45.35800 19.20100 24.78200
C  45.02000 17.43300 26.32900
N  46.62200 24.19500 26.13900
C  46.48400 23.27000 25.27500
C  46.62000 23.72700 23.80300
C  46.47900 25.27400 23.97000
C  46.76400 25.38200 25.44800
C  47.93700 23.27000 23.11700
C  45.18100 25.91000 23.48700
C  43.99800 25.74800 24.34800
N  47.01500 25.97600 28.30900
C  47.38200 26.93000 27.39200
C  47.90800 28.11700 27.94200
C  47.80300 27.83200 29.31400
C  47.24500 26.54200 29.46900
C  48.40700 29.39300 27.25800
C  48.14500 28.40300 30.60400
O  48.65900 29.49500 30.89500
C  47.56300 27.30500 31.62100
C  48.65300 26.98100 32.63900
O  49.50500 26.09500 32.46700
O  48.47000 27.75100 33.77200
C  49.60100 27.52800 34.76000
H  45.79400 20.64100 31.20800
H  46.31400 21.23800 24.68900
H  47.44600 27.46100 25.38900
H  47.38000 24.57700 33.18700
H  45.45300 22.38300 32.97800
H  48.55200 22.59800 32.76500
H  47.76200 21.06200 32.31700
H  47.66600 21.67000 33.89800
H  44.41800 24.35200 33.52700
H  44.98000 25.75400 32.49000
H  46.09300 26.60800 34.34800
H  46.51600 25.23600 35.10400
H  44.23400 18.12500 29.25500
H  45.22800 18.73900 30.46300
H  45.97800 17.84200 29.16300
H  45.94100 16.95000 26.65500
H  44.87300 17.04000 25.32300
H  44.14600 17.27600 26.96000
H  45.79100 23.33800 23.21200
H  47.34900 25.71200 23.48200
H  48.77100 23.93200 23.34800
H  47.83200 23.01800 22.06200
H  48.35800 22.41900 23.65300
H  45.18800 25.53100 22.46500
H  45.55600 26.93200 23.43400
H  44.01800 26.59400 25.03500
H  44.06700 24.81200 24.90200
H  43.17000 25.82500 23.64400
H  48.35400 30.32600 27.81700
H  47.94400 29.58100 26.28900
H  49.41000 29.15300 26.90400
H  46.68500 27.69300 32.13700
H  49.72600 26.48100 35.03600
H  49.28100 27.98300 35.69700
H  50.53900 27.94100 34.38800
Mg -0.04300 44.00600 25.79800
C  2.09900 43.79800 28.64400
C  -2.53900 42.90900 27.85500
C  -2.04800 43.71100 23.07800
C  2.65500 44.88500 23.84600
N  -0.22000 43.57900 28.08500
C  0.74600 43.52500 29.01400
C  0.19300 43.29400 30.35700
C  -1.27600 42.79900 30.07400
C  -1.38900 43.20900 28.59200
C  -1.61500 41.37200 30.51200
C  0.30500 44.61300 31.21900
C  0.78200 44.38200 32.70200
H  0.42500 43.07400 33.33500
N  -1.94000 43.29400 25.50200
C  -2.85100 42.87400 26.51100
C  -4.11500 42.44400 25.94900
C  -4.00200 42.65100 24.54800
C  -2.55500 43.13300 24.28700
C  -5.33000 42.17300 26.78500
C  -5.09000 42.44400 23.45500
O  -4.98000 42.77200 22.32800
C  -6.34800 41.86800 23.81200
N  0.35100 44.14800 23.79000
C  -0.76200 44.22000 22.87500
C  -0.39900 45.13800 21.65000
C  1.14000 45.50900 21.95800
C  1.43300 44.85900 23.26400
C  -0.62400 44.57800 20.23000
C  1.36000 47.02400 22.02700
C  1.59400 47.69300 20.65000
N  2.00900 44.26300 26.09300
C  3.02000 44.51000 25.18300
C  4.29200 44.52300 25.75800
C  3.99200 44.30200 27.16800
C  2.59600 44.09900 27.31400
C  5.54800 44.98200 25.00900
C  4.56600 44.13300 28.48000
O  5.76200 44.13300 28.78600
C  3.38500 43.79000 29.44600
C  3.67200 42.49800 30.07800
O  3.32000 41.42100 29.63000
O  4.33200 42.69400 31.23000
C  4.63200 41.49300 32.01200
H  -3.40000 42.65600 28.47700
H  -2.69700 43.79600 22.20400
H  3.47600 45.36700 23.31200
H  0.72900 42.50800 30.88800
H  -2.05300 43.36000 30.59400
H  -1.76500 40.69700 29.67000
H  -2.40800 41.31600 31.25900
H  -0.73100 40.98600 31.01900
H  -0.62100 45.18700 31.25100
H  1.08500 45.26100 30.81800
H  0.40800 45.22000 33.29000
H  1.85300 44.58100 32.67400
H  -6.10700 42.91100 26.58800
H  -5.21200 41.90100 27.83400
H  -5.67100 41.22400 26.37000
H  -6.94500 42.55600 24.41000
H  -6.14200 40.89700 24.26200
H  -7.04400 41.79900 22.97700
H  -1.01100 46.03800 21.70000
H  1.83800 45.03800 21.26600
H  -1.63500 44.77000 19.86800
H  -0.50500 43.50200 20.35300
H  0.12200 44.95400 19.53000
H  2.25400 47.29300 22.59000
H  0.50000 47.45400 22.54000
H  0.95200 48.57000 20.57200
H  1.36700 46.94300 19.89200
H  2.65000 47.96200 20.65800
H  5.49400 45.98700 24.59000
H  5.88100 44.15600 24.38100
H  6.29400 45.13600 25.78800
H  3.38600 44.51700 30.25800
H  3.67000 40.98200 32.06400
H  4.88800 41.68900 33.05300
H  5.37900 40.85900 31.53500

