158

Mg 47.21700 24.54500 28.58600
C  47.81000 26.76400 31.33300
C  46.53400 22.11500 30.76500
C  46.68800 22.56500 25.92800
C  48.50800 27.02700 26.43600
N  47.33700 24.42500 30.82200
C  47.51800 25.43700 31.74200
C  47.29000 24.95800 33.18600
C  46.66900 23.53300 32.92700
C  46.85400 23.33100 31.42600
C  47.24100 22.39800 33.80600
C  46.40000 25.92700 34.01000
C  45.41800 25.51300 35.11900
H  45.51800 26.36500 36.46300
N  46.66500 22.60600 28.38300
C  46.36600 21.69300 29.41300
C  45.88900 20.41800 28.90600
C  46.03900 20.52700 27.46600
C  46.47400 21.98400 27.20200
C  45.39200 19.31400 29.85400
C  45.85500 19.50700 26.41700
O  45.68800 19.74500 25.21700
C  45.58000 18.09800 26.84600
N  47.65100 24.73300 26.47900
C  47.27500 23.78000 25.54100
C  47.63700 24.14500 24.14100
C  47.88600 25.64400 24.34400
C  48.13100 25.83000 25.84200
C  48.80900 23.39400 23.56400
C  46.76400 26.60600 23.90600
C  45.29700 26.23600 24.36400
N  47.95200 26.48100 28.76300
C  48.41800 27.36900 27.82100
C  48.98200 28.55700 28.47900
C  48.64900 28.39400 29.83100
C  48.07200 27.11200 29.95300
C  49.62000 29.80300 27.83300
C  48.59700 29.01400 31.05100
O  48.95600 30.13500 31.41100
C  48.08000 28.04800 32.08100
C  48.87600 27.96900 33.28500
O  49.86600 27.28500 33.50500
O  48.34700 28.90300 34.18100
C  48.90400 28.88400 35.48500
H  46.30100 21.25700 31.40000
H  46.60300 21.82900 25.12600
H  48.94600 27.79000 25.78900
H  48.21300 24.85400 33.75600
H  45.59900 23.69600 33.05200
H  46.47900 21.75700 34.25000
H  47.84300 22.87200 34.58200
H  47.80500 21.70100 33.18500
H  45.82200 26.54000 33.31800
H  47.09600 26.51800 34.60500
H  45.35300 24.44800 35.34300
H  44.45400 25.75500 34.67200
H  44.42200 18.99500 29.47200
H  45.38400 19.57500 30.91200
H  46.08700 18.47500 29.83100
H  46.23600 17.82300 27.67200
H  45.71600 17.26800 26.15300
H  44.52400 18.09900 27.11600
H  46.75500 23.92600 23.53900
H  48.69800 26.01200 23.71800
H  49.74700 23.94800 23.56400
H  48.67800 23.02300 22.54800
H  48.91500 22.49300 24.16800
H  46.70300 26.59800 22.81800
H  46.92200 27.64700 24.19100
H  44.83800 25.78300 23.48500
H  44.81600 27.17500 24.63500
H  45.33900 25.61000 25.25500
H  48.96900 30.62300 27.53000
H  50.20600 29.52300 26.95700
H  50.32500 30.26600 28.52400
H  47.10200 28.38800 32.42100
H  48.59300 28.11400 36.19100
H  48.67200 29.84000 35.95300
H  49.99300 28.83900 35.49800
Mg -0.02900 43.74500 26.19000
C  2.52300 43.20700 28.72900
C  -2.34900 42.52600 28.44300
C  -2.27800 43.75800 23.65300
C  2.52800 44.19500 23.93600
N  0.06400 43.14000 28.39900
C  1.17500 43.19400 29.21100
C  0.70200 43.00000 30.70200
C  -0.78100 42.55500 30.51600
C  -1.07800 42.89900 29.05400
C  -0.96000 41.05300 30.94300
C  1.02100 44.30500 31.54200
C  1.76400 43.98300 32.88700
H  1.41100 42.63600 33.55500
N  -1.99200 43.34200 26.14500
C  -2.78900 42.78700 27.14200
C  -4.10400 42.56000 26.58500
C  -4.11500 42.91000 25.22600
C  -2.74600 43.37200 24.96200
C  -5.21100 41.87800 27.38500
C  -5.24800 42.94500 24.20800
O  -5.22900 43.17900 23.00000
C  -6.64400 42.79900 24.78600
N  0.08000 44.17900 24.09900
C  -0.97800 44.15800 23.28200
C  -0.54000 44.48900 21.79200
C  0.94000 44.68600 21.96100
C  1.27200 44.35400 23.41800
C  -0.88800 43.28400 20.83500
C  1.48600 46.06500 21.64500
C  0.82000 47.21800 22.33000
N  2.06800 43.81000 26.28600
C  2.94800 44.00200 25.26900
C  4.30600 43.83100 25.72100
C  4.16600 43.64100 27.08800
C  2.83100 43.48400 27.35300
C  5.68000 44.09900 25.07300
C  4.90300 43.33800 28.30600
O  6.10300 43.34700 28.50500
C  3.86700 43.17600 29.43800
C  4.17400 41.94800 30.24700
O  3.84500 40.77400 29.91200
O  5.01500 42.19000 31.31800
C  5.25800 41.00300 32.18900
H  -3.10000 42.27900 29.19600
H  -3.01000 43.60300 22.85700
H  3.43500 44.44700 23.38300
H  1.36800 42.27900 31.17700
H  -1.40000 43.17200 31.16800
H  -0.09700 40.59500 31.42600
H  -1.35400 40.34600 30.21200
H  -1.76200 41.04200 31.68000
H  0.06700 44.82600 31.61400
H  1.61800 45.00900 30.96200
H  1.60900 44.81200 33.57800
H  2.78000 43.95600 32.49400
H  -5.91900 42.65700 27.67000
H  -4.78300 41.36200 28.24400
H  -5.62400 41.12100 26.71800
H  -7.44800 43.14000 24.13300
H  -6.56500 43.38300 25.70300
H  -6.88000 41.76000 25.01400
H  -1.10300 45.33700 21.40100
H  1.49700 44.05700 21.26700
H  -1.82200 43.45400 20.29900
H  -0.95100 42.34800 21.38800
H  -0.07300 43.36000 20.11500
H  1.49500 46.11000 20.55600
H  2.48900 46.13800 22.06600
H  1.51000 47.68400 23.03300
H  -0.13500 46.85800 22.71400
H  0.55800 48.03100 21.65300
H  5.85900 43.20400 24.47800
H  6.38400 44.14600 25.90400
H  5.56500 45.08200 24.61700
H  3.90700 44.04000 30.10100
H  6.29700 40.72800 32.00800
H  4.61000 40.13200 32.09900
H  5.18000 41.28400 33.23900

