158

Mg 30.23500 58.75100 39.15400
C  27.29000 56.96800 38.36500
C  32.03000 56.08300 38.13000
C  33.02200 60.69600 39.26800
C  28.19900 61.62300 39.52700
N  29.69100 56.80500 38.18200
C  28.44100 56.23500 38.17800
C  28.57900 54.71500 37.99500
C  30.11000 54.45600 38.26100
C  30.67900 55.86700 38.08000
C  30.50500 53.74800 39.64100
C  28.04400 54.27300 36.58900
C  28.73900 55.03300 35.40700
H  27.76200 55.39000 34.21600
N  32.31600 58.38800 38.77900
C  32.82700 57.19100 38.32000
C  34.31100 57.38500 38.27800
C  34.63800 58.67200 38.65700
C  33.30500 59.35500 38.90000
C  35.11400 56.20200 37.78200
C  36.00400 59.26900 38.74700
O  36.97000 58.60700 38.44400
C  36.25900 60.59800 39.33400
N  30.59200 60.84800 39.28300
C  31.83800 61.33400 39.44300
C  31.74400 62.78100 39.80300
C  30.20900 63.10800 39.87200
C  29.61700 61.76900 39.50300
C  32.39400 63.30600 41.16900
C  29.68900 64.31800 39.01500
C  29.13400 65.54400 39.77800
N  28.11800 59.23100 39.18500
C  27.47900 60.43300 39.28200
C  26.07300 60.23600 39.29900
C  25.93400 58.84700 38.89000
C  27.21200 58.29700 38.79200
C  25.05900 61.41300 39.47500
C  24.91700 57.85300 38.60700
O  23.70700 57.90200 38.60200
C  25.80900 56.53800 38.30500
C  25.37600 55.45200 39.21100
O  25.71600 55.44400 40.41500
O  24.56800 54.53600 38.59600
C  24.22200 53.40200 39.41100
H  32.67900 55.20900 38.03900
H  33.91300 61.30700 39.42200
H  27.65000 62.53600 39.76900
H  27.99100 54.23500 38.77800
H  30.46500 53.80200 37.46500
H  29.59600 53.24900 39.97800
H  30.82200 54.49100 40.37300
H  31.18900 52.95500 39.33800
H  26.97200 54.46100 36.51400
H  28.35500 53.23400 36.48400
H  29.63500 54.45700 35.17800
H  29.27200 55.92900 35.72600
H  34.55400 55.61200 37.05700
H  35.36800 55.60200 38.65600
H  36.09200 56.51200 37.41400
H  35.73100 60.64600 40.28600
H  35.90100 61.37600 38.65900
H  37.34000 60.72300 39.39700
H  32.27800 63.35000 39.04200
H  29.93100 63.43700 40.87300
H  32.48500 64.38700 41.06200
H  33.41200 62.92700 41.08400
H  31.87100 63.06700 42.09400
H  28.80100 64.08100 38.42900
H  30.44500 64.64300 38.30000
H  29.70200 66.45000 39.56300
H  29.24600 65.37400 40.84900
H  28.12600 65.67100 39.38400
H  25.26000 62.20200 38.74900
H  25.14000 61.85400 40.46800
H  24.07700 60.94600 39.54900
H  25.49500 56.20500 37.31600
H  25.15600 52.84700 39.49700
H  23.44100 52.81100 38.93400
H  23.73900 53.76200 40.32000
Mg 6.76900 53.81200 41.06300
C  6.15500 50.33500 41.19200
C  10.00400 53.09800 40.37700
C  7.14000 57.09100 40.29100
C  3.32400 54.32000 41.38100
N  7.87900 51.89600 40.69500
C  7.46600 50.60900 40.87600
C  8.64500 49.71100 40.70300
C  9.87900 50.59600 40.63100
C  9.24200 52.00200 40.59500
C  10.77600 50.43900 41.85600
C  8.69300 48.65100 39.58900
C  8.70400 49.11300 38.12200
H  7.53300 48.69000 37.17600
N  8.37000 54.91900 40.39000
C  9.62100 54.47200 40.14500
C  10.43800 55.52800 39.60200
C  9.68300 56.77400 39.61700
C  8.33300 56.33700 40.16500
C  11.79000 55.21800 39.09600
C  10.17400 58.11600 39.17700
O  11.24000 58.30600 38.60500
C  9.36000 59.44700 39.38800
N  5.32400 55.47100 40.51400
C  5.79900 56.74800 40.51700
C  4.61800 57.70600 40.66100
C  3.35900 56.80300 40.59600
C  4.04900 55.46100 40.83700
C  4.74600 58.42900 42.06900
C  2.56600 56.92500 39.27500
C  1.11300 57.38600 39.39000
N  5.07200 52.67900 41.53700
C  3.75500 52.99600 41.66000
C  2.96500 51.73900 41.89800
C  3.96400 50.70800 41.81200
C  5.18500 51.30100 41.48400
C  1.56600 51.68100 42.03400
C  4.04900 49.29100 41.84900
O  3.20600 48.49300 42.17700
C  5.44900 48.95000 41.32000
C  5.30200 48.14900 40.15200
O  4.79100 48.59500 39.11000
O  5.64300 46.82700 40.55000
C  5.64100 45.89300 39.42300
H  11.07100 52.92200 40.22300
H  7.15600 58.18300 40.28900
H  2.24000 54.44700 41.40600
H  8.60500 49.17600 41.65200
H  10.48900 50.49500 39.73300
H  10.53200 51.20500 42.59300
H  11.80200 50.71700 41.61600
H  10.80200 49.41900 42.23900
H  7.93700 47.88800 39.77600
H  9.62600 48.10000 39.70300
H  9.66400 48.96600 37.62700
H  8.52200 50.18500 38.20200
H  11.71300 54.84200 38.07600
H  12.20000 54.43200 39.73100
H  12.44100 56.08100 39.23100
H  8.52800 59.53800 38.69000
H  9.99500 60.32900 39.30600
H  9.02500 59.54500 40.42100
H  4.68200 58.44400 39.86200
H  2.73300 57.06800 41.44800
H  5.78600 58.42400 42.39300
H  4.12300 58.13900 42.91500
H  4.50700 59.48900 41.98000
H  2.64400 56.04700 38.63300
H  3.03200 57.72900 38.70400
H  0.49200 56.95000 38.60800
H  1.10200 58.47500 39.42000
H  0.72200 57.01800 40.33900
H  1.42500 51.29600 43.04400
H  1.13900 50.92900 41.37000
H  1.00900 52.61700 42.04900
H  5.98500 48.37600 42.07700
H  6.61900 45.64300 39.01100
H  4.98300 46.20600 38.61300
H  5.31000 44.91500 39.77200

