158

Mg 48.33700 35.36700 28.27900
C  46.79200 33.51600 30.79700
C  48.58300 38.00900 30.50200
C  49.95400 37.18200 25.79500
C  47.73300 32.80400 26.12900
N  47.93000 35.63700 30.50000
C  47.33300 34.73000 31.29100
C  47.52100 35.15400 32.70600
C  47.51800 36.70900 32.50000
C  47.99000 36.82200 31.04700
C  46.13000 37.33900 32.65200
C  48.80400 34.67900 33.34700
C  48.76000 34.59800 34.81100
H  47.70300 35.47100 35.57500
N  49.07700 37.32600 28.14200
C  49.09900 38.22400 29.18800
C  49.72900 39.46700 28.73600
C  50.18300 39.28700 27.35300
C  49.79800 37.82700 27.04400
C  49.65100 40.64500 29.68000
C  50.91400 40.25900 26.40100
O  51.30800 39.93100 25.26500
C  51.38200 41.60000 26.90700
N  48.71500 35.05200 26.28000
C  49.37600 35.90700 25.47100
C  49.49200 35.39500 24.02200
C  48.98300 33.91700 24.26100
C  48.52100 33.85200 25.68400
C  48.64000 36.15200 22.94800
C  50.00400 32.85500 23.99200
C  49.87500 32.19100 22.55800
N  47.36300 33.52600 28.37900
C  47.14500 32.63100 27.39000
C  46.41700 31.46600 27.86100
C  46.25400 31.79500 29.25100
C  46.78000 33.02100 29.47900
C  46.02000 30.29500 27.09800
C  45.68800 31.33700 30.56800
O  45.15000 30.23800 30.89500
C  45.87800 32.51700 31.57700
C  46.43700 31.94000 32.77200
O  47.54500 31.45600 32.85900
O  45.51900 32.11900 33.76500
C  45.95800 31.83700 35.17800
H  48.60500 38.80300 31.25100
H  50.41700 37.63800 24.91700
H  47.57400 31.97700 25.43300
H  46.60400 34.79000 33.16800
H  48.21000 37.15400 33.21600
H  45.47000 36.82600 33.35100
H  45.71400 37.47800 31.65400
H  46.24200 38.35100 33.04100
H  49.58200 35.39300 33.07600
H  49.16200 33.79900 32.81100
H  49.80500 34.72200 35.09600
H  48.57500 33.53500 34.96600
H  50.59400 40.68500 30.22500
H  48.75200 40.75700 30.28700
H  49.67700 41.52700 29.04000
H  52.27300 41.89000 26.35100
H  51.64200 41.65000 27.96400
H  50.56800 42.30500 26.74000
H  50.54700 35.40700 23.74800
H  48.09200 33.85600 23.63500
H  48.72000 37.23300 23.05400
H  47.60200 35.83200 23.04200
H  49.04600 35.83000 21.98900
H  50.03000 32.09800 24.77700
H  50.96900 33.35500 23.91400
H  49.36400 32.92200 21.93200
H  49.24700 31.30400 22.64000
H  50.85100 31.96000 22.13100
H  45.44700 29.61500 27.72700
H  46.93700 29.83800 26.72600
H  45.42000 30.70400 26.28500
H  44.87300 32.92300 31.69500
H  46.43800 32.75800 35.51000
H  46.60500 30.96800 35.29900
H  45.08700 31.68800 35.81500
Mg -2.49100 34.48100 27.16800
C  -3.89000 32.40100 29.63100
C  -0.97300 36.19400 29.77000
C  -1.31300 36.49300 24.89800
C  -4.03300 32.52400 24.70800
N  -2.61700 34.43600 29.42300
C  -3.35900 33.57100 30.17200
C  -3.20000 33.86400 31.69900
C  -2.39600 35.18900 31.68300
C  -1.94800 35.30100 30.21000
C  -3.22200 36.52700 31.94800
C  -2.48400 32.65800 32.41300
C  -3.22400 32.24300 33.67800
H  -2.27700 32.22900 34.91500
N  -1.17000 36.03700 27.29400
C  -0.58500 36.59800 28.47400
C  0.33200 37.59200 28.16500
C  0.22800 37.74700 26.76800
C  -0.78200 36.76400 26.25100
C  1.24100 38.34700 29.21000
C  1.03500 38.62700 25.77900
O  0.78100 38.68400 24.56100
C  2.18000 39.38800 26.38000
N  -2.87500 34.66900 25.10800
C  -2.22500 35.61400 24.38700
C  -2.52200 35.56600 22.83300
C  -3.27700 34.18600 22.74200
C  -3.39500 33.73000 24.25000
C  -3.22100 36.80800 22.31800
C  -2.60800 33.18000 21.77000
C  -1.33600 32.51500 22.25500
N  -3.70800 32.80900 27.07400
C  -4.12500 32.00800 26.03600
C  -4.71300 30.78500 26.54500
C  -4.67600 30.92200 27.91900
C  -4.03700 32.14000 28.23300
C  -5.32200 29.76800 25.60600
C  -5.05300 30.27800 29.04500
O  -5.60100 29.21000 29.24900
C  -4.55400 31.23400 30.27100
C  -5.76400 31.66700 30.97800
O  -6.60500 32.40900 30.47200
O  -5.84900 31.10100 32.27100
C  -6.93300 31.47900 33.17800
H  -0.52500 36.79800 30.56100
H  -1.01300 37.22300 24.14300
H  -4.30500 31.90300 23.85200
H  -4.20800 34.11600 32.02700
H  -1.60500 34.98900 32.40700
H  -2.93800 37.36500 31.31200
H  -3.12900 36.75700 33.01000
H  -4.26400 36.28400 31.74400
H  -1.48400 32.91000 32.76500
H  -2.35500 31.82800 31.71900
H  -3.61600 31.23000 33.58200
H  -4.01400 32.92800 33.98400
H  2.32300 38.23200 29.15100
H  1.04700 38.10900 30.25600
H  1.10800 39.40700 28.99500
H  1.74400 40.24600 26.89100
H  2.86200 39.85700 25.67000
H  2.70200 38.64500 26.98200
H  -1.53600 35.55000 22.36900
H  -4.27000 34.33500 22.31800
H  -2.43100 37.23000 21.69700
H  -3.42600 37.41800 23.19900
H  -4.15200 36.56300 21.80700
H  -2.49100 33.67800 20.80700
H  -3.37600 32.40900 21.70900
H  -1.24400 31.44100 22.09000
H  -1.12100 32.68700 23.31000
H  -0.63500 33.16100 21.72700
H  -4.74600 29.40200 24.75600
H  -6.26600 30.26600 25.38200
H  -5.61900 28.87600 26.15700
H  -3.88100 30.59900 30.84900
H  -6.42300 31.76500 34.09700
H  -7.55100 30.59500 33.33400
H  -7.64400 32.23900 32.85400

