158

Mg 7.78300 52.61100 41.95500
C  7.16500 49.17100 41.48100
C  10.61800 52.26400 40.08200
C  7.91100 55.86300 41.68100
C  4.53100 52.73500 43.33700
N  8.73800 50.82500 40.89200
C  8.37800 49.58900 40.87700
C  9.51200 48.71500 40.23500
C  10.76600 49.66900 40.26800
C  10.05900 50.99600 40.42100
C  11.77600 49.44600 41.48400
C  9.05200 48.27000 38.74500
C  7.85900 49.02600 38.04400
H  7.25500 48.42300 36.81300
N  9.14100 53.92400 40.99300
C  10.27900 53.59300 40.28000
C  11.04300 54.81000 40.10000
C  10.27100 55.87400 40.53400
C  9.04000 55.23600 41.08400
C  12.49100 54.91900 39.56600
C  10.64200 57.37500 40.58400
O  11.66300 57.76700 40.06500
C  9.83900 58.39100 41.20600
N  6.39100 54.09200 42.53600
C  6.71400 55.40900 42.28100
C  5.57500 56.32500 42.72100
C  4.58900 55.33100 43.37200
C  5.21300 53.96800 43.11300
C  5.86000 57.54900 43.62700
C  3.08600 55.46700 43.03400
C  2.08600 55.69600 44.17000
N  6.15600 51.25300 42.40500
C  4.88300 51.45600 42.92100
C  4.39700 50.16700 43.33800
C  5.22400 49.20700 42.72800
C  6.21700 49.90200 42.10700
C  3.30100 49.86200 44.09200
C  5.44100 47.78200 42.48800
O  4.80400 46.85100 42.92700
C  6.69300 47.72300 41.56900
C  6.36900 46.96900 40.29500
O  5.31400 47.14300 39.67200
O  7.32000 46.04800 39.94100
C  6.96500 44.98100 38.97300
H  11.68000 52.20700 39.83400
H  7.91300 56.94900 41.56200
H  3.61500 52.89800 43.90900
H  9.62400 47.85500 40.89500
H  11.38400 49.60300 39.37200
H  11.40500 48.78600 42.26800
H  12.02900 50.39700 41.95300
H  12.68700 49.02600 41.05700
H  9.02900 47.19100 38.59100
H  9.81900 48.70300 38.10300
H  7.94500 50.11200 38.00100
H  7.10700 48.87600 38.81800
H  12.53900 55.77800 38.89700
H  12.75200 54.04100 38.97600
H  13.27000 55.02500 40.32100
H  9.68200 58.02400 42.22100
H  8.88200 58.44800 40.68700
H  10.34100 59.35800 41.23600
H  5.07900 56.69100 41.82200
H  4.64100 55.40000 44.45900
H  5.17700 57.76700 44.44800
H  6.03300 58.49600 43.11600
H  6.78200 57.34500 44.17200
H  2.72700 54.74900 42.29700
H  3.03500 56.43300 42.53200
H  2.71400 55.87700 45.04200
H  1.54100 54.80300 44.47600
H  1.43400 56.56500 44.08000
H  3.70100 49.57500 45.06400
H  2.64100 49.11900 43.64300
H  2.67800 50.74500 44.23500
H  7.51200 47.12500 41.97000
H  7.71000 44.86500 38.18600
H  6.05400 45.04000 38.37700
H  6.84100 44.05000 39.52600
Mg -0.97400 33.73500 26.94000
C  -2.89500 32.09200 29.10400
C  0.21700 35.82500 29.51800
C  0.82400 35.43200 24.68400
C  -2.75800 32.32200 24.21200
N  -1.43500 34.04300 28.99700
C  -2.09100 33.02600 29.73200
C  -1.99500 33.29600 31.23000
C  -1.46900 34.80200 31.15600
C  -0.82700 34.91700 29.80800
C  -2.58200 35.85400 31.36500
C  -1.10500 32.23800 31.98100
C  -0.76100 32.57000 33.40000
H  -1.24300 31.46200 34.45100
N  0.53900 35.19000 27.09300
C  0.86600 35.92100 28.22400
C  1.94000 36.79500 27.91300
C  2.01900 36.82000 26.53900
C  1.11300 35.77700 26.05500
C  2.55500 37.71400 28.95400
C  2.77000 37.74400 25.51500
O  2.40700 37.84800 24.33500
C  3.85000 38.62900 25.97000
N  -0.98600 34.00600 24.73400
C  -0.07700 34.64900 24.01600
C  -0.27100 34.43900 22.50400
C  -1.20800 33.14700 22.45400
C  -1.74600 33.18900 23.86500
C  -0.59000 35.72200 21.65900
C  -0.55100 31.78800 22.02700
C  0.55000 31.33400 22.93700
N  -2.53600 32.59600 26.67800
C  -3.12900 31.99600 25.56000
C  -4.05800 31.03700 25.97500
C  -4.04300 31.06100 27.38500
C  -3.10000 31.99200 27.72100
C  -4.85800 30.25400 25.10600
C  -4.62000 30.44700 28.56800
O  -5.43900 29.56900 28.70700
C  -3.80100 31.08900 29.77500
C  -4.80500 31.81200 30.55100
O  -5.37900 32.89400 30.14500
O  -5.04600 31.26400 31.75400
C  -6.03600 31.85500 32.65200
H  0.53500 36.49300 30.32100
H  1.52400 35.85100 23.95800
H  -3.18000 31.79800 23.35200
H  -2.99600 33.39400 31.65000
H  -0.74400 35.05600 31.93000
H  -2.76700 36.08500 32.41400
H  -3.50900 35.46600 30.94300
H  -2.22200 36.76300 30.88300
H  -0.17700 32.09400 31.42700
H  -1.63200 31.28600 31.92000
H  -1.15200 33.51700 33.77300
H  0.32800 32.62600 33.37300
H  2.58900 37.20700 29.91900
H  1.96400 38.63000 28.98100
H  3.58600 37.81600 28.61600
H  4.51000 38.97300 25.17300
H  4.41200 38.25500 26.82500
H  3.20800 39.46900 26.23600
H  0.69500 34.14100 22.09800
H  -1.96400 33.38700 21.70600
H  -1.17400 35.45600 20.77900
H  0.35700 36.03200 21.21700
H  -1.14700 36.36400 22.34200
H  -0.04000 31.97100 21.08200
H  -1.33900 31.05000 21.87500
H  0.55200 31.82500 23.91000
H  1.53200 31.52400 22.50300
H  0.53600 30.25400 23.08500
H  -4.89900 29.25200 25.53300
H  -4.38200 30.14400 24.13200
H  -5.88700 30.58000 24.95200
H  -3.32900 30.26800 30.31500
H  -5.63200 32.59800 33.33900
H  -6.56900 31.07500 33.19400
H  -6.76200 32.50100 32.15700

