158

Mg 16.68400 52.05200 26.26400
C  18.81000 50.35600 28.50400
C  14.38800 52.29200 28.68700
C  14.69600 53.57100 24.07700
C  19.03200 51.45700 23.76500
N  16.67300 51.41300 28.36600
C  17.67200 50.81900 29.16000
C  17.15700 50.56500 30.58200
C  15.63700 50.95900 30.51400
C  15.47300 51.54200 29.08900
C  14.61400 49.93400 31.02000
C  17.98700 51.17900 31.77500
C  17.95100 50.49000 33.11600
H  17.27600 51.32300 34.21000
N  14.79800 52.92900 26.38300
C  14.04000 52.94900 27.48400
C  12.89100 53.75400 27.17700
C  12.85800 54.06400 25.81400
C  14.17100 53.54700 25.39100
C  11.84800 54.15600 28.25900
C  11.84800 54.77100 24.99400
O  12.05400 54.94800 23.77700
C  10.46500 55.22300 25.50800
N  16.87500 52.34900 24.14100
C  15.89400 53.07800 23.49200
C  16.21100 53.13100 21.99400
C  17.68500 52.44500 21.92600
C  17.92500 52.11800 23.35700
C  15.23800 52.38700 21.07200
C  18.77900 53.34600 21.26700
C  19.17900 54.58300 21.95200
N  18.52100 51.04600 26.09700
C  19.34500 50.84400 24.99200
C  20.53400 50.10300 25.31400
C  20.34900 49.96500 26.72500
C  19.14400 50.50800 27.12600
C  21.66200 49.73700 24.44500
C  20.96800 49.34300 27.87100
O  21.98500 48.69800 27.98000
C  20.08800 49.81700 29.13900
C  19.74600 48.59700 29.96200
O  19.12100 47.62600 29.64700
O  20.34600 48.74300 31.17000
C  20.04000 47.74200 32.21800
H  13.75300 52.37100 29.57100
H  14.10200 54.17900 23.39200
H  19.86200 51.28600 23.07600
H  17.17400 49.48100 30.70300
H  15.42100 51.75800 31.22300
H  14.08100 50.27800 31.90700
H  15.21000 49.10300 31.39900
H  13.94300 49.44800 30.31100
H  17.54200 52.16100 31.93600
H  19.04200 51.23900 31.50800
H  18.93200 50.21100 33.50100
H  17.33900 49.58900 33.11800
H  12.26800 53.98500 29.25100
H  10.81500 53.80800 28.26800
H  11.83100 55.24600 28.27600
H  10.06600 54.35200 26.02800
H  9.83400 55.51100 24.66700
H  10.50800 56.00700 26.26400
H  16.16600 54.19000 21.74200
H  17.71400 51.49500 21.39100
H  14.54700 53.11700 20.65000
H  14.80400 51.64300 21.74000
H  15.77700 51.98400 20.21500
H  18.45100 53.61600 20.26300
H  19.69800 52.78000 21.11500
H  19.90700 54.43000 22.74900
H  18.45600 55.18800 22.49800
H  19.74800 55.17400 21.23500
H  21.40900 48.79600 23.95700
H  22.52400 49.53700 25.08100
H  21.83300 50.49000 23.67600
H  20.44300 50.62900 29.77300
H  20.66200 46.85000 32.15300
H  19.04100 47.30600 32.21000
H  20.09400 48.25200 33.18000
Mg -1.71500 34.08300 27.05100
C  -3.57900 32.28200 29.35600
C  -0.24600 35.86100 29.67300
C  -0.24500 36.21400 24.78200
C  -3.35900 32.61000 24.44200
N  -1.99700 34.24400 29.17300
C  -2.73000 33.25400 29.90100
C  -2.50400 33.41200 31.38600
C  -1.57400 34.65200 31.43000
C  -1.24600 34.92000 30.01300
C  -2.26600 35.81200 32.13000
C  -1.89300 32.06800 31.84400
C  -2.59900 31.41200 32.99000
H  -2.04200 31.41600 34.45600
N  -0.23300 35.70500 27.20000
C  0.27600 36.19400 28.39400
C  1.32300 37.13300 28.04500
C  1.25300 37.31200 26.58700
C  0.18900 36.44400 26.14800
C  2.21200 37.83000 29.14500
C  2.06600 38.29300 25.75100
O  1.86900 38.43600 24.57800
C  3.02100 39.11200 26.36200
N  -1.86300 34.46300 24.93200
C  -1.22700 35.40200 24.28700
C  -1.72100 35.56300 22.81100
C  -2.50400 34.25600 22.60000
C  -2.62300 33.74400 24.05500
C  -2.56400 36.83600 22.53500
C  -1.64500 33.22600 21.78000
C  -2.44000 32.65100 20.60000
N  -3.05500 32.65400 26.86000
C  -3.60800 32.10000 25.75200
C  -4.49400 31.02000 26.15200
C  -4.54800 31.13000 27.53900
C  -3.65500 32.09100 27.92800
C  -5.24400 30.14600 25.23500
C  -5.08200 30.47300 28.69000
O  -5.86800 29.51600 28.78000
C  -4.52000 31.25000 29.95800
C  -5.75700 31.81900 30.63400
O  -6.65800 32.36400 30.05600
O  -5.88200 31.39700 32.00800
C  -6.80900 32.14000 32.91500
H  0.17700 36.31700 30.57000
H  0.28900 36.88500 24.10600
H  -3.80100 32.20900 23.52800
H  -3.50900 33.56800 31.77900
H  -0.63100 34.61100 31.97500
H  -1.83100 36.74900 31.78200
H  -2.01300 35.67800 33.18100
H  -3.33500 35.74600 31.93000
H  -0.88700 32.21700 32.23600
H  -1.83300 31.28700 31.08600
H  -2.76900 30.37600 32.69600
H  -3.58000 31.87200 33.10700
H  2.00800 37.61700 30.19400
H  2.14200 38.91800 29.17200
H  3.26200 37.61000 28.95100
H  3.78900 38.53000 26.87100
H  2.39900 39.67300 27.05900
H  3.46500 39.86300 25.70700
H  -0.85400 35.66100 22.15800
H  -3.52800 34.35600 22.23900
H  -3.59700 36.63700 22.24800
H  -1.99100 37.30700 21.73600
H  -2.53400 37.49800 23.40000
H  -1.35800 32.37700 22.40100
H  -0.68500 33.67500 21.52800
H  -2.33900 33.30500 19.73400
H  -3.51600 32.60600 20.76800
H  -1.92100 31.70400 20.45500
H  -4.73100 29.71000 24.37800
H  -6.10700 30.67700 24.83400
H  -5.60000 29.21300 25.67200
H  -3.88200 30.58000 30.53400
H  -6.25000 32.79400 33.58500
H  -7.55900 31.55500 33.44700
H  -7.38700 32.91100 32.40500

