158

Mg -3.00500 17.02100 25.93200
C  -3.20200 14.59900 28.36600
C  -2.99500 19.40000 28.21200
C  -2.90400 19.19900 23.26300
C  -3.22100 14.30700 23.47800
N  -3.24500 16.99700 28.04900
C  -3.25300 15.87000 28.91500
C  -3.33700 16.39700 30.44600
C  -3.42000 17.94800 30.21300
C  -3.24800 18.15200 28.73100
C  -4.64100 18.64800 30.83600
C  -2.06700 15.97100 31.27800
C  -1.56100 16.76800 32.53600
H  -0.83500 15.85100 33.52800
N  -2.99500 19.04100 25.77200
C  -2.94700 19.87800 26.88300
C  -3.00000 21.22000 26.45200
C  -2.82500 21.15900 24.99700
C  -2.91800 19.75400 24.60800
C  -3.16500 22.38300 27.38500
C  -2.43700 22.33000 23.99300
O  -2.19500 22.13900 22.82800
C  -2.19400 23.70800 24.44900
N  -3.02300 16.71600 23.64100
C  -2.97100 17.82800 22.86800
C  -2.96500 17.44400 21.40100
C  -3.39000 15.92700 21.42200
C  -3.15700 15.61500 22.93500
C  -4.01600 18.27000 20.43100
C  -2.53600 15.06300 20.48600
C  -3.20500 14.56500 19.16000
N  -3.10500 14.94000 25.86000
C  -3.21400 13.95100 24.85000
C  -3.46800 12.69500 25.43300
C  -3.34100 12.92100 26.76700
C  -3.12600 14.23500 27.01700
C  -3.71800 11.42500 24.72200
C  -3.39700 12.23700 27.99700
O  -3.48700 11.01800 28.14800
C  -3.34900 13.28000 29.06500
C  -2.31400 12.91300 29.96100
O  -1.10900 13.19400 29.73300
O  -2.74500 12.27200 31.10600
C  -1.65100 11.67400 31.95700
H  -2.83700 20.17200 28.96700
H  -2.79700 19.89100 22.42500
H  -3.45500 13.61500 22.66700
H  -4.18600 15.92700 30.94100
H  -2.68700 18.48000 30.81900
H  -4.30100 19.27400 31.66000
H  -5.31400 17.92700 31.30100
H  -5.28200 19.28900 30.23100
H  -1.19800 15.94900 30.62100
H  -2.31600 14.98400 31.66800
H  -2.30800 17.35600 33.07000
H  -0.87700 17.50800 32.12100
H  -3.20900 22.11200 28.44000
H  -4.05800 22.88100 27.00500
H  -2.33300 23.06900 27.22600
H  -2.19600 24.34700 23.56600
H  -1.20000 23.81100 24.88400
H  -2.94900 24.17400 25.08200
H  -1.97100 17.56500 20.97000
H  -4.46700 15.75900 21.37900
H  -4.83800 17.74100 19.94900
H  -3.26800 18.68800 19.75800
H  -4.37500 19.10700 21.02900
H  -2.12300 14.30400 21.15000
H  -1.62700 15.52800 20.10400
H  -4.28100 14.70200 19.04900
H  -3.06900 13.48400 19.19300
H  -2.77900 15.09400 18.30700
H  -4.47300 11.05700 25.41500
H  -2.89700 10.71000 24.76700
H  -4.15000 11.44700 23.72100
H  -4.33500 13.23300 29.52800
H  -1.03300 10.84000 31.62900
H  -2.21000 11.30000 32.81500
H  -0.95300 12.39700 32.38000
Mg 36.90000 48.87600 24.13200
C  37.22900 47.18700 27.26300
C  35.57600 51.48600 25.61300
C  36.13100 49.88300 21.06100
C  38.23400 45.90500 22.61000
N  36.43100 49.23100 26.20800
C  36.71000 48.45000 27.34600
C  36.36900 49.30300 28.61200
C  35.75000 50.67200 28.07500
C  35.90500 50.47600 26.57600
C  34.28200 50.91500 28.57400
C  37.57200 49.47800 29.55400
C  37.36000 49.20100 31.06000
H  35.92200 49.05400 31.68900
N  35.93900 50.41100 23.47200
C  35.54000 51.43000 24.19500
C  35.10000 52.49300 23.27200
C  35.24600 52.10300 21.93800
C  35.77700 50.76800 22.13100
C  34.66500 53.87100 23.71500
C  34.80300 52.73000 20.62100
O  34.74900 52.13900 19.59000
C  34.33400 54.24300 20.56400
N  36.82000 47.86700 22.04900
C  36.66000 48.62400 21.02400
C  36.87700 47.77800 19.70200
C  37.89000 46.70500 20.22600
C  37.61100 46.76200 21.69800
C  35.54200 47.13800 19.17200
C  39.36700 47.01300 19.84700
C  40.13500 45.83000 19.24400
N  37.63300 46.96100 24.77600
C  38.02800 45.83500 24.02400
C  38.39900 44.71300 24.95100
C  38.08200 45.24800 26.18600
C  37.64400 46.58200 26.06500
C  39.04900 43.37700 24.48700
C  38.06800 44.86000 27.56200
O  38.42000 43.80700 28.01300
C  37.48800 46.13900 28.35200
C  36.24800 45.71500 29.05500
O  35.09100 45.88600 28.64400
O  36.55700 44.97800 30.15000
C  35.46000 44.46000 30.93300
H  35.35400 52.44300 26.08900
H  35.84600 50.20600 20.05800
H  38.62600 44.98000 22.18300
H  35.55900 48.77000 29.11000
H  36.35600 51.45800 28.52500
H  33.58400 50.82000 27.74200
H  34.34000 51.90800 29.01900
H  34.02100 50.29500 29.43200
H  37.95200 50.49900 29.52800
H  38.33800 48.74600 29.29500
H  37.89500 50.04500 31.49500
H  37.81200 48.26500 31.38700
H  34.99000 54.61300 22.98700
H  35.18700 54.23000 24.60200
H  33.57600 53.89300 23.76500
H  33.63900 54.46500 21.37400
H  33.80800 54.37200 19.61800
H  35.22000 54.87500 20.61900
H  37.11400 48.46700 18.89200
H  37.60000 45.76100 19.76400
H  35.32600 46.20100 19.68500
H  35.80700 46.86800 18.15000
H  34.67500 47.79300 19.08300
H  39.76300 47.39100 20.79000
H  39.35200 47.86400 19.16600
H  41.11100 45.69700 19.71000
H  40.40200 46.01700 18.20400
H  39.63700 44.87200 19.39300
H  39.55900 43.48900 23.53000
H  38.34500 42.55400 24.36300
H  39.75600 43.14100 25.28300
H  38.17800 46.52300 29.10400
H  35.06600 45.30900 31.49200
H  35.84800 43.64100 31.53900
H  34.61400 44.04300 30.38800

