158

Mg 1.14200 7.74900 26.76400
C  1.65200 9.81700 29.67700
C  1.40000 5.02900 28.85200
C  1.42500 5.77700 24.10100
C  1.16400 10.55600 24.78700
N  1.45400 7.50200 29.00100
C  1.49600 8.48200 30.03900
C  1.38400 7.83700 31.45300
C  1.57400 6.35200 31.08800
C  1.50300 6.27100 29.55800
C  2.81700 5.61500 31.67100
C  0.03600 8.23100 32.18800
C  0.14600 8.41700 33.69600
H  1.34600 7.80100 34.52700
N  1.18300 5.70700 26.50800
C  1.30400 4.76000 27.47100
C  1.43200 3.42300 26.85100
C  1.32100 3.62300 25.46300
C  1.25900 5.04400 25.25600
C  1.72200 2.09900 27.56900
C  1.20000 2.53500 24.36700
O  0.98900 2.88800 23.21800
C  1.14500 1.05000 24.59500
N  1.09800 8.12600 24.69600
C  1.26300 7.12800 23.81900
C  1.39600 7.72800 22.40300
C  0.84100 9.23600 22.51900
C  1.06300 9.37600 24.05700
C  2.72400 7.48900 21.64800
C  -0.69400 9.37100 22.30000
C  -1.14700 10.49200 21.31800
N  1.41700 9.78700 27.08800
C  1.40900 10.85000 26.14400
C  1.68300 12.09100 26.86200
C  1.74100 11.72000 28.20900
C  1.57000 10.31100 28.34600
C  1.86600 13.46700 26.26100
C  2.08900 12.25300 29.53500
O  2.55600 13.36600 29.83900
C  1.87000 11.03400 30.55300
C  3.00200 11.00700 31.47500
O  3.96300 10.22700 31.31400
O  2.83500 11.89300 32.48000
C  3.73900 11.62400 33.63200
H  1.51700 4.18200 29.53200
H  1.53000 5.21700 23.17000
H  1.15500 11.52000 24.27400
H  2.21300 8.32500 31.96500
H  0.72700 5.84000 31.54500
H  2.34700 4.82700 32.26000
H  3.35300 6.39700 32.20900
H  3.36600 5.13600 30.86100
H  -0.59400 7.34900 32.07100
H  -0.37600 9.15100 31.77600
H  -0.72700 8.16700 34.29900
H  0.25300 9.48800 33.86600
H  0.76200 1.72100 27.92100
H  2.18800 2.29800 28.53400
H  2.41100 1.47200 27.00500
H  2.15200 0.67800 24.78400
H  0.79600 0.46700 23.74300
H  0.54200 0.88900 25.48800
H  0.69600 7.23700 21.72800
H  1.43700 9.92200 21.91700
H  3.16700 8.30000 21.07100
H  2.60000 6.64100 20.97300
H  3.46000 7.04600 22.31900
H  -1.25500 9.58200 23.21000
H  -1.11500 8.45300 21.88900
H  -2.06100 10.22600 20.78600
H  -0.39300 10.74500 20.57300
H  -1.37600 11.40000 21.87500
H  1.63100 13.33800 25.20400
H  2.87300 13.86900 26.37600
H  1.15200 14.13200 26.74600
H  0.86800 11.14900 30.96800
H  3.35200 12.40000 34.29300
H  4.74300 11.86600 33.28200
H  3.73400 10.57400 33.92200
Mg -12.34500 16.99900 42.20300
C  -9.19700 15.33000 41.78100
C  -10.91400 19.74000 40.64400
C  -15.46400 18.27400 41.79000
C  -13.75800 13.76500 43.02900
N  -10.31400 17.42600 41.18700
C  -9.14300 16.65800 41.29100
C  -7.85400 17.45500 40.89200
C  -8.44700 18.86000 40.72200
C  -9.98400 18.65300 40.84200
C  -7.99300 20.04000 41.70600
C  -7.14300 16.76400 39.62500
C  -5.65400 16.26500 39.69200
H  -5.36400 15.08900 38.64500
N  -13.10200 18.83500 41.35300
C  -12.33800 19.83200 40.77000
C  -13.23200 20.91300 40.37200
C  -14.51900 20.47800 40.73100
C  -14.45400 19.14400 41.35100
C  -12.70800 22.11700 39.66300
C  -15.74700 21.33800 40.45900
O  -15.66700 22.43300 39.89000
C  -17.09400 20.88200 40.83500
N  -14.31800 16.06700 42.41500
C  -15.44300 16.90500 42.30400
C  -16.72300 16.02900 42.46600
C  -16.14400 14.62200 43.04100
C  -14.67000 14.76800 42.76700
C  -17.81200 16.59500 43.37200
C  -16.79200 13.40900 42.23300
C  -17.12700 12.09200 42.98100
N  -11.59400 14.96300 42.47200
C  -12.30400 13.83600 42.82200
C  -11.31400 12.75100 42.93600
C  -10.07500 13.31600 42.61300
C  -10.31000 14.68500 42.26800
C  -11.56900 11.42500 43.44500
C  -8.61300 13.01900 42.44600
O  -7.91300 12.04900 42.79000
C  -7.97600 14.32200 41.93600
C  -7.19100 14.79700 43.11000
O  -7.52400 15.59800 44.00400
O  -5.93300 14.27000 43.01600
C  -4.99300 14.70300 44.13700
H  -10.51200 20.66500 40.22600
H  -16.51600 18.50600 41.61100
H  -14.17200 12.78000 43.25500
H  -7.12200 17.40000 41.69800
H  -8.34700 19.21900 39.69800
H  -8.89300 20.39400 42.20900
H  -7.53200 20.86000 41.15500
H  -7.15700 19.84700 42.37800
H  -7.05000 17.57100 38.89800
H  -7.74700 15.96600 39.19500
H  -5.41700 16.10400 40.74300
H  -4.96900 17.08800 39.49000
H  -13.15300 23.05600 39.99200
H  -12.78600 22.04300 38.57800
H  -11.64300 22.29300 39.81600
H  -17.25600 19.95900 40.27800
H  -17.82000 21.67400 40.65100
H  -16.92600 20.65100 41.88700
H  -17.15400 15.92200 41.47100
H  -16.25200 14.48800 44.11700
H  -17.48600 17.56800 43.73900
H  -18.12600 15.94600 44.18900
H  -18.70600 16.84200 42.80000
H  -15.99500 13.19400 41.52100
H  -17.66400 13.75400 41.67800
H  -16.46800 11.30300 42.61900
H  -18.17700 12.04500 42.69500
H  -16.87000 12.26200 44.02700
H  -11.74200 10.73400 42.62000
H  -12.42000 11.46400 44.12500
H  -10.61600 11.18000 43.91300
H  -7.38500 14.11900 41.04300
H  -4.81900 15.77800 44.17700
H  -4.02700 14.20800 44.03600
H  -5.42500 14.46400 45.10900

