158

Mg 24.36500 -5.56100 46.30500
C  26.45700 -3.35900 44.61400
C  21.85600 -4.56600 44.16000
C  22.57100 -8.17900 47.29500
C  27.12700 -6.71100 47.98600
N  24.20900 -4.18500 44.49800
C  25.18500 -3.36200 44.06600
C  24.60400 -2.34900 43.00400
C  23.00800 -2.68500 42.94400
C  23.00800 -3.90400 43.94800
C  22.08800 -1.44400 43.47200
C  25.29300 -2.50500 41.64400
C  26.08100 -1.32700 41.17900
H  25.75900 -0.87500 39.73600
N  22.50000 -6.29900 45.78700
C  21.63600 -5.71800 44.86000
C  20.39400 -6.40100 44.85100
C  20.57600 -7.46800 45.79500
C  21.91100 -7.37300 46.36300
C  19.16900 -6.06000 43.96000
C  19.49200 -8.50200 46.07400
O  18.38200 -8.29200 45.66200
C  19.81600 -9.75900 46.81800
N  24.79700 -7.26900 47.41600
C  23.85200 -8.13200 47.77300
C  24.37200 -9.28300 48.59000
C  25.80100 -8.76700 48.95800
C  25.96500 -7.50000 48.06200
C  23.65200 -9.58900 49.97500
C  27.01200 -9.81200 48.80300
C  27.58800 -10.30200 50.17900
N  26.37700 -5.05500 46.53400
C  27.38400 -5.62900 47.22400
C  28.57200 -4.86000 47.05100
C  28.20000 -3.96600 46.03800
C  26.91200 -4.18000 45.65300
C  29.94800 -5.18300 47.55000
C  28.78100 -2.97300 45.15200
O  29.94200 -2.58100 45.15500
C  27.68600 -2.46400 44.18100
C  27.51800 -1.02800 44.48800
O  26.91400 -0.59600 45.46500
O  28.14300 -0.22100 43.57600
C  28.30500 1.23600 43.72900
H  21.11600 -4.19900 43.44600
H  22.02400 -9.02300 47.72100
H  27.99200 -7.14200 48.49200
H  24.73600 -1.32200 43.34300
H  22.57000 -2.85800 41.96100
H  21.78900 -0.93600 42.55500
H  22.63900 -0.68200 44.02400
H  21.26800 -1.66300 44.15500
H  24.53100 -2.93100 40.99100
H  25.97400 -3.35600 41.66900
H  27.15800 -1.49200 41.16800
H  26.05800 -0.46900 41.85200
H  18.47300 -6.89200 43.84800
H  19.49800 -5.78300 42.95800
H  18.72900 -5.14200 44.34800
H  18.99200 -10.34300 46.40900
H  19.90000 -9.55300 47.88500
H  20.76000 -10.17200 46.46300
H  24.26000 -10.22300 48.05000
H  25.73200 -8.28000 49.93000
H  23.25100 -8.62300 50.28200
H  24.34600 -9.84700 50.77500
H  22.90700 -10.38300 50.02700
H  27.81400 -9.32200 48.25100
H  26.66200 -10.61300 48.15200
H  28.33200 -11.02900 49.85500
H  26.80600 -10.65400 50.85300
H  27.96100 -9.30100 50.39600
H  30.27200 -6.10700 47.07100
H  29.87800 -5.29300 48.63300
H  30.65100 -4.45400 47.14900
H  28.15200 -2.55300 43.20000
H  28.78200 1.33300 44.70500
H  27.34100 1.73100 43.61300
H  28.98000 1.56400 42.93900
Mg -12.32600 37.43400 42.46000
C  -10.16800 35.00800 41.41800
C  -10.21300 39.92500 40.93600
C  -14.71500 39.83800 43.11400
C  -14.65700 34.87500 43.31400
N  -10.46800 37.45000 41.23200
C  -9.72100 36.28700 40.99200
C  -8.46400 36.57600 40.22200
C  -8.44300 38.16600 40.16100
C  -9.80900 38.58800 40.77800
C  -7.25400 38.87300 40.90000
C  -8.54200 35.86200 38.76200
C  -7.45900 34.88300 38.39700
H  -6.54500 35.30000 37.18100
N  -12.45200 39.58500 42.08300
C  -11.43800 40.40700 41.49600
C  -11.87700 41.82100 41.58800
C  -13.26400 41.84400 42.07800
C  -13.52700 40.40400 42.47700
C  -11.00600 43.01600 41.21100
C  -14.33800 42.97400 42.02000
O  -13.92700 44.04800 41.55600
C  -15.72700 42.91400 42.64900
N  -14.40600 37.33800 43.13400
C  -15.11800 38.50400 43.34600
C  -16.52000 38.19000 43.84700
C  -16.50900 36.62800 43.73200
C  -15.11400 36.20900 43.36500
C  -16.96700 38.80300 45.17700
C  -17.56500 36.17000 42.54900
C  -18.66800 35.29500 43.00800
N  -12.40500 35.41400 42.43700
C  -13.40900 34.46000 42.91700
C  -12.84200 33.06800 42.73100
C  -11.54700 33.30900 42.24700
C  -11.36000 34.69400 42.10100
C  -13.52400 31.71200 43.13400
C  -10.41000 32.58300 41.81100
O  -10.26600 31.35900 41.75600
C  -9.34100 33.70800 41.33000
C  -8.09000 33.63700 42.16900
O  -7.00400 33.82000 41.64500
O  -8.19300 33.54200 43.49600
C  -7.08100 33.98700 44.34300
H  -9.52700 40.72000 40.63600
H  -15.50200 40.50800 43.46600
H  -15.36400 34.04800 43.22700
H  -7.61700 36.17300 40.77800
H  -8.63600 38.47600 39.13400
H  -7.44100 38.99000 41.96800
H  -6.94700 39.85400 40.53900
H  -6.36500 38.25900 40.75200
H  -8.40400 36.65500 38.02600
H  -9.50100 35.40100 38.52400
H  -7.86900 33.89100 38.20800
H  -6.81100 34.84800 39.27300
H  -10.01800 42.74400 41.58200
H  -11.30100 43.85100 41.84600
H  -10.81500 43.16800 40.14800
H  -16.24900 43.87200 42.64800
H  -15.51200 42.47600 43.62400
H  -16.33500 42.22900 42.05900
H  -17.25100 38.64000 43.17600
H  -16.68100 36.12000 44.68100
H  -16.16600 39.06700 45.86800
H  -17.72900 38.17500 45.63800
H  -17.55500 39.69900 44.97700
H  -17.02600 35.58500 41.80300
H  -18.08000 36.99500 42.05900
H  -18.50400 34.96000 44.03300
H  -18.69100 34.32600 42.50800
H  -19.62800 35.77500 42.82100
H  -13.25100 30.89500 42.46600
H  -14.60700 31.75800 43.24900
H  -13.04700 31.45600 44.08000
H  -9.21900 33.47700 40.27200
H  -7.34100 34.49600 45.27100
H  -6.27200 34.42800 43.76000
H  -6.67400 33.01800 44.63200

