158

Mg 40.28500 9.77600 29.86500
C  42.21500 11.02100 32.35700
C  37.96200 8.50300 32.13200
C  38.69200 8.07300 27.48100
C  43.03100 10.33600 27.62500
N  40.05300 9.82200 31.96000
C  40.96100 10.50200 32.80900
C  40.37800 10.52400 34.20900
C  39.14300 9.54900 34.11400
C  38.98800 9.29100 32.63600
C  39.33400 8.23600 34.92100
C  40.02700 11.96400 34.80800
C  40.90900 12.37800 35.99100
H  40.29600 12.71100 37.33600
N  38.53900 8.56400 29.80200
C  37.74600 8.09700 30.80400
C  36.69800 7.26600 30.30800
C  36.85400 7.27200 28.87400
C  38.11400 7.88600 28.70600
C  35.82000 6.48700 31.20000
C  35.88100 6.67100 27.94600
O  36.12800 6.56700 26.78700
C  34.51800 6.39700 28.40000
N  40.70800 9.40300 27.82700
C  39.83400 8.71500 27.01600
C  40.33300 8.63000 25.50200
C  41.79100 9.30700 25.61400
C  41.86800 9.74200 27.12300
C  40.47700 7.15700 25.01200
C  41.93900 10.46400 24.57300
C  42.14700 11.86200 25.09100
N  42.18700 10.57000 29.90000
C  43.18700 10.71300 28.95600
C  44.33100 11.41000 29.60300
C  43.90600 11.57800 30.91000
C  42.70200 11.01000 31.05800
C  45.68500 11.68000 29.15000
C  44.36900 12.07500 32.16200
O  45.44700 12.55000 32.51500
C  43.20700 11.88300 33.07700
C  43.80100 11.25600 34.37500
O  44.19900 10.09000 34.44800
O  43.99700 12.11900 35.40300
C  44.41900 11.52100 36.69200
H  37.29200 8.22100 32.94700
H  38.26300 7.49900 26.65700
H  43.92700 10.46300 27.01300
H  41.18000 10.09400 34.80900
H  38.22300 10.01300 34.47000
H  40.19800 8.45100 35.54900
H  39.53900 7.46100 34.18200
H  38.49500 8.02000 35.58200
H  38.97100 12.05500 35.06200
H  40.17500 12.74000 34.05800
H  41.45800 13.25900 35.65900
H  41.74600 11.69700 36.14500
H  35.72200 5.43600 30.92800
H  34.81800 6.91300 31.15000
H  36.17800 6.47200 32.22900
H  33.95500 6.20200 27.48800
H  34.01200 7.21400 28.91400
H  34.54700 5.44500 28.92900
H  39.60300 9.15000 24.88100
H  42.59600 8.60200 25.40700
H  40.31700 6.46800 25.84200
H  41.28100 6.87000 24.33500
H  39.59300 7.08200 24.37800
H  41.08000 10.48200 23.90300
H  42.71800 10.14900 23.87900
H  41.89400 12.64900 24.38000
H  43.21400 12.05200 25.20900
H  41.48800 12.04500 25.94000
H  46.48300 11.63500 29.89100
H  45.66000 12.54700 28.48900
H  45.83900 10.84000 28.47300
H  42.87000 12.86600 33.40600
H  43.82700 10.62400 36.87100
H  44.20300 12.21800 37.50200
H  45.47600 11.30900 36.52600
Mg 46.64400 16.21600 28.39700
C  44.54300 16.17800 31.27300
C  48.83500 18.21900 30.32100
C  47.99800 17.24200 25.66500
C  44.17900 14.58500 26.65300
N  46.65700 17.13600 30.55700
C  45.70300 16.89200 31.51300
C  46.21600 17.40300 32.91800
C  47.56900 18.11500 32.59700
C  47.71400 17.82700 31.05600
C  47.62700 19.66800 32.92800
C  46.48700 16.19100 33.89300
C  46.26900 16.51400 35.43600
H  46.13200 17.98200 35.91900
N  48.31500 17.46300 28.00400
C  49.02100 18.19400 28.95900
C  49.99500 18.94700 28.25100
C  49.73600 18.82100 26.83100
C  48.70100 17.80000 26.73900
C  51.08800 19.69100 29.02100
C  50.39300 19.41800 25.58800
O  50.16200 19.03800 24.42900
C  51.32000 20.57000 25.78700
N  46.16200 15.84600 26.40400
C  46.89500 16.34500 25.43500
C  46.44600 15.93500 24.05800
C  45.49300 14.72200 24.37400
C  45.29800 14.95100 25.87000
C  45.80200 17.13400 23.33800
C  45.96600 13.25400 24.01400
C  45.20900 12.58700 22.87400
N  44.80000 15.44700 28.89100
C  43.90200 14.81500 28.07900
C  42.73200 14.42100 28.75400
C  42.93700 14.92800 30.02900
C  44.26300 15.50100 30.07900
C  41.52000 13.79800 28.21300
C  42.29000 15.06500 31.33700
O  41.21500 14.73900 31.77000
C  43.39700 15.91900 32.18700
C  42.91800 17.22900 32.75200
O  42.78500 18.26600 32.16200
O  42.55900 16.95200 34.02200
C  41.91300 18.10300 34.67900
H  49.60000 18.72200 30.91600
H  48.40500 17.70800 24.76500
H  43.51900 13.89800 26.11900
H  45.52000 18.15000 33.30000
H  48.52000 17.71400 32.95000
H  48.52500 19.90200 33.49900
H  46.80400 19.95800 33.58100
H  47.59000 20.20400 31.98000
H  47.51200 15.82700 33.82400
H  45.92800 15.30000 33.60600
H  47.12900 16.08400 35.94900
H  45.41100 15.99000 35.85800
H  51.85200 19.00800 29.39300
H  50.70900 20.24100 29.88300
H  51.59600 20.39500 28.36200
H  50.97600 21.38000 26.43100
H  51.41700 20.92200 24.76000
H  52.28700 20.14900 26.06200
H  47.32400 15.62300 23.49400
H  44.54200 14.88300 23.86500
H  46.60600 17.74900 22.93200
H  45.23400 17.63100 24.12400
H  45.03400 16.83000 22.62700
H  45.87800 12.53300 24.82700
H  46.98100 13.36700 23.63500
H  44.37100 13.23900 22.62700
H  44.80000 11.59600 23.07000
H  45.91000 12.43500 22.05300
H  41.35700 13.95100 27.14600
H  40.70300 14.42300 28.57400
H  41.47700 12.71100 28.27100
H  43.79800 15.30200 32.99100
H  41.86900 17.85300 35.73900
H  40.88200 18.17700 34.33600
H  42.65900 18.88200 34.52000

