158

Mg 49.02000 35.78600 27.58000
C  47.03800 34.00300 29.84600
C  49.15000 38.30300 30.03000
C  50.88500 37.47000 25.51200
C  48.61400 33.22100 25.28800
N  48.13700 36.08900 29.67400
C  47.55000 35.16700 30.44400
C  47.48900 35.56200 31.90000
C  47.89900 37.08400 31.84900
C  48.42700 37.18000 30.42500
C  46.88400 38.20700 32.34200
C  48.45900 34.70000 32.71600
C  48.13400 34.40800 34.16600
H  47.05800 35.29700 34.88400
N  49.97600 37.57800 27.71100
C  49.96000 38.43800 28.80900
C  50.79200 39.51400 28.49000
C  51.28300 39.37700 27.16100
C  50.68200 38.12000 26.68200
C  50.95900 40.65200 29.50100
C  52.19700 40.39500 26.37600
O  52.59700 40.18300 25.24800
C  52.67300 41.69200 27.01900
N  49.51100 35.46900 25.51500
C  50.44100 36.28800 24.96900
C  50.88300 35.79300 23.57900
C  50.10300 34.39000 23.55000
C  49.35100 34.34600 24.86200
C  50.54000 36.72400 22.45600
C  50.92800 33.10800 23.23600
C  50.35100 32.11000 22.15100
N  48.04700 33.96000 27.43300
C  47.90000 33.04000 26.43900
C  47.02100 31.93600 26.88000
C  46.60700 32.34400 28.14900
C  47.28400 33.48200 28.52000
C  46.54200 30.74100 26.16200
C  45.75700 32.01400 29.31700
O  45.05700 31.01000 29.57000
C  46.05200 33.05800 30.44300
C  46.39800 32.20500 31.53800
O  47.23600 31.32900 31.53100
O  45.69700 32.60700 32.62700
C  45.73400 31.73300 33.75900
H  49.22900 38.97800 30.88500
H  51.67500 37.90100 24.89400
H  48.49100 32.37800 24.60400
H  46.45100 35.48200 32.22500
H  48.75900 37.14800 32.51500
H  46.03700 37.67800 32.77900
H  46.54600 38.64400 31.40200
H  47.28700 38.81000 33.15500
H  49.46100 35.12500 32.64200
H  48.62000 33.71100 32.28900
H  49.05800 34.62000 34.70300
H  48.07000 33.32000 34.18700
H  50.55000 40.52000 30.50300
H  50.56300 41.58000 29.09000
H  52.00600 40.94900 29.56600
H  53.21000 42.37600 26.36200
H  53.42400 41.34300 27.72700
H  51.87400 42.24400 27.51300
H  51.96000 35.64300 23.65300
H  49.32600 34.43700 22.78800
H  50.12200 36.15000 21.62900
H  51.44900 37.08900 21.97800
H  49.80100 37.44700 22.80100
H  51.09000 32.64200 24.20800
H  51.88400 33.51500 22.90700
H  50.35300 31.10000 22.56100
H  51.09400 32.07900 21.35400
H  49.37300 32.43500 21.79600
H  45.46900 30.81300 25.98100
H  46.71800 29.88800 26.81800
H  47.04600 30.59100 25.20800
H  45.12400 33.61100 30.58900
H  45.04200 30.91300 33.56500
H  45.40700 32.27100 34.64900
H  46.72700 31.36100 34.00900
Mg 16.52100 51.75500 25.91000
C  18.36100 50.27400 28.43300
C  14.18100 52.63600 28.12000
C  14.80000 53.21900 23.35800
C  19.02000 50.90600 23.67700
N  16.32300 51.40400 27.99700
C  17.15900 50.76500 28.89300
C  16.70200 50.92600 30.38800
C  15.21300 51.43000 30.16300
C  15.26800 51.91500 28.65600
C  14.10600 50.29500 30.35800
C  17.58400 51.97700 31.15200
C  17.99200 51.49900 32.58000
H  17.26200 52.22600 33.75800
N  14.69400 52.75000 25.73000
C  13.91300 52.97700 26.77900
C  12.79500 53.75900 26.34700
C  13.01400 54.12600 24.99200
C  14.15800 53.32000 24.60200
C  11.72900 54.20300 27.24700
C  12.26700 55.08200 24.07800
O  12.63300 55.38800 22.97200
C  11.07600 55.96000 24.59600
N  16.89800 51.96100 23.77700
C  15.99300 52.53500 22.96300
C  16.52100 52.69800 21.49300
C  17.88600 51.98200 21.54100
C  17.98400 51.60700 23.08400
C  15.58000 52.10600 20.39800
C  19.03500 52.87400 21.03400
C  19.48000 54.01900 21.97100
N  18.18600 50.64300 25.90800
C  19.17300 50.37700 24.97300
C  20.29100 49.63800 25.47200
C  19.98000 49.61700 26.85200
C  18.75900 50.24000 27.09100
C  21.52100 49.16600 24.83300
C  20.46100 49.09600 28.11500
O  21.44600 48.40700 28.39300
C  19.46800 49.61900 29.24800
C  19.06000 48.61300 30.23700
O  18.23500 47.72500 30.17600
O  19.93600 48.68500 31.36300
C  19.48600 47.78300 32.53500
H  13.45800 52.71700 28.93500
H  14.29700 53.66100 22.49500
H  19.81500 50.59100 22.99700
H  16.79600 49.98000 30.92200
H  14.97600 52.31700 30.75100
H  14.45800 49.49200 31.00500
H  13.84400 49.89200 29.38000
H  13.24800 50.77600 30.82800
H  16.90800 52.82600 31.25900
H  18.47700 52.08400 30.53600
H  19.06400 51.64200 32.72200
H  17.87800 50.43700 32.79600
H  12.00600 53.93900 28.26800
H  10.74100 53.82500 26.98200
H  11.62200 55.28500 27.17300
H  10.64300 56.50000 23.75500
H  11.41400 56.63600 25.38200
H  10.32800 55.24400 24.93700
H  16.59300 53.76100 21.26300
H  18.01100 51.08000 20.94200
H  16.09200 51.53600 19.62200
H  15.07500 52.93000 19.89500
H  14.83300 51.47600 20.88000
H  18.82400 53.32500 20.06400
H  19.90300 52.22600 20.91700
H  20.17500 53.59600 22.69600
H  18.64000 54.50900 22.46300
H  19.92900 54.80400 21.36300
H  22.25000 49.04200 25.63300
H  21.89100 49.90100 24.11800
H  21.19900 48.24100 24.35500
H  19.98300 50.44900 29.73100
H  19.82600 46.76400 32.35100
H  18.44300 47.76200 32.85100
H  20.02700 48.20300 33.38400

