158

Mg 47.31800 24.59000 28.66800
C  47.98100 26.76700 31.15900
C  46.46300 22.21800 30.86000
C  46.55700 22.74200 26.00000
C  48.49600 27.04300 26.27900
N  47.37700 24.53400 30.84800
C  47.50400 25.55000 31.69600
C  47.34500 25.05200 33.19400
C  46.93300 23.59000 32.97900
C  46.89300 23.38300 31.46300
C  47.85200 22.62800 33.71700
C  46.31000 25.93500 33.93000
C  46.77500 26.47600 35.38400
H  45.70000 26.50300 36.34700
N  46.69200 22.75900 28.44500
C  46.24900 21.92500 29.47900
C  45.94000 20.67300 28.91600
C  46.00400 20.72200 27.52200
C  46.38200 22.16800 27.29000
C  45.77400 19.42100 29.85900
C  45.87000 19.63500 26.43600
O  46.22200 19.85800 25.30600
C  45.32100 18.32600 26.68100
N  47.45800 24.79900 26.44200
C  47.13200 23.90400 25.58200
C  47.35400 24.26100 24.11300
C  47.73700 25.77900 24.27500
C  47.95800 25.84000 25.78700
C  48.48900 23.35300 23.50100
C  46.66400 26.79800 23.70100
C  45.43700 27.18800 24.53600
N  48.11600 26.46700 28.69000
C  48.45600 27.35600 27.70400
C  48.87200 28.67700 28.20300
C  48.70000 28.50000 29.60300
C  48.25500 27.13900 29.83200
C  49.48500 29.88900 27.40100
C  48.79000 29.10600 30.89300
O  49.11000 30.24500 31.20200
C  48.27400 28.04700 31.87800
C  49.26800 27.89800 32.98800
O  50.20100 27.15800 32.82600
O  49.04900 28.82700 33.97000
C  49.81600 28.75300 35.22300
H  46.17100 21.49100 31.62100
H  46.17500 22.03400 25.26200
H  49.01500 27.72900 25.60700
H  48.28700 25.16300 33.73100
H  45.91900 23.41800 33.33900
H  47.23000 21.92300 34.26900
H  48.44200 23.12700 34.48700
H  48.55500 21.98000 33.19300
H  45.35500 25.47100 34.17800
H  46.09600 26.83900 33.36100
H  47.22400 27.45100 35.19700
H  47.51100 25.73900 35.70700
H  46.46600 18.62600 29.58000
H  44.76400 19.04600 29.69600
H  45.92600 19.59300 30.92500
H  44.47100 18.27700 27.36200
H  46.20900 17.80100 27.03500
H  45.15400 17.75000 25.77100
H  46.43100 24.08000 23.56300
H  48.68600 25.91700 23.75600
H  48.38300 22.35200 23.92000
H  49.44900 23.70200 23.88200
H  48.54000 23.30900 22.41300
H  46.30200 26.25500 22.82800
H  47.30900 27.59600 23.33300
H  45.50500 26.53100 25.40300
H  44.60800 26.93800 23.87300
H  45.55900 28.21000 24.89700
H  48.88800 30.12600 26.52000
H  50.46600 29.50300 27.12600
H  49.51700 30.85300 27.90900
H  47.36900 28.54300 32.22900
H  49.25500 28.26800 36.02300
H  49.95600 29.77100 35.58400
H  50.77800 28.26300 35.07500
Mg 8.70300 47.51700 27.90900
C  7.10500 46.99500 30.83500
C  11.59600 47.87000 29.71700
C  10.28300 48.63900 25.13300
C  5.69800 47.74700 26.20800
N  9.26000 47.59100 30.09600
C  8.48200 47.21100 31.10000
C  9.21500 47.25700 32.43100
C  10.60400 47.95600 32.05600
C  10.53000 47.74400 30.53500
C  10.78300 49.41000 32.50400
C  9.23500 45.96500 33.24100
C  8.92400 46.02800 34.77400
H  9.46300 44.93600 35.68300
N  10.73800 47.89400 27.45000
C  11.78400 48.00600 28.27600
C  13.02300 48.28500 27.53300
C  12.59100 48.51100 26.20300
C  11.15000 48.37600 26.22900
C  14.43100 48.28300 28.11800
C  13.39900 48.83100 24.91800
O  12.89000 48.85600 23.78800
C  14.83600 48.84800 24.88300
N  8.06700 48.05700 25.94300
C  8.93300 48.54700 25.00300
C  8.20000 48.98700 23.73100
C  6.75000 48.38600 24.04100
C  6.83100 47.98200 25.49500
C  8.30200 50.50700 23.51000
C  6.29600 47.17000 23.07300
C  6.27900 47.54500 21.56900
N  6.71800 47.56900 28.36600
C  5.61200 47.54000 27.58000
C  4.45700 47.28800 28.42300
C  4.96400 47.00000 29.66200
C  6.36100 47.20700 29.58800
C  3.08700 47.18400 27.88400
C  4.66100 46.70500 31.04700
O  3.55100 46.54600 31.55100
C  6.08200 46.59400 31.81000
C  6.18200 45.31100 32.45700
O  6.59100 44.27600 31.96500
O  5.76400 45.34300 33.78500
C  5.74600 43.98200 34.46200
H  12.59600 48.05500 30.11400
H  10.70100 49.12200 24.24700
H  4.76100 47.75400 25.64800
H  8.59700 48.02100 32.90300
H  11.40700 47.30300 32.39800
H  10.04700 49.55300 33.29600
H  10.53400 50.12100 31.71700
H  11.76400 49.54000 32.96100
H  10.26200 45.61500 33.14200
H  8.51800 45.28700 32.77800
H  7.85300 45.93700 34.95500
H  9.25700 47.02200 35.07000
H  14.36700 48.05100 29.18200
H  14.91500 49.25800 28.07400
H  15.07100 47.62500 27.53100
H  15.11000 49.70300 25.50100
H  15.13700 49.04600 23.85400
H  15.20900 47.89200 25.24900
H  8.58900 48.42800 22.88000
H  6.01000 49.18300 23.97000
H  7.35300 50.83300 23.93600
H  8.27600 50.63800 22.42800
H  9.22900 50.91600 23.91200
H  5.33600 46.80900 23.44200
H  6.97800 46.33900 23.25500
H  6.54300 48.58100 21.36000
H  5.26300 47.46100 21.18200
H  6.91700 46.86500 21.00400
H  2.67300 48.18800 27.79400
H  2.52500 46.71700 28.69400
H  3.08800 46.68300 26.91600
H  6.01600 47.30000 32.63700
H  5.89500 44.12400 35.53200
H  6.60300 43.42100 34.08900
H  4.80300 43.50300 34.19700

