158

Mg 44.16000 3.67600 47.18600
C  42.13100 6.54200 46.72200
C  41.33600 1.77400 47.05300
C  46.16200 0.90500 47.27900
C  46.92200 5.73700 46.81600
N  41.93700 4.12500 46.68300
C  41.38900 5.35100 46.77500
C  39.80000 5.24600 46.83900
C  39.61900 3.68700 46.84100
C  41.04300 3.12500 46.86600
C  38.63100 3.17500 47.94200
C  39.18000 6.01900 45.68700
C  39.88900 5.88300 44.32900
H  38.91000 5.46500 43.23500
N  43.76000 1.61400 47.05000
C  42.54100 1.05000 47.12300
C  42.82100 -0.38600 47.29100
C  44.16100 -0.70100 47.10000
C  44.76800 0.63100 47.09100
C  41.66100 -1.34800 47.37800
C  44.81100 -2.04800 47.02200
O  44.15000 -3.11800 47.18800
C  46.34900 -2.22600 46.76100
N  46.23700 3.35200 46.94800
C  46.80500 2.18900 47.29500
C  48.30300 2.29000 47.62700
C  48.57900 3.81400 47.32800
C  47.17900 4.37100 46.97100
C  48.61900 1.82300 49.06200
C  49.58900 4.12100 46.20900
C  51.02300 4.53700 46.79600
N  44.47300 5.67600 46.78500
C  45.65700 6.39300 46.66300
C  45.42400 7.83300 46.58300
C  44.02200 7.93900 46.63200
C  43.50700 6.62500 46.68000
C  46.46800 8.88900 46.39000
C  42.92600 8.87700 46.52200
O  42.99600 10.12600 46.30800
C  41.63000 8.01700 46.69900
C  40.96400 8.43100 47.91700
O  41.34300 8.19100 49.05100
O  39.85100 9.14100 47.60000
C  39.25700 9.89000 48.72100
H  40.40300 1.20700 47.05300
H  46.84600 0.09000 47.52500
H  47.73800 6.46000 46.87100
H  39.66400 5.68400 47.82800
H  39.30900 3.38000 45.84200
H  38.70200 2.11200 48.16900
H  37.62400 3.40200 47.59100
H  38.76300 3.77000 48.84600
H  39.02700 7.04000 46.03800
H  38.18800 5.58200 45.57000
H  40.61300 5.07900 44.19500
H  40.26900 6.87400 44.08300
H  41.59500 -1.73500 48.39500
H  41.70300 -2.15400 46.64500
H  40.76000 -0.78300 47.14200
H  46.77200 -2.16200 47.76400
H  46.65200 -1.34700 46.19100
H  46.55700 -3.15600 46.23200
H  48.85000 1.61900 46.96500
H  48.91000 4.21000 48.28900
H  48.07000 0.88600 49.15800
H  48.16500 2.56900 49.71300
H  49.61400 1.54300 49.40900
H  49.23900 4.84000 45.46800
H  49.84400 3.23300 45.63200
H  51.85600 4.10800 46.23900
H  51.15300 4.20700 47.82700
H  50.97800 5.62500 46.84300
H  45.93700 9.72500 45.93500
H  47.27400 8.60200 45.71600
H  47.01000 9.22800 47.27300
H  40.93100 8.19000 45.88000
H  38.69000 10.78300 48.45700
H  40.01600 10.39500 49.31800
H  38.64000 9.31600 49.41300
Mg -4.75900 24.58800 26.47400
C  -2.82500 26.35400 28.70700
C  -5.79600 22.62200 29.09500
C  -6.17400 22.54000 24.11600
C  -3.11600 26.34800 23.94100
N  -4.43200 24.57700 28.64700
C  -3.56700 25.40800 29.33800
C  -3.81300 25.23200 30.78000
C  -4.40600 23.79400 30.98900
C  -4.94600 23.63100 29.50900
C  -3.35600 22.68100 31.35700
C  -4.64800 26.38600 31.40500
C  -4.34200 26.77300 32.86500
H  -5.34000 26.41200 33.91300
N  -5.72700 22.78500 26.61700
C  -6.05300 22.19100 27.75800
C  -6.79300 21.01500 27.35400
C  -7.08500 20.97800 25.95900
C  -6.34000 22.21400 25.51700
C  -7.17900 19.98700 28.45900
C  -7.88800 20.06100 25.13100
O  -8.17200 20.36900 23.97300
C  -8.40200 18.76100 25.78200
N  -4.71800 24.49400 24.36900
C  -5.37400 23.56800 23.60200
C  -5.23500 23.86900 22.05700
C  -4.27100 25.10900 22.06400
C  -3.93800 25.27200 23.57600
C  -4.77300 22.67900 21.23900
C  -4.88000 26.40100 21.43200
C  -4.09900 27.11200 20.35000
N  -3.44800 26.10900 26.32000
C  -2.85100 26.70900 25.19500
C  -1.91900 27.76300 25.59100
C  -1.87000 27.65600 26.96600
C  -2.79800 26.60600 27.32900
C  -1.11300 28.67900 24.61800
C  -1.25500 28.15400 28.20300
O  -0.41300 29.05000 28.34100
C  -1.85300 27.34100 29.37600
C  -0.74000 26.64100 30.17900
O  0.02900 25.86200 29.66200
O  -0.75000 27.05900 31.46300
C  0.27200 26.36400 32.28900
H  -6.14100 22.08100 29.97900
H  -6.82000 22.13600 23.33300
H  -2.75000 26.89900 23.07200
H  -2.81100 25.19700 31.20600
H  -5.29400 23.84300 31.61900
H  -3.38100 21.75500 30.78400
H  -3.24000 22.56300 32.43400
H  -2.37500 23.08000 31.09700
H  -5.67400 26.02300 31.34600
H  -4.64800 27.29000 30.79600
H  -4.28300 27.85300 32.73700
H  -3.31300 26.41600 32.92600
H  -7.34100 20.33400 29.48000
H  -6.41000 19.23400 28.28400
H  -8.17700 19.60500 28.24400
H  -8.75600 18.02600 25.06000
H  -9.16100 19.04800 26.50900
H  -7.58300 18.25600 26.29600
H  -6.25000 24.10500 21.73700
H  -3.31100 24.76900 21.67700
H  -4.36900 21.79100 21.72300
H  -4.08200 22.93300 20.43400
H  -5.66900 22.45600 20.65900
H  -5.05700 27.06600 22.27600
H  -5.88900 26.12000 21.13200
H  -3.10000 26.71400 20.17000
H  -3.90200 28.14700 20.63000
H  -4.64800 27.07300 19.41000
H  -0.63300 29.52900 25.10400
H  -1.88700 29.11100 23.98500
H  -0.36900 27.97700 24.24200
H  -2.39200 28.00700 30.04900
H  1.16000 26.97800 32.14100
H  0.35600 25.30900 32.02600
H  0.00800 26.53800 33.33200

