158

Mg 25.45200 -6.79000 48.28600
C  26.65200 -3.97300 46.56700
C  22.64700 -6.64500 46.38500
C  24.53600 -9.72900 49.72100
C  28.51800 -6.94100 50.00400
N  24.90600 -5.59100 46.51900
C  25.46400 -4.49200 46.01500
C  24.72700 -3.89500 44.88000
C  23.35900 -4.65300 44.92500
C  23.62500 -5.64100 46.03800
C  22.08000 -3.79100 45.11600
C  25.48600 -4.04000 43.50800
C  25.78200 -2.73600 42.75500
H  24.91500 -2.43100 41.50800
N  23.68400 -8.00300 48.17000
C  22.61800 -7.71300 47.34800
C  21.69200 -8.77400 47.56700
C  22.27700 -9.73700 48.44400
C  23.57200 -9.22200 48.78800
C  20.34200 -8.94300 46.90200
C  21.58100 -10.98000 48.90500
O  20.43700 -11.29200 48.49600
C  22.29300 -11.91700 49.85300
N  26.53800 -8.33900 49.39800
C  25.88500 -9.32200 50.03100
C  26.77600 -10.04300 51.01100
C  28.03800 -9.13600 51.11800
C  27.69600 -8.08500 50.09300
C  26.08400 -10.50200 52.32800
C  29.51000 -9.69900 50.83800
C  30.47500 -9.87800 51.94500
N  27.28700 -5.75100 48.29200
C  28.43300 -5.85200 49.06900
C  29.34600 -4.77700 48.77500
C  28.70800 -4.01000 47.77800
C  27.46300 -4.63100 47.58600
C  30.62600 -4.54300 49.43400
C  28.74100 -2.79100 47.08300
O  29.58300 -1.95200 47.09500
C  27.44900 -2.76800 46.14000
C  26.83000 -1.37600 46.33000
O  27.23800 -0.35200 45.80500
O  25.72700 -1.46200 47.12000
C  24.94400 -0.26400 47.41400
H  21.72900 -6.64900 45.79300
H  24.20300 -10.58300 50.31500
H  29.35600 -6.89800 50.70300
H  24.51800 -2.87700 45.21000
H  23.22900 -5.22000 44.00300
H  21.54500 -3.69500 44.17100
H  22.32700 -2.73800 45.25100
H  21.43200 -4.14000 45.92000
H  25.08900 -4.65400 42.70000
H  26.45800 -4.49500 43.69900
H  26.83100 -2.71500 42.45800
H  25.62000 -1.93500 43.47700
H  20.36900 -8.29900 46.02300
H  19.44800 -8.70100 47.47800
H  20.31500 -9.92700 46.43400
H  23.20800 -12.35900 49.46000
H  21.55100 -12.66700 50.12800
H  22.44500 -11.36800 50.78200
H  26.98700 -10.84600 50.30500
H  28.09500 -8.71900 52.12400
H  25.16900 -9.92100 52.44200
H  26.70500 -10.43400 53.22100
H  25.86000 -11.56800 52.27300
H  30.09400 -9.21200 50.05600
H  29.31700 -10.74000 50.57900
H  31.37500 -9.29700 51.74500
H  30.77600 -10.87700 52.25900
H  30.04800 -9.36100 52.80400
H  30.69600 -4.89700 50.46200
H  30.48500 -3.47900 49.62200
H  31.53100 -4.84900 48.91000
H  27.79700 -2.82600 45.10900
H  25.49900 0.64500 47.17900
H  24.58900 -0.28700 48.44400
H  24.05200 -0.16800 46.79500
Mg 6.98100 54.88100 40.99900
C  6.42400 51.36200 41.24100
C  10.28100 54.09900 40.67700
C  7.42900 58.07400 40.18500
C  3.52600 55.23000 41.19100
N  8.19200 52.99000 40.76700
C  7.75900 51.68600 40.90100
C  8.92200 50.72800 40.70300
C  10.04100 51.68400 41.02700
C  9.49800 53.01800 40.85600
C  10.87700 51.46900 42.39400
C  8.88500 49.98200 39.32300
C  8.57900 50.91700 38.12900
H  7.34100 50.78700 37.34900
N  8.60000 55.96800 40.49900
C  9.91400 55.49600 40.47000
C  10.80400 56.55700 40.12900
C  10.01000 57.77200 40.06100
C  8.61900 57.33300 40.21000
C  12.29600 56.38900 39.78500
C  10.50400 59.19800 39.84600
O  11.73600 59.44600 39.89800
C  9.57000 60.43600 39.84600
N  5.71100 56.30200 40.55300
C  6.14500 57.59800 40.32500
C  4.98100 58.55700 40.32100
C  3.66000 57.64300 40.42600
C  4.31000 56.28500 40.77700
C  4.94900 59.67800 41.36700
C  2.74000 57.70700 39.20600
C  2.24100 59.15000 38.66200
N  5.29800 53.55900 41.15300
C  3.94200 53.90400 41.32400
C  3.20300 52.76200 41.79900
C  4.14200 51.71100 41.70400
C  5.41400 52.26700 41.38000
C  1.72200 52.65300 42.04100
C  4.33600 50.33200 41.98900
O  3.59300 49.48900 42.47000
C  5.82600 49.97900 41.57200
C  5.63500 49.02700 40.47300
O  5.21600 49.40800 39.35700
O  5.83100 47.73900 40.79200
C  5.87600 46.75500 39.69300
H  11.31300 53.78600 40.50500
H  7.50500 59.11700 39.87000
H  2.47300 55.43500 41.39400
H  8.75500 50.00100 41.49800
H  10.82300 51.79000 40.27500
H  11.93500 51.45500 42.13100
H  10.78100 50.44300 42.75000
H  10.61500 52.15300 43.20000
H  8.14100 49.18800 39.39000
H  9.85900 49.54000 39.11500
H  9.40800 50.84000 37.42500
H  8.60300 51.92200 38.55100
H  12.82800 55.94700 40.62800
H  12.71500 57.35700 39.50900
H  12.27000 55.77500 38.88400
H  8.96300 60.38600 38.94300
H  10.10100 61.38500 39.92900
H  8.94900 60.25200 40.72300
H  5.01900 59.05100 39.35000
H  3.01800 57.83500 41.28600
H  4.82200 60.67000 40.93400
H  5.94900 59.63800 41.80000
H  4.20300 59.61800 42.15900
H  1.84300 57.13300 39.43600
H  3.30600 57.22800 38.40700
H  2.64800 59.91800 39.32000
H  1.16000 59.26900 38.73500
H  2.45300 59.22300 37.59500
H  1.25000 52.13500 41.20700
H  1.32200 53.66300 42.13300
H  1.64800 52.04500 42.94300
H  6.21300 49.48200 42.46100
H  6.26200 45.85600 40.17500
H  6.44800 46.98100 38.79300
H  4.85400 46.48700 39.42400

