158

Mg 40.37700 8.57200 28.93800
C  42.48200 9.80400 31.56100
C  38.38400 7.05200 31.40300
C  38.52900 7.44100 26.48800
C  42.83700 9.66000 26.57100
N  40.48500 8.42300 31.16400
C  41.35900 9.13500 32.01700
C  40.87600 9.02200 33.51800
C  39.75200 7.86200 33.40100
C  39.51200 7.71200 31.91600
C  39.96300 6.58000 34.16800
C  40.28200 10.42300 34.02500
C  41.07900 11.12100 35.15700
H  40.42300 11.94900 36.22600
N  38.71200 7.35900 28.91200
C  37.96900 6.85500 30.00000
C  36.82300 6.10000 29.51400
C  36.84100 6.20400 28.03500
C  38.04400 7.06700 27.76200
C  35.72500 5.48100 30.36300
C  35.97100 5.54700 27.01300
O  36.01000 5.76700 25.82300
C  34.95400 4.44700 27.34600
N  40.69100 8.48700 26.80900
C  39.71100 8.09300 26.02600
C  40.08400 8.30200 24.53100
C  41.37600 9.05000 24.60000
C  41.65900 9.08600 26.05300
C  40.09400 7.05900 23.59700
C  41.42500 10.37900 23.91900
C  40.76500 11.58500 24.53900
N  42.26300 9.54900 28.97900
C  43.12700 9.84800 27.96100
C  44.28300 10.49200 28.52000
C  44.00400 10.54500 29.92200
C  42.83100 9.92100 30.18200
C  45.59700 10.76300 27.92300
C  44.61000 10.84100 31.18600
O  45.72700 11.27700 31.39600
C  43.60000 10.49300 32.28800
C  44.30500 9.69000 33.31900
O  44.85300 8.60600 33.14000
O  44.34100 10.32000 34.55200
C  44.79100 9.38700 35.59100
H  37.72700 6.70300 32.20300
H  37.88800 7.09700 25.67400
H  43.63700 9.95200 25.88700
H  41.65800 8.73000 34.22000
H  38.82800 8.30800 33.76800
H  39.14700 6.30600 34.83600
H  40.85600 6.75000 34.76900
H  40.04000 5.66900 33.57400
H  39.25200 10.44500 34.37900
H  40.27900 11.05200 33.13400
H  41.77800 11.86000 34.76600
H  41.63900 10.28000 35.56600
H  34.76000 5.96800 30.21800
H  35.80300 5.64300 31.43800
H  35.76900 4.44600 30.02500
H  35.39400 3.73700 28.04600
H  34.78200 3.96600 26.38300
H  34.06700 4.86900 27.81700
H  39.26700 8.87700 24.09500
H  42.14400 8.41100 24.16400
H  40.72600 7.38800 22.77200
H  39.12600 6.79000 23.17400
H  40.53900 6.16600 24.03700
H  40.99100 10.23800 22.92900
H  42.48600 10.62700 23.89000
H  41.40500 12.45000 24.36600
H  40.42600 11.56200 25.57500
H  39.86200 11.83400 23.98100
H  46.41700 10.27500 28.45000
H  45.75600 11.84100 27.93200
H  45.80200 10.74400 26.85300
H  43.38000 11.48900 32.67100
H  44.11400 8.55000 35.76100
H  44.78400 10.00700 36.48800
H  45.75700 8.91500 35.41200
Mg -5.92000 25.83700 26.44300
C  -4.06100 27.08300 29.19900
C  -7.79400 23.99500 28.67400
C  -7.39500 24.40000 23.79100
C  -3.71800 27.60900 24.21200
N  -5.74300 25.44100 28.54800
C  -5.10400 26.20000 29.49400
C  -5.63800 25.96900 30.97000
C  -6.53400 24.74800 30.78400
C  -6.73400 24.75800 29.22500
C  -6.21800 23.37500 31.39300
C  -6.38500 27.19800 31.55800
C  -6.63400 27.34900 33.05800
H  -6.16300 26.19400 33.97300
N  -7.36100 24.39900 26.25300
C  -8.08000 23.82500 27.33600
C  -8.97400 22.82800 26.75800
C  -8.74100 22.86100 25.32500
C  -7.77600 23.97500 25.08300
C  -10.04300 22.14000 27.61800
C  -9.41600 21.94800 24.30800
O  -9.26200 22.01900 23.10900
C  -10.30800 20.88100 24.78100
N  -5.61900 25.93500 24.31300
C  -6.40800 25.33700 23.42000
C  -5.93900 25.55400 22.00900
C  -5.06400 26.80000 22.17800
C  -4.67400 26.74100 23.65700
C  -5.12700 24.32600 21.61300
C  -5.59400 28.26500 21.80100
C  -4.91900 28.81400 20.61200
N  -4.27100 27.17200 26.60600
C  -3.51000 27.82100 25.63800
C  -2.59900 28.71800 26.30500
C  -2.77500 28.37800 27.65500
C  -3.75200 27.44300 27.82200
C  -1.57800 29.62800 25.69100
C  -2.25100 28.64700 28.90500
O  -1.30900 29.37100 29.20000
C  -3.10700 27.76800 30.01100
C  -2.07800 26.84100 30.63800
O  -1.74600 25.81500 30.19100
O  -1.73000 27.39900 31.82400
C  -1.14200 26.47000 32.77400
H  -8.43200 23.56300 29.44700
H  -7.98900 23.98700 22.97300
H  -3.08900 28.10200 23.46800
H  -4.84400 25.77300 31.69200
H  -7.42500 25.03900 31.33900
H  -5.15800 23.21200 31.59200
H  -6.49400 22.62900 30.64800
H  -6.77300 23.02900 32.26500
H  -7.29900 27.35400 30.98600
H  -5.76300 28.05800 31.31100
H  -7.72300 27.33000 33.01300
H  -6.13200 28.22500 33.46900
H  -11.04000 22.51400 27.38500
H  -9.86500 22.30100 28.68100
H  -9.99500 21.08000 27.36700
H  -11.08000 21.49400 25.24500
H  -9.80500 20.14200 25.40400
H  -10.85700 20.39700 23.97400
H  -6.75400 25.71600 21.30400
H  -4.12000 26.58100 21.67900
H  -4.20900 24.20000 22.18600
H  -4.83700 24.40700 20.56500
H  -5.75000 23.44600 21.77400
H  -5.39000 29.03200 22.54800
H  -6.67000 28.25000 21.63000
H  -5.57200 28.82200 19.74000
H  -3.96600 28.29500 20.50700
H  -4.60000 29.83900 20.80100
H  -1.34800 29.29000 24.68000
H  -0.65800 29.72300 26.26800
H  -2.00800 30.62500 25.59300
H  -3.58200 28.37500 30.78100
H  -0.18500 26.85700 33.12600
H  -0.89400 25.44200 32.51100
H  -1.90300 26.33200 33.54200

