158

Mg 47.95800 44.75900 43.37700
C  44.59300 45.07800 42.26100
C  47.86700 41.40900 42.39900
C  51.44900 44.60600 43.75800
C  48.09900 48.27100 43.59800
N  46.45500 43.48300 42.44300
C  45.16000 43.74000 42.14600
C  44.53900 42.48000 41.50000
C  45.43300 41.35900 41.95600
C  46.67800 42.13500 42.28500
C  44.76600 40.54500 43.13300
C  44.35300 42.69200 39.98000
C  43.04500 42.20100 39.38700
H  43.11900 41.58300 37.97100
N  49.45100 43.20500 43.19100
C  49.16800 41.86600 42.88100
C  50.46500 41.05500 42.92900
C  51.50500 41.99400 43.28600
C  50.83500 43.34500 43.46200
C  50.55000 39.62600 42.57300
C  52.98800 41.65000 43.37400
O  53.38700 40.52300 43.00800
C  54.03700 42.71100 43.78000
N  49.56600 46.21500 43.40700
C  50.85200 45.93600 43.75600
C  51.67100 47.16900 44.03100
C  50.64600 48.28600 43.97300
C  49.35800 47.56900 43.65400
C  52.40700 47.05100 45.45500
C  51.06400 49.31500 42.92400
C  51.83400 50.61900 43.16100
N  46.57700 46.37300 43.15100
C  46.85900 47.73800 43.16800
C  45.62900 48.40400 42.88000
C  44.69200 47.42300 42.55200
C  45.34900 46.22600 42.67600
C  45.50000 49.93400 42.80100
C  43.32800 47.25300 42.00500
O  42.50700 48.02500 41.59100
C  43.26500 45.67300 41.90000
C  42.07700 45.02500 42.51400
O  41.46800 44.07000 41.96800
O  41.82800 45.55500 43.75000
C  40.85000 44.89500 44.64200
H  47.87000 40.34600 42.14900
H  52.52300 44.70500 43.93200
H  48.24000 49.34600 43.73600
H  43.52900 42.53200 41.90700
H  45.62800 40.69500 41.11400
H  44.84400 39.47800 42.92400
H  43.73200 40.85500 43.28300
H  45.40100 40.73500 43.99800
H  45.27700 42.24600 39.61200
H  44.37700 43.76800 39.81200
H  42.28600 42.97700 39.28900
H  42.69200 41.36600 39.99200
H  50.82100 39.47600 41.52800
H  49.55200 39.19600 42.66600
H  51.18000 39.11100 43.29900
H  54.93600 42.10400 43.88500
H  53.82000 43.08200 44.78200
H  54.22000 43.50700 43.05900
H  52.46600 47.37700 43.31500
H  50.67600 48.63700 45.00500
H  52.37000 47.98800 46.01000
H  53.48400 46.88000 45.44800
H  51.96900 46.22800 46.01900
H  50.10200 49.69100 42.57600
H  51.56900 48.89900 42.05200
H  51.29500 51.44700 42.70200
H  52.79800 50.50300 42.66600
H  52.04200 50.69400 44.22900
H  44.46500 50.25100 42.92500
H  45.90200 50.40500 41.90300
H  46.14300 50.26500 43.61600
H  43.11800 45.54900 40.82800
H  39.87900 45.37200 44.50800
H  41.20800 44.99400 45.66600
H  40.81500 43.82400 44.43700
Mg 47.49700 34.34400 27.63700
C  45.52100 32.76300 30.12100
C  47.75900 37.04500 29.81700
C  48.98400 35.91400 25.07000
C  46.56600 31.81700 25.45700
N  46.86900 34.72000 29.76600
C  46.18800 33.86700 30.60700
C  46.23400 34.41700 32.09800
C  46.39600 35.93800 31.80400
C  47.10700 35.92000 30.40500
C  45.07800 36.73000 31.72400
C  47.51400 33.88400 32.80700
C  47.38900 33.73400 34.30200
H  46.26000 34.56000 34.98500
N  48.28300 36.22100 27.42400
C  48.39800 37.13700 28.50100
C  49.26700 38.26100 28.03700
C  49.47600 38.00000 26.64000
C  48.98000 36.66800 26.29900
C  49.70100 39.35100 29.02400
C  50.20400 38.89700 25.66200
O  50.46300 38.44000 24.50800
C  50.70800 40.28500 26.04200
N  47.89300 33.83700 25.53000
C  48.50100 34.66700 24.71500
C  48.27700 34.27200 23.22300
C  47.78200 32.77600 23.39000
C  47.36300 32.78300 24.84300
C  47.14000 35.22700 22.54400
C  48.88100 31.70700 23.06000
C  50.07700 31.56200 24.00400
N  46.31000 32.63200 27.69600
C  46.04800 31.69200 26.69400
C  45.34000 30.57400 27.32500
C  45.10200 31.03200 28.65300
C  45.67100 32.23100 28.83700
C  44.96900 29.28300 26.73800
C  44.34200 30.62700 29.84500
O  43.72800 29.58700 30.01800
C  44.40700 31.85000 30.82100
C  44.52600 31.47200 32.23900
O  45.56300 31.28500 32.77600
O  43.28400 31.63900 32.84100
C  43.25600 31.51300 34.32400
H  47.69900 37.90700 30.48500
H  49.42600 36.33200 24.16300
H  46.25700 30.92500 24.90800
H  45.27400 34.22900 32.58000
H  46.94500 36.50400 32.55600
H  44.58000 36.59900 30.76300
H  45.16500 37.74000 32.12400
H  44.42600 36.20800 32.42400
H  48.38800 34.49900 32.59300
H  47.57300 32.92700 32.28800
H  48.32100 33.88200 34.84800
H  47.16400 32.67300 34.40700
H  50.75500 39.62900 29.02600
H  49.47000 38.97100 30.01900
H  49.06000 40.22900 28.94800
H  49.90300 40.80600 26.56100
H  50.95700 40.75100 25.08900
H  51.49000 40.10900 26.78100
H  49.24100 34.39500 22.72800
H  46.94500 32.53200 22.73600
H  46.82300 36.02400 23.21700
H  46.28200 34.62400 22.24900
H  47.56600 35.61100 21.61700
H  49.14500 31.91500 22.02300
H  48.40600 30.72800 23.00300
H  50.87800 31.93700 23.36600
H  50.06400 30.48900 24.19600
H  50.13300 32.12100 24.93800
H  45.76200 28.94300 26.07100
H  44.01600 29.34300 26.21200
H  45.00600 28.51400 27.50900
H  43.50600 32.44400 30.66900
H  43.83100 30.61900 34.56500
H  42.24300 31.34100 34.68700
H  43.57400 32.43200 34.81600

