158

Mg 34.85600 2.54700 29.47600
C  32.78600 3.58100 32.01000
C  37.44800 2.22000 31.66600
C  37.03200 2.12900 26.79200
C  32.15500 2.91300 27.13300
N  35.11900 3.08100 31.59400
C  34.04400 3.27700 32.51100
C  34.61100 3.27700 33.88200
C  36.10700 2.87600 33.71900
C  36.21400 2.65700 32.21500
C  37.15700 3.87600 34.32500
C  33.86700 2.15500 34.75500
C  33.82100 2.50600 36.26800
H  34.76100 3.52700 36.86300
N  36.88400 2.08100 29.25300
C  37.74400 1.99900 30.31600
C  39.01500 1.54900 29.78300
C  38.98900 1.59100 28.40200
C  37.60200 1.85400 28.07500
C  40.16500 0.99400 30.66100
C  40.02300 1.35400 27.31100
O  39.81600 1.41300 26.09100
C  41.50300 1.28100 27.55400
N  34.64900 2.61600 27.34000
C  35.69300 2.46700 26.43500
C  35.18600 2.69300 24.96000
C  33.66600 2.50900 25.12100
C  33.42000 2.67300 26.62900
C  35.65500 4.13700 24.50000
C  33.11200 1.24100 24.66100
C  32.86600 0.06200 25.53500
N  32.87700 3.17700 29.47200
C  31.89300 3.22400 28.46500
C  30.64200 3.68700 29.09700
C  30.98100 3.90600 30.45900
C  32.37500 3.56800 30.64800
C  29.41000 3.89800 28.46700
C  30.43300 4.26600 31.75800
O  29.31700 4.53000 32.19900
C  31.56900 3.99900 32.82100
C  31.82100 5.25100 33.65200
O  32.09900 6.35700 33.22500
O  31.32100 5.03600 34.93500
C  31.42200 6.07500 35.86000
H  38.24900 1.96500 32.36300
H  37.67200 2.14400 25.90800
H  31.28800 3.03300 26.48000
H  34.53100 4.32000 34.18800
H  36.29000 1.90800 34.18700
H  37.71600 3.35100 35.09900
H  36.68200 4.73400 34.80000
H  37.89700 4.18500 33.58700
H  34.35100 1.19500 34.57600
H  32.82900 2.03100 34.44500
H  33.80000 1.56600 36.81900
H  32.83400 2.95700 36.36800
H  40.23500 -0.04000 30.32200
H  39.82400 0.97900 31.69600
H  41.05400 1.60600 30.51100
H  41.76900 0.38200 28.11100
H  41.72900 2.18200 28.12400
H  42.07600 1.18300 26.63200
H  35.73500 1.99700 24.32500
H  33.16100 3.28500 24.54600
H  36.26600 3.93200 23.62100
H  36.37900 4.58000 25.18300
H  34.92700 4.90000 24.22700
H  33.80200 0.91300 23.88300
H  32.24400 1.62800 24.12700
H  32.87200 0.43200 26.56000
H  33.53600 -0.78600 25.39300
H  31.87200 -0.27200 25.23800
H  29.26800 3.71500 27.40200
H  29.08500 4.89900 28.74700
H  28.68600 3.33200 29.05300
H  31.30100 3.09500 33.36800
H  30.53100 6.69900 35.80600
H  32.26400 6.70400 35.57000
H  31.46400 5.64900 36.86300
Mg 46.64200 16.91700 28.45500
C  44.47300 16.34200 31.34800
C  48.75600 18.57700 30.53700
C  48.28800 17.80600 25.74600
C  44.13900 15.48000 26.45100
N  46.65900 17.31100 30.64200
C  45.70600 17.01700 31.61800
C  46.22400 17.39400 32.95400
C  47.39000 18.34200 32.65400
C  47.65700 18.08300 31.18000
C  47.13000 19.81600 33.02600
C  46.61500 16.20700 33.73200
C  47.12200 16.40900 35.19000
H  46.79500 17.73400 35.84700
N  48.35200 17.96900 28.16600
C  49.13000 18.54900 29.16600
C  50.27700 19.14500 28.54400
C  50.24800 18.76400 27.16300
C  48.88500 18.20800 26.95900
C  51.25200 19.94200 29.29500
C  51.28900 18.84300 26.00200
O  51.11800 18.39600 24.87200
C  52.70500 19.35300 26.33300
N  46.27800 16.56000 26.45400
C  47.13000 17.06600 25.46200
C  46.57500 16.84300 24.05900
C  45.40500 15.87800 24.26300
C  45.21900 15.96200 25.79400
C  46.38400 18.14600 23.23700
C  45.59700 14.38800 23.83400
C  46.45600 13.47600 24.66900
N  44.68600 16.11000 28.77400
C  43.81000 15.45600 27.85500
C  42.67600 14.88700 28.55000
C  42.85200 15.29900 29.87500
C  44.13000 15.94900 29.96200
C  41.49600 14.17900 27.92700
C  42.27100 15.37100 31.17500
O  41.13200 15.00100 31.58100
C  43.28600 15.91200 32.17200
C  42.70000 16.98800 32.93000
O  42.12700 17.96500 32.46900
O  43.15200 16.90700 34.25000
C  42.67300 18.04200 35.02100
H  49.56200 19.03600 31.11300
H  48.92800 18.10200 24.91100
H  43.44800 15.04500 25.72600
H  45.39700 17.94400 33.40300
H  48.31900 18.12400 33.18200
H  46.51000 20.17500 32.20400
H  48.07600 20.35700 33.03300
H  46.73300 19.86200 34.04000
H  47.50200 15.81800 33.23300
H  45.89900 15.38600 33.67600
H  48.19800 16.24200 35.15400
H  46.59400 15.69900 35.82700
H  51.49000 20.75600 28.61000
H  52.21100 19.43000 29.38100
H  50.93800 20.24100 30.29500
H  53.42800 19.40000 25.51900
H  53.12300 18.90500 27.23500
H  52.36200 20.36800 26.53000
H  47.38400 16.26100 23.61800
H  44.49900 16.29900 23.82600
H  45.31700 18.23700 23.03600
H  46.96500 18.00800 22.32500
H  46.82000 18.97800 23.79000
H  46.10800 14.39400 22.87100
H  44.59900 13.95900 23.74300
H  45.93600 13.35900 25.62000
H  47.36100 13.97700 25.01000
H  46.74700 12.48700 24.31600
H  41.84300 13.25300 27.46800
H  41.21600 14.99000 27.25400
H  40.66800 13.95200 28.59900
H  43.63200 15.18600 32.90800
H  41.59600 18.11500 34.86600
H  43.14300 18.96200 34.67400
H  42.78000 17.78500 36.07500

