158

Mg 24.02100 -4.74600 45.91700
C  26.22200 -2.44400 44.42200
C  21.60200 -3.78200 43.73500
C  22.27200 -7.64600 46.72700
C  26.91000 -6.21700 47.49500
N  24.00600 -3.36800 44.23400
C  24.99700 -2.43200 43.79800
C  24.42600 -1.40100 42.77900
C  22.91500 -1.61600 42.93400
C  22.83100 -3.04600 43.72200
C  22.17700 -0.51000 43.62100
C  24.98700 -1.68300 41.37600
C  25.45200 -0.47700 40.63500
H  25.33100 -0.54900 39.07100
N  22.11000 -5.48200 45.47900
C  21.28300 -4.90100 44.54200
C  20.02900 -5.68600 44.56800
C  20.21200 -6.78600 45.48800
C  21.58900 -6.69400 45.92500
C  18.81800 -5.27500 43.78300
C  19.22300 -7.89000 45.80700
O  18.12500 -7.82200 45.25400
C  19.42600 -9.01900 46.82200
N  24.55100 -6.68900 47.05000
C  23.60000 -7.65500 47.21300
C  24.21300 -8.81200 47.95700
C  25.71000 -8.46900 48.11200
C  25.77100 -6.99300 47.55700
C  23.48800 -9.19800 49.30000
C  26.71300 -9.46900 47.46800
C  26.93500 -10.70000 48.23100
N  26.12000 -4.37000 46.08400
C  27.12400 -4.90900 46.87900
C  28.31000 -4.09600 46.70700
C  28.00100 -3.15700 45.71900
C  26.65200 -3.37200 45.35200
C  29.63600 -4.28800 47.43200
C  28.58700 -2.09700 44.95400
O  29.72900 -1.63200 44.95000
C  27.45400 -1.63600 44.03800
C  27.15600 -0.19200 44.43700
O  26.48800 0.14000 45.35400
O  27.86700 0.69800 43.61400
C  27.69100 2.15000 43.87900
H  20.77900 -3.44600 43.10100
H  21.79900 -8.54200 47.13300
H  27.75600 -6.72800 47.95900
H  24.71100 -0.38000 43.02900
H  22.35500 -1.89200 42.04100
H  22.92100 0.10900 44.12200
H  21.45600 -0.82200 44.37600
H  21.78400 0.15900 42.85600
H  24.18200 -2.05200 40.74000
H  25.75700 -2.44400 41.50300
H  26.49400 -0.25800 40.86800
H  24.92300 0.44100 40.89000
H  18.48300 -6.08200 43.13100
H  19.00500 -4.49700 43.04300
H  18.01900 -5.05900 44.49300
H  18.46600 -9.50700 46.99100
H  19.83900 -8.76800 47.79900
H  19.95900 -9.85700 46.37300
H  24.25200 -9.69200 47.31500
H  25.98400 -8.43600 49.16600
H  23.99900 -8.83900 50.19400
H  23.46400 -10.28800 49.30700
H  22.51300 -8.71300 49.27800
H  27.65600 -8.92600 47.41000
H  26.24400 -9.69800 46.51100
H  26.55200 -11.52800 47.63500
H  26.49300 -10.61700 49.22400
H  27.99400 -10.89000 48.40300
H  29.75400 -5.37200 47.40100
H  29.55100 -3.82000 48.41300
H  30.45600 -3.88800 46.83600
H  27.78000 -1.60300 42.99900
H  27.61900 2.67600 42.92800
H  28.61800 2.52500 44.31300
H  26.77000 2.47700 44.36300
Mg 5.53600 53.66200 41.31100
C  5.17800 50.12000 40.95700
C  8.79300 53.25800 40.28300
C  5.55100 56.76400 40.95600
C  1.98400 53.59500 41.94300
N  6.79000 51.92800 40.76100
C  6.52200 50.60500 40.59400
C  7.61900 49.80500 39.84700
C  8.81700 50.71900 40.09500
C  8.13500 52.07300 40.43400
C  9.85800 50.27300 41.15000
C  7.33600 49.45900 38.34900
C  6.51700 50.43500 37.48300
H  7.39700 51.22500 36.42600
N  7.03100 54.87500 40.77000
C  8.29100 54.55500 40.34800
C  9.00300 55.70900 40.01400
C  8.07900 56.85400 40.16100
C  6.80600 56.19800 40.61100
C  10.41700 55.62800 39.42800
C  8.40700 58.33600 39.75300
O  9.54500 58.67100 39.55600
C  7.33500 59.30100 39.68600
N  3.94600 54.93900 41.21900
C  4.27200 56.27800 41.20900
C  3.12200 57.20000 41.60100
C  1.94700 56.15600 41.75000
C  2.61500 54.78500 41.63200
C  3.27200 58.18900 42.84300
C  0.86600 56.38600 40.67400
C  -0.51500 56.01800 41.29600
N  3.94600 52.18800 41.57400
C  2.60100 52.37400 41.88300
C  2.05700 51.03200 42.17600
C  3.00800 50.19900 41.78900
C  4.14200 50.89800 41.34100
C  0.71900 50.66300 42.69600
C  3.25900 48.79900 41.57600
O  2.50000 47.82800 41.76700
C  4.70400 48.70300 41.09300
C  4.59200 47.92500 39.87600
O  3.81100 48.28000 38.95000
O  5.11800 46.62600 39.93200
C  4.68400 45.74300 38.81200
H  9.86800 53.25400 40.08800
H  5.56800 57.85400 40.90200
H  0.96300 53.86800 42.21800
H  7.79100 48.84400 40.33200
H  9.42900 50.87800 39.20700
H  9.36100 50.34700 42.11700
H  10.75600 50.88100 41.03800
H  10.08300 49.22500 40.95300
H  6.76800 48.53300 38.44900
H  8.30200 49.24300 37.89300
H  5.86400 51.16500 37.96000
H  5.88200 49.72000 36.95900
H  10.44400 55.59500 38.33900
H  10.98300 54.78100 39.81700
H  10.94300 56.53000 39.74100
H  7.76600 60.12400 39.11500
H  7.07500 59.63000 40.69200
H  6.49300 58.86200 39.15100
H  2.93300 57.88300 40.77300
H  1.50000 56.15900 42.74400
H  4.28200 58.20500 43.25400
H  2.62400 57.89000 43.66800
H  3.03900 59.16300 42.41400
H  0.99500 55.61300 39.91600
H  0.88600 57.36800 40.20100
H  -1.26300 56.80900 41.25800
H  -0.51600 55.60700 42.30600
H  -0.87500 55.16600 40.71900
H  0.14900 50.07600 41.97600
H  0.25000 51.53000 43.16100
H  0.99100 49.95800 43.48100
H  5.43200 48.30000 41.79700
H  4.84700 46.21200 37.84200
H  3.61200 45.55400 38.85700
H  5.29700 44.84100 38.81800

