158

Mg -1.57100 18.38600 26.89100
C  -2.32500 16.35600 29.75600
C  -2.39500 21.17000 28.76200
C  -1.17100 20.16300 23.99800
C  -1.32900 15.38100 25.03000
N  -2.27400 18.67800 29.02200
C  -2.25600 17.74000 30.05200
C  -2.48800 18.40100 31.38400
C  -2.93600 19.91800 30.99200
C  -2.54400 19.97100 29.46900
C  -4.42400 20.34800 31.15500
C  -1.28200 18.25600 32.40600
C  -1.64200 17.72400 33.86800
H  -0.43400 17.53700 34.86200
N  -1.79400 20.31400 26.41500
C  -2.02600 21.33000 27.36100
C  -1.95400 22.60300 26.70200
C  -1.46200 22.32500 25.36500
C  -1.40700 20.91100 25.22300
C  -2.25800 23.95600 27.35600
C  -1.18900 23.30800 24.21700
O  -0.90300 22.93500 23.06100
C  -1.06600 24.77800 24.50400
N  -1.07000 17.86400 24.82500
C  -1.02300 18.78600 23.81800
C  -0.94200 18.08200 22.40600
C  -0.95100 16.60300 22.79800
C  -1.14700 16.56200 24.34100
C  -2.14700 18.58000 21.43000
C  0.41000 15.87300 22.33200
C  0.15100 14.49600 21.76800
N  -1.72800 16.27600 27.29100
C  -1.58900 15.20400 26.40600
C  -1.93200 14.02000 27.11000
C  -2.16900 14.37900 28.40600
C  -2.02900 15.78200 28.45100
C  -2.16100 12.64500 26.48900
C  -2.56100 13.84500 29.69300
O  -2.70500 12.68900 29.98700
C  -2.61200 15.15000 30.68800
C  -1.53300 14.81300 31.67200
O  -0.33300 14.64100 31.36700
O  -1.98800 14.60600 32.92800
C  -1.26700 13.63400 33.75500
H  -2.45900 22.04300 29.41600
H  -1.16300 20.60200 22.99800
H  -1.33700 14.49200 24.39600
H  -3.33500 17.89000 31.84200
H  -2.25200 20.60000 31.49800
H  -4.77400 20.71200 30.18900
H  -4.54200 21.10500 31.93100
H  -4.96400 19.45400 31.46600
H  -0.78000 19.21500 32.53700
H  -0.49500 17.64200 31.96800
H  -2.15000 16.76300 33.78700
H  -2.31800 18.41800 34.36700
H  -3.15100 24.34300 26.86600
H  -1.30800 24.48300 27.44200
H  -2.52300 23.85800 28.40900
H  -1.26400 25.38100 23.61800
H  -0.13900 25.00100 25.03100
H  -1.92600 25.06800 25.10700
H  -0.00800 18.41000 21.95100
H  -1.73300 16.12900 22.20500
H  -2.90100 17.79400 21.37500
H  -1.77000 18.75000 20.42200
H  -2.63000 19.49800 21.76500
H  1.10500 15.82700 23.16900
H  0.82800 16.54700 21.58400
H  0.86900 14.34100 20.96200
H  -0.87500 14.43800 21.40500
H  0.24400 13.70000 22.50600
H  -2.18900 12.59200 25.40100
H  -3.10700 12.20200 26.80000
H  -1.46300 11.94300 26.94600
H  -3.52600 15.23700 31.27500
H  -0.60200 14.25200 34.35900
H  -0.64700 12.93500 33.19500
H  -1.89300 13.08500 34.45800
Mg 0.47200 43.60800 26.68900
C  2.66200 43.67900 29.43800
C  -2.03900 42.56300 28.93700
C  -1.58700 42.89400 24.05200
C  3.06300 44.53300 24.58400
N  0.34900 43.13700 28.88200
C  1.36300 43.34300 29.81300
C  0.86200 43.07500 31.25500
C  -0.66100 42.67100 31.10500
C  -0.77800 42.79900 29.53400
C  -1.03700 41.23400 31.67200
C  1.19000 44.28900 32.16200
C  0.31400 44.60600 33.39800
H  -0.01900 43.52100 34.42700
N  -1.60800 42.96800 26.59200
C  -2.42100 42.64700 27.57100
C  -3.75100 42.47000 26.99600
C  -3.66700 42.56500 25.60700
C  -2.22400 42.78100 25.29900
C  -4.95400 42.13400 27.88700
C  -4.66500 42.33100 24.51600
O  -4.41600 42.39300 23.29000
C  -6.11000 41.93100 24.92200
N  0.71700 43.53800 24.71300
C  -0.24000 43.18000 23.76600
C  0.30500 43.38200 22.31500
C  1.49500 44.34400 22.56000
C  1.81200 44.11300 24.06900
C  0.63600 42.04800 21.54500
C  1.15800 45.87500 22.45400
C  1.86300 46.50700 21.27600
N  2.43600 43.99000 26.90100
C  3.33900 44.40400 25.95700
C  4.65600 44.45400 26.52600
C  4.43100 44.17600 27.85200
C  3.04300 43.92400 28.08500
C  5.95800 44.85900 25.89200
C  5.07700 43.99700 29.15700
O  6.25200 44.00400 29.43100
C  3.91300 43.77000 30.22900
C  4.28100 42.56600 30.96600
O  4.12300 41.42000 30.51200
O  4.68000 42.97400 32.22700
C  4.90100 41.84700 33.15400
H  -2.83900 42.29000 29.62700
H  -2.12400 42.66300 23.12900
H  3.91000 44.74000 23.92700
H  1.55400 42.28000 31.53100
H  -1.30500 43.43400 31.54200
H  -1.31400 40.55700 30.86400
H  -1.99600 41.18100 32.18800
H  -0.18500 40.76900 32.16700
H  1.20900 45.14500 31.48700
H  2.18900 44.12000 32.56400
H  -0.63100 45.10700 33.18900
H  0.93400 45.22100 34.04900
H  -5.83400 42.53000 27.38100
H  -5.04000 42.73800 28.79100
H  -5.00000 41.09300 28.20600
H  -6.76600 41.92800 24.05100
H  -6.57900 42.74400 25.47800
H  -6.02300 40.96400 25.41600
H  -0.50300 43.95100 21.85600
H  2.35700 44.07800 21.94800
H  -0.27300 41.82000 20.98800
H  0.91300 41.27600 22.26300
H  1.38900 42.17600 20.76700
H  1.35500 46.48700 23.33500
H  0.10800 46.13100 22.31500
H  1.19200 46.87600 20.50100
H  2.55500 45.84900 20.75000
H  2.42700 47.35300 21.67000
H  6.37000 45.51100 26.66100
H  6.01800 45.19800 24.85800
H  6.69800 44.06600 25.78000
H  3.89000 44.68600 30.82000
H  4.22400 41.89500 34.00700
H  5.89000 42.06100 33.55800
H  4.84000 40.79400 32.88000

