158

Mg 35.32200 2.46400 29.82700
C  33.09900 3.32400 32.46700
C  37.93700 2.29000 32.21400
C  37.47100 2.10900 27.28700
C  32.67400 3.09700 27.60000
N  35.53400 2.87700 32.12200
C  34.46300 3.02500 32.92300
C  34.90800 3.13300 34.41600
C  36.45300 3.03200 34.25900
C  36.69200 2.71000 32.79600
C  37.16700 4.26900 34.87600
C  34.30300 1.95000 35.31400
C  34.17400 2.13800 36.80700
H  34.86800 3.29500 37.53200
N  37.45200 2.20000 29.78700
C  38.29200 2.05900 30.85300
C  39.52900 1.73900 30.32600
C  39.49100 1.79200 28.86800
C  38.10300 2.14400 28.58800
C  40.60600 1.39700 31.23600
C  40.58800 1.71300 27.83700
O  40.41400 2.03200 26.65800
C  41.93100 1.27500 28.23600
N  35.10300 2.65400 27.75900
C  36.14700 2.37700 26.83300
C  35.68800 2.48100 25.37500
C  34.15500 2.50300 25.53500
C  33.92300 2.81300 27.01700
C  36.24600 3.70400 24.42100
C  33.30700 1.34000 24.88400
C  33.10100 0.07500 25.64400
N  33.27100 3.06700 29.96400
C  32.36200 3.28800 28.93400
C  31.15100 3.79300 29.49700
C  31.33700 3.74200 30.90700
C  32.69300 3.33400 31.12500
C  29.87200 4.21500 28.68700
C  30.79200 3.86800 32.21000
O  29.64600 4.20800 32.48700
C  31.88900 3.68300 33.28500
C  31.79400 4.93400 34.10000
O  32.23800 6.05900 33.80300
O  31.21500 4.67000 35.27800
C  30.94400 5.87000 36.10500
H  38.71300 2.18100 32.97500
H  38.17000 1.71900 26.54400
H  31.83700 3.35800 26.94900
H  34.59300 4.08800 34.83600
H  36.81700 2.15200 34.78900
H  38.07100 4.55300 34.33800
H  37.38300 4.05600 35.92300
H  36.60400 5.19900 34.80300
H  34.96200 1.11700 35.06900
H  33.30100 1.66800 34.99100
H  34.64600 1.27800 37.28300
H  33.14500 2.17000 37.16300
H  40.60900 2.14600 32.02800
H  41.61500 1.45000 30.82900
H  40.43800 0.43400 31.71900
H  41.87800 0.26200 28.63300
H  42.30200 2.04200 28.91600
H  42.45900 1.36400 27.28600
H  35.85300 1.52400 24.88100
H  33.88900 3.42700 25.02100
H  36.83000 3.18900 23.65800
H  37.03600 4.24900 24.93900
H  35.47900 4.36800 24.02300
H  33.95400 1.14900 24.02800
H  32.32200 1.70800 24.59600
H  33.37300 -0.85500 25.14600
H  32.09500 0.01700 26.06100
H  33.64300 0.07300 26.58900
H  30.18000 5.10300 28.13500
H  28.90500 4.39700 29.15800
H  29.91000 3.33300 28.04800
H  31.53200 2.84600 33.88600
H  30.39400 5.54500 36.98800
H  30.34000 6.66800 35.67300
H  31.83400 6.41600 36.41700
Mg 47.38000 25.45900 29.22100
C  48.39400 27.63700 31.82200
C  46.19600 23.30600 31.56500
C  47.05700 23.18700 26.77200
C  49.11800 27.53700 26.95500
N  47.05600 25.60400 31.40200
C  47.59900 26.54600 32.30000
C  47.21400 26.14700 33.80200
C  46.66000 24.74400 33.59600
C  46.56400 24.55800 32.07200
C  47.57000 23.66700 34.27300
C  46.28900 27.25300 34.41300
C  46.70600 27.94500 35.75000
H  47.13100 26.96100 36.88000
N  46.62700 23.47800 29.11500
C  46.19100 22.81600 30.24900
C  45.64900 21.60900 29.75300
C  45.89800 21.52600 28.37100
C  46.56000 22.74300 28.01300
C  44.81500 20.66500 30.64500
C  45.53300 20.39900 27.36400
O  45.98900 20.34200 26.24400
C  44.68100 19.19500 27.69800
N  48.12000 25.37600 27.14800
C  47.65700 24.38400 26.35500
C  48.01500 24.58500 24.90900
C  48.48200 26.05200 24.93400
C  48.58900 26.33800 26.45900
C  49.07300 23.64700 24.37500
C  47.59700 27.00900 24.07600
C  48.16600 28.27100 23.61900
N  48.62800 27.23000 29.36900
C  49.23500 28.00000 28.35700
C  49.78800 29.17100 28.92000
C  49.44700 29.08900 30.29000
C  48.75500 27.87200 30.47300
C  50.32200 30.31900 28.18300
C  49.52600 29.79000 31.59100
O  49.98700 30.89300 31.92400
C  48.96800 28.81300 32.64200
C  50.08500 28.35800 33.52200
O  50.94500 27.62400 33.15400
O  49.96800 28.85000 34.81000
C  50.92800 28.26800 35.74400
H  45.98800 22.58000 32.35400
H  46.76500 22.47900 25.99300
H  49.66100 28.15400 26.23600
H  48.17100 26.07800 34.32000
H  45.63700 24.55000 33.91800
H  48.21300 24.06700 35.05700
H  48.09500 22.91700 33.68200
H  46.80500 23.05800 34.75300
H  45.26700 26.92100 34.59700
H  46.14900 28.08600 33.72400
H  45.82700 28.46300 36.13300
H  47.48100 28.69500 35.59200
H  44.40800 21.14300 31.53600
H  45.37500 19.76000 30.88300
H  43.94900 20.36800 30.05400
H  44.97200 18.73900 28.64300
H  44.79400 18.44800 26.91200
H  43.62400 19.45500 27.62800
H  47.13100 24.49900 24.27800
H  49.47100 26.15300 24.48900
H  50.04700 24.08700 24.15900
H  48.77700 23.21300 23.42000
H  49.21000 22.85000 25.10600
H  46.64700 27.16500 24.58700
H  47.38700 26.56100 23.10500
H  48.34900 28.41500 22.55400
H  49.18800 28.34200 23.98900
H  47.56100 29.07800 24.03100
H  49.51100 31.03200 28.32900
H  50.54900 30.11100 27.13700
H  51.19600 30.48300 28.81400
H  48.21300 29.34600 33.22100
H  51.03500 28.84300 36.66400
H  51.93400 28.23500 35.32700
H  50.53700 27.31700 36.10700

