158

Mg 2.35800 -2.05700 44.86700
C  5.80800 -1.70300 44.42300
C  1.91600 0.68700 42.70800
C  -0.92300 -2.97000 44.46100
C  3.07900 -5.27900 46.28900
N  3.66800 -0.84800 43.50800
C  5.07400 -0.84500 43.57400
C  5.64100 0.35200 42.75000
C  4.34300 1.27100 42.51200
C  3.23600 0.32800 42.95300
C  4.29100 2.55600 43.38200
C  6.39800 -0.19000 41.39300
C  7.93700 0.16000 41.31900
H  8.47600 0.60100 39.95900
N  0.62600 -1.18100 43.93700
C  0.69400 -0.03800 43.10700
C  -0.61600 0.41900 42.91300
C  -1.49100 -0.58300 43.43000
C  -0.60700 -1.63500 44.00800
C  -0.86400 1.77700 42.20200
C  -3.03100 -0.50200 43.46300
O  -3.67400 0.49900 43.05800
C  -3.97300 -1.64600 44.02100
N  1.23300 -3.86200 45.38400
C  -0.13200 -3.94200 45.12900
C  -0.65900 -5.33200 45.57400
C  0.59500 -6.05300 46.27600
C  1.69500 -5.03100 45.99900
C  -2.00000 -5.46200 46.31300
C  0.88700 -7.50500 45.84700
C  1.22900 -8.52400 46.99100
N  4.00000 -3.20600 45.57100
C  4.12100 -4.45100 46.14700
C  5.49100 -4.71700 46.46100
C  6.18000 -3.62500 45.89900
C  5.30800 -2.75100 45.28200
C  5.93900 -5.90700 47.15400
C  7.44200 -2.96200 45.66500
O  8.56400 -3.19000 46.10700
C  7.30400 -1.74900 44.73100
C  7.82000 -0.48700 45.37100
O  7.46900 0.06500 46.40800
O  8.82100 0.03300 44.50000
C  9.21900 1.40900 44.83300
H  1.90900 1.57100 42.06700
H  -1.94100 -3.28700 44.22600
H  3.20500 -6.22400 46.82100
H  6.37400 0.99100 43.24300
H  4.34800 1.61700 41.47800
H  3.41800 2.63300 44.02900
H  4.32900 3.51300 42.86200
H  5.14200 2.72400 44.04200
H  5.88700 0.23300 40.52900
H  6.25300 -1.26300 41.26900
H  8.55200 -0.71600 41.52600
H  8.22700 0.91600 42.04900
H  -0.44700 2.44900 42.95200
H  -1.89900 2.02600 41.96800
H  -0.30200 1.87000 41.27300
H  -5.01200 -1.31700 44.04700
H  -3.65600 -1.88800 45.03600
H  -3.96200 -2.53900 43.39700
H  -0.82800 -5.87200 44.64300
H  0.41500 -6.05900 47.35100
H  -2.63100 -5.99100 45.60000
H  -2.34700 -4.44100 46.47300
H  -1.97900 -6.11100 47.18900
H  1.74900 -7.48100 45.18000
H  0.10200 -7.94000 45.23000
H  1.53200 -8.01200 47.90400
H  2.10000 -9.10500 46.68500
H  0.34800 -9.16500 47.03000
H  5.57800 -6.80100 46.64600
H  5.58100 -5.91900 48.18400
H  7.02900 -5.91300 47.14200
H  7.73000 -1.85800 43.73300
H  8.39500 2.06400 44.54900
H  10.19400 1.58700 44.37900
H  9.37100 1.59100 45.89700
Mg 26.36200 50.83600 26.48500
C  24.49700 52.02700 29.25400
C  28.87700 50.03800 28.85800
C  28.05800 49.79800 24.00300
C  23.96500 52.44800 24.43900
N  26.66500 51.17700 28.81100
C  25.63000 51.29400 29.68600
C  25.96700 50.99200 31.17500
C  27.40000 50.37400 30.98100
C  27.72600 50.54700 29.41900
C  28.47400 50.95200 31.92200
C  24.85200 50.22000 32.05900
C  25.43600 49.33400 33.28200
H  24.90100 49.71900 34.72400
N  28.18700 49.93900 26.42300
C  29.12400 49.72600 27.47300
C  30.29600 49.10800 26.80300
C  29.95700 48.83800 25.46700
C  28.72800 49.56900 25.24400
C  31.49600 48.70100 27.60200
C  30.72400 47.97600 24.47200
O  30.28200 47.70600 23.33900
C  32.11000 47.39600 24.81600
N  26.17100 51.25700 24.44400
C  26.93200 50.55400 23.58600
C  26.42500 50.59900 22.20500
C  25.09600 51.42400 22.33200
C  25.07300 51.86900 23.80900
C  27.46500 51.19300 21.20100
C  23.81200 50.68000 21.88200
C  22.77200 51.49400 21.06700
N  24.66100 52.09300 26.73900
C  23.75900 52.62400 25.80600
C  22.66700 53.22600 26.46100
C  22.93600 53.07700 27.78800
C  24.11400 52.36100 27.92900
C  21.55900 53.92400 25.75800
C  22.36800 53.30400 29.14400
O  21.37600 53.92900 29.52200
C  23.42600 52.63100 30.12300
C  23.88300 53.67200 31.09300
O  24.55600 54.70900 30.81700
O  23.27600 53.41000 32.28500
C  23.34800 54.41000 33.37400
H  29.65900 49.66500 29.52300
H  28.68100 49.39100 23.20300
H  23.22100 52.81500 23.72800
H  26.09700 51.92000 31.73100
H  27.44700 49.30300 31.17600
H  29.26800 51.39900 31.32400
H  28.98600 50.15500 32.46200
H  28.09800 51.64700 32.67400
H  24.27400 49.56700 31.40400
H  24.06300 50.83200 32.49600
H  26.51800 49.29900 33.15700
H  25.04500 48.32300 33.16200
H  31.34200 48.96400 28.64900
H  32.35400 49.24000 27.20000
H  31.71500 47.63500 27.55400
H  32.72800 48.06200 25.41900
H  32.59500 46.98400 23.93200
H  31.89200 46.59400 25.52100
H  26.29400 49.57900 21.84400
H  25.21700 52.38500 21.83300
H  28.31800 51.48600 21.81400
H  27.08300 52.08600 20.70500
H  27.67900 50.41100 20.47300
H  23.28400 50.29900 22.75600
H  24.01100 49.85200 21.20200
H  21.80000 51.33400 21.53400
H  22.83100 51.11900 20.04600
H  23.03900 52.54900 21.00700
H  21.18400 53.29100 24.95400
H  21.84000 54.91300 25.39500
H  20.70200 54.12200 26.40300
H  22.87300 51.83600 30.62400
H  23.76000 55.36200 33.04000
H  24.08500 54.11500 34.12100
H  22.40600 54.67800 33.85200

