158

Mg 35.09000 1.66600 29.51900
C  32.98300 2.58800 32.14000
C  37.59800 1.54700 31.52300
C  37.00900 1.53400 26.74800
C  32.32800 2.15500 27.31300
N  35.24700 2.13000 31.55200
C  34.34400 2.40400 32.48300
C  34.88900 2.50800 33.91400
C  36.35800 2.22500 33.71100
C  36.45300 1.97200 32.17900
C  37.31100 3.30600 34.37600
C  34.20300 1.59300 34.92600
C  33.57600 2.31500 36.16000
H  34.39800 3.43200 36.86600
N  36.96300 1.30500 29.20500
C  37.91500 1.25400 30.17400
C  39.14000 0.74400 29.62500
C  38.94000 0.81400 28.22200
C  37.59100 1.23700 27.99800
C  40.26600 0.35500 30.49100
C  39.94500 0.55900 27.12400
O  39.68400 0.75600 25.95400
C  41.37400 0.11000 27.53100
N  34.70200 1.91300 27.33000
C  35.70700 1.83100 26.41400
C  35.19000 1.95900 24.93200
C  33.63300 1.67200 25.19300
C  33.53900 1.91900 26.71700
C  35.50700 3.36300 24.27800
C  33.25800 0.18500 24.86300
C  31.94200 -0.00400 24.05300
N  33.06200 2.28200 29.63400
C  32.13000 2.43500 28.70400
C  30.84600 2.85000 29.28600
C  31.20400 2.98700 30.63100
C  32.51400 2.59900 30.77800
C  29.53500 3.05900 28.60700
C  30.70000 3.23900 31.94900
O  29.61100 3.62800 32.31700
C  31.82900 3.11000 32.96000
C  31.99900 4.42100 33.64500
O  32.56500 5.38800 33.15900
O  31.22900 4.46600 34.77500
C  31.16900 5.75300 35.41300
H  38.47500 1.50300 32.17200
H  37.71200 1.56200 25.91300
H  31.42200 2.19600 26.70600
H  34.77100 3.56700 34.14300
H  36.58300 1.32700 34.28600
H  37.96400 2.94400 35.17000
H  36.86500 4.27200 34.61500
H  37.97700 3.68100 33.59800
H  34.96200 0.92100 35.32800
H  33.44400 0.97400 34.44800
H  33.49100 1.57000 36.95100
H  32.60900 2.70300 35.84100
H  40.55600 -0.69200 30.40400
H  40.13900 0.66000 31.53000
H  41.06000 0.98400 30.08900
H  41.04300 -0.86800 27.87800
H  41.90900 0.83400 28.14600
H  41.98500 -0.11100 26.65500
H  35.62100 1.29800 24.18000
H  33.00700 2.43700 24.73400
H  35.80400 3.99700 25.11300
H  34.61600 3.83200 23.86200
H  36.34200 3.35300 23.57700
H  33.15300 -0.43000 25.75700
H  34.07500 -0.25200 24.28900
H  31.21400 -0.54400 24.65900
H  32.07300 -0.47600 23.07900
H  31.58700 1.02300 23.97300
H  29.45800 2.82600 27.54500
H  29.12100 4.06200 28.70900
H  28.83700 2.33500 29.02800
H  31.55900 2.39200 33.73400
H  32.16800 6.14700 35.60100
H  30.57500 5.63300 36.31900
H  30.65700 6.49300 34.79800
Mg 40.06700 9.31000 30.31600
C  42.13500 10.67700 32.92400
C  38.26500 7.60900 32.74900
C  38.26700 7.89700 27.77900
C  42.17500 10.74000 27.98900
N  40.17200 9.16400 32.59900
C  41.01600 9.90600 33.41500
C  40.62200 9.76900 34.87300
C  39.37200 8.76100 34.84600
C  39.19500 8.50100 33.32800
C  39.50000 7.48800 35.79000
C  40.21700 11.16300 35.53400
C  40.91800 11.63500 36.80400
H  40.01800 12.52800 37.73300
N  38.47000 8.02600 30.28900
C  37.90300 7.41000 31.36200
C  36.69100 6.69900 30.89400
C  36.73600 6.64700 29.40500
C  37.90000 7.51400 29.06900
C  35.68900 6.09500 31.99800
C  35.86200 5.85000 28.43100
O  36.09600 5.73900 27.21800
C  34.54900 5.32300 29.07400
N  40.14800 9.35000 28.20200
C  39.26800 8.77100 27.41500
C  39.46000 9.22500 25.98000
C  40.51400 10.37300 26.10600
C  40.98900 10.14500 27.48700
C  39.66900 8.28300 24.71100
C  39.84400 11.75100 25.86900
C  40.69400 12.74300 24.96500
N  41.89100 10.46600 30.40400
C  42.57400 10.88400 29.33800
C  43.73700 11.70300 29.85900
C  43.54600 11.69900 31.26800
C  42.43400 10.85900 31.55100
C  44.82100 12.18800 29.04800
C  44.08100 12.16300 32.51600
O  45.13500 12.78100 32.70400
C  43.22900 11.54200 33.66200
C  44.01700 10.67700 34.60200
O  44.52000 9.53800 34.40800
O  44.05400 11.38000 35.82500
C  44.45400 10.46100 36.92000
H  37.51100 7.20000 33.42500
H  37.60700 7.66400 26.94100
H  42.85000 11.22300 27.27800
H  41.49100 9.38900 35.41000
H  38.43400 9.27400 35.05800
H  39.18000 6.52400 35.39400
H  38.74600 7.71200 36.54400
H  40.45400 7.48700 36.31600
H  39.14400 11.18300 35.72300
H  40.28700 11.90100 34.73500
H  41.78400 12.22300 36.50000
H  41.25500 10.75500 37.35300
H  35.56400 6.75800 32.85400
H  36.01900 5.08900 32.25700
H  34.70400 5.96200 31.55200
H  33.95400 4.79100 28.33200
H  34.07100 6.21200 29.48500
H  34.75500 4.57000 29.83500
H  38.49300 9.69100 25.79300
H  41.43900 10.24800 25.54300
H  39.82900 7.27500 25.09300
H  40.55100 8.49600 24.10700
H  38.83500 8.27200 24.00900
H  39.74400 12.20000 26.85700
H  38.80900 11.64300 25.54400
H  40.96100 13.71200 25.38600
H  40.32100 12.80600 23.94300
H  41.63500 12.23300 24.75900
H  44.91400 11.77400 28.04400
H  45.73900 11.87800 29.54600
H  44.73300 13.27400 29.02500
H  42.77200 12.34800 34.23700
H  43.79300 9.59400 36.92600
H  44.42100 11.04100 37.84200
H  45.46600 10.11200 36.71500

