158

Mg -1.76000 17.50400 27.61000
C  -2.37700 15.23600 30.13700
C  -2.22600 20.15400 29.62700
C  -1.36300 19.50800 24.77800
C  -1.82100 14.69800 25.33600
N  -2.31100 17.64100 29.64000
C  -2.32800 16.58000 30.51800
C  -2.53300 17.14900 31.95600
C  -2.64500 18.74900 31.71500
C  -2.32000 18.88800 30.23000
C  -4.01400 19.46500 32.15400
C  -1.47000 16.80700 33.05400
C  -1.65000 17.46600 34.46700
H  -1.26000 16.69500 35.68500
N  -1.69500 19.54700 27.25000
C  -1.90200 20.52000 28.25200
C  -1.79200 21.76600 27.66300
C  -1.55300 21.66100 26.30200
C  -1.60100 20.22300 26.01800
C  -1.98700 23.08200 28.48900
C  -1.50100 22.74100 25.28300
O  -1.44600 22.48600 24.06400
C  -1.44300 24.16900 25.68400
N  -1.78100 17.12600 25.37000
C  -1.53800 18.16400 24.49900
C  -1.20800 17.61500 23.15500
C  -0.99500 16.10100 23.38300
C  -1.59200 15.90700 24.79900
C  -2.43200 17.87500 22.17300
C  0.48300 15.65600 23.22000
C  1.53200 15.82600 24.31000
N  -2.02400 15.40800 27.71700
C  -1.97800 14.41800 26.70600
C  -2.24800 13.09900 27.31000
C  -2.55600 13.39700 28.63100
C  -2.34200 14.76900 28.85000
C  -2.29700 11.80900 26.64700
C  -2.97600 12.82300 29.88000
O  -3.19300 11.68900 30.18700
C  -2.77700 14.03300 30.92700
C  -1.77200 13.53800 31.87500
O  -0.63200 13.45500 31.65800
O  -2.47500 13.31500 33.05200
C  -1.62600 12.94400 34.18600
H  -2.33300 20.90300 30.41500
H  -1.10400 20.14000 23.92600
H  -1.70700 13.80200 24.72200
H  -3.47700 16.85300 32.41500
H  -1.82300 19.18500 32.28200
H  -4.51000 18.91500 32.95400
H  -4.60800 19.47600 31.24000
H  -3.72900 20.46200 32.49300
H  -0.48100 17.17800 32.78500
H  -1.46300 15.71700 33.05300
H  -2.65800 17.87800 34.50800
H  -0.94000 18.29300 34.47000
H  -2.83200 23.67000 28.12900
H  -1.10400 23.72200 28.46600
H  -2.19500 22.97800 29.55300
H  -1.47800 24.76500 24.77100
H  -0.56500 24.32500 26.31000
H  -2.31200 24.39000 26.30400
H  -0.37000 18.16600 22.72800
H  -1.65700 15.51500 22.74400
H  -3.05100 16.97800 22.12900
H  -2.10400 18.18400 21.18100
H  -2.96000 18.74700 22.55900
H  0.85900 16.13000 22.31400
H  0.45400 14.59600 22.96900
H  0.97100 15.88400 25.24300
H  1.81600 16.86500 24.14000
H  2.43000 15.22000 24.42700
H  -2.92800 11.16900 27.26400
H  -1.26900 11.44700 26.65600
H  -2.70500 11.66700 25.64700
H  -3.76600 14.23100 31.34000
H  -2.28000 12.71100 35.02600
H  -0.93300 13.74500 34.44300
H  -0.99000 12.12800 33.84300
Mg 47.38800 25.43600 28.84600
C  48.68800 27.51200 31.42000
C  46.79000 22.93200 31.19500
C  46.53600 23.38700 26.34500
C  48.70700 27.64400 26.58500
N  47.73100 25.25100 31.05800
C  48.07800 26.32200 31.94200
C  47.91400 25.91900 33.42100
C  47.43400 24.39400 33.33100
C  47.33100 24.13400 31.75700
C  48.55200 23.33200 33.92500
C  46.88600 26.81400 34.09000
C  46.67400 26.28100 35.52400
H  46.53200 27.25500 36.76200
N  46.79100 23.35000 28.75300
C  46.52200 22.53100 29.83300
C  45.98600 21.30000 29.30700
C  45.88800 21.45100 27.89000
C  46.46900 22.76900 27.60300
C  45.68100 20.07000 30.11000
C  45.29500 20.53100 26.92400
O  45.45600 20.69700 25.70500
C  44.57800 19.34100 27.32700
N  47.61600 25.46300 26.73400
C  47.06500 24.56300 25.85900
C  46.99800 25.11000 24.40100
C  47.60700 26.52500 24.57100
C  48.02100 26.52400 26.02600
C  47.55700 24.21100 23.26700
C  46.70800 27.70300 24.11500
C  46.46100 27.78400 22.57600
N  48.45700 27.23600 28.87100
C  49.00300 28.04600 27.89500
C  49.74600 29.20600 28.36700
C  49.60700 28.98600 29.78000
C  48.83100 27.85400 30.00400
C  50.33600 30.27000 27.59300
C  49.96500 29.61900 31.08100
O  50.53700 30.65800 31.37600
C  49.17800 28.71100 32.16800
C  50.12600 28.37200 33.24600
O  51.04900 27.60300 33.23600
O  49.84500 29.19400 34.35400
C  50.81000 29.10600 35.46600
H  46.44300 22.14100 31.86300
H  46.03600 22.92400 25.49100
H  49.18500 28.29900 25.85300
H  48.82600 26.09500 33.99200
H  46.56400 24.33600 33.98400
H  49.47800 23.89000 34.06900
H  48.61300 22.40800 33.35000
H  48.28100 23.03900 34.94000
H  45.92300 26.81800 33.58000
H  47.35600 27.79300 34.18700
H  47.46200 25.59300 35.83000
H  45.73100 25.73600 35.49900
H  44.61000 19.90800 29.99100
H  45.98300 20.10600 31.15700
H  46.28200 19.33200 29.57800
H  43.67000 19.53700 27.89800
H  45.27700 18.68700 27.84800
H  44.28200 18.76100 26.45300
H  45.92300 25.27800 24.32800
H  48.55200 26.52500 24.02800
H  48.32500 23.54200 23.65400
H  47.82400 24.74400 22.35500
H  46.71400 23.56000 23.03800
H  47.17900 28.64300 24.40300
H  45.85900 27.48700 24.76300
H  47.33700 27.40100 22.05100
H  46.33000 28.84000 22.34300
H  45.56500 27.27400 22.22300
H  49.95800 31.22000 27.97100
H  50.09700 30.13300 26.53800
H  51.40300 30.33800 27.80500
H  48.43600 29.37500 32.61200
H  51.77200 29.49200 35.12900
H  50.77900 28.10500 35.89800
H  50.46200 29.79800 36.23300

