158

Mg 25.06800 2.03300 30.05000
C  27.14300 2.02800 32.80300
C  22.36700 1.83100 32.27500
C  22.90000 1.83200 27.38800
C  27.78500 1.81400 27.92100
N  24.76500 2.12600 32.29400
C  25.78800 2.19900 33.18900
C  25.29300 2.45900 34.68600
C  23.69100 1.97500 34.50400
C  23.55200 1.93000 32.96800
C  23.41600 0.59400 35.10700
C  25.52400 3.95100 35.16900
C  26.64400 4.09100 36.32600
H  26.41400 5.03100 37.47500
N  22.95200 1.96000 29.83900
C  22.01600 1.88300 30.90300
C  20.69200 1.82700 30.33400
C  20.83900 1.69700 28.94000
C  22.25300 1.88300 28.63600
C  19.46900 1.73700 31.17300
C  19.80900 1.40600 27.91700
O  19.97800 1.32600 26.70200
C  18.39900 1.11400 28.33700
N  25.34200 1.71200 27.97800
C  24.31800 1.78000 27.10500
C  24.83800 1.94300 25.64700
C  26.36100 1.97200 25.86600
C  26.49500 1.84100 27.34200
C  24.38700 0.72200 24.70700
C  27.01900 3.25100 25.25100
C  26.72700 4.63700 25.89600
N  27.06000 1.89100 30.20900
C  28.04600 1.79200 29.29600
C  29.32800 1.84200 30.02500
C  29.02900 1.95500 31.35000
C  27.64300 1.94100 31.43100
C  30.67600 1.65800 29.33600
C  29.60200 2.01100 32.70500
O  30.75400 2.00200 33.05000
C  28.37100 2.16800 33.66600
C  28.44800 1.21200 34.78800
O  28.15200 0.03300 34.68500
O  29.09600 1.80400 35.89900
C  29.02900 0.91400 37.13300
H  21.54800 1.86400 32.99700
H  22.31000 1.92800 26.47400
H  28.59900 1.95300 27.20600
H  25.73900 1.69300 35.32100
H  23.11800 2.75400 35.00600
H  22.53100 0.17700 34.62700
H  23.12500 0.80800 36.13500
H  24.25400 -0.10300 35.10800
H  24.55700 4.37100 35.44600
H  25.93100 4.49600 34.31700
H  27.53800 4.35200 35.76000
H  26.84300 3.09900 36.73200
H  18.83300 2.57300 30.88100
H  19.62300 1.76500 32.25200
H  18.88500 0.82200 31.07200
H  17.93200 1.97400 28.81800
H  18.42800 0.26200 29.01700
H  17.90800 0.90200 27.38800
H  24.50400 2.85300 25.14900
H  26.82400 1.12900 25.35100
H  24.65600 1.07100 23.71000
H  23.33100 0.45300 24.66900
H  25.07100 -0.06200 25.03100
H  26.81900 3.40700 24.19100
H  28.10000 3.23900 25.39300
H  27.68200 5.09700 26.14900
H  26.13500 4.42100 26.78500
H  26.26100 5.44200 25.32700
H  30.68200 2.40900 28.54600
H  30.77700 0.63800 28.96400
H  31.47200 1.95000 30.02200
H  28.36300 3.17400 34.08500
H  30.01100 0.94600 37.60400
H  28.84100 -0.14500 36.95800
H  28.29300 1.15100 37.90100
Mg -12.02700 38.08300 42.20600
C  -9.82000 35.28700 41.49500
C  -9.62500 40.10200 40.67100
C  -14.37900 40.44200 42.11300
C  -14.29100 35.74200 43.42300
N  -9.98400 37.67600 41.08500
C  -9.34300 36.49700 40.91800
C  -7.95400 36.69500 40.19000
C  -7.77500 38.33700 40.28800
C  -9.22900 38.76300 40.67400
C  -6.63300 38.94000 41.14000
C  -7.94300 36.13300 38.72800
C  -6.82400 35.06000 38.57200
H  -5.66400 35.31400 37.50300
N  -11.94800 40.03800 41.53400
C  -10.90800 40.67200 40.95900
C  -11.27200 42.07600 40.85100
C  -12.67700 42.24400 41.18100
C  -13.06600 40.84300 41.70900
C  -10.33000 43.16500 40.38600
C  -13.46600 43.57200 41.18200
O  -12.88500 44.65900 41.06800
C  -14.97000 43.61000 41.57500
N  -14.04600 38.00900 42.51700
C  -14.81700 39.15000 42.46300
C  -16.26300 38.82100 42.93200
C  -16.28800 37.27100 43.13900
C  -14.75700 36.97900 42.98900
C  -16.80500 39.65400 44.10800
C  -17.32800 36.37900 42.31100
C  -16.75300 35.78300 40.97200
N  -12.06800 35.97800 42.47100
C  -13.00500 35.24600 43.12900
C  -12.56400 33.90500 43.27800
C  -11.32200 33.85800 42.60700
C  -11.07200 35.19400 42.17800
C  -13.38300 32.83400 43.79900
C  -10.24600 33.04500 42.15300
O  -10.06700 31.83800 42.24000
C  -9.24100 33.91200 41.38800
C  -7.86000 33.74200 42.01300
O  -7.17600 32.76300 41.81100
O  -7.44200 34.82200 42.78500
C  -6.25900 34.58900 43.52900
H  -8.82800 40.79700 40.40000
H  -15.12300 41.23100 42.24500
H  -15.10300 35.02800 43.58000
H  -7.22100 36.23000 40.84900
H  -7.47300 38.63500 39.28400
H  -6.98900 39.87700 41.57000
H  -5.83200 39.10500 40.42000
H  -6.41600 38.24500 41.95000
H  -7.88500 36.95700 38.01700
H  -8.92300 35.70400 38.51700
H  -7.24500 34.06800 38.41200
H  -6.24800 35.03200 39.49700
H  -10.12200 43.85100 41.20700
H  -10.86500 43.76400 39.64900
H  -9.38500 42.80300 39.98300
H  -15.32000 43.31200 42.56400
H  -15.45700 42.87000 40.94000
H  -15.31700 44.60000 41.27800
H  -16.89500 38.97900 42.05800
H  -16.48400 37.05900 44.19000
H  -17.13800 38.98400 44.90000
H  -17.61300 40.28100 43.72900
H  -16.04700 40.35000 44.46800
H  -18.15900 37.00000 41.97700
H  -17.78000 35.62000 42.94900
H  -16.96800 34.72100 40.84700
H  -15.66900 35.77100 40.86200
H  -17.18200 36.21300 40.06700
H  -14.39100 32.88400 43.38800
H  -13.29000 32.82400 44.88500
H  -13.01700 31.86100 43.47200
H  -9.12300 33.56900 40.36000
H  -5.96200 33.54500 43.62800
H  -6.31700 34.96000 44.55300
H  -5.37900 35.09300 43.12900

