158

Mg 2.06200 -1.20700 43.58200
C  5.43200 -0.20100 42.75000
C  0.91400 1.62800 42.06100
C  -0.95900 -2.69500 43.52400
C  3.46500 -4.20600 44.88800
N  3.07600 0.41700 42.46800
C  4.44900 0.61900 42.26300
C  4.67800 1.99600 41.62100
C  3.29900 2.67500 41.68400
C  2.32800 1.53500 42.13400
C  3.20400 3.95600 42.63700
C  5.09700 1.79000 40.13900
C  5.94800 2.81900 39.41800
H  5.38300 3.52800 38.24200
N  0.17200 -0.57900 42.98200
C  -0.12000 0.66200 42.44300
C  -1.50400 0.83600 42.37900
C  -2.11600 -0.37600 42.87300
C  -0.99700 -1.33200 43.15000
C  -2.12900 2.14100 41.85300
C  -3.60400 -0.65100 43.06900
O  -4.43000 0.27500 42.78800
C  -4.02000 -1.98900 43.50700
N  1.33100 -3.09900 44.13200
C  0.09800 -3.52800 43.89900
C  -0.14400 -5.01700 44.07500
C  1.23300 -5.40400 44.78900
C  2.07000 -4.16600 44.59500
C  -1.43800 -5.27100 44.90400
C  2.02300 -6.59600 44.19400
C  2.15700 -7.79600 45.11600
N  4.00600 -2.03500 43.95400
C  4.36900 -3.22800 44.58200
C  5.80600 -3.20100 44.77400
C  6.25000 -2.08400 44.01100
C  5.11300 -1.41500 43.51700
C  6.64400 -4.17100 45.43800
C  7.57100 -1.38200 43.58900
O  8.73300 -1.71500 43.71200
C  6.97400 -0.07500 42.89800
C  7.40500 1.09000 43.69300
O  6.79200 1.60800 44.62000
O  8.66300 1.48500 43.24900
C  8.99700 2.88000 43.73300
H  0.69400 2.64700 41.73800
H  -1.86000 -3.30100 43.40700
H  3.94000 -5.07300 45.35200
H  5.38700 2.65600 42.12000
H  3.05600 3.07000 40.69700
H  4.04600 3.96300 43.32900
H  2.29500 3.96200 43.23900
H  3.20400 4.87500 42.05200
H  4.17900 1.51800 39.61800
H  5.59200 0.84200 39.92900
H  6.78800 2.20200 39.10000
H  6.20100 3.60900 40.12600
H  -3.06300 1.84400 41.37700
H  -1.54200 2.58800 41.05100
H  -2.25700 2.95700 42.56500
H  -5.07300 -1.93100 43.78500
H  -3.57800 -2.28100 44.46000
H  -3.80500 -2.60800 42.63600
H  -0.23200 -5.32300 43.03200
H  1.06000 -5.44000 45.86400
H  -1.22000 -6.06300 45.62100
H  -2.26600 -5.54200 44.25000
H  -1.52900 -4.48100 45.65000
H  2.98000 -6.44900 43.69400
H  1.40100 -7.00100 43.39600
H  2.43800 -7.58100 46.14700
H  2.96900 -8.42100 44.74500
H  1.32500 -8.50000 45.09400
H  5.99700 -4.47000 46.26200
H  7.53000 -3.68000 45.84000
H  6.85500 -5.04500 44.82200
H  7.43700 0.06100 41.92000
H  9.75700 3.27100 43.05700
H  9.33100 2.78500 44.76600
H  8.13000 3.54000 43.68400
Mg 0.36400 43.89000 26.16800
C  2.34200 43.91300 29.18500
C  -2.34400 43.46300 28.14800
C  -1.46200 43.24500 23.36300
C  3.29500 43.77300 24.39800
N  0.04700 43.75300 28.44700
C  1.00900 43.79800 29.46000
C  0.25800 43.74800 30.85000
C  -1.22700 43.32400 30.53500
C  -1.15400 43.54200 28.97600
C  -1.69300 41.91400 30.84900
C  0.46200 45.03300 31.72400
C  0.75400 44.90900 33.20000
H  0.39200 43.60800 33.89400
N  -1.64200 43.70000 25.84500
C  -2.60800 43.55600 26.81600
C  -3.91600 43.51400 26.26200
C  -3.65800 43.42000 24.90000
C  -2.21100 43.49300 24.64100
C  -5.22000 43.55900 27.12000
C  -4.71200 43.36400 23.81800
O  -4.37600 43.37100 22.60900
C  -6.12900 43.46000 24.10200
N  0.79200 43.35300 24.19200
C  -0.07600 43.19100 23.16200
C  0.62400 43.18200 21.80100
C  2.15500 43.44700 22.14500
C  2.11800 43.57700 23.69600
C  0.36100 41.79300 21.12800
C  2.81400 44.61600 21.46100
C  2.43600 46.00300 21.95300
N  2.37800 43.85300 26.63100
C  3.48600 43.82800 25.77400
C  4.74100 43.87400 26.49500
C  4.32000 44.01000 27.86900
C  2.87700 43.89300 27.86300
C  6.20400 43.89900 25.86700
C  4.79800 44.23400 29.28100
O  5.95000 44.33700 29.67800
C  3.50800 43.99600 30.14800
C  3.73100 42.79900 31.03200
O  4.04300 41.70600 30.62400
O  3.75000 43.17700 32.32200
C  4.19400 42.25000 33.34100
H  -3.11600 43.24900 28.89000
H  -2.05300 43.07700 22.46100
H  4.28500 43.72600 23.94000
H  0.72500 42.91400 31.37400
H  -1.91200 43.96600 31.08900
H  -2.57500 41.85900 31.48700
H  -0.95200 41.47800 31.51800
H  -1.77600 41.32600 29.93500
H  -0.34800 45.75400 31.61400
H  1.25700 45.60000 31.23900
H  0.18900 45.67800 33.72800
H  1.80100 45.20500 33.26200
H  -5.69900 42.58300 27.19900
H  -5.93600 44.26800 26.70500
H  -5.05700 44.00200 28.10200
H  -6.37800 42.55900 24.66200
H  -6.41700 43.70300 23.07900
H  -6.28600 44.40200 24.62800
H  0.25200 44.03400 21.23100
H  2.72700 42.59700 21.77300
H  1.31500 41.32000 20.89300
H  -0.10800 41.96600 20.15900
H  -0.15000 41.11500 21.81100
H  2.48100 44.52000 20.42700
H  3.89200 44.45900 21.42300
H  2.18200 46.71400 21.16700
H  3.34900 46.53600 22.22100
H  1.67300 46.00700 22.73100
H  6.91200 44.42700 26.50700
H  6.10300 44.26600 24.84600
H  6.50300 42.85300 25.92600
H  3.46800 44.80900 30.87300
H  3.39300 41.52800 33.49700
H  4.32100 42.85700 34.23800
H  5.17100 41.93100 32.97800

