158

Mg 26.03800 1.59900 28.63000
C  27.81900 1.22200 31.59300
C  23.20400 1.97500 30.70300
C  24.18100 1.90700 25.85200
C  28.96400 1.14400 26.82500
N  25.68200 1.64600 30.90000
C  26.51500 1.43700 31.90300
C  25.86700 1.48400 33.29800
C  24.40400 1.85500 32.97400
C  24.38400 1.79800 31.44800
C  23.35900 0.87700 33.67000
C  26.51200 2.53900 34.23500
C  25.73200 2.93800 35.52800
H  26.42000 2.83400 36.87900
N  23.92200 1.79400 28.30800
C  22.97300 1.93400 29.27700
C  21.67000 1.99300 28.58400
C  21.93300 2.13200 27.19300
C  23.39900 1.94000 27.04100
C  20.41500 1.94500 29.32500
C  20.92600 2.30700 26.07200
O  21.31700 2.28600 24.91100
C  19.51000 2.51800 26.41100
N  26.42300 1.32000 26.61900
C  25.54900 1.63900 25.66700
C  26.17200 1.60100 24.27200
C  27.63800 1.11000 24.58400
C  27.72900 1.35800 26.14600
C  25.53400 0.70300 23.17100
C  28.65400 1.80700 23.64500
C  29.93000 1.07800 23.40200
N  27.98900 1.25400 29.05100
C  29.11200 1.08700 28.21100
C  30.28500 0.80500 28.98400
C  29.89600 0.99200 30.23200
C  28.45900 1.14800 30.29700
C  31.65300 0.53100 28.50600
C  30.36000 1.01300 31.67500
O  31.48600 0.92700 32.14300
C  29.06300 1.13200 32.51300
C  29.05000 -0.07200 33.39500
O  28.62600 -1.17500 33.13200
O  29.44400 0.29600 34.68100
C  29.16100 -0.57200 35.81700
H  22.32600 2.02400 31.35100
H  23.67300 2.27600 24.95800
H  29.81500 0.95300 26.16900
H  26.03000 0.51300 33.76600
H  24.07800 2.85000 33.27600
H  22.65200 1.34300 34.35700
H  23.88100 0.17100 34.31700
H  22.86200 0.33900 32.86300
H  26.67300 3.44000 33.64300
H  27.45300 2.14900 34.62200
H  24.93800 2.19300 35.58100
H  25.27800 3.91400 35.35800
H  19.78200 1.19300 28.85500
H  19.91900 2.89700 29.13400
H  20.30800 1.68800 30.37800
H  18.91800 2.57600 25.49800
H  19.33500 3.45100 26.94600
H  19.03200 1.71100 26.96700
H  26.10200 2.60300 23.84900
H  27.55500 0.02300 24.55800
H  25.79400 -0.34000 23.35000
H  25.85400 1.13900 22.22500
H  24.47200 0.79000 23.40400
H  28.94400 2.79200 24.01300
H  28.25700 1.95200 22.64100
H  29.89800 0.11800 23.91700
H  30.72600 1.74600 23.73400
H  30.02200 0.98300 22.32000
H  31.77600 1.20000 27.65400
H  31.69600 -0.51500 28.20200
H  32.42800 0.72200 29.24800
H  29.07000 2.05800 33.08800
H  30.00400 -0.45300 36.49700
H  29.18400 -1.62000 35.51600
H  28.14400 -0.40800 36.17300
Mg 30.61700 58.21700 38.97900
C  27.93200 56.23100 37.97100
C  32.69600 55.43700 38.43100
C  33.32600 60.22600 39.23300
C  28.43100 61.05600 38.79800
N  30.26200 56.07700 38.33900
C  29.11600 55.50800 37.83600
C  29.36600 54.06300 37.32900
C  30.81600 53.74600 37.84900
C  31.33600 55.20900 38.11300
C  30.98100 52.78300 39.08300
C  29.18300 53.86400 35.74600
C  29.15600 55.22100 34.92900
H  27.98200 55.48700 33.98200
N  32.74100 57.84600 38.98200
C  33.34100 56.62400 38.75200
C  34.80200 56.82900 38.75500
C  34.97000 58.22900 38.98100
C  33.68600 58.83800 39.01300
C  35.78400 55.69500 38.45500
C  36.31400 58.95700 39.05600
O  37.36400 58.27600 39.00500
C  36.52700 60.40100 39.46100
N  30.84200 60.23900 39.05300
C  32.03400 60.87100 39.32000
C  31.93000 62.40100 39.39600
C  30.40300 62.56600 39.14100
C  29.85500 61.19100 38.97700
C  32.43300 63.11800 40.71200
C  30.13100 63.50000 37.86600
C  30.51200 64.98400 38.06200
N  28.57000 58.61400 38.67000
C  27.85000 59.75100 38.58900
C  26.41600 59.38900 38.29000
C  26.50000 57.98400 38.11000
C  27.80000 57.60900 38.29200
C  25.26200 60.30300 38.18400
C  25.69100 56.90700 37.63900
O  24.48400 56.99400 37.36900
C  26.57500 55.64100 37.50900
C  26.01700 54.65500 38.59700
O  26.29900 54.64600 39.82400
O  25.38300 53.59900 37.97600
C  25.25400 52.43200 38.81500
H  33.38100 54.59600 38.30400
H  34.09900 60.98100 39.39400
H  27.64200 61.81000 38.81600
H  28.63700 53.33500 37.68500
H  31.40700 53.30200 37.04700
H  29.99000 52.44900 39.38900
H  31.29900 53.47600 39.86200
H  31.80600 52.11000 38.85100
H  28.16000 53.51200 35.62000
H  29.98200 53.25700 35.32000
H  30.04500 55.30000 34.30300
H  29.16800 56.13000 35.53000
H  35.40700 55.27900 37.52100
H  35.80200 54.95900 39.25800
H  36.75300 56.09600 38.15800
H  35.89300 60.69500 40.29800
H  36.38300 61.02600 38.58000
H  37.58500 60.50300 39.70100
H  32.56900 62.86300 38.64400
H  29.84300 63.06100 39.93300
H  31.65600 63.72400 41.17700
H  33.28300 63.72200 40.39300
H  32.72300 62.25800 41.31500
H  29.04400 63.50600 37.78800
H  30.61700 63.16200 36.95100
H  31.11000 64.98900 38.97300
H  29.61900 65.60600 38.12800
H  31.17300 65.60800 37.45900
H  24.28900 59.81400 38.13900
H  25.45300 60.96000 37.33600
H  25.20800 61.00800 39.01300
H  26.66800 55.23500 36.50200
H  26.27400 52.19300 39.11700
H  24.77200 51.64200 38.23900
H  24.63500 52.53800 39.70600

