158

Mg -1.62900 33.49300 26.85600
C  -3.10200 31.92600 29.59500
C  -0.32300 35.88300 29.21500
C  -0.50300 35.32000 24.25600
C  -3.22700 31.26600 24.74800
N  -1.59800 33.76300 29.18500
C  -2.33000 32.97000 30.01600
C  -2.19600 33.43700 31.44300
C  -1.45200 34.82800 31.21400
C  -1.05000 34.82900 29.75800
C  -2.14600 36.09900 31.74500
C  -1.36400 32.42900 32.36500
C  -2.03300 32.03800 33.65200
H  -1.09900 31.93300 34.91300
N  -0.55900 35.24400 26.74300
C  -0.12900 36.05900 27.79500
C  0.56600 37.17500 27.26700
C  0.51100 37.10000 25.85400
C  -0.19200 35.84100 25.53400
C  1.34100 38.21400 28.19200
C  1.03900 38.05500 24.80200
O  0.93800 37.93900 23.52900
C  1.62900 39.45100 25.21400
N  -2.00200 33.46400 24.75100
C  -1.25600 34.21300 23.89800
C  -1.37500 33.58100 22.43600
C  -2.40200 32.51400 22.67600
C  -2.52200 32.33100 24.14500
C  -1.79300 34.56700 21.29600
C  -2.14800 31.17300 21.93500
C  -0.95400 30.40900 22.48400
N  -2.93600 31.93500 27.08200
C  -3.47500 31.07500 26.11400
C  -4.24000 30.08900 26.76100
C  -4.15200 30.40700 28.11200
C  -3.32000 31.51600 28.21400
C  -4.97200 29.02400 25.99200
C  -4.58500 29.99000 29.44600
O  -5.31000 29.07900 29.86400
C  -4.01200 30.98800 30.46800
C  -5.04600 31.69400 31.28100
O  -5.60700 32.73700 30.87300
O  -5.26600 31.12500 32.46800
C  -6.36500 31.68400 33.30200
H  0.09500 36.44800 30.05200
H  -0.07800 35.83900 23.39500
H  -3.68300 30.44900 24.18400
H  -3.16200 33.64000 31.90600
H  -0.48000 34.81700 31.70700
H  -1.36100 36.72500 32.16900
H  -2.71300 35.82000 32.63400
H  -2.73000 36.60400 30.97600
H  -0.46100 32.94300 32.69300
H  -1.20600 31.50700 31.80600
H  -2.41200 31.01800 33.59400
H  -2.93600 32.64300 33.73400
H  2.37700 38.36300 27.88700
H  1.28400 37.88200 29.22900
H  0.82300 39.17300 28.20500
H  2.65600 39.33400 25.56300
H  1.08700 39.86700 26.06400
H  1.49700 40.08100 24.33500
H  -0.46800 33.04200 22.16200
H  -3.40600 32.79600 22.35800
H  -0.94800 34.53600 20.60900
H  -1.99700 35.54100 21.74000
H  -2.62700 34.28500 20.65300
H  -1.94100 31.45100 20.90200
H  -3.07300 30.59900 21.98700
H  -0.07600 30.47600 21.84100
H  -1.24400 29.35900 22.47000
H  -0.60900 30.62000 23.49600
H  -4.62300 28.69100 25.01500
H  -5.98800 29.41000 25.91100
H  -5.00300 28.24500 26.75400
H  -3.30400 30.44200 31.09100
H  -6.03200 32.61600 33.75900
H  -6.75300 30.90000 33.95100
H  -7.15100 31.91200 32.58300
Mg -5.06000 24.68200 25.97000
C  -3.59800 25.76200 28.93400
C  -6.89000 22.51800 27.75800
C  -6.13100 23.23900 23.04800
C  -2.63500 26.40600 24.16900
N  -5.18400 24.26800 28.05400
C  -4.58900 24.83500 29.10100
C  -5.07900 24.34200 30.46600
C  -5.90000 23.08900 30.05800
C  -6.04500 23.28300 28.52900
C  -5.25900 21.71200 30.29600
C  -5.98300 25.43900 31.18500
C  -5.61700 25.83500 32.63400
H  -4.98500 24.74300 33.55500
N  -6.52000 23.22600 25.47700
C  -7.21400 22.52200 26.35700
C  -8.21400 21.71100 25.65300
C  -7.93200 21.82200 24.26000
C  -6.84500 22.82000 24.20200
C  -9.23000 20.94400 26.35400
C  -8.61700 21.10300 23.07900
O  -8.20800 21.20700 21.92100
C  -9.92400 20.24400 23.27700
N  -4.50900 24.90000 23.90900
C  -5.08000 24.10400 22.92300
C  -4.29600 24.29300 21.59100
C  -3.33000 25.45500 21.91300
C  -3.44300 25.61600 23.43200
C  -3.68100 23.02000 21.04100
C  -3.55200 26.80300 21.09100
C  -2.41700 27.19800 20.02500
N  -3.51000 25.98900 26.43000
C  -2.63300 26.61800 25.55100
C  -1.81100 27.51700 26.41600
C  -2.12400 27.17400 27.72300
C  -3.18600 26.27300 27.66900
C  -0.71500 28.40100 26.02800
C  -1.87500 27.51700 29.16400
O  -1.11500 28.31500 29.67200
C  -2.78100 26.59200 29.94400
C  -1.97700 25.80400 30.99300
O  -1.50000 24.68600 30.85000
O  -1.90400 26.60500 32.16100
C  -1.01100 26.05900 33.17300
H  -7.56800 21.83200 28.27000
H  -6.53000 22.73300 22.16700
H  -1.83300 26.86300 23.58500
H  -4.13300 24.06600 30.93200
H  -6.89800 23.11200 30.49600
H  -6.06500 21.16800 30.79000
H  -4.41300 21.80700 30.97700
H  -4.82700 21.22400 29.42300
H  -7.02200 25.11300 31.13000
H  -5.82000 26.32600 30.57300
H  -6.56300 26.21200 33.02200
H  -4.96900 26.71200 32.64000
H  -10.15800 21.21700 25.85200
H  -9.32600 21.28000 27.38700
H  -9.02600 19.87900 26.45900
H  -10.58100 20.94400 23.79400
H  -9.73900 19.31900 23.82200
H  -10.34600 19.98800 22.30500
H  -5.02600 24.60200 20.84200
H  -2.27600 25.19200 21.82500
H  -2.60700 23.15300 20.91200
H  -4.13600 22.77800 20.08100
H  -3.73300 22.17800 21.73200
H  -3.51300 27.64500 21.78300
H  -4.50100 26.76600 20.55600
H  -2.00400 28.18400 20.23800
H  -2.77300 27.18400 18.99400
H  -1.54900 26.53900 20.00900
H  -1.14000 29.29400 25.56900
H  -0.18800 27.89100 25.22100
H  -0.02400 28.68600 26.82100
H  -3.40200 27.25000 30.55100
H  -0.06800 25.64900 32.81000
H  -1.54600 25.15100 33.45300
H  -0.82000 26.79500 33.95400

