158

Mg 41.11500 7.50200 29.43500
C  42.63500 9.05500 32.09400
C  38.92500 5.99300 31.57900
C  39.75700 6.06800 26.78400
C  43.72600 8.84300 27.29000
N  41.01200 7.37200 31.59300
C  41.61000 8.20000 32.51000
C  40.94900 7.99800 33.88000
C  39.99200 6.77200 33.67200
C  39.94300 6.61400 32.14800
C  40.57100 5.44500 34.28900
C  40.19900 9.28200 34.20300
C  40.19600 9.68400 35.70700
H  40.85600 11.05400 36.02000
N  39.60000 6.26500 29.21200
C  38.70000 5.87600 30.22400
C  37.53900 5.18400 29.60600
C  37.81900 5.21700 28.18600
C  39.08000 5.85300 28.00600
C  36.39300 4.42700 30.38400
C  36.88500 4.77100 27.00800
O  37.22500 4.83200 25.81500
C  35.51600 4.46200 27.42200
N  41.76100 7.45000 27.32700
C  40.93000 6.82100 26.49700
C  41.43300 6.92900 25.00500
C  42.60500 7.91000 25.15300
C  42.71000 8.11600 26.64300
C  41.77900 5.57300 24.32500
C  42.49500 9.17300 24.35800
C  41.32900 10.14300 24.55000
N  42.83000 8.72000 29.66200
C  43.78600 9.17100 28.74500
C  44.72200 10.01900 29.41500
C  44.32700 10.01600 30.71800
C  43.14800 9.19400 30.81400
C  45.91400 10.71100 28.72800
C  44.61000 10.50600 32.05900
O  45.47500 11.27600 32.45400
C  43.47600 9.85700 32.98900
C  44.04100 8.87900 33.98700
O  44.90500 8.01500 33.72600
O  43.72300 9.20200 35.28500
C  44.18400 8.44600 36.53800
H  38.16300 5.69300 32.30200
H  39.45900 5.55100 25.87000
H  44.40300 9.40700 26.64500
H  41.68100 7.76400 34.65200
H  39.05200 6.91800 34.20400
H  40.59800 4.63800 33.55600
H  39.86300 5.17100 35.07000
H  41.51300 5.44700 34.83700
H  39.14800 9.24200 33.91600
H  40.63300 10.06700 33.58300
H  40.78600 8.94900 36.25300
H  39.17100 9.61500 36.07300
H  36.43800 4.45900 31.47200
H  36.28700 3.43200 29.95100
H  35.45600 4.93800 30.16100
H  34.97300 4.21600 26.51000
H  35.03900 5.32000 27.89600
H  35.61600 3.52200 27.96600
H  40.57200 7.36400 24.49900
H  43.54800 7.51500 24.77300
H  41.31500 4.76300 24.88700
H  42.86300 5.48500 24.25200
H  41.27700 5.50500 23.36000
H  42.40100 8.80000 23.33800
H  43.43500 9.72300 24.33300
H  40.66500 10.10900 23.68700
H  41.63000 11.17800 24.71300
H  40.65700 9.96500 25.38900
H  46.44400 11.47200 29.29900
H  45.56700 11.23700 27.83800
H  46.69100 9.98700 28.48100
H  43.12700 10.71900 33.55800
H  44.79900 9.04800 37.20700
H  44.74400 7.57200 36.20300
H  43.41200 8.01900 37.17800
Mg 52.70200 25.09500 45.21600
C  49.71700 26.77100 44.07900
C  51.20600 22.15800 44.02900
C  55.53700 23.58300 45.70800
C  53.75400 27.99200 46.67200
N  50.71200 24.63500 43.95400
C  49.68400 25.40600 43.76700
C  48.41100 24.64400 43.33200
C  48.94300 23.16700 43.49000
C  50.39800 23.33500 43.86300
C  48.05800 22.39300 44.53100
C  47.86400 24.95200 41.87800
C  48.93100 25.41600 40.96300
H  48.50300 25.56900 39.47100
N  53.34900 23.12100 44.84800
C  52.54700 22.07600 44.53300
C  53.46400 20.93500 44.40300
C  54.76300 21.29100 44.85000
C  54.56400 22.68900 45.28400
C  53.08100 19.65000 43.80300
C  55.95700 20.46900 44.66900
O  55.83000 19.24700 44.35300
C  57.38000 20.95200 44.95600
N  54.45800 25.70400 45.96700
C  55.55100 24.95500 45.99900
C  56.74600 25.71700 46.52300
C  56.10400 27.01500 47.03900
C  54.66300 26.95500 46.50700
C  57.50700 24.91700 47.64200
C  56.79600 28.39500 46.62900
C  57.38600 29.25600 47.77900
N  51.91700 27.04900 45.36900
C  52.45800 28.09000 46.08900
C  51.44700 29.20000 46.06900
C  50.36200 28.65100 45.30100
C  50.71500 27.36600 44.81900
C  51.61600 30.56100 46.75200
C  49.06900 29.01000 44.80800
O  48.38700 30.04900 44.90800
C  48.60700 27.80700 43.98400
C  48.33800 28.40500 42.70400
O  49.12300 29.07200 42.05900
O  47.11600 27.97100 42.29100
C  46.60000 28.65200 41.10700
H  50.70400 21.18900 43.97700
H  56.50800 23.16100 45.97500
H  53.98400 28.94200 47.15800
H  47.69300 24.87600 44.11900
H  48.88400 22.76400 42.47900
H  47.91800 22.84300 45.51400
H  48.66100 21.50800 44.73400
H  47.02200 22.23100 44.23300
H  47.02500 25.64800 41.88400
H  47.63700 23.97600 41.45000
H  49.79700 24.76700 41.09500
H  49.34300 26.37300 41.28400
H  52.01100 19.52000 43.96700
H  53.53300 18.83200 44.36400
H  53.29400 19.54200 42.73900
H  57.59700 21.85800 44.39100
H  58.12300 20.20500 44.67600
H  57.56200 21.24000 45.99100
H  57.45400 25.79400 45.69800
H  56.02400 27.06200 48.12500
H  58.43200 24.66100 47.12600
H  57.03400 24.02000 48.04300
H  57.85000 25.52000 48.48300
H  56.32300 29.03000 45.87900
H  57.74800 28.08700 46.19700
H  57.71700 28.61400 48.59500
H  56.60200 29.99100 47.96600
H  58.31900 29.69200 47.42400
H  50.57100 30.82600 46.91000
H  52.06800 31.21200 46.00400
H  52.22900 30.32800 47.62300
H  47.61500 27.50200 44.31900
H  46.26000 29.63000 41.44900
H  45.71600 28.24800 40.61500
H  47.36800 28.71100 40.33600

