158

Mg 24.05700 -5.09300 45.83400
C  26.07500 -2.85000 44.09100
C  21.50900 -4.16400 43.47800
C  22.14400 -7.67000 46.80900
C  26.76800 -6.40500 47.44000
N  23.81600 -3.67500 44.04600
C  24.76200 -2.76900 43.61400
C  24.23400 -1.92800 42.42300
C  22.69900 -2.22000 42.47600
C  22.62700 -3.42600 43.39600
C  21.74900 -1.08300 42.90100
C  24.92400 -2.44100 41.05800
C  25.56000 -1.43400 40.22200
H  25.20500 -1.54300 38.75800
N  22.05200 -5.77900 45.20700
C  21.20100 -5.22700 44.35500
C  19.94900 -5.97900 44.43700
C  20.10700 -6.94000 45.42000
C  21.47700 -6.80500 45.88200
C  18.65200 -5.56500 43.67500
C  18.96300 -7.81700 45.92700
O  17.85700 -7.68400 45.48000
C  19.15800 -8.84900 47.00900
N  24.43100 -6.85000 46.92200
C  23.44500 -7.69400 47.32700
C  23.94500 -8.74600 48.22500
C  25.43000 -8.29100 48.48600
C  25.60300 -7.14500 47.53900
C  23.08100 -8.85900 49.48000
C  26.62400 -9.38800 48.18300
C  27.76700 -9.44900 49.25200
N  26.02400 -4.66000 45.85400
C  27.05100 -5.31100 46.59100
C  28.23200 -4.53500 46.46700
C  27.90000 -3.54200 45.48000
C  26.58700 -3.64700 45.16800
C  29.59800 -4.97600 46.84100
C  28.46300 -2.49300 44.65700
O  29.52200 -2.00200 44.54100
C  27.33100 -2.08200 43.53400
C  27.07800 -0.62400 43.69800
O  26.38700 -0.12000 44.56500
O  27.80900 0.05700 42.71800
C  27.91300 1.53900 42.76600
H  20.60900 -3.86600 42.93700
H  21.64200 -8.49100 47.32400
H  27.69000 -6.74700 47.91500
H  24.26700 -0.84300 42.52200
H  22.35700 -2.48400 41.47500
H  20.90200 -0.91100 42.23700
H  22.32300 -0.15600 42.91000
H  21.27400 -1.23400 43.87100
H  24.19000 -2.90500 40.39900
H  25.75200 -3.13200 41.21700
H  26.63900 -1.39900 40.37100
H  25.18500 -0.42700 40.40700
H  18.05500 -6.40000 43.30900
H  18.91400 -5.01300 42.77300
H  18.01300 -4.95000 44.31000
H  18.20800 -9.26900 47.34000
H  19.50200 -8.21900 47.82900
H  19.97400 -9.53400 46.77700
H  23.87200 -9.72000 47.74100
H  25.59600 -7.87600 49.48000
H  23.71000 -9.09300 50.33800
H  22.46900 -9.75700 49.39200
H  22.50600 -7.94300 49.61700
H  26.97100 -9.17100 47.17300
H  26.23800 -10.40700 48.17900
H  27.85400 -10.53200 49.34100
H  27.46300 -9.07500 50.23000
H  28.68300 -9.02300 48.84200
H  29.61400 -5.32500 47.87400
H  30.29300 -4.17900 46.57900
H  29.85500 -5.80300 46.18000
H  27.66800 -2.28600 42.51800
H  28.25200 1.90000 41.79500
H  28.56500 1.87500 43.57200
H  26.95600 2.02000 42.96500
Mg -11.87500 38.95200 41.82200
C  -9.92100 35.98000 41.28600
C  -9.58900 40.59900 39.68300
C  -13.92900 41.43600 41.63800
C  -14.40200 36.88900 43.22200
N  -10.03800 38.27900 40.59900
C  -9.43900 37.08100 40.55300
C  -8.18300 37.02500 39.66100
C  -8.03600 38.54400 39.18800
C  -9.27700 39.19100 39.86700
C  -6.71900 39.44800 39.34800
C  -8.40300 35.99100 38.49600
C  -7.42900 34.75600 38.42400
H  -6.29200 34.83600 37.32900
N  -11.61800 40.93200 41.05200
C  -10.62900 41.42900 40.23500
C  -10.84000 42.88600 40.21000
C  -12.07900 43.14800 40.85000
C  -12.59400 41.79400 41.17700
C  -9.86800 43.88500 39.55600
C  -12.74200 44.49400 41.05000
O  -12.18000 45.48900 40.55100
C  -14.01100 44.73900 41.67800
N  -13.93100 39.10900 42.18800
C  -14.58000 40.31000 42.07400
C  -15.97800 40.33100 42.68700
C  -16.09500 38.92200 43.26900
C  -14.72000 38.21000 42.84100
C  -16.46600 41.54400 43.59200
C  -17.41300 38.09900 42.88200
C  -18.21400 37.35100 43.98100
N  -12.12900 36.88200 42.27500
C  -13.15500 36.24300 42.91900
C  -12.73300 34.90500 43.21800
C  -11.44700 34.78900 42.61200
C  -11.14300 35.98500 42.02400
C  -13.49500 33.94600 44.13600
C  -10.40200 33.84900 42.35500
O  -10.21700 32.67200 42.65300
C  -9.28600 34.59700 41.43800
C  -7.94900 34.60100 42.09800
O  -7.04500 33.77700 42.04100
O  -7.77400 35.75200 42.85100
C  -6.48600 36.05500 43.47200
H  -8.85600 41.07500 39.02900
H  -14.59400 42.30200 41.65400
H  -15.09300 36.32100 43.84900
H  -7.36000 36.81100 40.34200
H  -8.33400 38.70100 38.15200
H  -5.83300 38.82300 39.23900
H  -6.70100 39.90200 40.33800
H  -6.64000 40.24400 38.60800
H  -8.32500 36.45000 37.51000
H  -9.37100 35.51200 38.64500
H  -8.01400 33.86400 38.19900
H  -7.06000 34.51800 39.42100
H  -9.36300 44.52700 40.27700
H  -10.51800 44.48800 38.92300
H  -9.18400 43.37000 38.88100
H  -14.71400 44.44500 40.89900
H  -14.27700 45.78900 41.79900
H  -13.97400 44.18600 42.61700
H  -16.63600 40.39600 41.82000
H  -16.13400 39.04400 44.35100
H  -17.20700 41.10400 44.26000
H  -16.88800 42.36600 43.01400
H  -15.60700 41.84400 44.19200
H  -17.33000 37.34300 42.10200
H  -18.07400 38.85700 42.46000
H  -19.10000 37.98100 44.07000
H  -17.72800 37.42900 44.95400
H  -18.31500 36.30200 43.70300
H  -13.31300 32.93300 43.77700
H  -14.56900 34.08700 44.01300
H  -13.25700 34.06900 45.19300
H  -9.25900 34.16400 40.43800
H  -6.42900 36.95600 44.08300
H  -5.85400 36.01100 42.58500
H  -6.35300 35.12500 44.02500

