158

Mg 17.18400 -0.33600 28.01200
C  16.09700 1.70500 30.66400
C  19.16000 -2.05600 30.47800
C  18.73200 -1.98300 25.53300
C  15.79700 1.82600 25.70600
N  17.74200 -0.08000 30.33000
C  16.95600 0.69600 31.15800
C  17.32100 0.40600 32.67700
C  18.56100 -0.60200 32.57400
C  18.45900 -0.99000 31.08700
C  19.96000 0.01000 32.94000
C  16.15100 0.02900 33.65100
C  16.15300 0.73300 35.04900
H  17.43300 1.32000 35.71600
N  18.62300 -1.88600 28.02700
C  19.32200 -2.44900 29.11100
C  20.23700 -3.45200 28.58200
C  20.16600 -3.35100 27.11600
C  19.06900 -2.41400 26.84000
C  20.94600 -4.43500 29.60500
C  21.13900 -4.22100 26.01700
O  21.06700 -4.06900 24.80800
C  22.19700 -5.16100 26.65700
N  17.31700 -0.01900 25.91200
C  17.99500 -0.88500 25.16600
C  17.86500 -0.56100 23.68300
C  16.69300 0.57900 23.69400
C  16.61000 0.83300 25.19100
C  19.15800 -0.15900 22.98700
C  15.39100 0.37900 22.96900
C  14.30000 -0.47000 23.64600
N  16.05800 1.29800 28.09400
C  15.52500 2.07700 27.03700
C  14.62200 3.10700 27.59500
C  14.85900 3.07700 28.99800
C  15.75100 1.94700 29.26400
C  13.79200 4.05700 26.78800
C  14.50500 3.65300 30.35700
O  13.74000 4.54300 30.69300
C  15.39700 2.83300 31.41800
C  16.29500 3.77400 32.18900
O  17.27800 4.28500 31.73500
O  15.89000 3.91800 33.52200
C  16.86200 4.79700 34.25600
H  19.82800 -2.51300 31.21200
H  19.26500 -2.54600 24.76500
H  15.21900 2.34000 24.93500
H  17.69100 1.36800 33.03300
H  18.39500 -1.42700 33.26700
H  19.89700 0.97900 33.43500
H  20.58600 0.11500 32.05500
H  20.38700 -0.68400 33.66500
H  16.14000 -1.05700 33.73200
H  15.29600 0.32500 33.04200
H  15.53300 0.10600 35.69000
H  15.56800 1.63700 34.88000
H  22.00900 -4.19900 29.56800
H  20.70400 -5.45600 29.31000
H  20.68900 -4.38300 30.66300
H  22.67500 -5.69900 25.83800
H  21.71300 -5.80700 27.39000
H  22.95100 -4.54000 27.14100
H  17.50100 -1.46900 23.20100
H  17.01000 1.56500 23.35500
H  19.97000 -0.02900 23.70100
H  19.07600 0.82000 22.51400
H  19.47300 -0.83900 22.19600
H  15.59900 -0.13300 22.02900
H  15.00100 1.37700 22.76700
H  13.45700 0.10700 24.02600
H  14.71700 -1.05300 24.46600
H  13.80900 -0.97400 22.81300
H  14.07300 3.93600 25.74100
H  13.89200 5.08500 27.13500
H  12.72000 3.87500 26.72000
H  14.61000 2.50200 32.09600
H  16.43000 5.78300 34.08700
H  17.85200 4.62100 33.83500
H  16.69500 4.70000 35.32900
Mg 16.71200 51.86700 26.38400
C  18.45700 50.39100 29.14500
C  14.18100 52.74800 28.57400
C  15.08700 53.07000 23.78200
C  19.16600 50.48500 24.30300
N  16.33700 51.44400 28.61300
C  17.28100 51.01500 29.49200
C  16.91400 51.37400 30.90500
C  15.41100 51.78100 30.73700
C  15.24200 52.03800 29.21900
C  14.42300 50.67700 31.22300
C  17.87300 52.43400 31.50800
C  18.18300 52.25800 33.05800
H  17.08000 51.69600 33.88800
N  14.83200 52.73400 26.15700
C  13.96600 53.06700 27.15500
C  12.87600 53.84100 26.61000
C  13.10100 53.95400 25.26600
C  14.35200 53.22300 24.92700
C  11.76800 54.33600 27.47600
C  12.25700 54.61400 24.15800
O  12.71000 54.79900 23.04100
C  10.85500 55.21200 24.57100
N  16.99000 51.67400 24.27500
C  16.22800 52.35200 23.40600
C  16.85700 52.35700 21.93500
C  18.19600 51.58900 22.16700
C  18.09900 51.18600 23.61700
C  16.13400 51.50800 20.84800
C  19.47900 52.28300 21.81600
C  20.61800 51.46200 21.19700
N  18.43000 50.70000 26.56500
C  19.38600 50.21600 25.65600
C  20.41000 49.42400 26.25100
C  20.09000 49.56000 27.66300
C  18.88100 50.26800 27.75900
C  21.54300 48.73500 25.51600
C  20.53300 49.20600 28.98100
O  21.50800 48.54900 29.32200
C  19.60000 49.86100 30.01900
C  19.21000 48.81500 30.98700
O  18.51400 47.84400 30.80400
O  19.69300 49.20200 32.22000
C  19.32600 48.43700 33.38900
H  13.39900 53.20500 29.18400
H  14.62300 53.46100 22.87400
H  20.05800 50.15300 23.76700
H  17.08600 50.48900 31.51800
H  15.29500 52.75300 31.21600
H  13.47200 51.07700 31.57300
H  14.89500 50.08600 32.00800
H  14.24200 50.02800 30.36600
H  17.35300 53.39100 31.47400
H  18.73400 52.51900 30.84500
H  18.33700 53.25700 33.46700
H  19.16800 51.79400 33.10200
H  10.91200 53.70400 27.23900
H  11.53900 55.34000 27.11800
H  12.00300 54.31500 28.54000
H  10.20300 55.34400 23.70800
H  10.94300 56.11900 25.17000
H  10.26100 54.48200 25.12000
H  16.97700 53.39900 21.63600
H  18.27600 50.62800 21.65900
H  15.63200 50.59800 21.17700
H  16.80700 51.28400 20.02100
H  15.36400 52.08100 20.33200
H  19.81300 52.70100 22.76500
H  19.35100 53.14400 21.15900
H  20.32500 50.50200 20.77100
H  21.30200 51.29100 22.02800
H  21.13400 52.10600 20.48600
H  21.41300 47.66400 25.35900
H  22.41000 49.04100 26.10100
H  21.65700 49.09700 24.49400
H  20.07600 50.68000 30.55700
H  18.23700 48.42700 33.33800
H  19.63400 48.87900 34.33600
H  19.57200 47.38000 33.28400

