158

Mg 8.88300 3.35600 27.86700
C  10.38300 1.75300 30.56400
C  7.38700 5.53100 30.05200
C  7.19500 4.67800 25.21800
C  10.33700 0.83700 25.82400
N  8.85600 3.59100 30.04700
C  9.65000 2.88400 30.91100
C  9.43500 3.49700 32.29700
C  8.27700 4.46700 32.14400
C  8.19100 4.56300 30.62500
C  6.95700 4.16900 32.80300
C  10.74000 4.12300 32.98500
C  10.49500 4.94200 34.29300
H  10.56500 4.20300 35.65500
N  7.60700 4.98100 27.67200
C  7.08500 5.72600 28.67800
C  6.18300 6.66800 28.06800
C  6.13000 6.40800 26.66700
C  6.96700 5.31400 26.45500
C  5.47200 7.68700 28.90400
C  5.19000 7.09800 25.63600
O  4.95300 6.60000 24.55000
C  4.43400 8.30700 25.92000
N  8.80500 2.84800 25.93900
C  8.07600 3.55600 24.98400
C  8.26300 2.99400 23.56400
C  9.45300 1.99700 23.77400
C  9.56600 1.92700 25.28800
C  7.04500 2.56000 22.85900
C  10.87100 2.27700 23.02500
C  11.45600 1.24800 22.05300
N  10.10500 1.54900 28.11900
C  10.57400 0.66100 27.19200
C  11.35500 -0.36000 27.80500
C  11.38100 0.07200 29.18600
C  10.52100 1.19800 29.31900
C  12.01900 -1.46000 27.06800
C  11.98300 -0.20000 30.47100
O  12.81500 -0.99400 30.86400
C  11.31100 0.93300 31.44800
C  10.73600 0.32300 32.67400
O  9.77600 -0.41600 32.67100
O  11.39000 0.69300 33.78900
C  10.74800 0.34700 35.11500
H  6.95000 6.26000 30.73800
H  6.63700 5.11600 24.38800
H  10.70900 0.18100 25.03400
H  9.14100 2.60500 32.85000
H  8.55100 5.42600 32.58300
H  6.38200 3.89500 31.91900
H  6.56900 5.01600 33.36900
H  6.99000 3.26400 33.41000
H  11.10800 4.77800 32.19500
H  11.45800 3.33300 33.20200
H  9.50400 5.39400 34.30500
H  11.21400 5.76100 34.31200
H  5.72000 7.75000 29.96400
H  4.42300 7.39300 28.89100
H  5.49900 8.68800 28.47300
H  3.85400 8.38500 26.83900
H  3.77700 8.64800 25.12000
H  5.21700 9.06500 25.91700
H  8.64800 3.90400 23.10300
H  8.95400 1.07600 23.47300
H  6.77200 3.11000 21.95800
H  6.21600 2.63700 23.56300
H  7.08300 1.53300 22.49600
H  11.62300 2.42400 23.80000
H  10.95600 3.19100 22.43600
H  12.28200 0.65800 22.45100
H  11.66900 1.63000 21.05500
H  10.70100 0.47500 21.90900
H  11.30800 -1.87500 26.35400
H  12.43500 -2.21900 27.73000
H  12.73100 -1.00300 26.38000
H  12.14100 1.55900 31.77400
H  11.59600 0.40500 35.79700
H  10.32500 -0.65500 35.04600
H  10.03300 1.14100 35.33100
Mg 17.10100 -2.07700 27.77000
C  16.45500 -0.19100 30.58100
C  19.23600 -3.94700 29.68100
C  17.96100 -3.74600 24.96300
C  15.37700 0.23000 25.82200
N  17.83400 -1.91300 29.91400
C  17.31200 -1.24300 30.86800
C  17.86400 -1.55200 32.35400
C  18.99500 -2.58100 31.95700
C  18.76000 -2.80300 30.38800
C  20.50900 -2.04800 32.15900
C  16.79200 -2.13400 33.37400
C  16.96200 -1.78000 34.89400
H  18.25700 -1.14000 35.29400
N  18.31900 -3.63600 27.38700
C  19.10500 -4.38300 28.35000
C  19.74900 -5.47800 27.63200
C  19.48000 -5.36700 26.24500
C  18.51900 -4.24500 26.14900
C  20.50800 -6.46400 28.44500
C  19.91900 -6.24400 25.04900
O  19.71600 -6.00400 23.89600
C  20.84100 -7.42500 25.41400
N  16.84100 -1.78700 25.63700
C  17.26600 -2.56700 24.69400
C  17.04700 -1.94200 23.28700
C  16.12300 -0.73100 23.56000
C  16.07300 -0.74300 25.10600
C  18.39300 -1.56900 22.63000
C  14.74200 -0.86000 22.84700
C  14.78100 -0.68700 21.32000
N  16.09100 -0.30700 28.09200
C  15.35600 0.45700 27.20300
C  14.73300 1.49900 27.97600
C  15.14100 1.35600 29.33600
C  15.94900 0.18700 29.29900
C  13.91400 2.52600 27.44500
C  15.02300 1.80700 30.68600
O  14.43000 2.83800 31.12300
C  15.98100 0.86900 31.51800
C  16.98700 1.71200 32.12800
O  17.99700 2.11700 31.55300
O  16.51500 2.07400 33.36400
C  17.31500 3.14200 34.00000
H  19.94300 -4.54500 30.25900
H  18.26400 -4.34800 24.10300
H  14.78900 0.88500 25.17500
H  18.31000 -0.60500 32.65900
H  18.90200 -3.48800 32.55400
H  20.47800 -0.95900 32.20400
H  21.12500 -2.36600 31.31800
H  21.03200 -2.40200 33.04800
H  16.90400 -3.21300 33.27100
H  15.74800 -2.07700 33.06400
H  16.83100 -2.63200 35.56100
H  16.22600 -1.02300 35.16500
H  21.52400 -6.11200 28.62600
H  20.42400 -7.48300 28.06700
H  20.00400 -6.52900 29.40900
H  20.33800 -8.26100 25.90100
H  21.56700 -6.93500 26.06200
H  21.42700 -7.84100 24.59500
H  16.51200 -2.73300 22.76200
H  16.63000 0.18800 23.26600
H  19.22100 -1.38900 23.31600
H  18.44300 -0.64500 22.05300
H  18.63700 -2.41000 21.98100
H  14.08400 -0.07400 23.21500
H  14.28900 -1.82100 23.09300
H  15.82700 -0.60000 21.02600
H  14.42000 0.31100 21.07100
H  14.22200 -1.38300 20.69500
H  13.25200 2.01200 26.74800
H  14.42200 3.30300 26.87400
H  13.44500 3.05700 28.27400
H  15.32300 0.48100 32.29600
H  17.17000 4.03200 33.38700
H  18.34600 2.83300 34.16900
H  16.87700 3.33200 34.98000

