158

Mg 30.26100 57.35700 39.52100
C  27.77300 55.13700 38.74300
C  32.67400 54.94200 38.82000
C  32.70400 59.67100 39.55500
C  27.82900 59.85100 40.29900
N  30.19100 55.27500 38.78500
C  29.07800 54.56900 38.54700
C  29.48600 53.16900 37.99700
C  31.02800 53.05800 38.18300
C  31.32200 54.50500 38.66500
C  31.48300 52.11300 39.23700
C  29.04000 52.98800 36.49900
C  29.33400 54.00000 35.49200
H  28.24000 54.52600 34.68300
N  32.44800 57.28400 39.20400
C  33.20200 56.23500 38.99000
C  34.53200 56.61900 38.86300
C  34.59800 57.99800 39.16100
C  33.26300 58.36600 39.36400
C  35.60000 55.63200 38.62900
C  35.83900 58.80500 39.30300
O  36.97100 58.33800 39.09600
C  35.91800 60.15200 39.73100
N  30.20100 59.46400 39.66800
C  31.35700 60.15600 39.78400
C  31.07800 61.60200 40.24300
C  29.66000 61.57200 40.64000
C  29.11000 60.25800 39.97200
C  32.08500 62.17700 41.26800
C  28.89600 62.87600 40.20300
C  28.15800 63.63400 41.31300
N  28.16500 57.49700 39.67400
C  27.34100 58.53200 40.02000
C  25.98300 58.06600 39.87200
C  26.13600 56.74400 39.32500
C  27.52300 56.45600 39.21600
C  24.87600 58.92200 40.08900
C  25.33100 55.60200 38.91800
O  24.17600 55.40000 38.93700
C  26.39000 54.55800 38.42900
C  26.21100 53.23600 39.11300
O  26.65800 52.98900 40.23300
O  25.29700 52.52300 38.35100
C  24.97500 51.17300 38.86600
H  33.33800 54.09300 38.64900
H  33.42900 60.48600 39.62400
H  27.08300 60.58700 40.60900
H  28.86100 52.43700 38.50800
H  31.57000 52.92400 37.24700
H  30.57600 51.68500 39.66500
H  32.12800 52.52800 40.01200
H  31.95500 51.27100 38.73100
H  27.98000 52.74100 36.56400
H  29.45700 52.04700 36.14200
H  30.01400 53.48200 34.81500
H  29.89600 54.85500 35.86800
H  36.10500 55.99100 37.73200
H  35.26900 54.60600 38.46900
H  36.28900 55.67000 39.47300
H  36.94700 60.40700 39.98300
H  35.22800 60.41000 40.53500
H  35.54000 60.84100 38.97500
H  31.12400 62.15600 39.30500
H  29.56800 61.39600 41.71200
H  32.90900 62.77900 40.88600
H  32.50300 61.28800 41.74100
H  31.60600 62.73400 42.07400
H  28.21500 62.50000 39.43900
H  29.62300 63.53400 39.72800
H  28.75100 64.51000 41.57700
H  27.99700 63.09300 42.24600
H  27.28200 64.08900 40.85200
H  24.53600 59.33400 39.13900
H  25.18800 59.74400 40.73400
H  24.03500 58.40900 40.55500
H  26.34900 54.39500 37.35100
H  24.76400 50.40000 38.12600
H  24.05000 51.40100 39.39500
H  25.65400 50.79600 39.63200
Mg -12.41200 37.71400 42.00200
C  -10.46200 35.01300 40.98300
C  -10.09100 39.72200 40.52900
C  -14.88100 40.18700 41.82200
C  -14.89500 35.36600 43.06100
N  -10.44500 37.44500 40.97000
C  -9.95300 36.24100 40.57400
C  -8.65200 36.40000 39.79200
C  -8.39100 37.96100 39.95200
C  -9.68800 38.40200 40.57000
C  -7.10700 38.31600 40.74800
C  -8.65600 35.83100 38.39900
C  -7.49400 34.94900 37.96300
H  -6.45400 35.53000 36.97100
N  -12.50700 39.75300 41.36400
C  -11.36700 40.39600 40.78300
C  -11.73800 41.73400 40.46500
C  -13.08600 41.93500 40.76600
C  -13.60900 40.62900 41.36400
C  -10.85100 42.72900 39.72600
C  -13.97900 43.22800 40.57200
O  -13.49000 44.15100 39.91000
C  -15.38600 43.34300 41.12100
N  -14.59200 37.72200 42.23700
C  -15.32800 38.86000 42.24200
C  -16.81500 38.63300 42.68500
C  -16.72200 37.12600 43.23200
C  -15.30600 36.68000 42.81600
C  -17.43400 39.71800 43.63700
C  -17.76000 36.08500 42.65700
C  -18.64500 35.40400 43.72500
N  -12.56300 35.62000 42.30200
C  -13.56700 34.82300 42.77900
C  -13.15700 33.43300 42.71000
C  -11.92500 33.50700 42.08400
C  -11.66900 34.84800 41.72600
C  -13.92000 32.26500 43.36600
C  -10.80800 32.69900 41.62300
O  -10.59200 31.48900 41.62900
C  -9.89600 33.58600 40.63700
C  -8.55500 33.37100 41.09000
O  -7.62800 32.79800 40.49100
O  -8.27500 33.90500 42.33900
C  -6.91100 33.81100 42.93700
H  -9.36800 40.42500 40.10700
H  -15.68500 40.92600 41.81200
H  -15.61800 34.66700 43.48700
H  -7.87400 35.87600 40.34700
H  -8.26800 38.36600 38.94800
H  -6.64600 37.43500 41.19400
H  -7.31700 38.82600 41.68800
H  -6.32900 38.85000 40.20200
H  -8.61100 36.71900 37.76800
H  -9.58700 35.33400 38.12400
H  -7.96100 34.04700 37.56700
H  -6.92900 34.66500 38.85000
H  -11.05300 42.59300 38.66400
H  -9.81100 42.44000 39.87400
H  -10.94200 43.76100 40.06500
H  -15.99900 42.59600 40.61600
H  -15.95200 44.24900 40.90700
H  -15.26300 43.21600 42.19600
H  -17.43600 38.64000 41.78900
H  -16.81000 37.22500 44.31400
H  -18.28200 40.26100 43.21800
H  -16.62800 40.43100 43.81300
H  -17.68300 39.35700 44.63500
H  -17.25100 35.33500 42.05100
H  -18.44000 36.64200 42.01300
H  -18.73300 34.36300 43.41700
H  -19.58600 35.94300 43.61400
H  -18.24100 35.57400 44.72300
H  -13.61100 31.27600 43.02600
H  -14.94800 32.46400 43.06200
H  -13.82800 32.26900 44.45200
H  -9.94800 33.23000 39.60800
H  -6.25800 33.06900 42.47800
H  -7.16000 33.55200 43.96700
H  -6.42900 34.78800 42.92000

