158

Mg 53.66900 23.74800 44.79800
C  51.19300 26.26800 44.14900
C  51.53800 21.52800 43.18500
C  56.02700 21.70000 45.19200
C  55.53900 26.26100 46.27100
N  51.69300 23.99800 43.64300
C  50.93900 25.12400 43.41900
C  49.82500 24.71900 42.42800
C  49.76000 23.23400 42.58400
C  51.10300 22.88000 43.08600
C  48.49500 22.60400 43.36200
C  50.23200 25.17900 41.02600
C  49.09100 25.41500 40.08000
H  49.41900 25.86900 38.67100
N  53.75900 21.81500 44.31000
C  52.79100 21.03400 43.78100
C  53.21700 19.66600 43.87400
C  54.49500 19.65700 44.49900
C  54.84900 21.12100 44.74100
C  52.39600 18.56100 43.35300
C  55.33700 18.35500 44.79500
O  54.91000 17.21900 44.51500
C  56.62700 18.35300 45.39600
N  55.62600 24.05200 45.27500
C  56.44700 22.97400 45.41900
C  57.88500 23.37100 45.81600
C  57.65500 24.87600 46.21900
C  56.16900 25.06500 45.91400
C  58.64000 22.58400 46.94000
C  58.62500 25.75600 45.38100
C  59.66300 26.67200 46.17300
N  53.47000 25.90600 45.15200
C  54.29200 26.70300 45.88500
C  53.71000 28.07300 45.94400
C  52.46600 27.92000 45.27200
C  52.35300 26.55100 44.90600
C  54.32600 29.20200 46.73300
C  51.29400 28.64200 44.92200
O  50.97600 29.79700 45.05100
C  50.39800 27.57900 44.22200
C  49.95900 28.12400 42.95900
O  50.68600 28.67300 42.12300
O  48.58600 27.96200 42.80700
C  48.07700 28.80300 41.70600
H  50.86700 20.84500 42.66100
H  56.74000 20.88100 45.30400
H  56.15000 27.08300 46.64900
H  48.87500 25.09800 42.80400
H  49.64900 22.79000 41.59400
H  47.72200 23.36900 43.43700
H  48.80900 22.26400 44.34900
H  48.05400 21.73400 42.87600
H  51.02200 24.55600 40.60700
H  50.77800 26.11900 41.11800
H  48.50100 26.20300 40.54900
H  48.49700 24.50800 39.96800
H  52.38800 18.52800 42.26400
H  51.35400 18.76200 43.60400
H  52.57700 17.62000 43.87300
H  56.46500 18.74600 46.40000
H  57.11700 19.01300 44.68100
H  57.01500 17.34000 45.50100
H  58.47300 23.18100 44.91800
H  57.80400 24.99800 47.29100
H  58.71200 23.08700 47.90400
H  59.61700 22.33100 46.52700
H  58.09300 21.65300 47.08700
H  58.04600 26.52600 44.87100
H  59.07600 25.15600 44.59100
H  60.69500 26.37400 45.99200
H  59.44500 26.88800 47.21900
H  59.57800 27.63800 45.67500
H  54.96900 29.83500 46.12100
H  54.78900 28.76400 47.61700
H  53.41100 29.66500 47.10300
H  49.50600 27.40200 44.82300
H  48.15400 28.34700 40.71900
H  48.50000 29.80600 41.63800
H  47.01700 29.05200 41.75700
Mg 42.20700 41.19100 26.33700
C  41.60000 43.73300 28.76900
C  43.15500 39.08300 28.62200
C  43.20100 39.11200 23.86500
C  42.06000 43.84600 23.83500
N  42.59300 41.54200 28.42400
C  42.04500 42.49700 29.29000
C  42.05700 42.07200 30.79600
C  42.86200 40.67000 30.63900
C  42.88300 40.40200 29.12900
C  44.26500 40.65200 31.26900
C  40.47500 41.82200 31.21200
C  39.93500 42.67400 32.36700
H  39.32100 42.01500 33.61300
N  42.95400 39.32500 26.27800
C  43.26000 38.55400 27.33600
C  43.73300 37.23400 26.92800
C  43.89000 37.31300 25.51400
C  43.38600 38.60300 25.14100
C  44.14200 36.18800 27.88900
C  44.36900 36.25300 24.53600
O  44.69000 36.38100 23.34900
C  44.66100 34.86400 24.98600
N  42.60000 41.47600 24.08000
C  42.92700 40.39300 23.29800
C  42.84000 40.77100 21.85800
C  42.45600 42.34600 21.87400
C  42.29700 42.55400 23.35000
C  44.16800 40.36200 21.04400
C  41.22500 42.66100 20.99700
C  39.87800 42.64900 21.69400
N  41.80100 43.35000 26.23100
C  41.80300 44.23500 25.14400
C  41.39300 45.50200 25.67400
C  41.25100 45.32800 27.09100
C  41.48800 43.99800 27.36300
C  41.21600 46.79800 24.82800
C  41.02300 46.03100 28.35900
O  40.66500 47.21700 28.56200
C  41.04500 44.96700 29.51200
C  42.04300 45.42400 30.49200
O  43.21900 45.74700 30.34800
O  41.48900 45.71800 31.69700
C  42.12700 46.38500 32.84800
H  43.28000 38.29800 29.37100
H  43.44000 38.38000 23.09000
H  41.93000 44.61700 23.07200
H  42.58400 42.80200 31.40900
H  42.37200 39.85200 31.16700
H  44.98000 40.29700 30.52700
H  44.27100 40.17200 32.24800
H  44.45700 41.71100 31.44000
H  40.50500 40.77700 31.52200
H  39.87300 41.89900 30.30600
H  39.18100 43.33300 31.93600
H  40.72500 43.33500 32.72500
H  43.63200 35.26700 27.60600
H  43.98000 36.42400 28.94000
H  45.20900 36.13600 27.67000
H  45.57200 34.89100 25.58500
H  45.00400 34.22800 24.17000
H  43.87700 34.25000 25.42800
H  41.98500 40.19100 21.50900
H  43.29600 42.93100 21.50000
H  44.46200 41.15300 20.35400
H  44.02700 39.41100 20.53000
H  44.96700 40.22800 21.77400
H  41.10100 41.98300 20.15300
H  41.35400 43.68100 20.63400
H  39.89300 42.24400 22.70600
H  39.24200 42.04000 21.05100
H  39.47300 43.66000 21.64400
H  42.21200 47.21700 24.68300
H  40.57100 47.43800 25.43000
H  40.76300 46.66700 23.84600
H  40.08800 44.79000 30.00400
H  43.21600 46.44100 32.82200
H  41.71800 45.85400 33.70800
H  41.69700 47.37600 32.70800

