158

Mg 9.12800 48.89500 26.48100
C  6.95500 49.41800 29.19000
C  11.71900 50.17100 28.24600
C  11.06800 48.20500 23.86700
C  6.18600 48.43400 24.46300
N  9.28300 49.62100 28.52900
C  8.31700 49.58400 29.55300
C  8.86000 50.16700 30.90800
C  10.20800 50.79200 30.31800
C  10.43000 50.19200 28.91600
C  10.15600 52.31800 30.22800
C  9.09700 48.99300 31.94500
C  8.94500 49.50600 33.36700
H  8.46900 48.44800 34.38600
N  11.14300 49.12900 26.09600
C  12.08300 49.61400 26.97200
C  13.41400 49.42700 26.49300
C  13.23500 48.87100 25.16700
C  11.74800 48.70600 25.01300
C  14.66200 49.70800 27.28600
C  14.41500 48.28700 24.18400
O  14.12900 47.82300 23.13900
C  15.82300 48.28200 24.55800
N  8.72200 48.49400 24.40500
C  9.70100 48.01500 23.62800
C  9.13000 47.41600 22.37200
C  7.59700 47.78700 22.38200
C  7.42500 48.24300 23.87500
C  9.86600 47.99400 21.19200
C  6.69300 46.49900 22.08100
C  5.54100 46.67400 21.09000
N  7.05200 48.90300 26.68000
C  5.97600 48.75200 25.79300
C  4.75500 48.74400 26.52500
C  5.13000 49.09800 27.83200
C  6.50400 49.12200 27.90500
C  3.40800 48.29400 26.01800
C  4.55700 49.40800 29.11100
O  3.38000 49.31600 29.44500
C  5.76200 49.73300 30.00700
C  5.59000 48.82000 31.16800
O  5.94200 47.65600 31.21200
O  4.98400 49.50500 32.10100
C  4.54200 48.76600 33.22600
H  12.60800 50.59000 28.72300
H  11.75000 48.00400 23.03800
H  5.21200 48.31900 23.98200
H  8.19900 50.97400 31.22400
H  10.92900 50.50800 31.08400
H  9.92000 52.61700 29.20700
H  11.13500 52.70300 30.51300
H  9.41100 52.73100 30.91000
H  10.11000 48.59100 31.94100
H  8.41100 48.17700 31.71600
H  8.26800 50.36100 33.35300
H  9.94900 49.81200 33.65900
H  15.39900 50.45300 26.98400
H  15.26200 48.80000 27.33800
H  14.45800 49.96000 28.32600
H  16.48000 47.90100 23.77600
H  15.88700 47.64200 25.43800
H  16.14400 49.32000 24.47200
H  9.34700 46.35100 22.29700
H  7.33200 48.66400 21.79300
H  10.73600 48.62500 21.37500
H  9.30100 48.69100 20.57300
H  10.23500 47.22600 20.51200
H  6.31900 46.13000 23.03600
H  7.30600 45.71300 21.63900
H  5.32900 47.74100 21.01200
H  4.67400 46.07300 21.36500
H  5.84300 46.21200 20.15000
H  3.46400 47.32100 25.52900
H  2.98600 49.06200 25.36900
H  2.80900 48.16500 26.91900
H  5.71500 50.78700 30.28200
H  5.38600 48.61400 33.89800
H  4.07000 47.81000 33.00000
H  3.81600 49.39100 33.74600
Mg -4.94900 25.89700 26.48300
C  -3.79100 27.49000 29.44900
C  -6.66400 23.62600 28.52900
C  -5.78400 24.12100 23.75600
C  -2.87600 27.92900 24.66500
N  -5.28500 25.72000 28.70900
C  -4.71800 26.49100 29.72500
C  -5.24600 26.12300 31.12900
C  -5.78600 24.64100 30.78200
C  -5.92700 24.61600 29.23800
C  -4.86000 23.53000 31.30800
C  -6.43800 27.06600 31.59400
C  -6.76500 26.94800 33.10500
H  -6.21400 25.72100 33.88400
N  -6.11300 24.14000 26.16700
C  -6.73800 23.41600 27.14300
C  -7.64500 22.48300 26.45500
C  -7.39600 22.63100 25.09000
C  -6.43600 23.67500 24.91800
C  -8.74500 21.63000 27.22100
C  -8.14900 22.04800 23.92700
O  -7.81900 22.23400 22.77000
C  -9.34200 21.12200 24.14500
N  -4.49600 26.10100 24.49800
C  -4.86900 25.19600 23.51300
C  -4.16900 25.54800 22.20000
C  -3.53800 26.87600 22.49200
C  -3.60500 26.97000 23.98500
C  -3.26400 24.36500 21.68500
C  -4.37800 28.02400 21.87700
C  -3.73400 28.68600 20.63900
N  -3.61700 27.36100 26.88800
C  -2.88500 28.14100 26.06200
C  -2.18100 29.21900 26.70400
C  -2.49800 28.93800 28.04700
C  -3.37500 27.85200 28.14500
C  -1.29800 30.30000 26.14100
C  -2.23700 29.40000 29.38100
O  -1.48900 30.29100 29.74400
C  -3.12400 28.57200 30.38900
C  -2.31300 28.04900 31.45300
O  -1.28700 27.40300 31.30900
O  -2.94600 28.38800 32.71700
C  -2.47400 27.81600 33.99600
H  -7.16600 22.85200 29.11400
H  -5.91100 23.53700 22.84200
H  -2.28300 28.69500 24.16200
H  -4.48100 26.22700 31.89900
H  -6.74900 24.55800 31.28700
H  -4.02200 23.86600 31.92000
H  -4.55000 23.05500 30.37800
H  -5.34700 22.72500 31.85800
H  -7.35200 26.84600 31.04200
H  -6.12000 28.08300 31.36400
H  -7.85200 26.95900 33.18700
H  -6.41000 27.91900 33.44900
H  -9.53000 22.33900 27.48300
H  -8.37500 21.18200 28.14400
H  -9.27700 20.89300 26.61900
H  -10.12100 21.56300 24.76600
H  -8.98900 20.25800 24.70700
H  -9.63800 20.80000 23.14600
H  -4.95900 25.60000 21.45100
H  -2.47700 27.00200 22.27500
H  -3.19600 23.54200 22.39600
H  -2.22300 24.66600 21.57000
H  -3.71300 24.15400 20.71500
H  -4.55200 28.77800 22.64500
H  -5.40800 27.68300 21.77000
H  -3.17700 29.56300 20.96900
H  -4.52100 28.97900 19.94300
H  -3.06000 28.02300 20.09700
H  -0.72400 29.74400 25.39900
H  -0.61800 30.75200 26.86200
H  -1.95900 31.01400 25.65100
H  -3.99900 29.11900 30.74000
H  -2.91400 26.84300 34.21400
H  -2.70300 28.56500 34.75400
H  -1.39900 27.66300 33.90000

