158

Mg 40.42400 10.08300 29.94100
C  42.59400 11.26500 32.44500
C  38.38800 8.72900 32.27300
C  38.42900 8.90400 27.53600
C  42.72400 11.05300 27.57900
N  40.48600 10.09500 32.10800
C  41.47200 10.60300 32.93600
C  41.03200 10.44300 34.42500
C  39.69300 9.56000 34.36800
C  39.56600 9.39900 32.84700
C  39.80600 8.16900 35.09100
C  40.84500 11.79400 35.04200
C  40.22000 11.97300 36.42200
H  40.89500 12.89300 37.42100
N  38.65300 8.88000 29.87600
C  37.94000 8.48200 30.98100
C  36.76700 7.70200 30.59100
C  36.75300 7.83000 29.22600
C  37.97700 8.55600 28.77900
C  35.70700 7.08500 31.62200
C  35.77000 7.23500 28.20700
O  35.82100 7.34600 27.01400
C  34.51800 6.50700 28.68800
N  40.63500 9.79600 27.77700
C  39.58600 9.47100 26.99100
C  39.83100 9.74500 25.51900
C  41.21400 10.60000 25.55200
C  41.63500 10.45500 27.08100
C  39.89700 8.43700 24.66900
C  41.10800 12.05000 25.12300
C  40.00500 12.89300 25.74100
N  42.35400 10.81400 29.98000
C  43.12500 11.21900 28.93000
C  44.29900 11.77000 29.39900
C  44.11500 11.87900 30.81700
C  42.93500 11.23100 31.08300
C  45.37900 12.29000 28.58200
C  44.62700 12.48300 31.98800
O  45.66000 13.12000 32.13300
C  43.70800 12.01800 33.19000
C  44.45500 11.11400 34.17800
O  44.93500 10.03800 33.94800
O  44.47700 11.75100 35.35700
C  45.09200 11.18400 36.52700
H  37.63000 8.33500 32.95400
H  37.69000 8.58900 26.79600
H  43.29800 11.66200 26.87700
H  41.79600 9.87100 34.95100
H  38.78200 10.05300 34.70600
H  39.32800 7.37900 34.51200
H  39.25600 8.35900 36.01200
H  40.85000 8.13400 35.40200
H  40.34000 12.40700 34.29500
H  41.84200 12.22800 35.12000
H  40.30900 11.03400 36.97000
H  39.17500 12.26100 36.30700
H  36.14500 7.11900 32.62000
H  35.37900 6.06700 31.41300
H  34.82900 7.72900 31.57000
H  34.57600 5.66600 29.37800
H  33.91500 6.26300 27.81400
H  34.05200 7.37200 29.16100
H  38.99900 10.37200 25.19900
H  41.99600 10.13100 24.95500
H  39.50500 8.59200 23.66300
H  39.38600 7.59500 25.13600
H  40.93400 8.10200 24.64900
H  40.75200 12.10800 24.09500
H  42.07700 12.52500 25.27800
H  40.49800 13.64100 26.36200
H  39.22600 12.39700 26.31900
H  39.41800 13.46900 25.02500
H  44.96200 13.13800 28.03900
H  45.57700 11.55600 27.80100
H  46.32200 12.60500 29.02800
H  43.33700 12.95600 33.60500
H  45.53900 11.94000 37.17300
H  45.93600 10.59800 36.16300
H  44.44800 10.46700 37.03600
Mg 6.88300 54.20400 40.83600
C  6.00500 50.67000 40.37800
C  10.07400 53.32400 39.68900
C  7.46400 57.45400 40.64900
C  3.54400 54.75200 41.43200
N  7.84900 52.11300 40.07600
C  7.38900 50.88400 40.02800
C  8.46700 49.88200 39.55900
C  9.78100 50.68100 39.76100
C  9.24500 52.16200 39.89500
C  10.72500 50.25400 40.95100
C  8.31300 49.28600 38.13600
C  7.59800 50.14300 37.08200
H  7.05800 49.53000 35.83100
N  8.50900 55.25600 40.14100
C  9.78200 54.71000 39.83600
C  10.68900 55.85100 39.61200
C  9.91300 56.99100 39.62100
C  8.58400 56.66600 40.16800
C  12.18400 55.68400 39.26600
C  10.49100 58.40500 39.40400
O  11.64100 58.58000 39.10700
C  9.76300 59.64200 39.72500
N  5.71400 55.89700 41.04100
C  6.15800 57.11500 40.98800
C  5.05800 58.09800 41.36700
C  3.78200 57.28100 41.18600
C  4.37300 55.90800 41.27000
C  5.32700 58.75300 42.73500
C  2.91700 57.64600 39.98900
C  1.54600 58.32500 40.17200
N  5.17800 52.97300 40.97600
C  3.90200 53.37100 41.35500
C  2.95100 52.26800 41.34900
C  3.74600 51.20400 41.06400
C  5.09500 51.59200 40.76300
C  1.49300 52.30600 41.55700
C  3.73800 49.75600 40.78800
O  2.81000 48.99300 40.87100
C  5.31500 49.36300 40.57200
C  5.41700 48.49400 39.34000
O  4.96200 48.70700 38.22000
O  5.90500 47.25800 39.61700
C  5.58600 46.17300 38.61300
H  11.12600 53.08500 39.52000
H  7.65300 58.50600 40.87500
H  2.50200 54.98300 41.66700
H  8.56900 49.03900 40.24200
H  10.34600 50.69800 38.82900
H  11.73800 50.36200 40.56300
H  10.60600 49.21100 41.24700
H  10.81600 50.90800 41.81800
H  7.82600 48.31200 38.08300
H  9.30300 49.01600 37.76800
H  8.32500 50.80900 36.61900
H  6.78300 50.67500 37.57200
H  12.72600 56.28400 39.99600
H  12.23300 55.93100 38.20600
H  12.48800 54.63800 39.30500
H  10.22900 60.48100 39.20900
H  9.73600 59.62200 40.81500
H  8.82600 59.48000 39.19300
H  5.19000 58.90800 40.65000
H  3.17800 57.46900 42.07400
H  4.87300 58.21500 43.56700
H  4.86600 59.72400 42.55700
H  6.40200 58.73100 42.91600
H  2.89900 56.72600 39.40500
H  3.49900 58.25500 39.29700
H  1.50800 59.13000 39.43700
H  1.41500 58.78600 41.15100
H  0.73000 57.61900 40.02100
H  0.93300 52.34600 40.62300
H  1.42100 53.17700 42.20800
H  1.13200 51.44400 42.11700
H  5.61700 48.87900 41.50100
H  5.94800 45.19000 38.91400
H  6.10800 46.45400 37.69800
H  4.55700 45.87000 38.42000

