158

Mg 50.84600 45.46800 42.74900
C  47.96800 46.87300 41.14800
C  50.38800 42.62600 40.95800
C  53.98100 44.64400 43.49600
C  51.32800 48.71400 44.16400
N  49.40200 44.91000 41.25900
C  48.28500 45.55100 40.76000
C  47.38700 44.73300 39.94500
C  48.13300 43.34000 39.90300
C  49.34800 43.56000 40.80500
C  47.19500 42.16800 40.25800
C  47.03400 45.24800 38.52900
C  45.51600 45.23700 38.14900
H  45.05800 44.05600 37.25300
N  52.06000 43.79400 42.36300
C  51.63400 42.71700 41.62700
C  52.63200 41.76300 41.73000
C  53.74800 42.24800 42.48200
C  53.33500 43.59700 42.82700
C  52.45600 40.41000 41.11900
C  55.01900 41.47000 42.77100
O  55.16600 40.31700 42.39300
C  56.21900 42.19600 43.45500
N  52.50600 46.65400 43.39900
C  53.67900 46.02500 43.77800
C  54.66800 47.02700 44.33000
C  53.75800 48.17700 44.70400
C  52.43300 47.82100 44.07800
C  55.57000 46.55500 45.51700
C  54.32500 49.60000 44.44400
C  54.36900 50.47900 45.62500
N  49.87100 47.39000 42.75400
C  50.09000 48.51600 43.47200
C  48.99000 49.49200 43.21400
C  48.10800 48.81100 42.34400
C  48.72800 47.58900 42.05600
C  48.84900 50.90400 43.72200
C  46.86800 48.96500 41.64400
O  46.06800 49.89700 41.66300
C  46.68300 47.68100 40.90600
C  45.48100 47.06800 41.57900
O  45.50900 46.21200 42.40000
O  44.32200 47.40000 40.95400
C  43.10800 46.96500 41.63100
H  50.17900 41.70800 40.40400
H  54.98200 44.35500 43.82500
H  51.37900 49.57800 44.82900
H  46.44400 44.68300 40.48900
H  48.44700 43.13800 38.87800
H  46.19600 42.41200 40.61800
H  47.69200 41.69900 41.10700
H  47.25500 41.48000 39.41500
H  47.59400 44.69600 37.77400
H  47.31900 46.29500 38.42800
H  45.33400 46.11600 37.53100
H  44.83600 45.21200 39.00000
H  51.42500 40.19200 40.84000
H  52.69900 39.55400 41.74900
H  53.00600 40.34000 40.18100
H  55.87500 42.43000 44.46200
H  56.49900 43.05500 42.84500
H  57.13800 41.61400 43.53000
H  55.28200 47.15800 43.43900
H  53.49700 48.10600 45.76000
H  55.26900 47.09000 46.41800
H  56.57500 46.89400 45.26500
H  55.63500 45.48900 45.73400
H  53.60300 50.01800 43.74200
H  55.27100 49.51700 43.90900
H  55.39500 50.80400 45.79800
H  53.97300 50.10400 46.56900
H  53.79600 51.36500 45.35200
H  48.07500 51.02600 44.47900
H  48.66600 51.36200 42.75000
H  49.75400 51.38500 44.09200
H  46.45700 48.01000 39.89100
H  42.47000 47.81700 41.86500
H  43.29700 46.36500 42.52100
H  42.79600 46.29600 40.82900
Mg -5.67800 25.29300 26.17900
C  -4.21900 26.97800 28.95000
C  -7.21100 23.15200 28.48700
C  -6.60800 23.45700 23.67000
C  -3.51800 27.13900 24.14000
N  -5.70600 25.15700 28.49100
C  -5.10900 26.00400 29.39300
C  -5.56700 25.71500 30.87200
C  -6.17200 24.26800 30.71700
C  -6.47100 24.19200 29.16600
C  -5.18800 23.14700 31.11900
C  -6.46700 26.81700 31.39400
C  -6.69600 26.94700 32.89700
H  -6.21300 25.70100 33.75300
N  -6.97300 23.71200 26.06000
C  -7.46800 23.00400 27.10000
C  -8.34200 21.99000 26.61100
C  -8.21600 22.03200 25.18900
C  -7.26300 23.14900 24.88000
C  -9.14800 20.99200 27.55100
C  -8.87600 21.09600 24.08900
O  -8.62400 21.19900 22.85600
C  -9.81500 20.06700 24.49000
N  -5.04600 25.20400 24.22900
C  -5.65400 24.41100 23.35700
C  -5.17000 24.55800 21.93300
C  -4.38500 25.88300 21.99400
C  -4.26900 26.09200 23.58400
C  -4.29500 23.41700 21.44700
C  -5.04300 27.02400 21.24200
C  -4.26800 27.67500 20.03900
N  -4.19200 26.76900 26.39500
C  -3.45400 27.46600 25.49700
C  -2.64400 28.48300 26.11900
C  -2.86700 28.29200 27.44100
C  -3.87200 27.27100 27.63500
C  -1.67100 29.38500 25.42300
C  -2.45600 28.79700 28.73200
O  -1.72500 29.75800 29.00600
C  -3.22200 27.91600 29.78300
C  -2.29200 27.05500 30.53900
O  -1.82000 25.96800 30.21600
O  -2.22200 27.59400 31.82900
C  -1.46100 26.89900 32.89600
H  -7.62100 22.46800 29.23300
H  -6.84500 22.73300 22.88700
H  -2.81600 27.59400 23.43700
H  -4.64900 25.59100 31.44600
H  -7.07100 24.21700 31.33000
H  -5.76700 22.34900 31.58300
H  -4.39900 23.42400 31.81800
H  -4.76400 22.79100 30.18000
H  -7.42800 26.63200 30.91500
H  -6.07800 27.79200 31.10100
H  -7.75600 27.18600 32.98200
H  -5.99900 27.74800 33.14100
H  -10.12200 20.61300 27.24300
H  -9.41700 21.30400 28.56000
H  -8.50400 20.12400 27.69600
H  -10.17900 19.66100 23.54700
H  -10.64800 20.62500 24.91900
H  -9.28700 19.32200 25.08600
H  -5.99700 24.63800 21.22800
H  -3.37000 25.92000 21.59800
H  -4.18100 22.68000 22.24300
H  -3.30600 23.65200 21.05500
H  -4.86400 23.01000 20.61100
H  -5.03200 27.77700 22.03000
H  -6.11800 26.95800 21.07300
H  -3.25500 27.27400 19.99300
H  -4.15400 28.75600 20.12500
H  -4.82000 27.39800 19.14100
H  -2.24800 29.95900 24.69800
H  -0.77200 28.90400 25.03700
H  -1.22500 30.15000 26.05900
H  -3.81800 28.55100 30.43700
H  -2.06500 26.12500 33.36900
H  -0.94800 27.60600 33.54800
H  -0.64400 26.35400 32.42300

