158

Mg 49.24400 45.99400 42.74500
C  45.78500 46.10900 42.37200
C  49.27000 42.71400 41.64900
C  52.70300 46.11200 42.27500
C  49.28600 49.37400 43.36900
N  47.77600 44.64800 41.94300
C  46.41800 44.87700 42.00300
C  45.59800 43.60200 41.55000
C  46.68500 42.45900 41.73000
C  47.96700 43.31900 41.78500
C  46.54100 41.67000 43.03800
C  45.08100 43.77600 40.10500
C  43.61000 43.36800 39.90600
H  43.03800 43.78100 38.54200
N  50.82200 44.57300 42.17100
C  50.57200 43.27200 41.82400
C  51.78200 42.64900 41.56400
C  52.80100 43.59900 41.68800
C  52.12000 44.80300 42.07500
C  51.85800 41.20300 41.14000
C  54.32300 43.33600 41.31600
O  54.66300 42.19800 41.10300
C  55.26000 44.38500 41.14900
N  50.80400 47.44900 42.79400
C  52.07500 47.26600 42.71000
C  52.92600 48.60100 42.85600
C  51.81900 49.56300 43.38700
C  50.56000 48.74700 43.10200
C  54.08200 48.54600 43.88100
C  51.86000 50.91900 42.66700
C  51.74800 52.21100 43.48900
N  47.85500 47.49700 42.77700
C  48.02200 48.81600 43.22300
C  46.74500 49.42500 43.33000
C  45.81700 48.39500 43.04600
C  46.53900 47.25500 42.73400
C  46.46900 50.85900 43.59600
C  44.42700 48.06300 42.89400
O  43.40600 48.67900 43.01500
C  44.35300 46.52200 42.50900
C  43.58700 45.80300 43.50500
O  43.98500 45.53900 44.61900
O  42.40500 45.48600 42.96400
C  41.51400 44.70400 43.87300
H  49.25200 41.64300 41.43700
H  53.77100 46.24800 42.09300
H  49.36000 50.36600 43.82100
H  44.75100 43.48400 42.22600
H  46.68200 41.69200 40.95500
H  45.78300 42.13700 43.66800
H  47.51100 41.69400 43.53400
H  46.18300 40.65900 42.84400
H  45.79000 43.17400 39.53700
H  45.11000 44.82700 39.81400
H  43.01200 43.73400 40.74100
H  43.49500 42.30000 40.09100
H  52.79500 40.64600 41.16500
H  51.35300 41.08600 40.18100
H  51.16300 40.60900 41.73300
H  54.93200 44.87800 40.23400
H  56.25600 44.03000 40.88400
H  55.23300 44.95500 42.07800
H  53.20000 48.71100 41.80700
H  51.77600 49.81400 44.44700
H  54.00500 49.42800 44.51700
H  55.02400 48.52700 43.33300
H  54.10300 47.64200 44.49000
H  50.95600 50.83300 42.06200
H  52.70300 50.90100 41.97600
H  52.68300 52.76900 43.44300
H  51.47200 51.94600 44.51000
H  50.95000 52.82100 43.06600
H  47.18200 51.15100 44.36700
H  45.44100 50.98200 43.93700
H  46.52200 51.52300 42.73300
H  43.88900 46.36800 41.53500
H  40.62500 44.43000 43.30400
H  41.27400 45.43400 44.64600
H  42.10400 43.82600 44.13600
Mg 48.18600 35.53500 27.80900
C  46.46800 33.66600 30.26500
C  48.39100 38.04900 30.17400
C  49.42200 37.44200 25.48800
C  47.52000 32.92400 25.56000
N  47.49400 35.79400 30.00500
C  47.04900 34.84400 30.80000
C  47.08100 35.24400 32.27800
C  47.31900 36.78200 32.15800
C  47.79100 36.94800 30.66000
C  46.04100 37.68700 32.47800
C  48.23400 34.50200 33.02200
C  48.14200 34.17900 34.44000
H  47.18500 35.05900 35.25200
N  48.75500 37.51100 27.78800
C  48.90200 38.32000 28.86000
C  49.54800 39.48200 28.47200
C  49.86600 39.35000 27.13500
C  49.36900 38.09100 26.73700
C  49.71200 40.68900 29.41300
C  50.58200 40.38300 26.29600
O  50.79300 40.15700 25.08000
C  51.16500 41.65100 26.79000
N  48.20900 35.30000 25.81600
C  48.83000 36.20100 25.06500
C  49.13600 35.77200 23.67000
C  48.80900 34.26500 23.73300
C  48.14800 34.12200 25.09600
C  48.27100 36.50100 22.57000
C  50.04100 33.37900 23.51200
C  50.02100 32.27600 22.49400
N  47.21100 33.68000 27.89900
C  47.03300 32.72000 26.86800
C  46.35800 31.59000 27.47700
C  46.12600 31.92900 28.79600
C  46.63000 33.16800 29.00500
C  46.05500 30.25100 26.78200
C  45.46500 31.44800 29.97200
O  44.89000 30.40500 30.18200
C  45.58900 32.68400 31.03000
C  45.99900 32.20000 32.35900
O  46.97300 31.45500 32.47000
O  44.99900 32.19700 33.31500
C  45.27100 31.43000 34.54800
H  48.56600 38.73100 31.00900
H  49.96100 37.87300 24.64100
H  47.66200 32.16800 24.78500
H  46.09400 34.99900 32.67000
H  48.13200 37.11500 32.80300
H  46.47500 38.59500 32.89700
H  45.40200 37.08500 33.12500
H  45.49300 37.83900 31.54900
H  49.19300 34.98900 32.84200
H  48.38400 33.56400 32.48600
H  49.09200 34.25600 34.96900
H  47.77200 33.15400 34.44200
H  49.31300 41.53200 28.84800
H  50.77100 40.88900 29.57600
H  49.16600 40.60200 30.35200
H  50.37400 42.39700 26.86700
H  51.93300 41.94900 26.07600
H  51.58200 41.44700 27.77700
H  50.20400 35.93600 23.52500
H  48.06300 34.02900 22.97400
H  48.11600 37.50600 22.96200
H  47.39900 35.92400 22.26200
H  48.93700 36.57500 21.71000
H  50.30000 32.90300 24.45800
H  50.87900 33.96000 23.12600
H  49.19600 32.37500 21.78800
H  49.90100 31.36100 23.07300
H  50.95900 32.25100 21.94000
H  44.99800 30.10900 26.55500
H  46.51300 29.46200 27.37800
H  46.53800 30.11400 25.81400
H  44.62300 33.15700 31.20500
H  46.13400 30.76400 34.57500
H  44.43700 30.77300 34.79400
H  45.34400 32.08500 35.41600

