158

Mg -11.63600 39.22900 42.16500
C  -10.10300 36.09200 41.44200
C  -9.07200 40.73900 40.37100
C  -13.53000 41.94600 41.98800
C  -14.40400 37.26200 43.27000
N  -9.86900 38.45300 40.98900
C  -9.39000 37.16400 40.85300
C  -8.16400 37.15200 39.92700
C  -7.76800 38.63800 39.89000
C  -9.00000 39.36500 40.49900
C  -6.42800 38.87600 40.62600
C  -8.44000 36.41500 38.61300
C  -7.37700 35.29600 38.19700
H  -6.47200 35.47400 37.00200
N  -11.22300 41.13200 41.49000
C  -10.13000 41.58000 40.78400
C  -10.29500 43.02600 40.55000
C  -11.57900 43.38100 41.15500
C  -12.20300 42.10900 41.53600
C  -9.35500 43.81900 39.75700
C  -12.11300 44.85700 41.07800
O  -11.32800 45.73900 40.68900
C  -13.43900 45.28300 41.49700
N  -13.75200 39.58900 42.59200
C  -14.24300 40.81700 42.59100
C  -15.69500 40.80200 43.10300
C  -16.01800 39.23200 43.35500
C  -14.70900 38.63400 43.06100
C  -15.98700 41.80800 44.24100
C  -17.17300 38.59300 42.65600
C  -18.25600 38.00000 43.57500
N  -12.15500 37.12400 42.38400
C  -13.24200 36.54300 42.96000
C  -13.07000 35.06100 43.10200
C  -11.85300 34.87200 42.56300
C  -11.33800 36.13000 42.13400
C  -13.99000 34.03900 43.73300
C  -10.87400 33.90500 42.23100
O  -10.78300 32.68500 42.36000
C  -9.73300 34.62600 41.44100
C  -8.43700 34.31100 42.04800
O  -7.72300 33.44600 41.72800
O  -8.02000 35.36700 42.80800
C  -6.63500 35.47700 43.20400
H  -8.14800 41.12800 39.94000
H  -14.15200 42.84400 42.01100
H  -15.22000 36.68800 43.71300
H  -7.29800 36.65200 40.35900
H  -7.62900 39.00400 38.87300
H  -6.63700 38.88400 41.69600
H  -6.12600 39.85500 40.25300
H  -5.73700 38.04300 40.50100
H  -8.25700 37.11500 37.79700
H  -9.47200 36.10500 38.45000
H  -7.92400 34.39300 37.92700
H  -6.71900 35.06800 39.03600
H  -8.64400 43.29400 39.12000
H  -8.88200 44.39400 40.55400
H  -9.91800 44.45000 39.06900
H  -14.10300 44.57400 41.00300
H  -13.50500 46.26900 41.03500
H  -13.54300 45.39500 42.57600
H  -16.22500 41.18100 42.23000
H  -16.14500 39.12800 44.43300
H  -15.14000 42.49000 44.32400
H  -16.10600 41.28100 45.18700
H  -16.90900 42.36400 44.07100
H  -16.70800 37.91500 41.94100
H  -17.66700 39.31200 42.00300
H  -19.26900 38.39400 43.48800
H  -18.00100 38.09600 44.63000
H  -18.15100 36.95900 43.27000
H  -13.47000 33.08300 43.79500
H  -14.92000 33.97600 43.16800
H  -14.16500 34.37300 44.75500
H  -9.72000 34.34900 40.38700
H  -5.83600 35.18200 42.52400
H  -6.44400 34.94700 44.13700
H  -6.32300 36.47700 43.50400
Mg 0.53400 42.45700 26.23900
C  1.83300 42.41800 29.51700
C  -2.28400 41.12700 27.37800
C  -0.21500 41.64800 23.11200
C  3.97800 43.09800 25.15500
N  -0.06300 41.77800 28.17100
C  0.48100 42.02600 29.40300
C  -0.45400 41.87200 30.58500
C  -1.72900 41.21800 29.89800
C  -1.38600 41.36300 28.37400
C  -1.97400 39.66400 30.15300
C  -0.80800 43.29800 31.21600
C  -0.50000 43.49400 32.75000
H  -0.71000 42.37500 33.74700
N  -1.14400 41.71900 25.34100
C  -2.26400 41.20600 26.00900
C  -3.28300 40.94100 25.00700
C  -2.61000 41.01200 23.70500
C  -1.27300 41.49500 23.97800
C  -4.69300 40.50300 25.46300
C  -3.22700 40.55800 22.34000
O  -2.59300 40.71300 21.33000
C  -4.71100 40.24300 22.30600
N  1.79700 42.27600 24.44700
C  1.13700 42.05700 23.27000
C  2.05700 42.37200 22.08800
C  3.22900 43.21100 22.71800
C  2.98300 42.87000 24.22300
C  2.32800 41.11200 21.17700
C  3.27200 44.81200 22.45700
C  4.11600 45.16700 21.21400
N  2.50700 42.76300 27.13200
C  3.76000 43.11100 26.56100
C  4.74400 43.17400 27.62500
C  4.07100 42.94200 28.84500
C  2.69700 42.68400 28.44400
C  6.19900 43.43300 27.54700
C  4.16900 42.88000 30.26800
O  5.13000 43.03600 31.03000
C  2.68500 42.68900 30.71900
C  2.83900 41.56600 31.64300
O  3.00200 40.39100 31.30300
O  3.01000 42.00700 32.95400
C  3.25000 40.94800 33.97400
H  -3.21000 40.80500 27.85800
H  -0.42300 41.33800 22.08600
H  4.95900 43.43400 24.81200
H  0.07300 41.28200 31.33500
H  -2.66900 41.74100 30.07600
H  -1.61900 39.35700 31.13700
H  -1.52600 39.04400 29.37700
H  -3.03800 39.44700 30.04800
H  -1.87600 43.44800 31.05200
H  -0.31800 44.09000 30.65000
H  -1.02300 44.37600 33.12000
H  0.57700 43.63700 32.82900
H  -4.88600 40.85900 26.47500
H  -4.66500 39.41300 25.47100
H  -5.54300 40.98700 24.98200
H  -4.93600 39.39900 22.95800
H  -4.97600 39.88000 21.31300
H  -5.32500 41.08000 22.63800
H  1.58000 43.13500 21.47400
H  4.15200 42.72100 22.40900
H  1.99700 40.27000 21.78500
H  3.37700 41.05700 20.88500
H  1.78800 41.21800 20.23600
H  3.55100 45.41400 23.32200
H  2.27200 45.09000 22.12200
H  3.53500 45.73300 20.48600
H  4.56400 44.26500 20.79700
H  4.88300 45.83900 21.59900
H  6.38100 44.48900 27.74500
H  6.65500 43.12300 26.60600
H  6.77400 42.87400 28.28600
H  2.33600 43.56400 31.26700
H  2.92700 39.96700 33.62500
H  2.66300 41.07300 34.88400
H  4.29600 40.79100 34.23700

