158

Mg -1.97000 18.05900 26.96600
C  -2.26300 15.95900 29.79200
C  -2.65900 20.79400 29.22600
C  -1.66200 20.11800 24.52100
C  -2.12900 15.23300 24.85300
N  -2.32400 18.31700 29.21700
C  -2.37500 17.32400 30.16400
C  -2.60900 17.83300 31.54600
C  -2.97900 19.27700 31.25500
C  -2.60800 19.50500 29.78400
C  -4.45500 19.65500 31.58600
C  -1.45200 17.70400 32.66700
C  -2.01100 17.11200 33.92600
H  -1.01000 16.73800 35.02200
N  -2.06200 20.11300 26.92800
C  -2.36200 21.07400 27.88100
C  -2.16600 22.42700 27.37700
C  -1.76700 22.19700 26.04100
C  -1.79400 20.79000 25.78300
C  -2.47000 23.72000 28.11900
C  -1.43000 23.30400 24.95900
O  -1.12000 22.98200 23.78500
C  -1.40000 24.72200 25.33500
N  -2.15400 17.69600 24.90000
C  -1.88400 18.79100 24.12000
C  -1.74700 18.30900 22.64500
C  -2.20000 16.77200 22.74100
C  -2.10400 16.49400 24.23100
C  -2.53700 19.05000 21.53700
C  -1.47400 15.83500 21.76100
C  -0.09500 15.28400 22.11200
N  -2.11900 15.98600 27.16200
C  -2.15900 14.98700 26.25100
C  -2.32700 13.68300 26.86400
C  -2.34200 13.97600 28.26900
C  -2.18500 15.41200 28.41800
C  -2.63100 12.40200 26.22400
C  -2.51200 13.45200 29.62000
O  -2.69000 12.28500 29.99100
C  -2.43900 14.71300 30.66900
C  -1.32000 14.51800 31.63300
O  -0.09400 14.69800 31.34000
O  -1.71400 13.98300 32.80400
C  -0.68100 13.77100 33.88200
H  -2.90100 21.64600 29.86600
H  -1.36800 20.65200 23.61500
H  -1.92900 14.35900 24.22900
H  -3.46000 17.29500 31.96300
H  -2.35200 19.97100 31.81500
H  -4.55900 20.34300 32.42600
H  -5.03300 18.74900 31.76400
H  -4.88100 20.10400 30.68900
H  -1.08200 18.69400 32.93300
H  -0.64300 17.08200 32.28500
H  -2.67200 16.26900 33.72400
H  -2.58000 17.92600 34.37600
H  -1.57400 24.33600 28.20300
H  -2.89800 23.56100 29.10800
H  -3.30400 24.16000 27.57200
H  -0.59200 25.08600 25.97000
H  -2.40600 24.82200 25.74200
H  -1.39200 25.35500 24.44800
H  -0.66900 18.19200 22.53200
H  -3.26800 16.68000 22.54600
H  -3.06000 19.92200 21.92800
H  -3.29400 18.39700 21.10100
H  -1.74000 19.42600 20.89600
H  -1.25300 16.38600 20.84700
H  -2.12500 14.98600 21.55000
H  0.45600 15.72900 22.94000
H  0.45800 15.30000 21.17300
H  -0.15200 14.22700 22.37100
H  -3.62800 12.43100 25.78500
H  -2.65200 11.61600 26.97900
H  -1.84900 12.15200 25.50700
H  -3.30400 14.86600 31.31400
H  -1.20100 13.81900 34.83900
H  0.18100 14.42400 33.74800
H  -0.21500 12.79000 33.78900
Mg 6.43300 54.37600 39.68000
C  5.91300 50.95800 39.50900
C  9.67600 53.96400 39.04700
C  6.63600 57.60700 39.03400
C  2.91800 54.70700 39.95800
N  7.59400 52.66400 39.19600
C  7.26600 51.37800 39.25000
C  8.50000 50.53200 38.84100
C  9.66500 51.46700 39.09300
C  8.94700 52.81600 39.15800
C  10.30600 51.23400 40.53200
C  8.41000 50.04000 37.41400
C  8.48500 51.12300 36.37000
H  7.17300 51.51500 35.57400
N  7.95100 55.62000 39.06800
C  9.22600 55.29500 38.89800
C  10.09900 56.50200 38.64100
C  9.19200 57.59400 38.55700
C  7.82600 56.99600 38.92500
C  11.60400 56.60400 38.41400
C  9.58000 59.07400 38.38400
O  10.74700 59.39400 38.37400
C  8.51600 60.11300 38.35000
N  5.01800 55.98800 39.38100
C  5.42100 57.27000 39.38200
C  4.30700 58.24900 39.73500
C  3.12200 57.35100 39.99800
C  3.71500 55.90100 39.79000
C  4.66500 59.17000 40.93700
C  1.88700 57.50000 39.02700
C  0.72900 58.21800 39.68400
N  4.67700 53.14300 39.82600
C  3.33300 53.41700 39.98100
C  2.58000 52.09100 40.13700
C  3.58800 51.11200 39.99100
C  4.81900 51.79300 39.72000
C  1.03400 51.90700 40.48800
C  3.86800 49.68700 40.03800
O  3.13000 48.72900 40.15200
C  5.41100 49.55500 39.78800
C  5.41000 48.69900 38.61000
O  4.96400 48.86300 37.51000
O  6.09000 47.47800 38.86700
C  6.05200 46.46600 37.82000
H  10.74800 53.89000 38.85200
H  6.53900 58.66900 38.79800
H  1.86800 54.92900 40.15600
H  8.63200 49.64300 39.45800
H  10.43900 51.47000 38.32500
H  10.10800 50.23700 40.92400
H  9.98600 52.01100 41.22800
H  11.39500 51.20100 40.52400
H  7.51500 49.43500 37.27000
H  9.12400 49.23600 37.23600
H  9.11300 50.70500 35.58300
H  9.03900 52.01100 36.67400
H  11.84300 56.85000 37.38000
H  12.13900 55.67100 38.59200
H  12.10300 57.37400 39.00300
H  9.12500 61.00700 38.21900
H  7.89400 60.20600 39.24100
H  7.79000 59.89800 37.56600
H  4.06200 58.87300 38.87600
H  2.75200 57.39500 41.02300
H  5.74800 59.17900 41.06100
H  4.26100 58.70400 41.83600
H  4.30000 60.19200 40.83300
H  1.56400 56.64300 38.43500
H  2.20600 58.22500 38.27800
H  -0.02000 58.47600 38.93500
H  1.21000 59.02700 40.23400
H  0.31000 57.52000 40.40800
H  0.68800 52.92400 40.67300
H  0.93700 51.35000 41.42000
H  0.52000 51.46900 39.63300
H  6.04000 48.99300 40.47900
H  7.03400 46.00000 37.73900
H  5.87000 46.85400 36.81800
H  5.34700 45.65900 38.01900

