158

Mg 29.85100 58.95100 38.58300
C  26.77900 57.26100 37.79400
C  31.50800 56.07000 38.05700
C  32.56600 60.89400 38.52500
C  27.94100 62.00600 38.61900
N  29.25400 57.02100 37.87500
C  28.00800 56.48100 37.63400
C  28.09000 55.03900 36.97500
C  29.47400 54.62800 37.58200
C  30.15100 55.97400 37.81000
C  29.39600 53.78700 38.86700
C  27.97600 55.03100 35.42900
C  26.64800 54.55600 34.78700
H  25.80000 55.43900 33.88600
N  31.83600 58.52200 38.48600
C  32.32800 57.24500 38.26200
C  33.71900 57.37100 38.13900
C  34.13200 58.74600 38.40900
C  32.80800 59.48800 38.54400
C  34.56600 56.13000 37.91000
C  35.50600 59.27200 38.45200
O  36.44100 58.63200 38.09300
C  35.75600 60.73800 38.96500
N  30.18600 61.21500 38.42900
C  31.41900 61.68200 38.49900
C  31.43200 63.24200 38.34800
C  29.87700 63.57500 38.28500
C  29.30500 62.20400 38.43500
C  32.18900 63.96400 39.50400
C  29.47100 64.27800 36.97300
C  29.83700 65.72200 36.86800
N  27.77600 59.54800 38.42100
C  27.19600 60.81500 38.55400
C  25.72400 60.58700 38.61000
C  25.50300 59.22800 38.33100
C  26.78000 58.65200 38.23800
C  24.68200 61.74100 38.69500
C  24.52400 58.26700 38.05300
O  23.31800 58.40400 38.08200
C  25.23100 56.96500 37.56000
C  24.76900 55.88400 38.57300
O  24.51600 56.08300 39.78400
O  24.30300 54.80600 37.80500
C  23.16000 54.18400 38.31400
H  32.06000 55.13500 37.94200
H  33.48300 61.47100 38.39200
H  27.32500 62.90500 38.69200
H  27.27400 54.46600 37.41500
H  30.06500 54.06100 36.86200
H  28.51100 53.17800 39.05100
H  29.59900 54.52900 39.64000
H  30.21100 53.06300 38.86100
H  28.64300 54.31600 34.94600
H  28.31200 56.02000 35.11800
H  25.91400 54.12600 35.46900
H  27.00700 53.77700 34.11400
H  35.62900 56.32000 38.06100
H  34.35200 55.68000 36.94100
H  34.25200 55.39500 38.65100
H  36.81400 60.93300 39.13900
H  35.18300 61.01200 39.85100
H  35.53100 61.47400 38.19300
H  31.92300 63.43900 37.39500
H  29.46700 64.12200 39.13500
H  31.49800 64.71600 39.88500
H  33.10300 64.47700 39.20600
H  32.28500 63.33900 40.39200
H  28.40500 64.17500 36.76800
H  29.97300 63.79400 36.13600
H  29.01600 66.41600 36.68800
H  30.58200 65.75500 36.07300
H  30.49400 66.05800 37.67000
H  25.05600 62.58400 38.11500
H  24.51400 62.11000 39.70700
H  23.68900 61.56400 38.28400
H  24.89400 56.73000 36.55000
H  22.45500 53.99400 37.50400
H  22.52400 54.84800 38.89900
H  23.32000 53.19300 38.73800
Mg 6.33100 54.20700 40.86300
C  5.77200 50.59600 41.07100
C  9.59100 53.33400 39.95100
C  6.64400 57.25500 39.77500
C  3.06300 54.57600 41.77800
N  7.40500 52.24800 40.35500
C  7.00000 50.96800 40.40400
C  8.07800 49.95600 40.10300
C  9.41900 50.81400 40.37100
C  8.81200 52.25500 40.27000
C  10.23300 50.53100 41.66600
C  8.03300 49.25000 38.66000
C  7.17600 49.97500 37.60900
H  6.57800 49.19200 36.45900
N  7.96400 55.23900 40.01700
C  9.23300 54.72600 39.80300
C  10.01100 55.81500 39.46700
C  9.21400 56.92500 39.33400
C  7.85400 56.49500 39.64600
C  11.50300 55.73300 39.11400
C  9.76400 58.23900 38.88100
O  10.94000 58.52800 38.62400
C  8.83000 59.33600 38.75400
N  4.93900 55.68900 40.50100
C  5.33100 56.91300 40.19200
C  4.12600 57.90500 40.37500
C  2.93000 56.95200 40.78900
C  3.64600 55.64800 41.07200
C  4.32500 59.07400 41.35100
C  1.85100 56.79900 39.69400
C  0.54800 57.45900 39.87100
N  4.72700 53.00300 41.56600
C  3.51000 53.28500 41.99400
C  2.93300 52.08800 42.60000
C  3.69800 51.00600 42.15900
C  4.81400 51.61600 41.50400
C  1.62600 52.14700 43.34000
C  3.79200 49.57100 42.06400
O  3.05300 48.67400 42.47100
C  5.24000 49.22500 41.42000
C  4.92400 48.18700 40.44000
O  4.45000 48.46300 39.32100
O  5.30200 46.87600 40.77400
C  5.03400 45.78600 39.92000
H  10.64100 53.19800 39.68000
H  6.63600 58.30400 39.47300
H  2.07500 54.85300 42.15000
H  7.98600 49.14600 40.82600
H  10.15400 50.67700 39.57800
H  10.38100 51.52100 42.09700
H  11.15800 50.10500 41.27600
H  9.74300 49.94100 42.44000
H  7.75500 48.21000 38.83400
H  9.03600 49.05700 38.28000
H  7.77800 50.79900 37.22500
H  6.34800 50.54200 38.03400
H  11.44400 55.84100 38.03100
H  11.98700 54.76000 39.19300
H  12.02900 56.49800 39.68500
H  8.54200 59.65200 39.75600
H  8.00400 58.93300 38.16600
H  9.24300 60.16300 38.17500
H  3.87600 58.29600 39.38800
H  2.37100 57.22500 41.68400
H  5.38200 59.27900 41.52300
H  3.68900 58.86000 42.21000
H  3.94000 59.95100 40.83100
H  1.76000 55.75000 39.41200
H  2.26400 57.32200 38.83200
H  -0.24800 56.96600 39.31300
H  0.56400 58.41400 39.34700
H  0.24400 57.61600 40.90600
H  0.99800 51.25600 43.36700
H  1.04500 53.00300 43.00000
H  1.89900 52.42300 44.35900
H  5.88500 48.81800 42.19900
H  4.16600 45.22400 40.26600
H  5.85200 45.06700 39.97800
H  4.94100 46.07400 38.87300

