158

Mg 2.30600 -0.65400 44.35100
C  5.86400 -0.24900 43.64500
C  1.87200 2.21800 42.40600
C  -0.98900 -1.29100 44.35000
C  2.97200 -3.58600 46.05700
N  3.72900 0.94800 43.32000
C  5.10100 0.72900 42.97300
C  5.65100 1.85600 42.07600
C  4.41500 2.85500 42.04200
C  3.23500 2.02000 42.63600
C  4.59200 4.12200 42.81800
C  5.92900 1.29700 40.68300
C  7.29900 1.73000 40.08500
H  7.20600 2.68600 38.92500
N  0.69500 0.33800 43.57200
C  0.75400 1.50800 42.86000
C  -0.63100 2.00600 42.53800
C  -1.52500 0.88900 42.88700
C  -0.62500 -0.09900 43.56900
C  -0.93200 3.30800 41.84600
C  -2.95700 0.89300 42.51600
O  -3.47300 1.86400 42.00800
C  -3.75900 -0.32800 42.81500
N  1.14700 -2.27500 45.02500
C  -0.21200 -2.31600 44.99100
C  -0.82200 -3.53100 45.71400
C  0.49800 -4.12500 46.35600
C  1.66500 -3.28800 45.77900
C  -1.96700 -3.21500 46.70900
C  0.59600 -5.71600 46.03400
C  1.24400 -6.59500 47.24900
N  4.00100 -1.76200 44.79000
C  4.15600 -2.90100 45.57300
C  5.52600 -3.22000 45.73700
C  6.18200 -2.21400 45.04600
C  5.26300 -1.31000 44.42700
C  6.11100 -4.39100 46.50200
C  7.43200 -1.68600 44.74000
O  8.53200 -2.16500 45.05700
C  7.32700 -0.37100 43.75900
C  7.88600 0.75500 44.46800
O  7.60100 1.06800 45.64100
O  8.82000 1.49400 43.71100
C  9.22100 2.76800 44.31200
H  1.67600 3.18800 41.94500
H  -2.07400 -1.41200 44.39200
H  3.15000 -4.47600 46.66500
H  6.51800 2.25200 42.60500
H  4.17800 3.15700 41.02200
H  4.11000 3.99700 43.78700
H  4.19400 5.01000 42.32700
H  5.61300 4.47700 42.96100
H  5.18800 1.77400 40.04100
H  5.87300 0.21400 40.79100
H  7.85600 0.87600 39.70100
H  7.91700 2.09500 40.90600
H  -1.87700 3.64300 42.27300
H  -0.91700 3.19300 40.76200
H  -0.19000 4.08500 42.03000
H  -4.70100 -0.34900 42.26700
H  -3.79400 -0.49400 43.89100
H  -3.07000 -1.10200 42.47700
H  -1.22400 -4.26400 45.01500
H  0.47400 -4.07200 47.44500
H  -1.72200 -3.65600 47.67500
H  -2.78100 -3.85100 46.36100
H  -2.30800 -2.18300 46.79500
H  0.90500 -5.98800 45.02500
H  -0.44600 -6.01700 45.92400
H  2.05700 -7.24900 46.93300
H  0.46000 -7.27200 47.58700
H  1.43100 -5.93700 48.09800
H  5.46300 -5.26400 46.42100
H  6.46000 -4.22200 47.52100
H  6.97200 -4.78700 45.96400
H  7.88900 -0.53700 42.84000
H  10.11200 2.59500 44.91500
H  8.44300 3.13200 44.98400
H  9.44600 3.55300 43.59000
Mg 16.39900 52.45800 25.21800
C  18.09700 51.00100 27.98100
C  13.67100 52.94900 27.29700
C  14.55200 53.27800 22.54000
C  19.02600 51.21700 23.20600
N  15.96500 52.09000 27.33400
C  16.85900 51.53100 28.30400
C  16.24500 51.71200 29.77400
C  14.79900 52.23400 29.52300
C  14.80700 52.45300 27.96600
C  13.59000 51.33900 29.90200
C  17.14100 52.69400 30.66000
C  17.32800 52.27600 32.09600
H  16.25000 51.30600 32.61400
N  14.36600 53.12600 24.95600
C  13.39400 53.21800 25.95000
C  12.18600 53.81800 25.26300
C  12.44800 53.83900 23.85400
C  13.82800 53.40800 23.74500
C  10.94200 54.12500 26.01900
C  11.53400 54.29900 22.71900
O  11.87000 54.33700 21.55900
C  10.13400 54.79300 22.97500
N  16.70400 52.17400 23.24100
C  15.82800 52.67000 22.33200
C  16.37400 52.76600 20.95800
C  17.79100 52.06200 21.03600
C  17.90500 51.85800 22.58100
C  15.49900 52.39100 19.71700
C  18.98200 52.89500 20.34900
C  19.86300 52.12100 19.37200
N  18.19800 51.37100 25.45200
C  19.16700 50.92400 24.57900
C  20.15400 50.15000 25.21800
C  19.75900 50.14300 26.55900
C  18.57100 50.87300 26.65400
C  21.28200 49.29300 24.57400
C  20.11700 49.70400 27.89400
O  21.04000 49.02300 28.36600
C  19.11500 50.32100 28.81200
C  18.45000 49.16800 29.58700
O  17.50200 48.45200 29.17500
O  18.99400 49.05500 30.90200
C  18.65400 47.93600 31.69600
H  12.79200 53.20000 27.89400
H  14.06600 53.64000 21.63200
H  19.89800 50.96000 22.60100
H  16.26100 50.72300 30.23200
H  14.60500 53.22000 29.94700
H  13.96300 50.37300 30.24200
H  12.95700 51.23800 29.02000
H  13.03300 51.77500 30.73200
H  16.62300 53.64300 30.79300
H  18.07100 52.84000 30.11000
H  17.38800 53.17000 32.71800
H  18.26600 51.72300 32.14400
H  10.17500 53.49000 25.57600
H  10.78900 55.17100 25.75400
H  11.04800 54.09500 27.10300
H  10.16200 55.69900 23.58200
H  9.50500 53.96700 23.30300
H  9.68700 55.12200 22.03700
H  16.74400 53.78900 20.88600
H  17.87600 51.03800 20.67300
H  14.57300 51.90800 20.03000
H  15.99800 51.79500 18.95300
H  15.13000 53.27000 19.18900
H  19.57400 53.32300 21.15800
H  18.63400 53.78200 19.81900
H  19.77800 51.03900 19.46800
H  20.88700 52.43500 19.57300
H  19.67100 52.38700 18.33300
H  22.11700 49.94100 24.30600
H  21.10000 48.84900 23.59500
H  21.62600 48.65700 25.38900
H  19.70700 50.90800 29.51300
H  17.57000 47.84300 31.75800
H  19.00500 48.08100 32.71800
H  19.13300 47.05100 31.27800

