158

Mg 45.34200 4.15700 47.36000
C  43.44600 6.96100 46.85400
C  42.59900 2.21100 46.58100
C  47.34900 1.29000 47.26000
C  48.22600 6.13000 47.20200
N  43.28700 4.57300 46.73000
C  42.71600 5.81500 46.65900
C  41.25200 5.74000 46.37900
C  40.95000 4.24200 46.58700
C  42.34400 3.63000 46.59800
C  40.13100 3.93100 47.81000
C  40.97600 6.21700 44.89900
C  40.19000 7.48200 44.76200
H  40.42300 8.28800 43.53800
N  44.94600 2.05800 47.07800
C  43.76000 1.47700 46.77200
C  43.90000 0.03400 46.70500
C  45.25700 -0.22100 46.91100
C  45.97300 1.08100 47.04100
C  42.77200 -0.93900 46.52000
C  45.86000 -1.63700 46.92400
O  45.11600 -2.60300 46.82200
C  47.36700 -1.86100 46.90900
N  47.48500 3.78200 47.21600
C  48.03400 2.55700 47.36000
C  49.52900 2.61600 47.36200
C  49.82400 4.16000 47.35600
C  48.43300 4.74800 47.22900
C  50.14000 1.81800 48.58000
C  50.83800 4.69700 46.17200
C  52.35700 4.88600 46.61900
N  45.77900 6.23800 47.05200
C  47.01100 6.86800 47.12800
C  46.77000 8.27000 47.21400
C  45.35700 8.35800 47.14100
C  44.84200 7.08500 47.07100
C  47.72600 9.37000 47.19400
C  44.21900 9.26500 47.08900
O  44.26200 10.50700 47.13400
C  42.97300 8.44800 46.82200
C  41.98200 8.69400 47.88600
O  41.75800 7.93600 48.80500
O  41.24400 9.78200 47.55700
C  39.98400 9.99600 48.28900
H  41.74300 1.58400 46.32300
H  47.95500 0.39600 47.41700
H  49.15700 6.69800 47.25200
H  40.72700 6.38000 47.08700
H  40.48000 3.73500 45.74500
H  39.33100 4.65700 47.95300
H  40.72000 3.80700 48.71900
H  39.47400 3.07800 47.63800
H  40.55700 5.44100 44.25900
H  41.94500 6.43400 44.44900
H  40.31000 8.14300 45.62000
H  39.16900 7.11300 44.66400
H  43.01200 -1.75300 45.83600
H  41.94400 -0.55700 45.92100
H  42.33800 -1.23200 47.47500
H  47.64900 -2.89000 46.68600
H  47.71100 -1.90400 47.94300
H  48.06900 -1.23900 46.35300
H  49.81000 2.23500 46.38100
H  50.26300 4.44400 48.31300
H  49.37000 1.72400 49.34500
H  50.95600 2.39100 49.02100
H  50.54600 0.87700 48.20800
H  50.33900 5.53900 45.69100
H  50.75600 3.94300 45.38800
H  52.76800 5.81700 46.22900
H  52.89500 4.09000 46.10500
H  52.53300 4.77200 47.68900
H  48.29200 9.35200 46.26300
H  48.47700 9.15200 47.95400
H  47.17700 10.27400 47.45600
H  42.53400 8.64800 45.84500
H  40.14200 10.74300 49.06600
H  39.45600 9.16100 48.75100
H  39.39500 10.51000 47.53000
Mg -9.98200 16.97000 41.00600
C  -6.47000 16.50600 41.31200
C  -9.36900 20.37200 40.73700
C  -13.13300 17.43400 40.33500
C  -10.32200 13.45000 41.09500
N  -8.17000 18.24800 41.17900
C  -6.85500 17.85100 41.14400
C  -5.94100 19.01300 40.68900
C  -6.78400 20.24300 41.04600
C  -8.24000 19.61500 41.07700
C  -6.37300 20.90800 42.36900
C  -5.39100 18.95800 39.22400
C  -3.85800 19.02500 38.97100
H  -3.40000 18.13500 37.85900
N  -11.07400 18.66300 40.42900
C  -10.67300 19.97400 40.39400
C  -11.84300 20.90600 40.11700
C  -12.93900 20.01200 40.20600
C  -12.41600 18.66500 40.28400
C  -11.67800 22.40200 40.04800
C  -14.39800 20.47200 40.07200
O  -14.64400 21.69500 40.00800
C  -15.61500 19.55500 40.05700
N  -11.42200 15.53600 40.45700
C  -12.69800 16.04900 40.55600
C  -13.75400 14.93200 40.59000
C  -12.83400 13.63800 40.62600
C  -11.46100 14.20800 40.76700
C  -14.82100 15.07300 41.74200
C  -13.01400 12.55800 39.53800
C  -13.32000 11.16400 40.00500
N  -8.75300 15.32900 41.37500
C  -9.01900 13.95300 41.35700
C  -7.87000 13.18400 41.71000
C  -6.79200 14.10800 41.60500
C  -7.40300 15.38600 41.42000
C  -7.83500 11.72400 42.01700
C  -5.39300 14.24700 41.53700
O  -4.49000 13.41500 41.57800
C  -5.10400 15.78500 41.16400
C  -4.17800 16.25400 42.18900
O  -3.08000 16.75200 41.99600
O  -4.68700 16.15200 43.47800
C  -4.00600 16.60300 44.71600
H  -9.22300 21.45400 40.75800
H  -14.21200 17.45000 40.16800
H  -10.47800 12.37100 41.14600
H  -5.13500 18.87600 41.41000
H  -6.71900 21.00900 40.27400
H  -5.57100 20.44700 42.94500
H  -7.24900 21.03400 43.00600
H  -5.98200 21.88400 42.08100
H  -5.81700 19.76600 38.62900
H  -5.77500 18.04200 38.77500
H  -3.36600 18.70100 39.88900
H  -3.67400 20.04300 38.62700
H  -12.55000 22.85000 39.57100
H  -10.79500 22.59000 39.43800
H  -11.59500 22.77800 41.06800
H  -15.60000 18.92000 39.17100
H  -16.52700 20.14700 39.98500
H  -15.68800 19.14600 41.06400
H  -14.26500 14.95000 39.62800
H  -13.07400 13.08900 41.53700
H  -14.98000 16.03000 42.23900
H  -14.61800 14.35800 42.53900
H  -15.76600 14.76600 41.29400
H  -12.18400 12.48300 38.83600
H  -13.81600 12.81100 38.84400
H  -12.85900 10.41700 39.35900
H  -14.38600 10.93800 39.96500
H  -12.96300 10.95000 41.01300
H  -8.83500 11.37600 42.27600
H  -7.16400 11.30300 42.76600
H  -7.55800 11.23700 41.08200
H  -4.62400 15.89800 40.19200
H  -4.51900 17.51400 45.02400
H  -2.92700 16.71900 44.61900
H  -4.12600 15.95200 45.58200

