158

Mg 25.66200 0.96500 29.82500
C  27.72500 0.96700 32.63300
C  22.91900 1.49100 31.95900
C  23.64600 1.02500 27.12200
C  28.36300 0.38400 27.69500
N  25.41600 1.24100 32.15000
C  26.40300 1.24100 33.04300
C  25.87700 1.48400 34.42600
C  24.32600 1.59100 34.15100
C  24.19900 1.38300 32.66000
C  23.49700 0.51300 34.92800
C  26.46300 2.73100 35.13400
C  26.61900 2.47900 36.62600
H  26.16700 3.66800 37.53600
N  23.58900 1.05600 29.61400
C  22.62500 1.21100 30.57900
C  21.35900 1.28300 29.96100
C  21.55300 1.19200 28.54200
C  23.02300 1.06900 28.37200
C  20.02600 1.49800 30.65900
C  20.45300 1.14900 27.40200
O  20.76200 1.13200 26.18900
C  18.99500 1.19700 27.64800
N  25.91400 0.69000 27.68000
C  24.97000 1.01400 26.78300
C  25.55900 1.08700 25.40700
C  27.08200 0.86300 25.60400
C  27.08900 0.60800 27.06700
C  24.91600 0.21100 24.23200
C  27.99000 2.01100 25.10200
C  29.38400 1.61200 24.59500
N  27.58500 0.61400 30.01100
C  28.57600 0.33100 29.10800
C  29.79400 0.24100 29.80300
C  29.50300 0.40300 31.17600
C  28.14600 0.64500 31.29600
C  31.09400 0.00900 29.09200
C  30.03200 0.39600 32.44900
O  31.18500 0.31000 32.78100
C  28.93500 0.80000 33.50000
C  28.88100 -0.23800 34.43700
O  28.52500 -1.38300 34.23300
O  29.37700 0.19000 35.66500
C  29.32700 -0.59500 36.84800
H  22.03800 1.66400 32.58100
H  23.13100 1.33000 26.20900
H  29.14500 0.23800 26.94700
H  26.05600 0.61100 35.05400
H  23.97400 2.59700 34.38200
H  23.77200 0.51600 35.98300
H  23.68000 -0.46700 34.48700
H  22.41900 0.67200 34.95400
H  25.75500 3.54100 34.95800
H  27.36900 3.10200 34.65600
H  27.65400 2.24800 36.87600
H  26.01600 1.61900 36.91900
H  19.48800 2.35800 30.25900
H  20.13800 1.68300 31.72700
H  19.33400 0.66300 30.55500
H  18.62200 0.42800 28.32300
H  18.35200 1.10000 26.77300
H  18.78400 2.15400 28.12400
H  25.46400 2.15500 25.20900
H  27.25800 -0.12400 25.17700
H  25.71500 -0.36200 23.76100
H  24.53200 0.89800 23.47900
H  24.22900 -0.54400 24.61600
H  28.25300 2.80000 25.80600
H  27.42600 2.56000 24.34800
H  30.07300 2.22800 25.17300
H  29.35400 1.91200 23.54800
H  29.58200 0.54200 24.66200
H  31.15900 -0.93600 28.55300
H  31.89900 0.15600 29.81200
H  31.19500 0.76800 28.31500
H  29.29200 1.71800 33.96500
H  28.62100 -0.19700 37.57700
H  30.25400 -0.44800 37.40200
H  29.23300 -1.65700 36.61900
Mg 44.81900 3.66200 46.87100
C  42.69600 6.42600 46.92600
C  42.10000 1.56600 46.94800
C  46.93700 1.16400 46.44700
C  47.61500 5.99500 46.87300
N  42.63400 3.99400 46.75100
C  41.99200 5.18700 46.73500
C  40.43700 5.03700 46.88400
C  40.24700 3.46100 47.07700
C  41.74100 2.93600 46.90600
C  39.52900 2.96700 48.35200
C  39.56700 5.65900 45.79400
C  39.84800 5.25800 44.42100
H  40.22900 6.40700 43.52400
N  44.56900 1.66000 46.64300
C  43.36300 0.97200 46.75500
C  43.70100 -0.39100 46.68000
C  45.01000 -0.59400 46.26800
C  45.61700 0.75200 46.43600
C  42.62700 -1.45400 46.86200
C  45.71400 -1.90700 45.86500
O  45.11700 -2.98200 45.83600
C  47.13000 -1.94100 45.54100
N  46.94600 3.65700 46.40900
C  47.49900 2.40300 46.54200
C  48.96800 2.44700 46.81500
C  49.26700 4.03000 46.62800
C  47.86400 4.65200 46.75600
C  49.41000 1.81400 48.19700
C  50.14700 4.50800 45.45600
C  51.65300 4.18200 45.66200
N  45.11700 5.77900 46.82900
C  46.31600 6.52700 46.87300
C  45.88600 7.91600 47.07000
C  44.48300 7.90100 47.09300
C  44.07100 6.53900 46.99400
C  46.83300 9.13800 47.16700
C  43.36000 8.80900 47.33400
O  43.23700 10.02800 47.47900
C  42.15400 7.86600 47.23800
C  41.40300 7.82500 48.45700
O  41.74500 7.15200 49.40600
O  40.15700 8.36900 48.27500
C  39.22100 8.38100 49.40500
H  41.19900 0.94900 46.93600
H  47.63400 0.34900 46.24100
H  48.46100 6.68600 46.87300
H  40.10200 5.49400 47.81500
H  39.73900 3.08000 46.19100
H  38.83100 2.22700 47.96100
H  39.06000 3.73000 48.97300
H  40.21400 2.42400 49.00300
H  39.73100 6.73200 45.89900
H  38.50900 5.51500 46.01400
H  38.91000 4.84300 44.05300
H  40.70200 4.59800 44.26600
H  41.76500 -1.17400 47.46700
H  43.03300 -2.35300 47.32500
H  42.28600 -1.77600 45.87800
H  47.67800 -1.76900 46.46700
H  47.30500 -1.19500 44.76600
H  47.29200 -2.93100 45.11500
H  49.53300 1.91600 46.04900
H  49.77300 4.36600 47.53300
H  50.22700 1.11700 48.01200
H  48.62900 1.15100 48.56900
H  49.72000 2.60600 48.87800
H  50.01200 5.57700 45.29400
H  49.79300 3.93800 44.59700
H  52.03700 3.51700 44.88900
H  51.82300 3.84800 46.68600
H  52.19500 5.12800 45.62300
H  47.83500 8.76700 47.38100
H  46.35100 9.65300 47.99800
H  46.77400 9.77500 46.28500
H  41.50700 8.12000 46.39800
H  38.38500 7.76300 49.07700
H  38.88400 9.39600 49.61800
H  39.49900 7.80800 50.28900

