158

Mg 49.27100 47.03500 42.15900
C  45.81400 47.52900 41.26400
C  48.94100 43.76000 41.34500
C  52.52300 46.79100 42.39100
C  49.47100 50.52700 42.49600
N  47.56800 45.80700 41.26200
C  46.25000 46.18400 40.98300
C  45.41300 45.00900 40.52300
C  46.43600 43.81900 40.72700
C  47.73100 44.47900 41.18400
C  45.86300 42.71200 41.62700
C  44.81400 45.13000 39.10900
C  43.30700 44.75500 38.91600
H  42.94300 44.94700 37.40300
N  50.63800 45.38600 42.05800
C  50.23400 44.13100 41.74700
C  51.45200 43.30600 41.86500
C  52.59700 44.17500 42.05500
C  51.97500 45.48800 42.21800
C  51.43400 41.79600 41.54300
C  54.05700 43.81100 42.07400
O  54.33500 42.60800 41.99600
C  55.18000 44.80400 42.23800
N  50.77200 48.44900 42.25500
C  52.05700 48.06800 42.41400
C  53.02000 49.30900 42.63000
C  52.07100 50.52400 42.30600
C  50.67800 49.84500 42.32700
C  53.74300 49.52900 43.99300
C  52.37900 51.02800 40.87400
C  52.03700 52.49700 40.59300
N  47.93300 48.71700 42.09100
C  48.19000 50.08200 42.25600
C  47.02000 50.81300 42.06200
C  46.01200 49.83700 41.87100
C  46.63700 48.57900 41.73800
C  46.93600 52.24600 42.15100
C  44.60600 49.63400 41.58800
O  43.63500 50.43600 41.56200
C  44.42800 48.10900 41.16300
C  43.50900 47.42800 42.08900
O  43.68400 47.43600 43.31000
O  42.49700 46.80100 41.50100
C  41.49600 46.05200 42.24000
H  48.81700 42.70100 41.10600
H  53.60500 46.91000 42.48200
H  49.52700 51.60200 42.68100
H  44.60500 44.97200 41.25300
H  46.54700 43.23200 39.81400
H  46.56300 42.44000 42.41600
H  45.71500 41.81200 41.02900
H  44.97800 43.08200 42.14500
H  45.40000 44.50900 38.43200
H  45.00600 46.06900 38.58900
H  42.57700 45.24200 39.56200
H  43.28300 43.68400 39.11300
H  51.54100 41.70800 40.46200
H  50.54300 41.30200 41.93100
H  52.18300 41.15900 42.01400
H  55.15700 45.42200 41.34000
H  56.08600 44.20400 42.31700
H  55.09700 45.37500 43.16300
H  53.81400 49.20600 41.89100
H  51.96700 51.24400 43.11700
H  53.97200 50.59400 43.97400
H  54.77600 49.18100 43.98700
H  53.21100 49.26600 44.90700
H  51.73100 50.40300 40.25900
H  53.46000 50.95300 40.76500
H  52.16500 53.03600 41.53200
H  51.08300 52.56700 40.07100
H  52.77600 52.84100 39.86900
H  45.96900 52.56200 42.54300
H  47.30500 52.79100 41.28200
H  47.57500 52.54500 42.98300
H  43.96100 47.97200 40.18800
H  40.69400 45.61800 41.64400
H  40.87600 46.77700 42.76700
H  41.97500 45.44600 43.01000
Mg 27.15200 51.05800 26.10600
C  25.11600 52.19000 28.84000
C  29.48100 49.96300 28.40800
C  29.09400 50.22500 23.61400
C  24.87400 52.49600 23.96000
N  27.09800 50.89000 28.28600
C  26.15900 51.37600 29.27500
C  26.51000 50.94800 30.62900
C  28.02800 50.55100 30.51100
C  28.22300 50.48200 28.94600
C  29.07200 51.43600 31.29300
C  25.61300 49.77800 31.06300
C  25.18000 49.58600 32.58500
H  25.82900 50.38100 33.72300
N  28.99500 50.08200 25.99800
C  29.77000 49.63700 27.03900
C  30.98300 48.97800 26.56800
C  30.91000 49.09800 25.14600
C  29.65700 49.87700 24.85100
C  31.95100 48.26500 27.43700
C  31.82200 48.57600 24.04500
O  31.70100 48.86800 22.85000
C  32.88900 47.63100 24.45700
N  26.89700 51.20200 24.07500
C  27.88200 50.86200 23.23500
C  27.50800 50.93800 21.77200
C  26.12800 51.78000 21.84800
C  25.87600 51.76500 23.34800
C  28.72400 51.54800 21.04800
C  25.06300 51.12900 21.05000
C  24.26300 52.12100 20.14700
N  25.45200 52.19800 26.29200
C  24.55100 52.70300 25.33000
C  23.50100 53.46100 25.91500
C  23.69900 53.32600 27.29000
C  24.87500 52.53100 27.50200
C  22.46900 54.18900 25.22700
C  23.26500 53.78800 28.61600
O  22.37700 54.55000 28.90500
C  24.06500 52.90600 29.68300
C  24.71000 53.85600 30.67200
O  25.69100 54.44100 30.37400
O  24.04000 53.83900 31.87200
C  24.34000 54.94000 32.88000
H  30.24900 49.58000 29.08400
H  29.73200 49.93300 22.77700
H  24.26600 53.05900 23.24800
H  26.64500 51.81000 31.28300
H  28.11600 49.56100 30.95800
H  28.57500 52.39000 31.46600
H  29.86400 51.59800 30.56200
H  29.52000 51.02900 32.19900
H  26.04200 48.82600 30.75100
H  24.66600 49.92600 30.54300
H  25.30900 48.56900 32.95500
H  24.12900 49.86700 32.65100
H  31.89100 47.19800 27.22600
H  31.95300 48.41900 28.51600
H  32.91700 48.65500 27.11600
H  33.42600 47.47300 23.52200
H  32.38200 46.76300 24.87900
H  33.52200 48.04700 25.24100
H  27.45800 49.90200 21.43600
H  26.21800 52.85500 21.69700
H  28.36400 52.46700 20.58700
H  29.12300 50.81800 20.34400
H  29.50300 51.94300 21.70000
H  24.26500 50.64900 21.61500
H  25.38300 50.36900 20.33700
H  24.30500 51.80100 19.10600
H  24.76600 53.08700 20.17400
H  23.26800 52.15400 20.59100
H  21.65000 54.47600 25.88500
H  22.09400 53.60100 24.38900
H  22.91000 55.07300 24.76500
H  23.52100 52.14800 30.24600
H  24.70800 55.79100 32.30700
H  25.14400 54.65200 33.55600
H  23.48200 55.32100 33.43300

