158

Mg 46.25200 3.61300 47.48900
C  43.70800 6.05900 46.73000
C  43.78100 1.35500 47.78000
C  48.70700 1.30400 47.44200
C  48.59400 6.21600 47.25600
N  43.99800 3.69900 47.12200
C  43.14900 4.73700 46.86900
C  41.68800 4.34000 46.84900
C  41.73800 2.83200 47.27100
C  43.28000 2.61400 47.48400
C  40.85900 2.43700 48.51300
C  41.05600 4.65600 45.39600
C  39.75300 5.51300 45.23300
H  39.85200 6.87300 44.36800
N  46.27800 1.63000 47.55400
C  45.08200 0.88700 47.68700
C  45.45800 -0.52400 47.70400
C  46.87100 -0.61100 47.52600
C  47.32900 0.80400 47.50500
C  44.45900 -1.69000 47.73700
C  47.70100 -1.88800 47.38900
O  47.21900 -3.00300 47.43200
C  49.18000 -1.82600 47.32500
N  48.32100 3.74300 47.06400
C  49.13100 2.60700 47.16500
C  50.59500 3.04800 47.42200
C  50.47200 4.60500 47.42300
C  49.02300 4.90100 47.20900
C  51.09500 2.45300 48.81600
C  51.41800 5.27900 46.42900
C  52.18300 6.52000 46.99000
N  46.22300 5.65500 46.96400
C  47.28000 6.60300 47.08400
C  46.75500 7.92800 46.71500
C  45.38100 7.76400 46.67100
C  45.10200 6.36600 46.83100
C  47.52100 9.17300 46.51400
C  44.13400 8.44800 46.48600
O  43.88000 9.68200 46.32800
C  42.96500 7.34400 46.58900
C  42.20000 7.65400 47.85600
O  42.17100 6.96100 48.90700
O  41.41500 8.77100 47.57600
C  40.29700 9.06000 48.54600
H  43.06200 0.61600 48.13800
H  49.47700 0.54100 47.57200
H  49.32900 7.02200 47.22800
H  41.20400 4.94800 47.61200
H  41.36300 2.19200 46.47300
H  41.38100 2.02000 49.37400
H  40.21600 1.61700 48.19500
H  40.23900 3.32100 48.65900
H  40.77700 3.69300 44.96900
H  41.84600 5.09400 44.78700
H  39.30100 5.67600 46.21100
H  38.97900 4.94400 44.71800
H  44.68900 -2.54700 47.10300
H  43.49900 -1.26800 47.43900
H  44.36300 -2.11200 48.73800
H  49.54600 -2.85000 47.25600
H  49.58100 -1.37000 48.23000
H  49.53000 -1.30000 46.43600
H  51.19200 2.61200 46.62100
H  50.79000 4.89700 48.42300
H  50.46000 1.63600 49.16100
H  51.16400 3.25800 49.54700
H  52.08700 2.02600 48.66800
H  50.84600 5.65800 45.58200
H  52.07300 4.60000 45.88200
H  51.88800 6.71300 48.02100
H  51.99500 7.32600 46.28000
H  53.24900 6.32800 46.86800
H  46.76400 9.90400 46.23000
H  48.15700 8.92100 45.66500
H  48.22500 9.28000 47.33800
H  42.39900 7.53900 45.67800
H  40.37900 8.59000 49.52600
H  39.26600 8.86800 48.24800
H  40.32200 10.15000 48.56700
Mg 48.57600 45.23800 43.35600
C  45.39400 45.60200 41.81000
C  49.13000 42.61800 41.11900
C  51.94600 45.32000 43.90200
C  48.16100 48.47300 44.61700
N  47.39700 44.33300 41.63500
C  46.14800 44.60000 41.20200
C  45.69500 43.65700 40.12300
C  46.74200 42.51800 40.14500
C  47.88700 43.18400 41.02600
C  46.31500 41.15600 40.65900
C  45.47500 44.28400 38.65200
C  44.10100 43.90700 37.98900
H  44.24300 43.18000 36.65900
N  50.23100 43.95200 42.83300
C  50.20700 42.98300 41.94300
C  51.50200 42.28200 41.95200
C  52.36300 43.04100 42.80300
C  51.51700 44.15400 43.27900
C  51.78100 41.06000 41.16100
C  53.84500 42.73000 43.06700
O  54.36600 41.77100 42.52700
C  54.71100 43.63100 43.99100
N  49.87000 46.63500 44.16700
C  51.22200 46.43700 44.40000
C  51.83100 47.58300 45.07100
C  50.59300 48.59100 45.37500
C  49.49400 47.87400 44.63100
C  52.75700 47.37400 46.26000
C  50.84100 50.09400 45.10900
C  51.98700 50.68900 45.85800
N  47.03200 46.67700 43.46600
C  47.00300 47.92600 44.01000
C  45.62800 48.41000 44.04000
C  44.94900 47.51600 43.16300
C  45.84300 46.47400 42.84500
C  45.18300 49.61700 44.82500
C  43.72300 47.23200 42.60100
O  42.68500 47.84200 42.65300
C  43.93100 46.01400 41.67200
C  42.90400 45.03100 42.06800
O  41.77900 44.86700 41.50600
O  43.23600 44.49700 43.34800
C  42.19800 43.85700 44.17500
H  49.18800 41.77500 40.42700
H  52.99800 45.30800 44.19200
H  47.99000 49.49800 44.95400
H  44.74500 43.31400 40.53300
H  47.09600 42.39900 39.12100
H  46.32400 40.38300 39.89100
H  45.25300 41.20200 40.90000
H  46.82200 40.75900 41.53900
H  46.30800 44.26200 37.94900
H  45.42200 45.36000 38.82000
H  43.56800 44.82200 37.73100
H  43.45200 43.28300 38.60400
H  50.94000 40.54400 40.69700
H  52.24200 40.34300 41.83900
H  52.55300 41.35600 40.45100
H  54.25000 43.74000 44.97300
H  54.86800 44.60300 43.52400
H  55.64600 43.08200 44.10400
H  52.42500 47.98400 44.25000
H  50.35300 48.48400 46.43200
H  53.49200 48.17800 46.28900
H  53.48500 46.56400 46.21200
H  52.27700 47.42200 47.23700
H  49.99700 50.75600 45.30400
H  51.02500 50.23100 44.04300
H  51.72200 51.71100 46.12900
H  52.89000 50.92400 45.29400
H  52.32100 50.03600 46.66400
H  45.93500 49.86600 45.57400
H  44.22200 49.37100 45.27500
H  45.09200 50.50900 44.20500
H  43.67900 46.33800 40.66200
H  42.51200 42.83700 44.39500
H  41.20200 43.82200 43.73500
H  42.11100 44.43400 45.09600

