158

Mg 43.11100 42.67900 26.57900
C  42.32800 44.70700 29.14600
C  44.29400 40.31400 28.89000
C  44.19100 40.88700 24.01100
C  42.31400 45.35500 24.37200
N  43.32500 42.48800 28.80000
C  42.78300 43.47300 29.61000
C  42.85600 43.01500 31.08700
C  43.77500 41.66500 30.97500
C  43.81600 41.43400 29.47900
C  45.21200 41.76400 31.62700
C  41.46300 42.86400 31.71900
C  41.38400 42.07100 32.99800
H  40.51800 42.50300 34.10500
N  44.08400 40.86800 26.45000
C  44.40400 40.00700 27.53500
C  45.00500 38.80400 26.96900
C  44.83300 38.89300 25.52600
C  44.36800 40.23700 25.26800
C  45.53500 37.66100 27.81900
C  45.17400 37.85500 24.48000
O  44.83600 38.05000 23.28900
C  45.72400 36.56100 24.82800
N  43.34000 43.09800 24.52100
C  43.75300 42.16300 23.64500
C  43.63500 42.59300 22.19400
C  42.74000 43.89900 22.33200
C  42.71400 44.12000 23.80300
C  45.03400 42.86300 21.68900
C  41.24600 43.69700 21.82300
C  40.40900 42.67300 22.60400
N  42.48300 44.70800 26.61700
C  42.22300 45.66400 25.70000
C  41.67800 46.83900 26.38700
C  41.70400 46.47800 27.73300
C  42.27500 45.20900 27.83600
C  41.19200 48.07900 25.67000
C  41.33700 46.86100 29.06300
O  40.79200 47.87200 29.42100
C  41.77300 45.77900 30.04600
C  42.78400 46.30600 31.03200
O  43.94500 46.57500 30.88900
O  42.18100 46.48600 32.27800
C  42.94200 47.21300 33.28200
H  44.65500 39.60600 29.63900
H  44.50900 40.33100 23.12600
H  42.03700 46.11200 23.63600
H  43.39600 43.68400 31.75700
H  43.23300 40.83000 31.41900
H  45.21900 40.97700 32.38100
H  45.40500 42.70900 32.13300
H  46.02700 41.63700 30.91400
H  40.83600 42.30300 31.02700
H  40.93100 43.77600 31.99000
H  42.37700 41.85700 33.39300
H  40.89400 41.12600 32.76200
H  45.62200 37.95800 28.86400
H  46.55200 37.49400 27.46400
H  44.96700 36.73500 27.71700
H  46.21200 36.26700 23.89800
H  45.12700 35.70100 25.13300
H  46.60400 36.57600 25.46900
H  43.04300 41.81400 21.71300
H  43.17600 44.71600 21.75600
H  45.14000 42.35000 20.73300
H  45.86300 42.42200 22.24300
H  45.18100 43.94200 21.63200
H  41.37500 43.43300 20.77400
H  40.91500 44.73500 21.83800
H  39.75400 42.07500 21.97000
H  39.74300 43.14500 23.32600
H  41.03500 42.04700 23.24000
H  41.96600 48.30700 24.93800
H  41.09500 48.93700 26.33500
H  40.26400 47.84200 25.15000
H  40.89000 45.38600 30.55000
H  43.72000 47.92500 33.00300
H  43.29400 46.43200 33.95500
H  42.44400 47.94900 33.91300
Mg -12.19800 17.24500 40.85700
C  -8.81600 16.22600 40.66600
C  -11.09600 20.51400 40.06700
C  -15.26100 18.16400 39.58800
C  -13.17400 13.92000 40.85300
N  -10.18300 18.26500 40.38000
C  -8.93900 17.64500 40.44200
C  -7.79800 18.60900 40.36100
C  -8.54400 19.98700 40.47900
C  -10.02400 19.60300 40.36300
C  -8.25500 20.83400 41.76700
C  -7.08100 18.36900 38.99800
C  -5.57300 18.15200 39.19800
H  -4.82700 17.08500 38.43800
N  -13.15600 19.10000 40.26900
C  -12.47000 20.32600 39.96100
C  -13.48600 21.29800 39.58500
C  -14.75500 20.61100 39.52600
C  -14.43000 19.24800 39.80600
C  -13.11900 22.66500 39.16700
C  -16.06900 21.26800 39.20100
O  -16.07500 22.47400 39.00100
C  -17.40000 20.55900 39.07900
N  -13.94500 16.17600 40.28700
C  -15.06800 16.82100 39.81300
C  -16.19000 15.77600 39.52600
C  -15.55100 14.45900 40.09100
C  -14.12600 14.84500 40.46100
C  -17.54600 16.26100 40.08400
C  -15.63200 13.26700 39.10700
C  -14.77700 13.16400 37.79300
N  -11.25900 15.41300 40.87000
C  -11.76200 14.15500 40.85700
C  -10.63500 13.16200 41.08600
C  -9.50300 13.93800 40.98700
C  -9.93300 15.25300 40.81200
C  -10.67000 11.62500 41.29800
C  -8.04800 13.86800 40.96400
O  -7.26400 12.87700 41.01700
C  -7.54900 15.36000 40.75800
C  -6.60000 15.64700 41.81700
O  -6.85400 16.25800 42.84300
O  -5.29100 15.31500 41.50100
C  -4.31800 15.42600 42.60900
H  -10.76000 21.55200 40.00800
H  -16.21400 18.41100 39.11500
H  -13.49100 12.87500 40.85300
H  -7.10300 18.44100 41.18400
H  -8.34300 20.57500 39.58300
H  -7.84300 20.10500 42.46500
H  -9.07300 21.43400 42.16700
H  -7.48500 21.59300 41.62500
H  -7.07500 19.26300 38.37400
H  -7.46300 17.46000 38.53500
H  -5.36200 17.91800 40.24200
H  -5.08600 19.12000 39.07400
H  -13.63400 22.97800 38.25900
H  -12.05900 22.78900 38.94400
H  -13.38100 23.36800 39.95900
H  -17.53900 20.29900 38.03000
H  -18.15400 21.31800 39.28700
H  -17.62000 19.69200 39.70100
H  -16.30200 15.56000 38.46300
H  -16.09700 14.25100 41.01200
H  -18.36400 15.54400 40.15300
H  -17.92400 17.06900 39.45700
H  -17.31800 16.42100 41.13800
H  -16.58600 13.44800 38.61100
H  -15.71400 12.32400 39.64800
H  -15.36200 12.78500 36.95500
H  -14.05500 12.36300 37.95800
H  -14.24600 14.07800 37.52800
H  -11.72300 11.41000 41.47600
H  -10.13100 11.21200 42.15000
H  -10.26900 11.12900 40.41300
H  -7.09400 15.36500 39.76700
H  -4.76400 15.42500 43.60300
H  -3.54700 16.14200 42.32200
H  -3.83700 14.45200 42.52100

