158

Mg -1.19200 18.17200 27.52400
C  -1.76300 15.80300 30.05800
C  -1.60900 20.68500 30.02600
C  -1.42900 20.46700 25.13400
C  -1.32000 15.61500 25.11900
N  -1.64500 18.22700 29.81000
C  -1.72900 17.10500 30.58200
C  -1.81500 17.54200 32.06600
C  -2.05200 19.08900 31.99100
C  -1.67100 19.36500 30.53900
C  -3.45400 19.61800 32.42500
C  -0.58200 17.03900 32.88700
C  -0.29200 17.68400 34.24000
H  0.41100 16.78200 35.33900
N  -1.36600 20.30400 27.61400
C  -1.51300 21.17700 28.67000
C  -1.60800 22.50300 28.18300
C  -1.79900 22.39700 26.76600
C  -1.54600 21.01100 26.44900
C  -1.65900 23.70000 29.07100
C  -2.23400 23.38400 25.72700
O  -2.47100 23.19100 24.53600
C  -2.45000 24.80400 26.20200
N  -1.42700 18.03500 25.50100
C  -1.35900 19.16300 24.73500
C  -1.21500 18.78300 23.28800
C  -0.96800 17.25600 23.31200
C  -1.23200 16.94000 24.74700
C  -2.51700 19.13500 22.46100
C  0.49100 16.83000 22.95300
C  1.70500 17.33400 23.87300
N  -1.35400 16.07400 27.47800
C  -1.54500 15.12800 26.44200
C  -1.67100 13.83700 26.99800
C  -1.81700 14.00400 28.40700
C  -1.68600 15.42100 28.65000
C  -1.81100 12.57800 26.21200
C  -1.99900 13.36800 29.71300
O  -2.21500 12.20100 30.00200
C  -1.79200 14.47900 30.82100
C  -0.62600 14.03100 31.65200
O  0.52000 14.17900 31.26500
O  -1.13100 13.43200 32.79000
C  -0.16100 12.53800 33.53700
H  -1.56400 21.50600 30.74500
H  -1.35700 21.13100 24.26900
H  -1.26300 14.84100 24.35100
H  -2.69100 17.07900 32.51900
H  -1.34000 19.54100 32.68100
H  -3.37400 20.42000 33.15900
H  -4.06400 18.87700 32.94200
H  -4.02400 20.07400 31.61600
H  0.29100 16.99200 32.23700
H  -0.77400 16.02200 33.22800
H  -1.25100 18.07800 34.57600
H  0.20000 18.64400 34.08400
H  -2.67800 24.05600 29.22500
H  -1.15400 24.49700 28.52500
H  -1.25800 23.46500 30.05600
H  -3.01100 25.38200 25.46800
H  -1.47000 25.23000 26.41500
H  -2.99800 24.68600 27.13700
H  -0.32200 19.24400 22.86700
H  -1.65100 16.70500 22.66500
H  -2.22600 19.85200 21.69200
H  -3.22000 19.54800 23.18500
H  -2.97800 18.34800 21.86400
H  0.62800 17.12400 21.91200
H  0.50700 15.75200 23.11300
H  1.40200 17.87000 24.77200
H  2.33700 17.97200 23.25500
H  2.38600 16.58100 24.26900
H  -1.68400 12.46400 25.13600
H  -2.87500 12.35300 26.28500
H  -1.35800 11.69700 26.66800
H  -2.72600 14.52900 31.38100
H  0.38500 11.80400 32.94400
H  -0.74200 11.93500 34.23500
H  0.51800 13.13100 34.14900
Mg 17.76700 -1.59600 27.99600
C  16.69600 0.25100 30.66300
C  19.86300 -3.32000 30.17600
C  19.33800 -2.93500 25.32800
C  15.80500 0.52200 26.01100
N  18.16500 -1.53400 30.17400
C  17.62200 -0.71500 31.04800
C  18.11100 -0.94000 32.47800
C  19.37700 -1.85700 32.23600
C  19.10300 -2.28600 30.78200
C  20.68000 -1.11500 32.40800
C  17.01200 -1.56700 33.35700
C  17.03400 -1.21900 34.89700
H  18.20200 -0.45100 35.49000
N  19.25700 -2.98700 27.71600
C  19.89800 -3.62500 28.77800
C  20.63400 -4.73600 28.28800
C  20.59400 -4.62000 26.87800
C  19.74300 -3.49900 26.52600
C  21.24500 -5.68800 29.23000
C  21.26600 -5.62200 25.90700
O  21.23600 -5.38900 24.70400
C  22.02500 -6.90700 26.30900
N  17.66500 -1.11900 25.92100
C  18.39700 -1.97100 25.05700
C  18.07600 -1.45100 23.65500
C  16.76900 -0.54000 23.86500
C  16.67300 -0.38200 25.35600
C  19.36200 -0.82600 22.98600
C  15.46700 -0.93300 23.12600
C  14.59000 0.19400 22.44100
N  16.37000 -0.08300 28.21900
C  15.67000 0.68500 27.35700
C  14.88800 1.68400 28.05000
C  15.20800 1.50000 29.36600
C  16.17300 0.50700 29.36500
C  13.88600 2.58700 27.43600
C  14.94200 1.92800 30.64700
O  14.14600 2.77600 30.99000
C  15.91400 1.23600 31.60100
C  16.72800 2.25000 32.33800
O  17.58900 2.91800 31.78800
O  16.33400 2.28000 33.63200
C  16.98700 3.32500 34.43300
H  20.57900 -3.78900 30.85500
H  19.81800 -3.36400 24.44600
H  15.14500 1.02000 25.29700
H  18.34100 0.04200 32.89100
H  19.38100 -2.66700 32.96600
H  21.23700 -1.67200 33.16100
H  20.48400 -0.12900 32.82900
H  21.25500 -1.13400 31.48200
H  16.97300 -2.64800 33.22300
H  16.05800 -1.36100 32.87200
H  16.99900 -2.13400 35.48800
H  16.13100 -0.63900 35.09200
H  20.73700 -5.66100 30.19400
H  22.33200 -5.61300 29.26900
H  21.12900 -6.67700 28.78700
H  21.27900 -7.63400 26.63200
H  22.75900 -6.64200 27.07000
H  22.54700 -7.39600 25.48700
H  17.82400 -2.32300 23.05200
H  16.99800 0.48900 23.58800
H  20.06200 -0.69400 23.81100
H  19.05700 0.14500 22.59400
H  19.80300 -1.40600 22.17600
H  14.75100 -1.37000 23.82200
H  15.76200 -1.73500 22.45000
H  13.57600 0.07700 22.82300
H  14.53400 0.02500 21.36500
H  15.03400 1.18200 22.56300
H  13.49400 3.26000 28.19900
H  13.01600 2.09900 26.99800
H  14.41500 3.04300 26.59900
H  15.23300 0.74800 32.29800
H  16.78000 3.26000 35.50100
H  16.62400 4.31500 34.15600
H  18.07600 3.33100 34.47100

