158

Mg 16.84500 -2.29500 27.44100
C  15.70400 -0.16200 30.05000
C  18.76200 -3.82300 29.55000
C  18.20600 -3.67200 24.81400
C  14.90100 -0.23700 25.29300
N  17.40100 -1.82900 29.53400
C  16.72700 -1.09600 30.45200
C  17.14500 -1.43000 31.90100
C  18.41000 -2.33100 31.63300
C  18.19400 -2.74800 30.15700
C  19.80800 -1.59500 31.83200
C  16.00400 -2.05300 32.71300
C  15.65300 -1.18700 33.85100
H  16.82400 -0.48200 34.59000
N  18.18100 -3.64800 27.23300
C  18.88300 -4.22500 28.22200
C  19.58100 -5.43400 27.69500
C  19.50600 -5.39500 26.28200
C  18.59800 -4.19700 26.03200
C  20.19000 -6.49700 28.67500
C  20.17400 -6.20900 25.30000
O  19.95200 -6.05600 24.07300
C  20.96400 -7.30400 25.72500
N  16.66400 -1.98600 25.38900
C  17.34800 -2.63600 24.47100
C  17.04300 -2.23000 22.96000
C  15.91300 -1.19200 23.23600
C  15.76200 -1.20500 24.74100
C  18.33300 -1.66000 22.34800
C  14.63900 -1.40700 22.44700
C  14.73900 -1.07800 20.95200
N  15.43600 -0.65800 27.61100
C  14.71200 0.01400 26.67700
C  13.91400 1.07100 27.34500
C  14.28400 1.01000 28.61900
C  15.17100 0.00100 28.77300
C  13.05100 2.05100 26.73000
C  14.04300 1.64500 29.88500
O  13.33900 2.56800 30.26200
C  14.84500 0.74400 30.95600
C  15.61200 1.64900 31.81200
O  16.67900 2.14600 31.57900
O  14.76700 2.02100 32.82900
C  15.21600 3.15600 33.63900
H  19.41100 -4.42100 30.19300
H  18.55800 -4.10400 23.87500
H  14.25400 0.38800 24.67400
H  17.54700 -0.46800 32.22100
H  18.24900 -3.22700 32.23300
H  20.33800 -2.16500 32.59500
H  19.68000 -0.54400 32.09400
H  20.32000 -1.74000 30.88100
H  16.29200 -3.03100 33.09700
H  15.09300 -2.10600 32.11600
H  15.20500 -1.80600 34.62800
H  14.95000 -0.39300 33.60100
H  19.66700 -7.42600 28.44700
H  20.02200 -6.29500 29.73200
H  21.26300 -6.54400 28.48600
H  20.45400 -8.01100 26.38000
H  21.87700 -6.91700 26.17700
H  21.30900 -7.77300 24.80400
H  16.63000 -3.00200 22.31100
H  16.24000 -0.18200 22.98700
H  19.09400 -1.50900 23.11300
H  18.13600 -0.80500 21.70000
H  18.68400 -2.31100 21.54700
H  13.85300 -0.84100 22.94800
H  14.27400 -2.43100 22.53100
H  15.60500 -0.43900 20.78300
H  13.92900 -0.43000 20.61800
H  14.72400 -1.97900 20.33900
H  12.63000 1.53000 25.87000
H  13.65700 2.86500 26.33200
H  12.26300 2.28000 27.44700
H  14.13600 0.14800 31.53100
H  16.26700 3.29400 33.89400
H  14.68000 2.92700 34.56000
H  14.72400 4.03800 33.22900
Mg -0.96600 34.29900 27.92900
C  -2.44200 31.99000 30.12500
C  0.34300 35.85000 30.56700
C  -0.03200 36.50900 25.78200
C  -2.64600 32.49000 25.23900
N  -1.19500 34.07200 30.10100
C  -1.73500 33.01300 30.82000
C  -1.78100 33.35900 32.33300
C  -0.95300 34.71900 32.40000
C  -0.59000 34.88000 30.90300
C  -1.77200 35.95000 33.01800
C  -1.12900 32.20800 33.21600
C  -1.95300 31.77700 34.43500
H  -1.32300 31.72100 35.83100
N  0.10200 35.89000 28.18200
C  0.65900 36.33700 29.29100
C  1.46600 37.47400 29.00200
C  1.42700 37.59700 27.56200
C  0.53500 36.57600 27.08500
C  2.15100 38.21800 30.04400
C  2.20700 38.53800 26.71600
O  2.08300 38.55500 25.53800
C  3.09400 39.52600 27.31600
N  -1.68500 34.68400 25.87300
C  -1.00800 35.63600 25.28500
C  -1.20700 35.53600 23.72900
C  -1.77900 34.15300 23.51800
C  -2.06500 33.73100 24.97700
C  -2.10600 36.67600 23.25800
C  -0.91200 33.22000 22.62600
C  0.16800 32.30000 23.40800
N  -2.28200 32.52600 27.69800
C  -2.81600 31.94900 26.54500
C  -3.64600 30.81300 26.94500
C  -3.61500 30.80500 28.35600
C  -2.80100 31.89200 28.73700
C  -4.42500 29.84100 26.14600
C  -3.95300 30.09200 29.52300
O  -4.65400 29.08400 29.66100
C  -3.30300 30.89900 30.75000
C  -4.45100 31.41400 31.60800
O  -5.24900 32.19800 31.19800
O  -4.54300 30.69600 32.74800
C  -5.52100 31.10000 33.77000
H  0.94000 36.17800 31.42100
H  0.34900 37.25600 25.08300
H  -2.87100 31.85400 24.38000
H  -2.78200 33.58400 32.70300
H  -0.10900 34.70800 33.09000
H  -1.14100 36.51800 33.70200
H  -2.67000 35.60600 33.53300
H  -2.16200 36.72200 32.35400
H  -0.15400 32.50300 33.60600
H  -0.98200 31.26700 32.68600
H  -2.36500 30.77800 34.29600
H  -2.78600 32.47300 34.52600
H  3.21100 38.11000 29.81600
H  1.98000 37.81000 31.04000
H  2.00100 39.29700 29.98700
H  2.70100 40.19100 28.08500
H  3.41000 40.10000 26.44500
H  3.97300 39.04400 27.74300
H  -0.23100 35.64200 23.25600
H  -2.76700 34.20900 23.06100
H  -3.14100 36.37600 23.42600
H  -1.88900 36.94900 22.22500
H  -1.96400 37.44800 24.01400
H  -0.39800 33.70500 21.79600
H  -1.61300 32.61400 22.05000
H  0.19100 32.59300 24.45800
H  1.16100 32.60300 23.07800
H  -0.14900 31.25900 23.34800
H  -3.94100 29.87200 25.17100
H  -5.42200 30.27000 26.04300
H  -4.44900 28.90900 26.71100
H  -2.62600 30.23900 31.29300
H  -5.96000 30.16400 34.11500
H  -6.37100 31.68200 33.41300
H  -4.97900 31.43400 34.65500

