158

Mg 16.88000 -1.80000 28.12200
C  15.86800 0.32600 30.46300
C  19.23800 -3.14800 30.33100
C  18.14700 -3.75600 25.49400
C  15.34600 0.25300 25.66100
N  17.45100 -1.43900 30.16100
C  16.81000 -0.62100 30.99200
C  17.19800 -0.76200 32.47800
C  18.44700 -1.68500 32.38600
C  18.39800 -2.13500 30.88300
C  19.85200 -1.20800 32.84500
C  16.02300 -1.33800 33.30100
C  15.72800 -0.58100 34.69600
H  16.93800 -0.16500 35.52100
N  18.29700 -3.27300 28.00200
C  19.13100 -3.70100 29.03000
C  19.79400 -4.94500 28.59500
C  19.45500 -5.16200 27.22600
C  18.56400 -4.04900 26.84900
C  20.62500 -5.88300 29.50400
C  19.84100 -6.27300 26.24800
O  19.44900 -6.34000 25.06700
C  20.86200 -7.25900 26.71000
N  16.76800 -1.73400 25.94700
C  17.44500 -2.52700 25.08500
C  17.17800 -2.25700 23.63900
C  16.16900 -1.07400 23.72400
C  16.07200 -0.82600 25.24500
C  18.55700 -1.98500 22.88200
C  14.84800 -1.28700 22.93500
C  13.49800 -1.65800 23.68400
N  15.86800 0.05100 27.99700
C  15.24000 0.71900 26.99500
C  14.37300 1.80000 27.53100
C  14.55500 1.69400 28.92800
C  15.53500 0.67900 29.12500
C  13.51900 2.79100 26.80900
C  14.26300 2.26400 30.21400
O  13.58000 3.19900 30.56100
C  15.08800 1.36400 31.23400
C  15.90800 2.37500 31.89300
O  16.93700 2.84400 31.43500
O  15.44400 2.66200 33.13400
C  16.07500 3.79700 33.88500
H  20.04500 -3.57000 30.93400
H  18.48400 -4.27300 24.59300
H  14.90300 0.72700 24.78200
H  17.45600 0.19900 32.92400
H  18.31100 -2.53100 33.05900
H  19.82600 -0.30100 33.45000
H  20.52900 -1.03500 32.00900
H  20.25400 -1.98400 33.49600
H  16.16400 -2.39100 33.54400
H  15.14100 -1.07400 32.71800
H  15.03200 -1.19200 35.27000
H  15.21900 0.35800 34.47700
H  21.68900 -5.69300 29.36100
H  20.34200 -6.89100 29.19900
H  20.34200 -5.68400 30.53700
H  20.36800 -7.94200 27.40100
H  21.64300 -6.72900 27.25500
H  21.31900 -7.59100 25.77700
H  16.74200 -3.22300 23.38500
H  16.72000 -0.21000 23.35300
H  18.59600 -2.65200 22.02100
H  19.38100 -2.25000 23.54500
H  18.61200 -0.97400 22.47800
H  14.92100 -2.08700 22.19900
H  14.52000 -0.51500 22.23800
H  13.48700 -1.35400 24.73100
H  13.33200 -2.73500 23.71100
H  12.68800 -1.20200 23.11600
H  14.06100 3.72800 26.67500
H  12.71700 2.81900 27.54600
H  13.17200 2.36000 25.87000
H  14.37700 0.82700 31.86100
H  16.39100 4.56000 33.17400
H  16.87300 3.37700 34.49800
H  15.43800 4.34200 34.58200
Mg 17.21800 52.14300 26.56000
C  18.84800 50.78100 29.24800
C  14.70400 53.14600 28.67800
C  15.36800 52.94300 23.82900
C  19.50700 50.67300 24.47800
N  16.82900 51.99300 28.75500
C  17.68800 51.44700 29.63100
C  17.18500 51.64700 31.02600
C  15.72400 52.31100 30.87600
C  15.73400 52.53300 29.38400
C  14.60600 51.38200 31.44200
C  18.14400 52.56000 31.85600
C  18.07600 52.43900 33.38200
H  17.13800 51.38200 34.01300
N  15.34300 53.00200 26.32100
C  14.40300 53.23600 27.30700
C  13.35500 54.01000 26.70500
C  13.55300 53.94000 25.32100
C  14.79100 53.17900 25.09500
C  12.24800 54.77400 27.54200
C  12.63400 54.49600 24.18800
O  12.81000 54.32100 23.00200
C  11.29600 55.08200 24.65200
N  17.41700 51.90100 24.39600
C  16.61000 52.41500 23.47100
C  17.18300 52.35500 22.02800
C  18.62100 51.72700 22.36500
C  18.52300 51.41200 23.89300
C  16.41300 51.39200 21.02700
C  19.81500 52.62400 21.86900
C  20.49200 52.14700 20.55600
N  18.90300 50.98500 26.78500
C  19.75200 50.40300 25.83500
C  20.80000 49.76200 26.48100
C  20.50100 49.84900 27.81400
C  19.27100 50.55500 27.92800
C  21.99300 49.07700 25.94300
C  20.98000 49.53500 29.15400
O  21.92700 48.85600 29.54700
C  19.89000 50.08300 30.09200
C  19.41900 48.86300 30.88000
O  18.87300 47.89100 30.37100
O  19.63100 48.96200 32.25200
C  19.21900 47.83900 33.14200
H  13.88400 53.58000 29.25500
H  14.80300 53.31700 22.97300
H  20.24600 50.19000 23.83500
H  17.15000 50.69400 31.55300
H  15.70400 53.27400 31.38600
H  14.04600 51.93500 32.19600
H  14.94400 50.40500 31.78600
H  13.94800 51.24600 30.58400
H  17.91800 53.58300 31.55700
H  19.17000 52.40200 31.52200
H  17.99100 53.41300 33.86400
H  19.07900 52.06900 33.59600
H  12.17100 55.83800 27.32100
H  12.45900 54.56000 28.59000
H  11.27600 54.32500 27.33800
H  10.69500 55.27700 23.76300
H  11.54700 56.03300 25.12100
H  10.69800 54.33800 25.17800
H  17.26300 53.40900 21.76300
H  18.76700 50.73200 21.94500
H  15.37100 51.41700 21.34500
H  16.84500 50.39300 20.97100
H  16.49300 51.77800 20.01000
H  20.50700 52.91000 22.66200
H  19.41700 53.57900 21.52400
H  19.80200 51.44900 20.08000
H  21.41000 51.59500 20.75500
H  20.64000 53.02800 19.93200
H  21.80900 48.21100 25.30600
H  22.56700 48.84400 26.84000
H  22.64300 49.74000 25.37100
H  20.33700 50.71700 30.85700
H  18.21700 47.43300 33.00200
H  19.27800 48.06900 34.20600
H  19.86400 46.96800 33.02500

