158

Mg 1.45800 -1.80300 42.93200
C  4.98200 -1.08000 42.57900
C  0.85700 0.94600 40.87100
C  -1.68400 -2.84800 42.62200
C  2.40000 -4.94300 44.10000
N  2.76800 -0.24100 41.91600
C  4.17500 -0.20700 41.84500
C  4.60600 0.88900 40.86100
C  3.30300 1.64300 40.44800
C  2.25000 0.76000 41.19800
C  3.16100 3.21500 40.72000
C  5.29700 0.24000 39.71600
C  6.39500 1.10300 38.94300
H  6.16100 1.35600 37.44400
N  -0.24400 -0.90900 42.14700
C  -0.28300 0.22300 41.33200
C  -1.62600 0.49200 40.94300
C  -2.40900 -0.59800 41.45700
C  -1.44800 -1.52600 42.13900
C  -2.01600 1.75800 40.30900
C  -3.92600 -0.82800 41.14300
O  -4.58500 -0.06000 40.45800
C  -4.54300 -2.00800 41.79100
N  0.48500 -3.63700 43.20400
C  -0.82800 -3.75900 43.18900
C  -1.23800 -5.22400 43.44300
C  0.05800 -5.82200 44.07100
C  1.06700 -4.74200 43.75700
C  -2.55000 -5.37600 44.25600
C  0.40200 -7.36200 43.75400
C  1.52600 -7.60200 42.79900
N  3.21400 -2.76100 43.36600
C  3.41100 -4.04200 43.88600
C  4.76300 -4.21900 44.22500
C  5.47200 -3.07000 43.75100
C  4.47000 -2.20500 43.22500
C  5.40400 -5.40500 44.94700
C  6.77700 -2.50000 43.53900
O  7.88000 -2.92800 43.73300
C  6.43400 -1.13500 42.76700
C  6.89100 -0.07700 43.73800
O  6.44200 0.16000 44.86200
O  7.97900 0.59400 43.29200
C  8.52300 1.75100 44.09000
H  0.64100 1.81800 40.25100
H  -2.60500 -3.41400 42.46700
H  2.42300 -5.84900 44.70900
H  5.22500 1.64000 41.35200
H  3.06800 1.59900 39.38400
H  2.27400 3.46000 41.30300
H  3.23900 3.76300 39.78100
H  4.06500 3.47800 41.27000
H  4.60500 -0.19600 38.99600
H  5.95000 -0.57000 40.04200
H  7.39900 0.69300 39.05000
H  6.38100 2.06700 39.45200
H  -1.33700 2.57600 40.55100
H  -3.02300 2.00100 40.64700
H  -2.16000 1.59100 39.24100
H  -4.21000 -2.90800 41.27400
H  -5.62100 -1.92200 41.92400
H  -4.24000 -2.12600 42.83200
H  -1.51000 -5.64200 42.47400
H  -0.05700 -5.76100 45.15300
H  -3.44300 -5.12500 43.68300
H  -2.63700 -4.73500 45.13300
H  -2.61500 -6.39500 44.63900
H  -0.47800 -7.90800 43.41500
H  0.69500 -7.82500 44.69600
H  1.15700 -8.35900 42.10800
H  2.38300 -8.06500 43.28800
H  1.80300 -6.74700 42.18200
H  4.79500 -5.98900 45.63700
H  6.26800 -5.01900 45.48800
H  5.79000 -6.14600 44.24600
H  6.99600 -1.16700 41.83300
H  9.51600 1.60000 44.51500
H  7.95100 2.05500 44.96600
H  8.53700 2.57500 43.37700
Mg 24.00900 -4.83300 46.50500
C  26.22700 -2.54100 45.07800
C  21.63700 -3.69900 44.37500
C  22.29700 -7.59700 47.28800
C  26.93100 -6.21000 48.11100
N  23.98700 -3.29900 44.83500
C  24.96600 -2.44700 44.44300
C  24.49900 -1.61000 43.23600
C  22.91000 -1.75900 43.40400
C  22.80500 -2.96100 44.33800
C  22.14100 -0.54300 43.92000
C  25.09100 -2.12600 41.85800
C  26.15100 -1.23900 41.10300
H  26.05000 -1.43800 39.63200
N  22.12500 -5.50100 45.99700
C  21.33700 -4.92500 45.03200
C  20.15000 -5.70500 44.94400
C  20.25900 -6.86600 45.81800
C  21.59600 -6.74600 46.47800
C  18.98000 -5.36800 44.03400
C  19.26400 -7.98900 45.92700
O  18.15800 -7.93500 45.36500
C  19.65500 -9.34300 46.55900
N  24.61200 -6.55400 47.54400
C  23.66900 -7.53500 47.80100
C  24.16900 -8.76600 48.62100
C  25.66000 -8.36400 48.78500
C  25.77200 -6.94900 48.08200
C  23.38600 -9.08600 49.95100
C  26.52900 -9.47000 48.18700
C  27.69100 -9.83900 49.11200
N  26.18600 -4.36200 46.77500
C  27.13200 -4.90600 47.53100
C  28.40800 -4.22000 47.38800
C  28.08100 -3.22500 46.46200
C  26.71200 -3.36200 46.13700
C  29.74800 -4.42900 48.05300
C  28.62200 -2.16500 45.69600
O  29.72500 -1.71900 45.58500
C  27.53900 -1.69000 44.71200
C  27.44300 -0.24000 44.83100
O  26.96300 0.37800 45.75500
O  28.02900 0.36700 43.79500
C  28.04400 1.86400 43.94500
H  20.96600 -3.24700 43.64100
H  21.66900 -8.39200 47.69700
H  27.80000 -6.55800 48.67400
H  24.73100 -0.54600 43.27200
H  22.46400 -2.05800 42.45600
H  22.72200 0.24900 44.39200
H  21.38400 -0.89800 44.61900
H  21.61900 -0.00200 43.13100
H  24.33400 -2.33400 41.10300
H  25.52200 -3.10600 42.06100
H  27.17100 -1.48200 41.40300
H  26.06800 -0.21800 41.47700
H  19.12800 -4.43100 43.49600
H  18.05900 -5.30500 44.61400
H  18.80200 -6.20700 43.36200
H  20.65900 -9.52500 46.17400
H  19.01100 -10.14800 46.20700
H  19.67700 -9.23300 47.64300
H  24.09600 -9.65700 47.99800
H  25.73900 -8.04400 49.82400
H  23.08000 -10.12900 50.03300
H  22.49900 -8.45300 49.92500
H  24.07700 -8.84400 50.75900
H  26.96900 -9.12200 47.25200
H  25.89200 -10.31200 47.91700
H  27.46900 -9.35300 50.06200
H  28.60700 -9.48200 48.63900
H  27.84600 -10.90000 49.30700
H  30.10600 -5.41300 47.75200
H  29.82400 -4.20500 49.11700
H  30.43100 -3.85400 47.42800
H  27.80900 -1.96600 43.69200
H  28.35300 2.31000 43.00000
H  28.86700 2.27500 44.53000
H  27.06600 2.28400 44.18300

