158

Mg 48.02500 34.79300 27.67700
C  45.94000 33.34700 30.19300
C  48.32300 37.46300 29.85700
C  49.17000 36.70700 25.17300
C  47.19200 32.17300 25.55000
N  47.10600 35.38100 29.74200
C  46.44200 34.60800 30.66100
C  46.72200 34.96100 32.08500
C  47.05600 36.44600 31.85200
C  47.60800 36.39100 30.42900
C  45.99400 37.51100 32.25000
C  47.99400 34.15200 32.47900
C  48.31100 34.18100 33.89200
H  47.37300 35.02700 34.82300
N  48.80500 36.77800 27.61600
C  48.84200 37.69900 28.56800
C  49.37500 39.00200 28.06400
C  49.65300 38.76300 26.67100
C  49.14200 37.40300 26.43200
C  49.46200 40.24400 28.97000
C  50.25100 39.69600 25.66000
O  50.33100 39.44500 24.46000
C  50.82400 40.93200 26.16600
N  48.11800 34.50400 25.67800
C  48.72700 35.40300 24.84000
C  48.82400 34.88800 23.40200
C  48.48900 33.35000 23.62000
C  47.88800 33.31600 25.04100
C  47.81500 35.61000 22.51000
C  49.74500 32.47000 23.61900
C  49.90000 31.39500 22.55500
N  46.90700 33.04500 27.83300
C  46.67800 32.00800 26.88000
C  46.10400 30.91000 27.59400
C  45.72000 31.42200 28.85100
C  46.25800 32.68800 28.96600
C  45.82000 29.52900 27.13200
C  45.13800 31.06100 30.10600
O  44.78400 29.94400 30.40700
C  45.02400 32.32500 30.95300
C  45.35500 31.94100 32.42200
O  46.25900 31.23300 32.79400
O  44.37400 32.46900 33.28500
C  44.44000 32.33100 34.72500
H  48.33200 38.31400 30.54100
H  49.47600 37.38500 24.37300
H  47.17400 31.26800 24.94000
H  45.83800 34.82400 32.70800
H  47.83800 36.63000 32.58900
H  45.03800 37.02900 32.45900
H  45.66500 38.10300 31.39700
H  46.28100 38.02200 33.16900
H  48.86200 34.52200 31.93200
H  47.79000 33.14200 32.12300
H  49.27500 34.68200 33.97500
H  48.27400 33.15900 34.26900
H  50.45500 40.58500 29.26000
H  49.01400 40.18400 29.96200
H  48.80600 41.02600 28.58600
H  51.50000 41.39400 25.44600
H  51.47200 40.65800 26.99900
H  50.03200 41.65300 26.36600
H  49.84100 35.01500 23.03100
H  47.74200 33.06500 22.87900
H  47.12500 36.23900 23.07400
H  47.18200 34.86200 22.03300
H  48.43600 36.21600 21.85100
H  49.81100 31.84600 24.51000
H  50.56900 33.18200 23.57000
H  49.09900 31.47800 21.82000
H  49.97900 30.40200 22.99800
H  50.78300 31.52200 21.92900
H  46.21600 28.80700 27.84700
H  46.22100 29.34900 26.13400
H  44.75400 29.41800 26.93500
H  44.02900 32.76500 30.89300
H  45.46200 32.21900 35.08700
H  43.94800 31.43700 35.10900
H  44.02600 33.13300 35.33600
Mg -11.79000 37.28400 41.79200
C  -9.72100 34.70600 40.76900
C  -9.54400 39.55100 40.60800
C  -14.25200 39.56800 42.03200
C  -14.14200 34.84600 42.95600
N  -9.98200 37.10500 40.58900
C  -9.24100 35.96600 40.38100
C  -7.91800 36.19900 39.57100
C  -7.82400 37.76200 39.84800
C  -9.18200 38.23500 40.38600
C  -6.62000 38.40600 40.68500
C  -7.99700 35.75100 38.04400
C  -6.82500 34.92300 37.41300
H  -6.24600 35.53600 36.17800
N  -11.83400 39.34100 41.34500
C  -10.73900 40.06900 40.95700
C  -11.21800 41.51100 40.93300
C  -12.66100 41.49600 41.25700
C  -12.97000 40.09400 41.60200
C  -10.33400 42.66800 40.60500
C  -13.56300 42.72300 41.35400
O  -13.11800 43.82100 41.06800
C  -15.01900 42.75400 41.85000
N  -13.93800 37.14100 42.29600
C  -14.70200 38.33800 42.31800
C  -16.23300 37.98800 42.65800
C  -16.12800 36.52400 43.13000
C  -14.64700 36.11600 42.80400
C  -16.94400 38.84200 43.69200
C  -17.23800 35.56200 42.43600
C  -18.22400 34.96400 43.48400
N  -11.95800 35.20100 41.84200
C  -12.88500 34.33400 42.48600
C  -12.30900 33.03000 42.52800
C  -11.00100 33.10600 41.94500
C  -10.90400 34.39800 41.42100
C  -12.97700 31.74100 43.07600
C  -9.75000 32.38000 41.70100
O  -9.38800 31.28700 42.06300
C  -8.90400 33.38000 40.74400
C  -7.59900 33.60500 41.25300
O  -7.29300 34.00300 42.32900
O  -6.70900 33.29200 40.29000
C  -5.33100 33.39700 40.80100
H  -8.74700 40.21800 40.27300
H  -15.03800 40.32600 42.04300
H  -14.89800 34.22500 43.44100
H  -7.08800 35.74500 40.11100
H  -7.65300 38.24300 38.88500
H  -6.08100 39.08600 40.02600
H  -5.86100 37.64000 40.84400
H  -6.99100 38.97600 41.53700
H  -8.16900 36.62300 37.41300
H  -8.90000 35.16300 37.87800
H  -7.26800 33.93900 37.26100
H  -6.04700 34.77700 38.16200
H  -10.67300 43.34400 39.82000
H  -9.35800 42.21600 40.42900
H  -10.13900 43.22200 41.52300
H  -15.70700 42.43000 41.06900
H  -15.18200 43.79900 42.11200
H  -15.17500 42.17900 42.76200
H  -16.82900 38.14600 41.75900
H  -16.24700 36.49800 44.21300
H  -17.65200 39.49300 43.17800
H  -16.29200 39.53200 44.22700
H  -17.57500 38.24900 44.35400
H  -16.72700 34.82900 41.81200
H  -17.77000 36.11400 41.66200
H  -17.86500 33.96400 43.72600
H  -19.24200 34.96800 43.09400
H  -18.29000 35.66300 44.31800
H  -12.29200 31.23300 43.75500
H  -13.04900 31.07500 42.21700
H  -13.89700 31.95900 43.61900
H  -8.85400 33.13400 39.68300
H  -4.99800 34.43400 40.78200
H  -4.66900 32.84800 40.13100
H  -5.05300 33.09200 41.81000

