158

Mg 53.79300 24.32000 44.44800
C  51.20500 26.78800 43.71000
C  51.60300 21.88900 43.37100
C  56.44200 22.44000 44.17400
C  55.85300 27.16400 45.33700
N  51.64500 24.36300 43.53400
C  50.79600 25.44800 43.44100
C  49.44300 24.92900 43.02300
C  49.51200 23.40700 43.41200
C  50.98300 23.14400 43.46800
C  48.79600 22.95800 44.74900
C  49.23400 25.17300 41.56400
C  47.81800 25.53300 41.27800
H  47.39800 25.36700 39.85300
N  53.99100 22.48900 43.93300
C  53.00200 21.60400 43.57400
C  53.59500 20.27600 43.38700
C  54.96300 20.42200 43.77400
C  55.18700 21.87200 43.94500
C  52.93700 19.09100 42.79600
C  55.91700 19.28300 43.85400
O  55.66500 18.11000 43.50800
C  57.23600 19.43700 44.52700
N  55.95600 24.82600 44.74700
C  56.82500 23.77000 44.60500
C  58.24000 24.25400 44.77400
C  58.05900 25.71200 45.38300
C  56.54700 25.94800 45.15000
C  58.99200 23.28000 45.70200
C  58.91500 26.82100 44.66900
C  59.40100 27.84900 45.73300
N  53.55900 26.44600 44.67500
C  54.47300 27.45700 45.06300
C  53.82700 28.74200 45.10300
C  52.57000 28.50900 44.53700
C  52.49000 27.11600 44.24400
C  54.35700 30.09500 45.52700
C  51.38800 29.14400 44.13000
O  51.02000 30.33000 44.24700
C  50.48600 28.11100 43.53400
C  50.26300 28.34200 42.04300
O  51.13600 28.41900 41.19900
O  48.95100 28.78800 41.87000
C  48.54600 28.99900 40.57800
H  50.89300 21.08500 43.16500
H  57.29000 21.75900 44.07700
H  56.43600 28.05900 45.56500
H  48.65800 25.30900 43.67600
H  49.12900 22.77100 42.61400
H  49.57600 22.81800 45.49800
H  48.30000 21.99300 44.64200
H  48.04300 23.68300 45.05800
H  49.43300 24.22700 41.06000
H  49.91200 25.89300 41.10500
H  47.69800 26.58300 41.54500
H  47.12200 25.00300 41.92800
H  53.31700 18.95100 41.78400
H  51.88500 19.35300 42.68400
H  53.10800 18.11700 43.25500
H  58.02300 19.85600 43.89900
H  57.49300 18.45400 44.92000
H  57.05400 20.09600 45.37600
H  58.87900 24.24200 43.89100
H  58.18700 25.58400 46.45800
H  59.60700 23.63100 46.53000
H  59.74700 22.79000 45.08700
H  58.28600 22.53000 46.05800
H  58.26100 27.32400 43.95700
H  59.70200 26.35800 44.07300
H  59.01400 28.81900 45.42200
H  60.48300 27.95500 45.81500
H  59.07000 27.62300 46.74700
H  53.56600 30.74600 45.89700
H  54.73600 30.63800 44.66100
H  55.16700 29.98000 46.24800
H  49.56500 28.11200 44.11600
H  49.19800 28.64600 39.77900
H  48.28200 30.04700 40.43000
H  47.62900 28.45000 40.36800
Mg 48.48900 35.20300 27.20200
C  46.87900 33.52000 29.59300
C  48.53400 37.94900 29.36000
C  50.03900 37.02200 24.92100
C  48.40400 32.40200 25.10700
N  47.88400 35.65800 29.19600
C  47.33300 34.75200 30.00300
C  47.19600 35.22000 31.50000
C  47.34500 36.77300 31.30200
C  47.92600 36.78800 29.82300
C  46.02300 37.49600 31.46900
C  48.23700 34.45100 32.41000
C  48.93700 35.16100 33.55600
H  48.03800 35.94800 34.55400
N  49.03300 37.26400 27.10100
C  49.05300 38.22900 28.10800
C  49.66800 39.46800 27.61300
C  50.03600 39.24300 26.25100
C  49.80600 37.74100 26.04700
C  49.72200 40.78400 28.40200
C  50.61400 40.17600 25.20300
O  50.91700 39.90000 24.07100
C  50.80100 41.67300 25.63500
N  49.06100 34.84600 25.23200
C  49.77100 35.77000 24.52900
C  50.32300 35.15700 23.19200
C  49.88200 33.64300 23.34400
C  49.04600 33.60100 24.61400
C  49.84300 35.82600 21.92700
C  51.13600 32.70700 23.37900
C  51.02200 31.34500 22.81700
N  47.81900 33.33500 27.26800
C  47.78000 32.30500 26.35400
C  47.00600 31.19000 26.89000
C  46.57800 31.62400 28.14400
C  47.12000 32.93000 28.38100
C  46.68100 29.88900 26.21000
C  45.83600 31.17900 29.31700
O  45.26800 30.12900 29.59600
C  45.83500 32.53900 30.19500
C  45.96200 32.19500 31.61200
O  46.77900 31.40700 32.05400
O  44.95200 32.78900 32.34000
C  44.79700 32.54300 33.77600
H  48.55300 38.77000 30.07900
H  50.72800 37.52500 24.24000
H  48.43700 31.43700 24.59600
H  46.18000 34.94400 31.78300
H  48.11400 37.20000 31.94500
H  46.23600 38.48200 31.05800
H  45.70900 37.77400 32.47500
H  45.19900 36.94900 31.01000
H  48.95600 33.92400 31.78300
H  47.80800 33.58300 32.91000
H  49.60900 35.85600 33.05300
H  49.66700 34.51000 34.03800
H  50.77100 41.06000 28.50800
H  49.46300 40.59100 29.44300
H  49.22900 41.64600 27.95100
H  49.85500 42.11800 25.94200
H  51.23200 42.23400 24.80600
H  51.57200 41.57700 26.40000
H  51.40300 35.29800 23.24700
H  49.16700 33.24900 22.62100
H  49.47300 35.09400 21.20900
H  50.71000 36.26800 21.43700
H  49.20100 36.65000 22.23900
H  51.40800 32.56100 24.42500
H  51.88600 33.20200 22.76300
H  50.02100 31.20800 22.40800
H  51.02000 30.61400 23.62600
H  51.80900 31.12900 22.09400
H  47.65400 29.53000 25.87600
H  45.97600 30.15400 25.42200
H  46.25600 29.11200 26.84600
H  44.85300 32.99700 30.07400
H  43.85300 32.02400 33.94100
H  44.69400 33.45700 34.36100
H  45.65300 31.97100 34.13400

