158

Mg 35.28000 3.17800 29.43900
C  33.16100 4.13900 32.14000
C  37.85300 2.73900 31.64000
C  37.15200 2.00200 26.89700
C  32.68000 3.92200 27.18800
N  35.49900 3.51600 31.61100
C  34.52000 3.88800 32.54200
C  35.07500 3.85800 33.94400
C  36.64900 3.75800 33.67900
C  36.68200 3.30100 32.18200
C  37.47500 5.05100 33.91500
C  34.46100 2.81500 34.91100
C  34.17600 3.29600 36.30400
H  35.05700 4.39100 36.87100
N  37.22700 2.35700 29.29100
C  38.09900 2.23900 30.31700
C  39.34500 1.59400 29.83400
C  39.09100 1.26000 28.44500
C  37.70400 1.80900 28.15600
C  40.51100 1.16800 30.66200
C  39.96000 0.41300 27.47700
O  39.61100 0.22400 26.35600
C  41.35700 -0.23700 27.88400
N  35.02000 3.06500 27.45400
C  35.94500 2.64000 26.58300
C  35.46200 2.61600 25.13800
C  33.94000 2.88300 25.29300
C  33.86000 3.38800 26.67600
C  36.24800 3.68900 24.37300
C  32.84400 1.84600 24.97500
C  31.64500 2.39100 24.23700
N  33.37600 3.89700 29.57700
C  32.37600 4.03300 28.55300
C  31.15900 4.43000 29.13000
C  31.43600 4.46300 30.52900
C  32.80800 4.13400 30.73700
C  29.87500 4.66300 28.41400
C  30.83600 4.75800 31.79700
O  29.68200 5.11700 32.12000
C  31.92600 4.39000 32.94200
C  31.97100 5.62700 33.88000
O  32.46800 6.71700 33.68600
O  31.31200 5.40300 35.04500
C  31.23000 6.57400 35.98800
H  38.63500 2.54900 32.37700
H  37.62500 1.62400 25.98900
H  31.86400 4.00000 26.46700
H  34.77200 4.85000 34.28100
H  37.07800 3.03500 34.37300
H  36.80700 5.90400 34.03500
H  38.01000 5.25800 32.98800
H  38.14500 4.97600 34.77100
H  35.09800 1.93300 34.84500
H  33.51500 2.53000 34.45100
H  34.11100 2.51000 37.05800
H  33.18000 3.73000 36.39600
H  40.59200 0.08300 30.72200
H  40.37000 1.66500 31.62200
H  41.42100 1.45700 30.13700
H  42.08800 0.56000 28.01800
H  41.47400 -0.84400 26.98600
H  41.09500 -0.77100 28.79700
H  35.61200 1.64200 24.67300
H  33.73400 3.71400 24.61900
H  37.15600 3.96600 24.90900
H  35.73500 4.65100 24.36100
H  36.45300 3.21800 23.41200
H  32.57400 1.36900 25.91700
H  33.25700 1.07100 24.32900
H  30.76600 1.99900 24.75000
H  31.67100 1.94400 23.24300
H  31.58000 3.46800 24.08200
H  29.75800 4.01500 27.54500
H  29.73600 5.68100 28.05200
H  29.01100 4.34100 28.99500
H  31.52200 3.49300 33.41300
H  30.64600 7.34000 35.47700
H  32.17800 6.77100 36.48800
H  30.47000 6.31800 36.72600
Mg 41.70400 9.36200 29.98600
C  43.43500 10.61000 32.81700
C  39.36300 8.16300 32.03900
C  40.27000 8.25500 27.27200
C  44.54900 10.24800 28.00900
N  41.50600 9.30800 32.19300
C  42.27100 9.93300 33.17100
C  41.66000 9.78800 34.56800
C  40.44700 8.78700 34.33700
C  40.42600 8.63300 32.77900
C  40.61100 7.42300 35.13100
C  41.31100 11.19500 35.27100
C  40.43700 11.10300 36.44000
H  40.78200 11.95800 37.60900
N  39.98400 8.33000 29.68400
C  39.12100 7.96700 30.60600
C  37.95200 7.46500 29.91200
C  38.17400 7.41300 28.50200
C  39.51500 8.00400 28.40900
C  36.71400 7.03000 30.65800
C  37.33600 6.97600 27.35900
O  37.69400 7.13500 26.17900
C  35.99000 6.50000 27.55300
N  42.37900 9.03500 27.99700
C  41.55600 8.62500 27.04900
C  42.14500 8.77000 25.66300
C  43.49600 9.32100 25.91100
C  43.53300 9.51900 27.42900
C  42.19100 7.39300 24.84600
C  43.83800 10.57400 25.13600
C  43.24300 11.92900 25.59200
N  43.58500 10.24400 30.26100
C  44.62100 10.54800 29.36000
C  45.58800 11.29900 30.00800
C  45.22600 11.25700 31.35900
C  44.00000 10.61800 31.48700
C  46.80400 11.88200 29.39300
C  45.58900 11.77700 32.62500
O  46.61600 12.30800 32.94900
C  44.43800 11.39500 33.63400
C  45.10900 10.79300 34.80600
O  45.81700 9.79700 34.73100
O  44.52800 11.23200 36.04100
C  44.88100 10.44400 37.30100
H  38.51900 7.96600 32.70400
H  39.62000 8.15800 26.39900
H  45.37000 10.65600 27.41700
H  42.44400 9.34400 35.18100
H  39.47100 9.18800 34.60900
H  41.59700 7.40900 35.59500
H  40.48900 6.62600 34.39800
H  39.86000 7.25400 35.90200
H  40.97000 11.95900 34.57300
H  42.22400 11.62700 35.68100
H  40.35600 10.06400 36.75700
H  39.43700 11.35900 36.09100
H  36.82900 7.11900 31.73800
H  36.56300 5.99800 30.34100
H  35.82900 7.52900 30.26600
H  35.45600 6.55000 26.60400
H  35.42400 7.12300 28.24600
H  35.90500 5.47400 27.91400
H  41.52800 9.50700 25.14800
H  44.28400 8.60000 25.69100
H  41.63400 6.61800 25.37300
H  43.21000 7.04100 24.68800
H  41.61100 7.61800 23.95100
H  43.95900 10.34300 24.07700
H  44.91500 10.71500 25.22300
H  42.21400 11.94100 25.95100
H  43.26700 12.58600 24.72200
H  43.79600 12.28100 26.46200
H  46.49800 12.66300 28.69700
H  47.40100 11.07500 28.97000
H  47.34800 12.35300 30.21200
H  44.01800 12.34400 33.96800
H  44.40800 10.80100 38.21600
H  45.95300 10.55900 37.46200
H  44.61600 9.39500 37.17000

