158

Mg 0.77400 8.70200 26.38200
C  1.34400 10.49000 29.48900
C  0.39700 5.94800 28.28400
C  0.25700 7.12600 23.52100
C  1.08900 11.72900 24.73900
N  1.03600 8.18200 28.62600
C  1.09900 9.11300 29.72100
C  0.96400 8.33800 31.00300
C  0.98500 6.84200 30.69100
C  0.80100 6.96600 29.12100
C  2.29300 6.12100 31.18900
C  -0.30600 8.73900 31.83400
C  -0.27500 8.56700 33.40700
H  0.98400 8.04000 34.12300
N  0.49300 6.77900 25.89500
C  0.26900 5.80400 26.80100
C  -0.00100 4.57200 26.10700
C  0.00200 4.81900 24.71700
C  0.28700 6.29900 24.64300
C  -0.21900 3.19800 26.84900
C  -0.21200 3.90800 23.56500
O  -0.15700 4.26800 22.39300
C  -0.28900 2.47700 23.75400
N  0.70700 9.31100 24.42300
C  0.52300 8.51700 23.41600
C  0.58600 9.26600 22.10800
C  0.36200 10.80200 22.55900
C  0.75200 10.61200 24.01000
C  1.87500 8.98600 21.47200
C  -1.11200 11.31600 22.48300
C  -1.42200 12.67100 21.81700
N  1.12000 10.70800 26.89400
C  1.30000 11.77000 26.07000
C  1.61000 12.98000 26.86000
C  1.68500 12.53300 28.21000
C  1.28700 11.13000 28.15400
C  1.96200 14.31600 26.29600
C  2.02000 12.93500 29.56200
O  2.39500 14.01200 29.95000
C  1.58100 11.63300 30.54800
C  2.66600 11.49400 31.56700
O  3.66900 10.71700 31.43200
O  2.43700 12.34800 32.60900
C  3.29700 12.20900 33.71900
H  0.17900 5.09800 28.93200
H  -0.00700 6.73500 22.53600
H  1.23600 12.66500 24.19500
H  1.81000 8.62100 31.62900
H  0.19600 6.29200 31.20300
H  2.04400 5.32900 31.89600
H  3.02400 6.71200 31.74100
H  2.86700 5.64500 30.39400
H  -1.08900 8.10700 31.41500
H  -0.52500 9.77200 31.56300
H  -1.09600 7.90000 33.66900
H  -0.56600 9.55900 33.75400
H  -0.14500 2.30100 26.23400
H  -1.26300 3.28800 27.15000
H  0.30000 2.97900 27.78200
H  -1.18100 2.29800 24.35500
H  0.71500 2.22700 24.09600
H  -0.40700 2.08300 22.74500
H  -0.28700 8.88800 21.57500
H  1.08200 11.47500 22.09400
H  2.45700 8.22000 21.98500
H  2.56600 9.81800 21.33900
H  1.72600 8.57300 20.47500
H  -1.53800 11.41900 23.48100
H  -1.73900 10.52700 22.06800
H  -1.81800 12.47600 20.82000
H  -0.65500 13.44000 21.91400
H  -2.23600 13.15800 22.35500
H  2.87300 14.25200 25.70100
H  2.08500 14.97800 27.15300
H  1.08100 14.50700 25.68400
H  0.64800 11.92600 31.03000
H  4.25500 12.71400 33.59600
H  3.55500 11.17100 33.93200
H  2.82700 12.54900 34.64200
Mg 25.81800 2.17800 29.03600
C  27.69600 1.54400 31.99800
C  23.05200 2.54200 30.97600
C  24.01900 2.34900 26.14800
C  28.75500 1.62900 27.18100
N  25.42100 2.14200 31.16600
C  26.31200 1.83600 32.21100
C  25.63500 2.06800 33.61700
C  24.10200 2.21800 33.21100
C  24.18500 2.33400 31.71000
C  23.15600 1.11500 33.72600
C  26.25600 3.23300 34.39600
C  26.86800 2.91300 35.69500
H  27.11100 4.19000 36.55600
N  23.86200 2.36800 28.67000
C  22.81500 2.41500 29.56100
C  21.59000 2.66400 28.88800
C  21.84600 2.49300 27.47700
C  23.33800 2.36500 27.38000
C  20.25400 2.78400 29.62200
C  20.87300 2.61000 26.27400
O  21.13700 2.34500 25.11200
C  19.43500 3.14300 26.49800
N  26.30000 1.94400 26.93500
C  25.40100 2.25500 25.97900
C  26.12500 2.51200 24.63400
C  27.65600 2.12500 24.86400
C  27.60000 1.85800 26.39700
C  25.37200 1.95400 23.41000
C  28.74700 3.09800 24.38700
C  28.96300 4.36400 25.25700
N  27.75800 1.68700 29.46800
C  28.80200 1.47800 28.59900
C  30.03000 1.22700 29.35700
C  29.63300 1.24500 30.67600
C  28.24600 1.51700 30.71100
C  31.46300 0.91800 28.84600
C  30.05400 1.09200 32.02800
O  31.15400 0.73900 32.48900
C  28.89000 1.34000 32.98000
C  28.62900 0.15900 33.87200
O  27.91600 -0.80000 33.54800
O  29.10300 0.40200 35.15700
C  28.76300 -0.62200 36.08100
H  22.14400 2.74600 31.54800
H  23.31700 2.49300 25.32300
H  29.73100 1.56800 26.69600
H  25.64400 1.16800 34.23200
H  23.73700 3.18500 33.55700
H  22.43900 1.69000 34.31300
H  23.67000 0.46200 34.43100
H  22.77300 0.54300 32.88100
H  25.52900 4.03200 34.54000
H  26.96900 3.77400 33.77400
H  27.85500 2.50000 35.48700
H  26.26500 2.13100 36.15500
H  19.75300 3.75100 29.56800
H  20.29700 2.45000 30.65800
H  19.73000 2.00300 29.07200
H  18.88300 2.46900 27.15300
H  18.99300 3.21500 25.50400
H  19.43600 4.14600 26.92200
H  26.08200 3.60100 24.61900
H  27.92200 1.20600 24.34300
H  24.75300 1.13300 23.77100
H  26.03700 1.58100 22.63100
H  24.71200 2.74100 23.04400
H  28.51500 3.40700 23.36800
H  29.67600 2.52800 24.42100
H  28.33600 4.41900 26.14600
H  28.60600 5.17200 24.61900
H  29.99800 4.54100 25.54900
H  31.68300 1.50300 27.95300
H  31.48500 -0.15700 28.66700
H  32.17300 1.13700 29.64400
H  29.10900 2.22500 33.57600
H  29.13900 -1.56200 35.67500
H  27.67900 -0.72500 36.05100
H  29.18900 -0.47100 37.07300

