158

Mg 48.02500 34.79300 27.67700
C  45.94000 33.34700 30.19300
C  48.32300 37.46300 29.85700
C  49.17000 36.70700 25.17300
C  47.19200 32.17300 25.55000
N  47.10600 35.38100 29.74200
C  46.44200 34.60800 30.66100
C  46.72200 34.96100 32.08500
C  47.05600 36.44600 31.85200
C  47.60800 36.39100 30.42900
C  45.99400 37.51100 32.25000
C  47.99400 34.15200 32.47900
C  48.31100 34.18100 33.89200
H  47.37300 35.02700 34.82300
N  48.80500 36.77800 27.61600
C  48.84200 37.69900 28.56800
C  49.37500 39.00200 28.06400
C  49.65300 38.76300 26.67100
C  49.14200 37.40300 26.43200
C  49.46200 40.24400 28.97000
C  50.25100 39.69600 25.66000
O  50.33100 39.44500 24.46000
C  50.82400 40.93200 26.16600
N  48.11800 34.50400 25.67800
C  48.72700 35.40300 24.84000
C  48.82400 34.88800 23.40200
C  48.48900 33.35000 23.62000
C  47.88800 33.31600 25.04100
C  47.81500 35.61000 22.51000
C  49.74500 32.47000 23.61900
C  49.90000 31.39500 22.55500
N  46.90700 33.04500 27.83300
C  46.67800 32.00800 26.88000
C  46.10400 30.91000 27.59400
C  45.72000 31.42200 28.85100
C  46.25800 32.68800 28.96600
C  45.82000 29.52900 27.13200
C  45.13800 31.06100 30.10600
O  44.78400 29.94400 30.40700
C  45.02400 32.32500 30.95300
C  45.35500 31.94100 32.42200
O  46.25900 31.23300 32.79400
O  44.37400 32.46900 33.28500
C  44.44000 32.33100 34.72500
H  48.33200 38.31400 30.54100
H  49.47600 37.38500 24.37300
H  47.17400 31.26800 24.94000
H  45.83800 34.82400 32.70800
H  47.83800 36.63000 32.58900
H  45.03800 37.02900 32.45900
H  45.66500 38.10300 31.39700
H  46.28100 38.02200 33.16900
H  48.86200 34.52200 31.93200
H  47.79000 33.14200 32.12300
H  49.27500 34.68200 33.97500
H  48.27400 33.15900 34.26900
H  50.45500 40.58500 29.26000
H  49.01400 40.18400 29.96200
H  48.80600 41.02600 28.58600
H  51.50000 41.39400 25.44600
H  51.47200 40.65800 26.99900
H  50.03200 41.65300 26.36600
H  49.84100 35.01500 23.03100
H  47.74200 33.06500 22.87900
H  47.12500 36.23900 23.07400
H  47.18200 34.86200 22.03300
H  48.43600 36.21600 21.85100
H  49.81100 31.84600 24.51000
H  50.56900 33.18200 23.57000
H  49.09900 31.47800 21.82000
H  49.97900 30.40200 22.99800
H  50.78300 31.52200 21.92900
H  46.21600 28.80700 27.84700
H  46.22100 29.34900 26.13400
H  44.75400 29.41800 26.93500
H  44.02900 32.76500 30.89300
H  45.46200 32.21900 35.08700
H  43.94800 31.43700 35.10900
H  44.02600 33.13300 35.33600
Mg 1.29500 41.87900 25.73500
C  3.05200 42.06300 28.71100
C  -1.27100 40.58700 27.47600
C  -0.29000 41.44900 22.72400
C  4.19700 42.48300 23.91200
N  0.86400 41.67200 27.83200
C  1.71500 41.84600 28.89300
C  1.14000 41.65100 30.24800
C  -0.26300 41.02800 29.89400
C  -0.27500 41.03200 28.30500
C  -0.59000 39.57000 30.44000
C  1.10800 43.07600 30.92100
C  1.53100 43.16000 32.40100
H  1.29200 41.90200 33.34700
N  -0.53900 41.14700 25.18300
C  -1.50700 40.65100 26.01300
C  -2.72000 40.18300 25.24600
C  -2.35200 40.36500 23.87000
C  -1.00500 41.01700 23.87100
C  -4.12300 39.79500 25.79300
C  -3.05900 40.01800 22.57500
O  -2.70300 40.33000 21.41400
C  -4.36500 39.22300 22.62900
N  1.83200 42.02500 23.60200
C  0.97900 41.93600 22.64800
C  1.69900 42.01800 21.26400
C  3.11200 42.62200 21.63100
C  3.03400 42.31300 23.16500
C  1.83200 40.65500 20.46700
C  3.16200 44.20300 21.39400
C  4.03200 44.75500 20.20900
N  3.22500 42.09500 26.09300
C  4.34800 42.36800 25.30400
C  5.49000 42.54300 26.16500
C  4.97700 42.37700 27.44100
C  3.62000 42.12100 27.40200
C  6.86300 43.06300 25.73600
C  5.41100 42.51700 28.79900
O  6.58600 42.62600 29.18900
C  4.23700 42.33100 29.69100
C  4.69100 41.22200 30.62200
O  4.50800 40.03200 30.43800
O  5.22800 41.71700 31.73300
C  5.50100 40.79800 32.81800
H  -2.06700 40.02700 27.97200
H  -0.59500 41.28000 21.68900
H  5.07000 42.72000 23.30000
H  1.74700 40.86100 30.69000
H  -1.08800 41.65000 30.24100
H  0.33100 38.98700 30.43300
H  -1.30000 39.02800 29.81600
H  -0.97400 39.61400 31.45900
H  0.08000 43.43100 30.84400
H  1.67400 43.76600 30.29600
H  0.93600 44.00200 32.75400
H  2.60000 43.36000 32.46600
H  -4.48400 38.85700 25.37300
H  -4.66000 40.67200 25.43100
H  -4.31200 39.68400 26.86100
H  -5.16900 39.66300 23.21900
H  -3.95300 38.24700 22.88700
H  -4.88500 39.04800 21.68700
H  1.15100 42.78400 20.71400
H  3.93200 42.11300 21.12500
H  1.47900 39.80100 21.04400
H  2.89800 40.47800 20.32500
H  1.29600 40.74800 19.52200
H  3.51100 44.71500 22.29200
H  2.14100 44.57000 21.28500
H  3.42800 45.35400 19.52700
H  4.51100 43.95900 19.63900
H  4.79300 45.41800 20.62000
H  7.48300 42.22900 25.40600
H  7.34000 43.68200 26.49600
H  6.62300 43.74900 24.92400
H  4.10200 43.22200 30.30400
H  6.43800 40.24400 32.76000
H  4.72000 40.10500 33.13000
H  5.56100 41.51300 33.63900

