158

Mg 0.30100 8.36500 26.42500
C  0.86600 10.18300 29.50600
C  -0.06900 5.50000 28.37200
C  0.31000 6.73600 23.63100
C  1.23400 11.27400 24.80200
N  0.34600 7.96600 28.70300
C  0.56900 8.88300 29.72400
C  0.51600 8.11600 31.08800
C  0.46800 6.58000 30.62600
C  0.20300 6.64900 29.14200
C  1.71500 5.68100 30.99300
C  -0.66600 8.57300 32.00300
C  -0.47000 8.48300 33.58300
H  0.85900 7.89300 34.19400
N  0.08300 6.39100 26.04300
C  -0.00200 5.30900 26.88200
C  -0.03500 4.07300 26.09900
C  -0.08000 4.43900 24.75100
C  0.12400 5.89600 24.79100
C  -0.11400 2.68600 26.69800
C  -0.15600 3.59400 23.55500
O  -0.14400 4.07600 22.42400
C  -0.26300 2.09800 23.70800
N  0.43600 9.01900 24.46100
C  0.54100 8.10200 23.46400
C  0.69300 8.87600 22.13000
C  0.69700 10.37200 22.51600
C  0.91200 10.19600 24.03500
C  2.02200 8.43700 21.44000
C  -0.67900 11.06500 22.39700
C  -1.21200 11.23000 20.88800
N  0.89300 10.42100 26.97500
C  1.17100 11.42300 26.20500
C  1.43500 12.56200 27.00200
C  1.43600 12.06600 28.28400
C  0.97900 10.80900 28.27100
C  1.67700 13.93800 26.63900
C  1.66300 12.46600 29.68500
O  2.00100 13.54100 30.20000
C  1.24200 11.24000 30.50300
C  2.22900 10.86900 31.58800
O  3.27500 10.23000 31.46500
O  1.77800 11.35300 32.77300
C  2.70700 11.45100 33.91700
H  -0.02900 4.53900 28.88900
H  0.37800 6.21900 22.67100
H  1.48400 12.22100 24.31900
H  1.45500 8.33600 31.59500
H  -0.50700 6.20700 30.94200
H  2.41700 6.11400 31.70500
H  2.26700 5.42400 30.08900
H  1.44700 4.72900 31.45100
H  -1.48800 7.88900 31.79100
H  -0.94300 9.59600 31.75000
H  -1.25500 7.82300 33.95200
H  -0.67700 9.49700 33.92500
H  0.18800 2.65100 27.74500
H  0.49400 1.99200 26.11600
H  -1.16500 2.40500 26.63600
H  -0.64100 1.63100 22.79800
H  -1.00800 1.94200 24.48800
H  0.72900 1.74300 23.98700
H  -0.11100 8.77800 21.40100
H  1.48400 10.98000 22.07000
H  2.36700 7.67300 22.13600
H  2.73000 9.25600 21.31100
H  1.81400 7.92900 20.49800
H  -0.69500 12.06400 22.83300
H  -1.40100 10.44200 22.92400
H  -0.39400 11.08500 20.18300
H  -1.58700 12.24300 20.74500
H  -1.98100 10.50200 20.62900
H  1.90500 14.09000 25.58400
H  2.34300 14.39800 27.36800
H  0.71200 14.43600 26.73300
H  0.32400 11.55600 30.99700
H  2.93100 12.51100 34.04100
H  3.67600 11.04400 33.62900
H  2.34400 10.91700 34.79500
Mg 24.37400 -5.60100 46.14700
C  26.56800 -3.27900 44.68600
C  21.96000 -4.48000 44.23800
C  22.89600 -8.42000 47.03400
C  27.35400 -6.84200 47.88900
N  24.38700 -4.25500 44.27800
C  25.37600 -3.32900 43.95700
C  24.76900 -2.28700 42.97600
C  23.27800 -2.50500 43.05000
C  23.18600 -3.83100 43.91800
C  22.37000 -1.42100 43.55600
C  25.39600 -2.42100 41.54800
C  25.38700 -1.13400 40.62900
H  24.39800 -1.14600 39.48000
N  22.68200 -6.26100 45.82700
C  21.76300 -5.68400 45.01500
C  20.57600 -6.57800 45.02200
C  20.78200 -7.70800 45.82300
C  22.18700 -7.54800 46.26900
C  19.30700 -6.10800 44.24300
C  19.81000 -8.75200 46.07300
O  18.70600 -8.64400 45.54100
C  20.07800 -9.94900 46.81300
N  25.07000 -7.36700 47.28800
C  24.19100 -8.39300 47.53700
C  24.88300 -9.58300 48.21900
C  26.11600 -8.89300 48.81600
C  26.25400 -7.67700 47.83300
C  23.97200 -10.28800 49.29100
C  27.39200 -9.73000 48.83700
C  28.31500 -9.56900 50.10000
N  26.57900 -5.08100 46.39000
C  27.58900 -5.65200 47.13300
C  28.77500 -4.86900 47.08100
C  28.39600 -3.83200 46.14200
C  27.05500 -4.09200 45.70600
C  30.02100 -5.26000 47.75200
C  28.89100 -2.78700 45.36100
O  30.02600 -2.34400 45.26900
C  27.77300 -2.41900 44.36900
C  27.43200 -0.99800 44.35400
O  26.71100 -0.43900 45.14900
O  27.95400 -0.33300 43.30300
C  27.65100 1.09700 43.21200
H  21.09900 -4.07500 43.70300
H  22.39400 -9.34100 47.33800
H  28.16300 -7.32600 48.44100
H  25.09800 -1.32800 43.37600
H  22.90700 -2.73500 42.05100
H  23.06400 -0.88800 44.20600
H  21.53700 -1.76400 44.17000
H  22.05300 -0.77500 42.73700
H  24.78700 -3.15500 41.02000
H  26.38600 -2.86400 41.65500
H  26.38700 -0.95200 40.23500
H  25.14500 -0.22900 41.18500
H  19.12000 -6.71100 43.35400
H  19.46800 -5.12000 43.81200
H  18.35600 -5.96300 44.75700
H  19.17800 -10.42900 47.19800
H  20.54600 -9.64900 47.75100
H  20.60700 -10.76000 46.31200
H  25.17200 -10.29400 47.44500
H  25.95700 -8.50000 49.82000
H  23.85000 -11.35300 49.09300
H  22.99500 -9.81200 49.37500
H  24.50800 -10.28100 50.24000
H  27.92300 -9.39100 47.94700
H  27.12000 -10.78300 48.76400
H  27.72300 -9.41400 51.00300
H  29.02400 -8.75900 49.93100
H  28.81400 -10.52300 50.27300
H  30.15800 -4.78700 48.72500
H  30.83800 -4.93100 47.10900
H  30.07700 -6.32900 47.95500
H  28.24000 -2.65200 43.41100
H  26.82600 1.20700 42.50700
H  28.50400 1.60800 42.76400
H  27.51900 1.60300 44.16800

