158

Mg 49.23100 36.01800 27.65300
C  47.09400 35.00100 30.25400
C  49.80700 38.94800 29.50500
C  51.04200 37.26500 25.13900
C  48.42300 33.21700 25.80800
N  48.36100 36.95800 29.62300
C  47.71300 36.19100 30.58200
C  47.63700 36.95300 31.89500
C  48.18500 38.31000 31.59600
C  48.83900 38.13700 30.16700
C  47.19600 39.47300 31.66900
C  48.52000 36.17600 32.85900
C  47.94100 36.05300 34.29900
H  48.03500 37.19600 35.32000
N  50.35000 37.85400 27.38200
C  50.45800 38.88500 28.23900
C  51.40100 39.87700 27.81000
C  51.87900 39.32200 26.59600
C  51.03500 38.12800 26.30100
C  51.79100 41.17900 28.58000
C  52.97300 39.75700 25.60800
O  53.23900 39.14200 24.59100
C  53.59000 41.10900 25.92600
N  49.61400 35.38600 25.78900
C  50.41700 36.06100 24.91600
C  50.96300 35.13400 23.82800
C  50.06400 33.87800 23.98000
C  49.32400 34.15900 25.28700
C  51.12000 35.65800 22.42000
C  50.90600 32.54100 24.05600
C  50.23000 31.41600 23.17400
N  47.91300 34.42600 27.91400
C  47.71000 33.33000 27.11500
C  46.78400 32.41300 27.80100
C  46.42100 33.06100 28.98800
C  47.24000 34.24900 29.04000
C  46.21800 31.08500 27.22100
C  45.63600 33.03400 30.15800
O  44.80900 32.17900 30.54000
C  45.95000 34.24800 31.03500
C  46.32500 33.59200 32.32300
O  47.37100 32.92600 32.54400
O  45.22800 33.73300 33.15700
C  45.19700 32.67800 34.21800
H  50.00000 39.87800 30.04300
H  51.71200 37.51200 24.31200
H  48.24800 32.36400 25.14800
H  46.60500 36.92700 32.24400
H  48.94500 38.68700 32.28100
H  46.28500 39.01900 31.28000
H  47.37400 40.24200 30.91700
H  47.15200 39.83500 32.69600
H  49.46900 36.71200 32.83800
H  48.69600 35.17800 32.45800
H  48.31700 35.10600 34.68600
H  46.86500 35.91900 34.19000
H  51.23900 41.36400 29.50100
H  51.59400 42.01200 27.90600
H  52.85300 41.00500 28.75500
H  52.85100 41.90400 25.82300
H  54.39800 41.19400 25.19900
H  53.93400 41.05300 26.95900
H  51.98900 34.92800 24.13100
H  49.28800 33.85100 23.21500
H  51.06200 36.73900 22.29300
H  50.25400 35.33900 21.84000
H  51.95400 35.29300 21.82100
H  50.95900 32.11600 25.05900
H  51.91400 32.74000 23.69100
H  49.39700 31.78700 22.57700
H  49.90800 30.66300 23.89300
H  50.96000 30.89900 22.55200
H  46.51400 30.98200 26.17700
H  45.13200 31.17200 27.17800
H  46.58000 30.22900 27.79000
H  45.06000 34.87500 30.97300
H  44.57600 31.85200 33.86900
H  44.60100 33.09200 35.03100
H  46.16900 32.36700 34.60000
Mg 1.18600 41.85300 25.29300
C  1.86500 42.11900 28.70400
C  -1.74900 40.31000 26.16400
C  0.77100 41.00200 22.03600
C  4.52500 42.59200 24.64700
N  0.16500 41.26000 27.21900
C  0.61900 41.59700 28.46700
C  -0.52800 41.47500 29.46300
C  -1.55700 40.63500 28.68600
C  -1.04100 40.72800 27.28500
C  -1.67300 39.14000 29.11000
C  -0.96800 42.88100 29.96700
C  -2.40400 42.81700 30.53400
H  -2.70000 41.81100 31.52800
N  -0.40700 40.92100 24.19200
C  -1.51900 40.34900 24.76500
C  -2.36100 39.94900 23.62100
C  -1.57500 40.04100 22.41900
C  -0.35500 40.67400 22.85100
C  -3.74400 39.36500 23.90000
C  -1.96500 39.66800 21.00600
O  -1.23500 39.86300 20.05900
C  -3.26400 39.08600 20.71800
N  2.45700 41.77700 23.65000
C  2.02700 41.40600 22.41700
C  3.12300 41.67700 21.28500
C  4.25300 42.35400 22.15100
C  3.70000 42.18600 23.59600
C  3.68400 40.41500 20.57500
C  4.50600 43.84100 21.64200
C  3.53300 44.88300 22.14800
N  2.86700 42.43500 26.41300
C  4.15800 42.70600 25.98900
C  4.92800 43.11100 27.18000
C  4.05000 42.90300 28.28000
C  2.85200 42.40300 27.72700
C  6.40600 43.47900 27.24600
C  3.89700 42.96300 29.76800
O  4.67500 43.26900 30.70600
C  2.46900 42.45200 30.06100
C  2.62400 41.30800 30.94400
O  3.34200 40.31700 30.66300
O  1.89800 41.42000 32.08600
C  1.82800 40.17100 32.86400
H  -2.71700 39.85800 26.38500
H  0.80000 40.76400 20.97100
H  5.55800 42.78700 24.35000
H  -0.30300 40.91000 30.36800
H  -2.57800 41.01600 28.69000
H  -0.77300 38.59100 28.83200
H  -2.54700 38.83800 28.53200
H  -1.90000 39.11500 30.17500
H  -0.92500 43.71700 29.26900
H  -0.44500 43.10700 30.89600
H  -3.16300 42.68200 29.76300
H  -2.58700 43.77100 31.02800
H  -4.56200 39.78200 23.31300
H  -4.02500 39.63000 24.91900
H  -3.70900 38.28000 23.80100
H  -3.50300 38.19500 21.29800
H  -3.35100 38.81400 19.66600
H  -4.00900 39.83400 20.98900
H  2.77800 42.42000 20.56700
H  5.17600 41.78000 22.06600
H  4.76000 40.49100 20.42000
H  3.22100 40.23800 19.60400
H  3.42400 39.57200 21.21500
H  4.50600 43.79600 20.55300
H  5.51900 44.03600 21.99400
H  2.76400 44.43500 22.77700
H  3.09400 45.29200 21.23900
H  4.04000 45.69500 22.66900
H  6.66800 43.81200 26.24100
H  6.97800 42.56500 27.40600
H  6.59500 44.21200 28.02900
H  1.87700 43.11000 30.69700
H  1.71600 39.30100 32.21600
H  0.89200 40.17100 33.42200
H  2.73600 40.08800 33.46100

