158

Mg 40.42400 10.08300 29.94100
C  42.59400 11.26500 32.44500
C  38.38800 8.72900 32.27300
C  38.42900 8.90400 27.53600
C  42.72400 11.05300 27.57900
N  40.48600 10.09500 32.10800
C  41.47200 10.60300 32.93600
C  41.03200 10.44300 34.42500
C  39.69300 9.56000 34.36800
C  39.56600 9.39900 32.84700
C  39.80600 8.16900 35.09100
C  40.84500 11.79400 35.04200
C  40.22000 11.97300 36.42200
H  40.89500 12.89300 37.42100
N  38.65300 8.88000 29.87600
C  37.94000 8.48200 30.98100
C  36.76700 7.70200 30.59100
C  36.75300 7.83000 29.22600
C  37.97700 8.55600 28.77900
C  35.70700 7.08500 31.62200
C  35.77000 7.23500 28.20700
O  35.82100 7.34600 27.01400
C  34.51800 6.50700 28.68800
N  40.63500 9.79600 27.77700
C  39.58600 9.47100 26.99100
C  39.83100 9.74500 25.51900
C  41.21400 10.60000 25.55200
C  41.63500 10.45500 27.08100
C  39.89700 8.43700 24.66900
C  41.10800 12.05000 25.12300
C  40.00500 12.89300 25.74100
N  42.35400 10.81400 29.98000
C  43.12500 11.21900 28.93000
C  44.29900 11.77000 29.39900
C  44.11500 11.87900 30.81700
C  42.93500 11.23100 31.08300
C  45.37900 12.29000 28.58200
C  44.62700 12.48300 31.98800
O  45.66000 13.12000 32.13300
C  43.70800 12.01800 33.19000
C  44.45500 11.11400 34.17800
O  44.93500 10.03800 33.94800
O  44.47700 11.75100 35.35700
C  45.09200 11.18400 36.52700
H  37.63000 8.33500 32.95400
H  37.69000 8.58900 26.79600
H  43.29800 11.66200 26.87700
H  41.79600 9.87100 34.95100
H  38.78200 10.05300 34.70600
H  39.32800 7.37900 34.51200
H  39.25600 8.35900 36.01200
H  40.85000 8.13400 35.40200
H  40.34000 12.40700 34.29500
H  41.84200 12.22800 35.12000
H  40.30900 11.03400 36.97000
H  39.17500 12.26100 36.30700
H  36.14500 7.11900 32.62000
H  35.37900 6.06700 31.41300
H  34.82900 7.72900 31.57000
H  34.57600 5.66600 29.37800
H  33.91500 6.26300 27.81400
H  34.05200 7.37200 29.16100
H  38.99900 10.37200 25.19900
H  41.99600 10.13100 24.95500
H  39.50500 8.59200 23.66300
H  39.38600 7.59500 25.13600
H  40.93400 8.10200 24.64900
H  40.75200 12.10800 24.09500
H  42.07700 12.52500 25.27800
H  40.49800 13.64100 26.36200
H  39.22600 12.39700 26.31900
H  39.41800 13.46900 25.02500
H  44.96200 13.13800 28.03900
H  45.57700 11.55600 27.80100
H  46.32200 12.60500 29.02800
H  43.33700 12.95600 33.60500
H  45.53900 11.94000 37.17300
H  45.93600 10.59800 36.16300
H  44.44800 10.46700 37.03600
Mg 28.70500 58.64300 41.58800
C  26.01900 56.49700 40.23900
C  30.88200 56.64400 39.80500
C  30.96000 61.08900 42.00800
C  26.17300 60.90800 42.66100
N  28.44400 56.77400 40.12900
C  27.28100 56.07500 39.82700
C  27.63900 54.98400 38.75200
C  29.19500 54.89900 38.77700
C  29.55600 56.21000 39.61000
C  29.74900 53.55200 39.35700
C  26.99500 55.31700 37.40200
C  26.50000 54.13900 36.51900
H  27.30500 53.86600 35.24900
N  30.70500 58.70000 41.15400
C  31.41200 57.81000 40.35000
C  32.80300 58.33500 40.14600
C  32.81200 59.45800 41.05400
C  31.49300 59.83700 41.43800
C  33.90700 57.66300 39.25500
C  34.11400 60.15200 41.43900
O  35.20600 59.60000 41.22100
C  34.14200 61.47100 42.25100
N  28.58200 60.67900 42.24300
C  29.65800 61.50700 42.29900
C  29.37000 62.90200 42.85500
C  27.83300 62.77600 43.20400
C  27.42700 61.40200 42.60800
C  30.15500 63.26200 44.13100
C  27.05000 64.04900 42.66000
C  26.38600 64.99700 43.72300
N  26.56200 58.70000 41.51600
C  25.73200 59.63900 42.06100
C  24.42400 59.17500 41.96700
C  24.43500 57.95600 41.28700
C  25.78700 57.73100 40.95300
C  23.23000 59.94500 42.44900
C  23.64500 56.80900 40.73200
O  22.43000 56.64000 40.76400
C  24.63900 55.91500 40.01200
C  24.46200 54.55500 40.50400
O  24.57800 54.19700 41.66200
O  24.38400 53.77200 39.42600
C  24.04600 52.36000 39.59500
H  31.49500 56.00500 39.16700
H  31.68300 61.84900 42.31200
H  25.43900 61.63200 43.02000
H  27.21200 54.03600 39.08000
H  29.60600 54.98700 37.77100
H  30.09600 52.84300 38.60500
H  28.98200 52.96700 39.86500
H  30.58400 53.81700 40.00400
H  27.67800 55.84600 36.73700
H  26.17100 56.02100 37.51900
H  25.46100 54.30400 36.23500
H  26.67500 53.22400 37.08400
H  34.41400 56.99400 39.95000
H  34.69700 58.35600 38.96400
H  33.42400 57.08700 38.46600
H  33.82400 62.30400 41.62300
H  35.12700 61.61800 42.69500
H  33.46900 61.36800 43.10100
H  29.76600 63.58800 42.10600
H  27.71600 62.51300 44.25500
H  29.55000 63.63500 44.95800
H  30.75800 64.13500 43.88100
H  30.80200 62.41900 44.37200
H  26.23200 63.81100 41.98100
H  27.63400 64.72000 42.02900
H  26.75100 66.01700 43.60400
H  26.66700 64.71900 44.73900
H  25.30300 64.98100 43.60100
H  22.95900 60.76600 41.78400
H  23.56200 60.54500 43.29600
H  22.42400 59.27400 42.74500
H  24.30000 55.88500 38.97600
H  24.19300 52.07200 40.63600
H  24.57300 51.67300 38.93200
H  22.99700 52.29000 39.30800

