158

Mg 53.41100 24.01800 45.87300
C  50.86000 26.02900 44.49400
C  51.92500 21.26700 44.47300
C  56.42100 22.43900 46.18100
C  54.76700 27.00100 47.07100
N  51.66800 23.70900 44.64700
C  50.77900 24.62500 44.31400
C  49.49300 23.99200 43.69900
C  49.72300 22.45400 44.13100
C  51.18500 22.43500 44.47100
C  48.83000 22.01900 45.43200
C  49.45200 24.16900 42.15300
C  48.02400 24.17100 41.54500
H  47.84500 24.15500 40.04000
N  54.03600 22.09900 45.52500
C  53.25300 21.13800 44.87800
C  53.97800 19.84500 44.81300
C  55.33600 20.21100 45.27700
C  55.33600 21.61100 45.59900
C  53.54300 18.57200 44.13800
C  56.61700 19.25700 45.17500
O  56.44700 18.07900 44.88800
C  58.07800 19.57200 45.55500
N  55.40200 24.76100 46.26200
C  56.40200 23.78700 46.57300
C  57.66900 24.46900 47.28100
C  57.09100 25.90300 47.54600
C  55.65300 25.87700 47.00500
C  58.26900 23.67700 48.49800
C  57.86300 27.16400 47.10700
C  58.03700 28.29500 48.09400
N  52.95700 26.15000 45.81900
C  53.51700 27.20300 46.51800
C  52.73600 28.41100 46.27900
C  51.68800 28.00900 45.47000
C  51.87200 26.63500 45.24700
C  53.07300 29.72100 46.95100
C  50.41400 28.41100 44.87200
O  49.94900 29.50200 44.81700
C  49.79300 27.12700 44.22800
C  49.60700 27.46400 42.81200
O  50.42800 27.71400 41.92400
O  48.22400 27.44400 42.55900
C  47.84900 27.90200 41.17800
H  51.47400 20.34800 44.09300
H  57.39000 21.96500 46.35200
H  55.21300 27.86600 47.56600
H  48.56400 24.43400 44.06000
H  49.57400 21.77100 43.29500
H  48.10000 21.40200 44.90800
H  48.43100 22.97000 45.78500
H  49.32000 21.41700 46.19700
H  49.95400 23.28900 41.75100
H  49.91700 25.10500 41.84300
H  47.57400 25.06200 41.98200
H  47.42700 23.33200 41.90100
H  53.69600 17.74900 44.83700
H  54.13900 18.38500 43.24500
H  52.50100 18.39600 43.87400
H  58.34300 20.28800 44.77700
H  58.70100 18.70300 45.34100
H  58.24000 19.83000 46.60100
H  58.45000 24.43900 46.52200
H  56.92300 26.01000 48.61800
H  59.33900 23.54600 48.34200
H  57.84300 22.68000 48.61000
H  58.00500 24.26400 49.37900
H  57.41100 27.42600 46.15100
H  58.86500 26.91900 46.75500
H  57.53600 29.16600 47.67100
H  59.07800 28.47900 48.35900
H  57.46200 28.19800 49.01600
H  52.67900 29.65900 47.96500
H  52.69200 30.58100 46.40000
H  54.14800 29.90200 46.94200
H  48.87300 26.79900 44.71200
H  47.70200 28.96800 41.00400
H  46.88300 27.41000 41.07000
H  48.46400 27.42100 40.41800
Mg -9.26200 18.21000 41.05900
C  -5.83400 17.64000 41.41100
C  -8.56300 21.46900 40.26800
C  -12.45900 18.56900 40.29800
C  -9.76900 14.72400 41.42800
N  -7.41300 19.24800 40.74200
C  -6.12400 18.89100 40.85900
C  -5.20100 19.98600 40.36000
C  -6.05200 21.27200 40.81400
C  -7.46300 20.64600 40.61000
C  -5.82800 21.74300 42.31000
C  -4.93100 19.85900 38.87800
C  -3.46900 19.42400 38.46000
H  -3.31600 17.96300 38.08900
N  -10.45800 19.85400 40.42500
C  -9.97100 21.08800 40.16000
C  -11.08900 21.93700 39.82400
C  -12.25900 21.18400 40.11200
C  -11.77300 19.82100 40.28200
C  -10.93900 23.32900 39.21400
C  -13.67800 21.73900 40.09900
O  -13.87200 22.91400 39.87000
C  -14.80400 20.83000 40.29400
N  -10.83600 16.86400 40.83000
C  -12.10300 17.28300 40.48900
C  -13.09000 16.15400 40.25100
C  -12.21500 14.92300 40.69600
C  -10.86000 15.53900 41.07900
C  -14.45900 16.36300 40.88700
C  -12.18600 13.83400 39.66900
C  -12.71100 12.45300 40.13200
N  -8.06600 16.50500 41.40900
C  -8.42100 15.15500 41.49900
C  -7.23300 14.35500 41.70700
C  -6.23500 15.33600 41.72700
C  -6.77100 16.60400 41.52200
C  -7.21100 12.92600 41.99700
C  -4.76100 15.48400 41.94600
O  -3.93000 14.67400 42.30800
C  -4.48700 17.02800 41.70600
C  -3.74400 17.61600 42.89800
O  -4.21200 18.56800 43.53000
O  -2.43000 17.32400 42.92700
C  -1.65400 18.06700 43.88500
H  -8.27000 22.50500 40.09100
H  -13.47900 18.83300 40.00800
H  -9.91600 13.65900 41.61800
H  -4.24100 20.11500 40.85900
H  -5.75200 22.10100 40.17400
H  -5.09300 21.22000 42.92200
H  -6.79400 21.78300 42.81500
H  -5.50300 22.77800 42.41000
H  -5.30900 20.79000 38.45700
H  -5.58800 19.05500 38.54600
H  -2.78500 19.72300 39.25500
H  -3.17000 20.10900 37.66700
H  -11.35700 23.39900 38.21000
H  -9.90700 23.65700 39.09300
H  -11.47600 23.95800 39.92500
H  -15.61900 21.49900 40.57100
H  -14.46600 20.27000 41.16500
H  -14.99400 20.26500 39.38100
H  -13.17400 16.02100 39.17200
H  -12.49400 14.48800 41.65600
H  -14.66000 15.51600 41.54200
H  -15.34400 16.40500 40.25200
H  -14.52200 17.24300 41.52900
H  -11.16000 13.64300 39.35600
H  -12.65400 14.07300 38.71400
H  -13.18300 12.47800 41.11400
H  -11.89000 11.74300 40.22200
H  -13.38500 12.08100 39.36000
H  -7.60700 12.30000 41.19700
H  -7.78800 12.71300 42.89700
H  -6.17700 12.61700 42.14800
H  -3.81500 17.05100 40.84800
H  -1.24000 18.85300 43.25400
H  -0.78200 17.62200 44.36400
H  -2.24000 18.50900 44.69000

