158

Mg 30.01800 58.79500 39.11900
C  27.32600 56.86500 38.09800
C  32.04700 56.20500 37.71500
C  32.49500 60.97300 38.96500
C  27.71500 61.56800 39.11100
N  29.75500 56.76700 38.07500
C  28.54400 56.24100 37.78400
C  28.63900 54.85000 36.94600
C  30.13600 54.52300 37.19300
C  30.73300 55.87400 37.71500
C  30.42000 53.39000 38.23100
C  28.22700 55.06100 35.41200
C  27.10300 54.33300 34.69400
H  26.31500 55.17700 33.66000
N  32.00800 58.56600 38.62300
C  32.67500 57.44800 38.10400
C  34.00400 57.76100 37.90100
C  34.20400 59.07600 38.38800
C  32.93000 59.63700 38.68300
C  34.95400 56.82200 37.18600
C  35.50200 59.82000 38.42300
O  36.45200 59.26500 37.85700
C  35.78100 61.17800 39.09700
N  30.09100 61.00100 39.14200
C  31.27700 61.64800 39.15200
C  31.11000 63.16800 39.06800
C  29.53600 63.30000 38.97700
C  29.06800 61.83200 39.08300
C  31.88900 64.01500 40.15300
C  29.03600 64.00200 37.71800
C  28.08700 65.14100 37.89100
N  27.92200 59.18200 38.84500
C  27.13500 60.28100 38.90400
C  25.70700 59.89600 38.90500
C  25.69300 58.59300 38.66000
C  27.09900 58.19100 38.55700
C  24.52400 60.77200 38.89800
C  24.90500 57.35900 38.49600
O  23.69000 57.24900 38.55300
C  25.86800 56.29100 37.97500
C  25.65000 55.11700 38.96900
O  26.21300 55.02200 40.03200
O  24.77500 54.13000 38.46200
C  24.38600 52.97300 39.30200
H  32.63600 55.34400 37.39000
H  33.40600 61.56900 39.05300
H  27.07800 62.44600 39.24200
H  28.00900 54.11200 37.44300
H  30.66400 54.21100 36.29200
H  31.08000 53.75800 39.01700
H  30.81500 52.48600 37.76600
H  29.47400 53.19300 38.73400
H  29.05800 54.73700 34.78600
H  28.03900 56.12700 35.28200
H  26.39800 53.86300 35.37900
H  27.58300 53.50800 34.16800
H  35.41800 57.27000 36.30700
H  34.53400 55.88000 36.83400
H  35.75900 56.50200 37.84700
H  36.83700 61.20200 39.36600
H  35.26900 61.38100 40.03800
H  35.53400 61.99200 38.41600
H  31.48600 63.37800 38.06700
H  29.20000 63.77100 39.90100
H  32.95600 63.79400 40.18100
H  31.29900 63.88000 41.05900
H  31.78600 65.07900 39.94100
H  28.61900 63.28000 37.01500
H  29.87200 64.48800 37.21700
H  28.32800 66.02300 37.29700
H  27.88400 65.29900 38.95000
H  27.14900 64.75500 37.49100
H  24.50900 61.48000 39.72600
H  23.60200 60.22000 39.08100
H  24.62300 61.37500 37.99500
H  25.68300 56.03300 36.93200
H  23.84600 53.18800 40.22400
H  25.11200 52.16300 39.37100
H  23.66100 52.51400 38.63000
Mg 35.81200 49.51300 24.95100
C  35.71000 48.19600 28.28400
C  34.11900 52.16900 26.22100
C  35.52800 50.44600 21.80900
C  36.85800 46.28400 23.85500
N  35.12100 50.14500 27.10200
C  35.30200 49.52300 28.26900
C  34.82000 50.43100 29.52400
C  34.16700 51.59500 28.72800
C  34.43400 51.28300 27.25900
C  32.67500 51.89900 28.92500
C  35.99500 50.76000 30.53200
C  35.98700 50.14200 31.85800
H  35.16200 50.73400 32.92300
N  35.00600 51.13100 24.10000
C  34.37900 52.12300 24.82300
C  33.94400 53.11000 23.85100
C  34.22400 52.60000 22.52700
C  34.95800 51.36700 22.76800
C  33.25200 54.36100 24.23100
C  33.90700 53.22200 21.09100
O  34.28400 52.63700 20.05600
C  33.15100 54.50900 20.94600
N  36.29200 48.54100 23.09200
C  36.14200 49.18200 21.95900
C  36.62100 48.34200 20.82000
C  37.07900 47.03300 21.39300
C  36.75600 47.28600 22.89800
C  35.56100 48.25500 19.64500
C  38.57400 46.57200 21.09200
C  39.59300 47.68200 21.13600
N  36.23700 47.60300 25.86000
C  36.69000 46.39700 25.27200
C  36.94300 45.41400 26.36900
C  36.57500 46.07200 27.54000
C  36.15000 47.37500 27.17800
C  37.51300 44.02800 26.20100
C  36.42200 45.87300 28.94900
O  36.56500 44.86700 29.70400
C  35.87600 47.22800 29.51100
C  34.71400 47.01200 30.29900
O  33.58200 46.96700 29.85500
O  35.05300 46.70300 31.65600
C  33.86300 46.42300 32.48000
H  33.60400 53.11800 26.38500
H  35.30100 50.84500 20.81900
H  37.27500 45.34500 23.48300
H  34.07700 49.86500 30.08600
H  34.75900 52.50200 28.84800
H  32.30800 51.52600 29.88100
H  32.20600 51.40900 28.07100
H  32.47900 52.97100 28.92000
H  35.92200 51.83300 30.70900
H  36.89600 50.48700 29.98300
H  37.02100 50.26700 32.17800
H  35.76900 49.07700 31.78100
H  32.16200 54.33900 24.24200
H  33.52000 55.13800 23.51600
H  33.46200 54.67700 25.25200
H  32.95700 54.90000 19.94700
H  33.80000 55.21600 21.46200
H  32.21800 54.52700 21.50800
H  37.46400 48.91000 20.42700
H  36.41800 46.22100 21.08800
H  34.64500 48.80900 19.85100
H  35.26500 47.23600 19.39300
H  36.07000 48.66500 18.77300
H  38.50000 46.15700 20.08700
H  38.92300 45.73500 21.69600
H  39.28300 48.59200 21.65000
H  40.09900 47.82900 20.18200
H  40.31600 47.14400 21.75000
H  37.76700 43.84100 25.15700
H  36.86100 43.19300 26.45200
H  38.38500 44.02200 26.85500
H  36.58700 47.74700 30.15500
H  33.49400 45.49000 32.05500
H  33.21800 47.30100 32.44400
H  34.23500 46.33700 33.50100

