158

Mg 7.41500 3.47700 27.05700
C  9.16400 2.07500 29.82900
C  5.31200 5.08400 29.20800
C  5.70100 4.61200 24.37200
C  9.00500 1.19800 25.01100
N  7.26900 3.52600 29.23800
C  8.16200 3.00600 30.19000
C  7.80900 3.58400 31.54800
C  6.50100 4.35400 31.31300
C  6.31700 4.31700 29.82600
C  5.17900 3.92700 32.08300
C  9.08200 4.36900 32.10900
C  8.88200 5.13200 33.42900
H  9.70800 4.66400 34.66900
N  5.75500 4.81500 26.85300
C  4.99100 5.36600 27.80200
C  3.92900 6.15800 27.25300
C  4.16100 6.17700 25.82900
C  5.23300 5.13000 25.64800
C  3.09200 7.10700 28.13500
C  3.47800 6.93100 24.80300
O  3.83500 6.76700 23.66500
C  2.38900 7.88500 25.07000
N  7.32200 2.97700 25.02300
C  6.65900 3.72400 24.08000
C  6.94900 3.18900 22.65200
C  8.18000 2.21600 22.84000
C  8.11400 2.06100 24.37700
C  5.75900 2.53800 21.90100
C  9.51900 2.85300 22.30800
C  9.79700 2.28700 20.89700
N  8.86700 1.95400 27.37200
C  9.36500 1.12000 26.45600
C  10.31900 0.23100 27.03000
C  10.32600 0.62800 28.42600
C  9.41000 1.68600 28.53200
C  10.93300 -0.97100 26.43200
C  10.84100 0.37100 29.73600
O  11.67100 -0.48100 30.08900
C  10.13300 1.30600 30.73600
C  9.54000 0.57000 31.95100
O  8.62300 -0.22700 31.92500
O  10.20000 1.00100 33.10900
C  9.81000 0.33600 34.45200
H  4.68100 5.59500 29.93800
H  5.29600 4.99400 23.43300
H  9.49300 0.47800 24.35000
H  7.62000 2.76100 32.23700
H  6.67100 5.39900 31.57100
H  5.44000 3.17500 32.82800
H  4.44500 3.62900 31.33400
H  4.80900 4.80600 32.61000
H  9.37000 5.02800 31.29100
H  9.93400 3.71100 32.27800
H  7.90600 5.08200 33.91100
H  9.17400 6.16600 33.24400
H  3.68200 7.37000 29.01300
H  2.24700 6.49300 28.44800
H  2.76600 7.99600 27.59500
H  2.05700 8.24200 24.09500
H  2.96300 8.68500 25.53600
H  1.56100 7.48900 25.65900
H  7.19700 4.08900 22.09000
H  8.09800 1.21600 22.41600
H  4.88100 2.81600 22.48400
H  5.86400 1.45300 21.88600
H  5.57700 2.98600 20.92400
H  10.31900 2.60800 23.00700
H  9.48700 3.94200 22.27300
H  9.63900 2.91800 20.02200
H  9.12900 1.46000 20.65700
H  10.81100 1.88900 20.85600
H  11.39600 -1.45300 27.29200
H  11.71200 -0.60100 25.76500
H  10.25000 -1.59600 25.85600
H  10.84700 2.05100 31.08700
H  8.97300 -0.35000 34.32200
H  9.48800 1.11600 35.14200
H  10.67800 -0.11800 34.93000
Mg 48.33400 25.07700 30.01200
C  49.27000 27.32100 32.35100
C  46.65900 23.27600 32.69200
C  47.53200 22.46700 27.97200
C  50.22500 26.35200 27.54300
N  47.94900 25.26200 32.23900
C  48.41800 26.33300 32.95900
C  48.09200 26.18500 34.48700
C  47.33100 24.79300 34.53200
C  47.30100 24.41500 33.08600
C  47.98600 23.75600 35.49200
C  47.21600 27.37100 34.92600
C  47.40300 27.77500 36.41400
H  46.20100 27.65500 37.42900
N  47.09000 23.24200 30.28200
C  46.47700 22.71400 31.42500
C  45.83900 21.41900 31.04200
C  45.94500 21.25100 29.63300
C  46.85200 22.36900 29.21200
C  44.91800 20.62200 32.00600
C  45.29400 20.26600 28.65500
O  45.45500 20.28800 27.45800
C  44.36100 19.28000 29.17800
N  48.75700 24.51800 27.95000
C  48.38000 23.40700 27.35400
C  48.85100 23.23800 25.90600
C  49.81300 24.48400 25.86200
C  49.52000 25.21600 27.13000
C  49.53200 21.86000 25.48700
C  49.70100 25.42500 24.60000
C  50.97600 25.45400 23.85600
N  49.59700 26.52300 29.93200
C  50.24900 27.04300 28.81500
C  50.87000 28.28500 29.33400
C  50.54800 28.41000 30.67300
C  49.72400 27.31200 30.98300
C  51.69500 29.23600 28.40700
C  50.75100 29.23600 31.83900
O  51.41000 30.28100 32.05500
C  50.09100 28.43000 33.00400
C  51.13100 28.00000 34.01400
O  51.99800 27.25200 33.79400
O  51.05400 28.68400 35.15900
C  52.09700 28.59500 36.22000
H  46.14100 22.68100 33.44700
H  47.31900 21.59600 27.35000
H  50.92900 26.84300 26.86800
H  49.04600 26.09500 35.00800
H  46.30200 24.86600 34.88500
H  48.50800 22.95000 34.97800
H  47.23200 23.25600 36.09900
H  48.66000 24.32100 36.13700
H  46.21100 26.96100 34.82600
H  47.26800 28.25400 34.29000
H  47.74900 28.80500 36.32200
H  48.26300 27.23400 36.81000
H  43.90900 20.82900 31.64900
H  44.98800 21.06000 33.00100
H  45.02700 19.53800 32.04700
H  43.46000 19.82400 29.46000
H  44.70000 18.74000 30.06200
H  44.11100 18.43900 28.53100
H  48.01300 23.38400 25.22400
H  50.85100 24.17000 25.75900
H  50.58400 22.07300 25.67700
H  49.51300 21.50600 24.45600
H  49.28800 21.05800 26.18300
H  49.40000 26.45900 24.77100
H  48.95200 24.94800 23.96800
H  51.79500 25.89700 24.42200
H  50.73700 26.03800 22.96700
H  51.35400 24.50400 23.47700
H  51.12300 29.95900 27.82600
H  52.24400 28.64500 27.67400
H  52.36500 29.78100 29.07100
H  49.47100 29.14900 33.54000
H  51.68300 28.02900 37.05400
H  52.34200 29.60300 36.55300
H  53.05000 28.17600 35.89500

