158

Mg 2.01400 8.46800 27.25800
C  2.50400 10.55500 30.19300
C  1.92100 5.83900 29.62300
C  1.90800 6.37400 24.78400
C  2.64300 11.12600 25.26200
N  2.03400 8.23200 29.68700
C  2.13500 9.29400 30.60100
C  1.84800 8.80500 32.03200
C  1.76300 7.20000 31.83900
C  1.88600 7.06400 30.34300
C  2.92700 6.45700 32.62500
C  0.49900 9.39000 32.62600
C  0.27700 9.00500 34.05900
H  1.38800 8.48800 35.00600
N  1.93400 6.47500 27.18500
C  1.90400 5.55900 28.23200
C  1.71500 4.23300 27.75300
C  1.63900 4.34200 26.29400
C  1.89800 5.75200 26.02100
C  1.47600 2.99900 28.57500
C  1.44000 3.30100 25.20000
O  1.31000 3.58800 24.01700
C  1.21800 1.84700 25.56100
N  2.42200 8.67900 25.36000
C  2.20300 7.69300 24.47900
C  2.06900 8.24000 23.08500
C  1.96400 9.79300 23.24100
C  2.37200 9.85500 24.72200
C  3.37200 7.88300 22.27600
C  0.64600 10.46300 22.82600
C  0.81800 11.56900 21.78200
N  2.47500 10.45300 27.60300
C  2.77900 11.40100 26.62600
C  3.01900 12.63900 27.35100
C  3.13600 12.30600 28.69600
C  2.70400 10.94300 28.83900
C  3.12400 13.96200 26.76400
C  3.38200 12.94200 29.96200
O  3.55400 14.13400 30.30700
C  2.85900 11.75600 31.00700
C  3.97700 11.40700 31.97700
O  5.05300 10.84500 31.75600
O  3.58700 11.91300 33.18400
C  4.56000 11.66200 34.28200
H  1.63600 5.07300 30.34800
H  2.03800 5.81200 23.85700
H  2.64400 11.91000 24.50300
H  2.69400 9.09500 32.65500
H  0.82200 6.75000 32.15500
H  2.65500 5.75300 33.41100
H  3.60900 7.13500 33.13800
H  3.59800 5.96700 31.91900
H  -0.26200 9.00800 31.94600
H  0.24700 10.44700 32.54500
H  -0.54800 8.29600 34.12600
H  -0.13200 9.86800 34.58500
H  0.39500 2.86000 28.58500
H  1.75200 3.00600 29.62900
H  1.92100 2.09000 28.17000
H  0.78300 1.37500 24.67900
H  0.67500 1.70900 26.49600
H  2.19500 1.37700 25.66900
H  1.12200 7.87600 22.68700
H  2.74300 10.32300 22.69400
H  3.98600 8.78100 22.21200
H  3.05900 7.55800 21.28400
H  3.97300 7.12800 22.78200
H  0.10400 10.77500 23.71900
H  0.05800 9.70200 22.31300
H  1.71900 11.35900 21.20500
H  0.78800 12.56900 22.21600
H  0.00100 11.54300 21.06000
H  2.10100 14.25200 26.52300
H  3.62200 13.82200 25.80500
H  3.63900 14.66000 27.42400
H  1.94000 12.16700 31.42600
H  4.39400 12.26500 35.17500
H  5.56700 11.98400 34.01500
H  4.59700 10.57800 34.39600
Mg 9.18200 3.97100 28.18600
C  10.38200 2.14700 31.00000
C  7.37400 5.94800 30.32900
C  8.02900 5.49800 25.48100
C  10.61500 1.44200 26.18200
N  8.77500 3.85600 30.35900
C  9.54400 3.20300 31.29400
C  9.39700 3.82700 32.72300
C  8.34700 4.97000 32.56100
C  8.13900 4.98400 30.95500
C  6.97500 4.73600 33.27500
C  10.76800 4.11800 33.38500
C  11.11200 3.37300 34.69900
H  11.58200 4.28200 35.90100
N  7.89400 5.54700 27.97500
C  7.27700 6.25400 28.95000
C  6.49900 7.32000 28.32800
C  6.84200 7.32200 26.89500
C  7.60800 6.10900 26.69100
C  5.57300 8.22300 29.08800
C  6.44900 8.28600 25.81500
O  6.64300 8.03100 24.63700
C  5.76800 9.54000 26.28200
N  9.23700 3.45000 26.20900
C  8.71800 4.29800 25.23300
C  9.02400 3.85700 23.81500
C  9.92500 2.58500 23.99500
C  9.91700 2.46100 25.56400
C  7.88400 3.69400 22.84900
C  11.31500 2.55400 23.31100
C  11.52500 1.42700 22.18100
N  10.23600 2.07500 28.48400
C  10.79700 1.22800 27.55100
C  11.50800 0.17100 28.18200
C  11.36100 0.53300 29.55500
C  10.61800 1.64500 29.65400
C  12.14400 -0.96200 27.59200
C  11.69300 0.09400 30.93600
O  12.28400 -0.95300 31.34200
C  11.11500 1.18900 31.89600
C  10.15900 0.55100 32.92100
O  8.96100 0.35200 32.74000
O  10.75600 0.29300 34.04900
C  9.98600 -0.37300 35.09900
H  6.89300 6.70400 30.95400
H  7.93200 6.07000 24.55500
H  11.08800 0.71200 25.52200
H  8.86600 3.00600 33.20400
H  8.76000 5.93700 32.85100
H  6.79700 5.58000 33.94200
H  7.10400 3.81300 33.84000
H  6.17300 4.77100 32.53800
H  10.94900 5.17300 33.59000
H  11.52200 3.94800 32.61600
H  11.90900 2.66300 34.47700
H  10.23200 2.84800 35.07200
H  5.45100 7.82500 30.09600
H  4.55000 8.18000 28.71400
H  5.96600 9.23200 29.21000
H  5.00500 9.41400 27.05000
H  5.50200 10.06500 25.36500
H  6.64800 10.01000 26.72200
H  9.62300 4.67200 23.40900
H  9.37900 1.71000 23.64300
H  8.05100 4.32000 21.97300
H  7.02200 4.16600 23.32100
H  7.70100 2.65400 22.58000
H  12.11700 2.52500 24.04900
H  11.52400 3.48600 22.78600
H  11.54300 1.77100 21.14700
H  10.76000 0.65000 22.17200
H  12.44900 0.86700 22.32400
H  11.93000 -1.05100 26.52700
H  11.76300 -1.86000 28.07700
H  13.22400 -0.91500 27.73800
H  11.99600 1.55400 32.42200
H  10.65000 -0.87300 35.80300
H  9.26600 -1.12000 34.76400
H  9.52600 0.41600 35.69400

