158

Mg 24.36500 -5.56100 46.30500
C  26.45700 -3.35900 44.61400
C  21.85600 -4.56600 44.16000
C  22.57100 -8.17900 47.29500
C  27.12700 -6.71100 47.98600
N  24.20900 -4.18500 44.49800
C  25.18500 -3.36200 44.06600
C  24.60400 -2.34900 43.00400
C  23.00800 -2.68500 42.94400
C  23.00800 -3.90400 43.94800
C  22.08800 -1.44400 43.47200
C  25.29300 -2.50500 41.64400
C  26.08100 -1.32700 41.17900
H  25.75900 -0.87500 39.73600
N  22.50000 -6.29900 45.78700
C  21.63600 -5.71800 44.86000
C  20.39400 -6.40100 44.85100
C  20.57600 -7.46800 45.79500
C  21.91100 -7.37300 46.36300
C  19.16900 -6.06000 43.96000
C  19.49200 -8.50200 46.07400
O  18.38200 -8.29200 45.66200
C  19.81600 -9.75900 46.81800
N  24.79700 -7.26900 47.41600
C  23.85200 -8.13200 47.77300
C  24.37200 -9.28300 48.59000
C  25.80100 -8.76700 48.95800
C  25.96500 -7.50000 48.06200
C  23.65200 -9.58900 49.97500
C  27.01200 -9.81200 48.80300
C  27.58800 -10.30200 50.17900
N  26.37700 -5.05500 46.53400
C  27.38400 -5.62900 47.22400
C  28.57200 -4.86000 47.05100
C  28.20000 -3.96600 46.03800
C  26.91200 -4.18000 45.65300
C  29.94800 -5.18300 47.55000
C  28.78100 -2.97300 45.15200
O  29.94200 -2.58100 45.15500
C  27.68600 -2.46400 44.18100
C  27.51800 -1.02800 44.48800
O  26.91400 -0.59600 45.46500
O  28.14300 -0.22100 43.57600
C  28.30500 1.23600 43.72900
H  21.11600 -4.19900 43.44600
H  22.02400 -9.02300 47.72100
H  27.99200 -7.14200 48.49200
H  24.73600 -1.32200 43.34300
H  22.57000 -2.85800 41.96100
H  21.78900 -0.93600 42.55500
H  22.63900 -0.68200 44.02400
H  21.26800 -1.66300 44.15500
H  24.53100 -2.93100 40.99100
H  25.97400 -3.35600 41.66900
H  27.15800 -1.49200 41.16800
H  26.05800 -0.46900 41.85200
H  18.47300 -6.89200 43.84800
H  19.49800 -5.78300 42.95800
H  18.72900 -5.14200 44.34800
H  18.99200 -10.34300 46.40900
H  19.90000 -9.55300 47.88500
H  20.76000 -10.17200 46.46300
H  24.26000 -10.22300 48.05000
H  25.73200 -8.28000 49.93000
H  23.25100 -8.62300 50.28200
H  24.34600 -9.84700 50.77500
H  22.90700 -10.38300 50.02700
H  27.81400 -9.32200 48.25100
H  26.66200 -10.61300 48.15200
H  28.33200 -11.02900 49.85500
H  26.80600 -10.65400 50.85300
H  27.96100 -9.30100 50.39600
H  30.27200 -6.10700 47.07100
H  29.87800 -5.29300 48.63300
H  30.65100 -4.45400 47.14900
H  28.15200 -2.55300 43.20000
H  28.78200 1.33300 44.70500
H  27.34100 1.73100 43.61300
H  28.98000 1.56400 42.93900
Mg 44.14100 42.69100 25.71400
C  43.35500 45.11000 28.24000
C  45.12600 40.60900 28.26300
C  45.17000 40.71900 23.37200
C  43.29900 45.17300 23.25400
N  44.27300 42.89700 27.99200
C  43.70000 43.85200 28.78100
C  43.73300 43.54300 30.32700
C  44.45500 42.14300 30.33100
C  44.59100 41.84200 28.75800
C  45.78400 42.05400 31.16600
C  42.38400 43.47700 30.98600
C  42.24000 42.86700 32.40700
H  42.15400 43.74900 33.64000
N  45.09600 40.92600 25.78400
C  45.34800 40.16100 26.90400
C  45.86300 38.87500 26.55900
C  45.79100 38.85000 25.10700
C  45.34200 40.16800 24.67600
C  46.13900 37.81100 27.57500
C  46.08800 37.70300 24.13100
O  46.00500 37.76800 22.88600
C  46.67100 36.50500 24.70200
N  44.41100 42.98200 23.64300
C  44.79900 41.94500 22.87800
C  44.61100 42.20400 21.36900
C  43.80900 43.56100 21.39400
C  43.80000 43.92800 22.83200
C  45.85100 42.16400 20.54000
C  42.40000 43.44800 20.80300
C  41.24300 42.78800 21.55500
N  43.50800 44.75500 25.70200
C  43.16800 45.55200 24.63200
C  42.76200 46.81200 25.17300
C  42.81100 46.66500 26.57600
C  43.29400 45.42000 26.86400
C  42.60200 48.08600 24.44600
C  42.58000 47.32800 27.84400
O  42.08200 48.38700 28.09000
C  43.02500 46.36100 28.98000
C  44.19100 47.12000 29.59900
O  45.17500 47.50500 28.99000
O  43.89800 47.24900 30.96300
C  44.65200 48.29700 31.79000
H  45.44200 40.06000 29.15200
H  45.38300 40.07300 22.51700
H  43.10700 45.98300 22.54700
H  44.38100 44.28300 30.79600
H  43.77200 41.36300 30.66800
H  46.67800 41.91700 30.55700
H  45.66300 41.29900 31.94200
H  45.89600 43.00800 31.68100
H  41.68100 42.98700 30.31300
H  42.01300 44.48800 31.15100
H  43.12800 42.29500 32.67900
H  41.32200 42.28000 32.40100
H  45.67900 36.83600 27.41800
H  45.86800 38.16700 28.56900
H  47.21500 37.63400 27.57100
H  45.96500 36.08400 25.41700
H  47.64200 36.68400 25.16500
H  46.91000 35.78300 23.92100
H  44.06800 41.34900 20.96800
H  44.29800 44.39000 20.88200
H  45.48500 42.46600 19.55900
H  46.23700 41.14700 20.47100
H  46.55400 42.98600 20.67700
H  42.57200 43.02100 19.81500
H  42.02600 44.46800 20.72300
H  40.31400 43.31900 21.34900
H  41.40300 42.55900 22.60800
H  41.19200 41.76300 21.18700
H  43.01200 48.22600 23.44600
H  43.10100 48.85600 25.03500
H  41.53900 48.32000 24.39700
H  42.30200 46.20200 29.77900
H  45.65400 47.97000 32.06600
H  44.11800 48.64500 32.67400
H  44.85000 49.21400 31.23500

