158

Mg 40.75900 40.14600 27.45100
C  40.16900 42.66300 29.84500
C  41.93900 38.10500 30.01700
C  41.39000 37.85000 25.08800
C  40.04200 42.55400 24.92400
N  41.01200 40.39200 29.71300
C  40.61300 41.47100 30.45600
C  40.65100 41.14800 31.98100
C  41.35000 39.70700 31.94800
C  41.44500 39.36000 30.44400
C  42.68600 39.72100 32.70900
C  39.23800 41.23300 32.74000
C  39.23100 42.07700 33.97700
H  38.67100 41.40200 35.26200
N  41.51400 38.21300 27.61800
C  41.96800 37.56000 28.71400
C  42.40400 36.21500 28.31400
C  42.27700 36.08700 26.95000
C  41.69900 37.39300 26.46700
C  42.96800 35.25000 29.30200
C  42.78800 35.05000 26.01200
O  42.76200 35.18700 24.81300
C  43.46600 33.78000 26.52300
N  40.93000 40.32600 25.31400
C  41.06100 39.17000 24.54500
C  40.73400 39.39700 23.02200
C  39.98500 40.80400 23.07700
C  40.27100 41.26000 24.53500
C  41.90000 39.36400 22.12800
C  38.51100 40.64500 22.70400
C  37.69700 39.81100 23.65400
N  40.22500 42.19400 27.36000
C  40.00200 43.06400 26.27100
C  39.52500 44.29300 26.75300
C  39.66400 44.24900 28.14400
C  40.10000 42.93600 28.47400
C  39.04400 45.45700 25.93200
C  39.54200 44.98900 29.30300
O  39.24000 46.21600 29.32600
C  39.78200 43.92700 30.54900
C  40.86100 44.44900 31.38000
O  41.94300 44.69000 30.89700
O  40.43500 44.76800 32.69100
C  41.28800 45.61700 33.49400
H  42.22400 37.59500 30.93900
H  41.36300 37.09000 24.30400
H  39.65500 43.18800 24.12300
H  41.34600 41.88600 32.38200
H  40.76300 38.85600 32.29400
H  42.87700 38.67500 32.95000
H  42.43600 40.23600 33.63700
H  43.49700 40.27100 32.23200
H  39.06400 40.18700 32.99400
H  38.42800 41.52400 32.07100
H  38.49300 42.86300 33.81700
H  40.18800 42.55500 34.18500
H  44.02800 35.03000 29.17600
H  42.42700 34.31300 29.16900
H  42.82300 35.52000 30.34800
H  44.46500 34.08900 26.83100
H  43.65800 33.08700 25.70400
H  42.86900 33.31000 27.30400
H  39.97500 38.67600 22.71800
H  40.55700 41.44900 22.40900
H  42.66400 38.70100 22.53500
H  42.21500 40.32600 21.72500
H  41.55000 38.84700 21.23400
H  38.52700 40.23900 21.69200
H  38.17700 41.68200 22.72500
H  38.20300 39.37300 24.51500
H  37.29000 39.04900 22.99000
H  36.77600 40.25800 24.02700
H  38.84500 45.11700 24.91600
H  39.92000 46.08600 25.77200
H  38.24400 45.94900 26.48600
H  38.87200 43.79200 31.13300
H  41.50600 45.03800 34.39100
H  40.71700 46.48400 33.82700
H  42.16800 45.82700 32.88600
Mg -9.26200 18.21000 41.05900
C  -5.83400 17.64000 41.41100
C  -8.56300 21.46900 40.26800
C  -12.45900 18.56900 40.29800
C  -9.76900 14.72400 41.42800
N  -7.41300 19.24800 40.74200
C  -6.12400 18.89100 40.85900
C  -5.20100 19.98600 40.36000
C  -6.05200 21.27200 40.81400
C  -7.46300 20.64600 40.61000
C  -5.82800 21.74300 42.31000
C  -4.93100 19.85900 38.87800
C  -3.46900 19.42400 38.46000
H  -3.31600 17.96300 38.08900
N  -10.45800 19.85400 40.42500
C  -9.97100 21.08800 40.16000
C  -11.08900 21.93700 39.82400
C  -12.25900 21.18400 40.11200
C  -11.77300 19.82100 40.28200
C  -10.93900 23.32900 39.21400
C  -13.67800 21.73900 40.09900
O  -13.87200 22.91400 39.87000
C  -14.80400 20.83000 40.29400
N  -10.83600 16.86400 40.83000
C  -12.10300 17.28300 40.48900
C  -13.09000 16.15400 40.25100
C  -12.21500 14.92300 40.69600
C  -10.86000 15.53900 41.07900
C  -14.45900 16.36300 40.88700
C  -12.18600 13.83400 39.66900
C  -12.71100 12.45300 40.13200
N  -8.06600 16.50500 41.40900
C  -8.42100 15.15500 41.49900
C  -7.23300 14.35500 41.70700
C  -6.23500 15.33600 41.72700
C  -6.77100 16.60400 41.52200
C  -7.21100 12.92600 41.99700
C  -4.76100 15.48400 41.94600
O  -3.93000 14.67400 42.30800
C  -4.48700 17.02800 41.70600
C  -3.74400 17.61600 42.89800
O  -4.21200 18.56800 43.53000
O  -2.43000 17.32400 42.92700
C  -1.65400 18.06700 43.88500
H  -8.27000 22.50500 40.09100
H  -13.47900 18.83300 40.00800
H  -9.91600 13.65900 41.61800
H  -4.24100 20.11500 40.85900
H  -5.75200 22.10100 40.17400
H  -5.09300 21.22000 42.92200
H  -6.79400 21.78300 42.81500
H  -5.50300 22.77800 42.41000
H  -5.30900 20.79000 38.45700
H  -5.58800 19.05500 38.54600
H  -2.78500 19.72300 39.25500
H  -3.17000 20.10900 37.66700
H  -11.35700 23.39900 38.21000
H  -9.90700 23.65700 39.09300
H  -11.47600 23.95800 39.92500
H  -15.61900 21.49900 40.57100
H  -14.46600 20.27000 41.16500
H  -14.99400 20.26500 39.38100
H  -13.17400 16.02100 39.17200
H  -12.49400 14.48800 41.65600
H  -14.66000 15.51600 41.54200
H  -15.34400 16.40500 40.25200
H  -14.52200 17.24300 41.52900
H  -11.16000 13.64300 39.35600
H  -12.65400 14.07300 38.71400
H  -13.18300 12.47800 41.11400
H  -11.89000 11.74300 40.22200
H  -13.38500 12.08100 39.36000
H  -7.60700 12.30000 41.19700
H  -7.78800 12.71300 42.89700
H  -6.17700 12.61700 42.14800
H  -3.81500 17.05100 40.84800
H  -1.24000 18.85300 43.25400
H  -0.78200 17.62200 44.36400
H  -2.24000 18.50900 44.69000

