158

Mg -1.71300 17.90200 27.42400
C  -1.94900 15.50900 29.92800
C  -2.20300 20.32100 29.78600
C  -1.41700 20.11900 25.01600
C  -1.11100 15.20900 25.02900
N  -1.93000 17.86700 29.67100
C  -1.98400 16.78600 30.47300
C  -1.87400 17.24300 31.98700
C  -2.30400 18.79400 31.87900
C  -2.12200 19.05000 30.33600
C  -3.76100 19.14300 32.37600
C  -0.46400 16.93000 32.56100
C  0.02700 17.75100 33.81200
H  0.06400 17.13600 35.16400
N  -1.86500 19.96300 27.36300
C  -2.03500 20.81100 28.40100
C  -2.15100 22.19400 27.96400
C  -2.04800 22.06100 26.55900
C  -1.72700 20.68500 26.23600
C  -2.20800 23.40800 28.90300
C  -2.17600 23.20500 25.59400
O  -1.84000 23.10000 24.43300
C  -2.72500 24.56000 26.03500
N  -1.50700 17.61700 25.31500
C  -1.27600 18.77900 24.58900
C  -1.00400 18.47300 23.11200
C  -0.68900 16.98100 23.14000
C  -1.14000 16.54600 24.59400
C  -2.28400 18.85700 22.26800
C  0.71900 16.61000 22.73200
C  1.83500 17.40600 23.37800
N  -1.60400 15.79100 27.41100
C  -1.40000 14.86300 26.40400
C  -1.53800 13.55800 26.94800
C  -1.78600 13.77200 28.36300
C  -1.79100 15.14200 28.53400
C  -1.31700 12.19600 26.17400
C  -2.05400 13.07900 29.56900
O  -2.11300 11.89900 29.88800
C  -2.21000 14.17200 30.62500
C  -1.22400 13.75900 31.62200
O  -0.00400 13.97700 31.61700
O  -1.95600 13.16800 32.64900
C  -1.24500 12.79200 33.83300
H  -2.42200 21.14900 30.46400
H  -1.34400 20.85200 24.21000
H  -0.95300 14.39700 24.31600
H  -2.67300 16.69900 32.49000
H  -1.70400 19.54500 32.39300
H  -4.33000 19.81900 31.73900
H  -3.73800 19.64700 33.34200
H  -4.36200 18.23900 32.47300
H  0.38800 16.97600 31.88300
H  -0.50900 15.93000 32.99300
H  -0.68000 18.56500 33.97300
H  1.03500 18.08800 33.56800
H  -1.82600 23.13200 29.88600
H  -3.21500 23.82200 28.96000
H  -1.49200 24.16300 28.58000
H  -2.78600 25.23000 25.17800
H  -2.11400 25.06200 26.78500
H  -3.68900 24.40700 26.52100
H  -0.22900 19.17700 22.80700
H  -1.25600 16.44600 22.37800
H  -2.71200 18.04400 21.68200
H  -2.01100 19.70700 21.64200
H  -3.07000 19.18500 22.94800
H  0.65200 16.73800 21.65100
H  0.82700 15.53200 22.84900
H  2.50600 16.70000 23.86600
H  1.54700 18.20800 24.05700
H  2.40700 17.83400 22.55400
H  -0.98600 11.36000 26.79100
H  -0.85200 12.27700 25.19100
H  -2.34000 11.93900 25.90100
H  -3.23600 14.06400 30.97800
H  -0.59000 11.98200 33.51200
H  -1.91700 12.30800 34.54200
H  -0.56600 13.55800 34.20800
Mg 24.80600 -5.23500 46.18800
C  26.71600 -2.81800 44.74500
C  22.20000 -4.44300 44.08200
C  23.24500 -8.13900 47.03600
C  27.75800 -6.38400 47.97900
N  24.55800 -3.85900 44.56700
C  25.43800 -2.92800 44.16400
C  24.82400 -1.96000 43.12700
C  23.33100 -2.44800 43.03500
C  23.35000 -3.67800 43.91500
C  22.24100 -1.31900 43.24500
C  25.75000 -2.27600 41.84200
C  25.89000 -1.13700 40.85000
H  25.35900 -1.30600 39.44700
N  22.83900 -6.08900 45.84000
C  21.90300 -5.50700 44.95400
C  20.73200 -6.22800 45.04700
C  21.04700 -7.46600 45.76900
C  22.42000 -7.29600 46.22700
C  19.34400 -5.84300 44.45100
C  20.06500 -8.62100 45.96200
O  18.97100 -8.73900 45.40200
C  20.53200 -9.76700 46.76600
N  25.41000 -7.06000 47.23700
C  24.56600 -8.06300 47.59400
C  25.21300 -9.10800 48.51100
C  26.67100 -8.56600 48.81400
C  26.61300 -7.21300 47.96800
C  24.47500 -9.53400 49.75900
C  27.74800 -9.64400 48.38400
C  29.00900 -9.89700 49.27100
N  26.80600 -4.70400 46.37800
C  27.81300 -5.18400 47.18200
C  29.00500 -4.39200 47.02300
C  28.63800 -3.46100 46.04600
C  27.25800 -3.72000 45.71600
C  30.33500 -4.42300 47.80400
C  29.05700 -2.23100 45.32800
O  30.12300 -1.65300 45.31700
C  27.89700 -1.79100 44.37100
C  27.65500 -0.38300 44.50700
O  27.27000 0.16600 45.54000
O  27.88900 0.15700 43.30600
C  27.95000 1.67500 43.29600
H  21.46200 -4.07400 43.36700
H  22.86500 -9.15900 47.11500
H  28.55700 -6.67700 48.66200
H  25.01300 -0.94500 43.47500
H  23.26700 -2.79700 42.00500
H  22.81500 -0.50700 43.69000
H  21.50000 -1.68400 43.95600
H  21.81800 -1.06200 42.27400
H  25.14400 -3.01900 41.32300
H  26.67000 -2.77800 42.14100
H  26.93100 -0.88200 40.65200
H  25.43900 -0.25700 41.30900
H  19.37500 -5.14200 43.61700
H  18.77900 -5.28200 45.19500
H  18.66800 -6.63600 44.13100
H  19.76500 -10.54200 46.78000
H  20.80100 -9.57100 47.80400
H  21.32800 -10.33500 46.28500
H  25.27300 -9.98200 47.86300
H  26.70100 -8.29500 49.87000
H  23.43500 -9.22500 49.64500
H  24.93200 -9.10100 50.64800
H  24.48800 -10.61900 49.86200
H  28.01800 -9.42100 47.35200
H  27.35500 -10.66100 48.38400
H  29.05800 -10.89300 49.71000
H  28.96700 -9.20600 50.11300
H  29.91300 -9.62000 48.72900
H  30.98600 -5.16400 47.33900
H  30.16100 -4.82000 48.80400
H  30.71600 -3.40500 47.72700
H  28.32200 -2.04600 43.40000
H  27.58700 2.11700 44.22300
H  27.28700 2.01000 42.49900
H  28.95800 2.04200 43.10100

