158

Mg 24.67100 1.84700 29.45600
C  26.95900 1.61900 32.16100
C  22.10600 1.88400 31.69700
C  22.65000 2.00200 26.85800
C  27.38800 1.31400 27.32800
N  24.58900 1.74200 31.68100
C  25.63700 1.89300 32.56800
C  25.12200 2.11500 34.00600
C  23.57200 1.94300 33.89200
C  23.39500 1.89000 32.35300
C  22.81200 0.78200 34.73500
C  25.59500 3.36400 34.80100
C  24.97400 3.63800 36.20100
H  25.90300 3.40600 37.35700
N  22.69200 1.96000 29.34100
C  21.75600 1.90800 30.35100
C  20.41600 1.82300 29.77600
C  20.58100 1.80300 28.35000
C  22.03200 1.98000 28.12400
C  19.18600 1.80500 30.60600
C  19.48100 1.54300 27.30800
O  19.74900 1.57100 26.07600
C  18.00200 1.17700 27.78300
N  25.01300 1.80400 27.43900
C  23.99700 1.98000 26.49900
C  24.49100 1.87300 24.99900
C  26.10200 1.88900 25.24600
C  26.20100 1.59900 26.73500
C  23.98800 0.73000 24.22500
C  26.91000 3.16800 24.75900
C  26.68300 4.43500 25.53400
N  26.80300 1.53900 29.65700
C  27.71400 1.24700 28.67300
C  29.04500 1.04900 29.29500
C  28.78900 1.20600 30.73100
C  27.36600 1.43100 30.82800
C  30.37300 0.66900 28.62900
C  29.39900 1.20500 32.04200
O  30.57600 0.98500 32.30300
C  28.25300 1.57500 33.02000
C  28.19000 0.60200 34.11000
O  27.50400 -0.38600 34.20900
O  29.01600 0.95300 35.10800
C  29.19400 -0.02800 36.20400
H  21.31100 1.87300 32.44700
H  21.94900 1.98700 26.02100
H  28.18900 1.02300 26.64600
H  25.44600 1.22300 34.54300
H  23.04300 2.82500 34.25400
H  21.93900 0.96800 35.36100
H  23.57700 0.23600 35.28600
H  22.43800 0.14500 33.93400
H  25.33000 4.20000 34.15400
H  26.67900 3.24800 34.79200
H  24.09300 3.02000 36.37300
H  24.61100 4.66500 36.14700
H  18.83200 2.82900 30.48800
H  19.37100 1.79200 31.68000
H  18.51200 0.98800 30.34500
H  17.51700 1.92200 28.41300
H  18.14900 0.18200 28.20400
H  17.53700 0.83900 26.85600
H  24.21900 2.75400 24.41700
H  26.62300 1.11500 24.68400
H  23.00300 0.38900 24.54400
H  24.62100 -0.15700 24.27100
H  23.83500 0.92100 23.16300
H  26.47100 3.42700 23.79500
H  27.90900 2.88900 24.42600
H  26.37800 4.40700 26.58000
H  25.98900 5.08300 24.99700
H  27.67000 4.89600 25.54500
H  30.55100 1.33300 27.78400
H  30.44000 -0.33200 28.20400
H  31.12900 0.90600 29.37800
H  28.53200 2.54800 33.42600
H  28.49800 0.15300 37.02400
H  30.14600 0.09900 36.71900
H  29.15800 -1.03200 35.78000
Mg 49.03600 35.16200 27.11700
C  47.17000 33.66300 29.73300
C  49.34500 37.94300 29.06700
C  50.60700 36.56700 24.47600
C  48.54500 32.28800 25.27800
N  48.58700 35.64500 29.35700
C  47.79000 34.86900 30.16500
C  47.91300 35.50900 31.58000
C  48.30500 36.99400 31.25100
C  48.73000 36.91200 29.80200
C  47.09400 38.08600 31.35600
C  48.95000 34.70100 32.34700
C  49.02100 34.97200 33.92800
H  48.08400 35.97100 34.69900
N  49.89300 36.97600 26.82000
C  49.92900 37.94800 27.76300
C  50.79100 39.02500 27.18600
C  51.10100 38.74500 25.86600
C  50.58500 37.34600 25.65900
C  51.03700 40.23900 28.03200
C  51.88100 39.61100 24.79500
O  52.21300 39.14100 23.72700
C  52.16600 41.08600 24.95400
N  49.29900 34.63300 25.05800
C  50.09500 35.31000 24.20900
C  50.64900 34.46100 23.01900
C  49.90500 33.08200 23.25700
C  49.31200 33.28300 24.68800
C  50.41800 35.07500 21.60000
C  50.80400 31.80000 23.14200
C  50.58400 30.85900 22.01300
N  48.08700 33.32200 27.43400
C  48.03600 32.29400 26.58900
C  47.27600 31.23500 27.24200
C  46.86000 31.70700 28.53100
C  47.38500 32.97500 28.53000
C  46.98700 29.83300 26.63700
C  46.12000 31.49300 29.78400
O  45.49300 30.47500 30.02600
C  46.20200 32.74200 30.64200
C  46.44100 32.38500 32.06300
O  47.36400 31.80400 32.55300
O  45.30900 32.56000 32.72300
C  45.33100 32.61100 34.16400
H  49.31800 38.91400 29.56700
H  51.19200 37.00700 23.66600
H  48.45000 31.42500 24.61400
H  46.90300 35.48600 31.99100
H  49.18300 37.26700 31.83700
H  46.65500 38.24000 30.37000
H  47.54000 39.06700 31.51700
H  46.33900 37.74600 32.06500
H  49.95600 35.02000 32.07300
H  48.84300 33.64000 32.12400
H  50.04600 35.32100 34.05800
H  49.08500 33.96600 34.34100
H  51.76800 40.10900 28.83000
H  50.29400 40.51500 28.78000
H  51.12100 41.17600 27.48100
H  52.77900 41.31100 25.82700
H  51.24500 41.66700 24.99700
H  52.72400 41.47300 24.10000
H  51.73500 34.42200 23.10200
H  49.09100 32.92500 22.55000
H  51.37800 35.06400 21.08400
H  49.92500 36.04300 21.50900
H  49.74000 34.39700 21.08100
H  50.68300 31.17400 24.02600
H  51.82300 32.18700 23.12400
H  50.29900 29.89100 22.42600
H  51.54000 30.61100 21.55200
H  49.85200 31.21300 21.28700
H  46.13700 29.93200 25.96200
H  46.76700 29.11900 27.43100
H  47.88800 29.42700 26.17800
H  45.26000 33.28200 30.74300
H  46.21900 33.09000 34.57600
H  45.36200 31.64300 34.66400
H  44.46800 33.19400 34.48500

