158

Mg -1.98400 17.72400 27.74600
C  -3.04300 15.74500 30.39200
C  -3.04300 20.49700 29.44900
C  -1.81100 19.46400 24.81800
C  -1.82400 14.75600 25.76700
N  -2.79800 18.13200 29.69300
C  -3.18000 17.11700 30.65000
C  -3.66200 17.88400 31.90900
C  -3.76000 19.42300 31.56400
C  -3.16700 19.35600 30.19900
C  -5.14600 19.94300 31.76200
C  -2.71300 17.71100 33.11400
C  -3.34800 17.65300 34.50500
H  -2.44400 17.29900 35.63700
N  -2.11400 19.72400 27.32500
C  -2.56200 20.70400 28.16100
C  -2.53700 21.96200 27.47400
C  -2.02300 21.72300 26.17000
C  -1.98900 20.23300 26.04600
C  -2.91300 23.33100 28.16600
C  -1.61600 22.63900 24.99800
O  -1.17100 22.21200 23.91900
C  -1.74800 24.08000 25.14000
N  -1.84800 17.15800 25.63900
C  -1.68500 18.10500 24.64300
C  -1.48100 17.46300 23.21500
C  -1.36700 15.97900 23.61600
C  -1.63900 15.98700 25.14100
C  -2.62100 17.76200 22.23700
C  -0.09300 15.25800 23.23500
C  1.15100 15.77400 23.94100
N  -2.24400 15.58800 28.01800
C  -2.09900 14.52700 27.13000
C  -2.32200 13.30500 27.79600
C  -2.66800 13.73400 29.08800
C  -2.50900 15.11800 29.22400
C  -2.30100 12.01800 27.18600
C  -3.07300 13.21300 30.40600
O  -3.23800 12.10500 30.84600
C  -3.31600 14.52500 31.26700
C  -2.55900 14.35100 32.54300
O  -1.35900 14.57100 32.77600
O  -3.51600 14.02100 33.50600
C  -3.00800 13.84400 34.88600
H  -3.47000 21.39600 29.89800
H  -1.78200 20.04200 23.89200
H  -1.79700 13.95500 25.02600
H  -4.59300 17.44300 32.26400
H  -3.19600 20.08600 32.22100
H  -5.52900 20.00100 30.74300
H  -5.07200 20.92900 32.22000
H  -5.81400 19.36100 32.39700
H  -2.01800 18.54900 33.16700
H  -2.00800 16.90900 32.90000
H  -4.05000 16.82000 34.53200
H  -3.82300 18.60100 34.75800
H  -2.25700 24.13800 27.83700
H  -2.76400 23.19400 29.23700
H  -3.91500 23.58700 27.82000
H  -2.78600 24.36300 25.31300
H  -1.45300 24.54800 24.20000
H  -1.14600 24.54100 25.92300
H  -0.54800 17.77600 22.74600
H  -2.15700 15.42600 23.10700
H  -2.97500 18.71300 22.63500
H  -3.47300 17.08200 22.19900
H  -2.24000 17.92600 21.22900
H  0.23400 15.30900 22.19700
H  -0.28800 14.20200 23.42300
H  1.05300 16.76200 24.39200
H  1.95800 15.94700 23.22900
H  1.41500 14.97600 24.63500
H  -1.94700 12.16000 26.16500
H  -3.36000 11.78000 27.28500
H  -1.67100 11.39600 27.82300
H  -4.38100 14.47500 31.49400
H  -2.31300 14.67500 35.00800
H  -2.57400 12.85700 35.04200
H  -3.77100 14.04000 35.64000
Mg 45.19600 5.23500 46.86200
C  42.81400 7.75600 46.16000
C  42.75000 2.90100 46.48400
C  47.60200 2.74200 47.19300
C  47.68400 7.55100 46.84000
N  42.96200 5.30400 46.22300
C  42.23500 6.47500 46.09900
C  40.72400 6.16600 46.06800
C  40.77300 4.56100 46.18000
C  42.21500 4.18100 46.27400
C  40.01900 3.96800 47.35900
C  39.86700 6.75500 44.90600
C  40.34200 6.34800 43.53500
H  40.64300 7.48000 42.50700
N  45.15900 3.11900 46.84100
C  44.03600 2.36300 46.70700
C  44.36700 1.01300 46.71700
C  45.78500 0.94500 46.85400
C  46.25900 2.31700 46.91700
C  43.36300 -0.11800 46.52900
C  46.53600 -0.33400 46.93000
O  45.95100 -1.41800 46.86100
C  48.00200 -0.39900 47.01800
N  47.45500 5.10400 46.66300
C  48.15500 4.06600 47.07100
C  49.66900 4.39800 47.10200
C  49.63300 5.90700 47.25100
C  48.18600 6.26100 46.79800
C  50.44200 3.56500 48.14900
C  50.82000 6.55000 46.47300
C  52.03900 6.93400 47.33100
N  45.32300 7.26800 46.58600
C  46.38800 8.10100 46.59800
C  45.94200 9.47200 46.62100
C  44.57500 9.37700 46.39100
C  44.25800 7.98100 46.40700
C  46.78500 10.66100 46.79600
C  43.40300 10.17100 46.20900
O  43.26200 11.35700 46.27900
C  42.16000 9.13100 46.03800
C  41.23700 9.30100 47.23100
O  41.20900 8.64500 48.27700
O  40.36700 10.27000 46.84000
C  39.29200 10.57700 47.82500
H  41.91800 2.25100 46.20600
H  48.43700 2.04500 47.28600
H  48.43600 8.33600 46.95000
H  40.32700 6.58100 46.99400
H  40.31900 4.07200 45.31900
H  40.21100 4.68500 48.15700
H  40.29100 2.92900 47.54300
H  38.95500 3.95600 47.12300
H  39.90700 7.83800 45.02100
H  38.80400 6.53100 44.98700
H  39.61600 5.74300 42.99200
H  41.26300 5.77400 43.64200
H  43.61900 -0.77400 45.69700
H  42.40800 0.27800 46.18400
H  43.25200 -0.74400 47.41500
H  48.34500 0.26500 46.22500
H  48.35200 -1.40700 46.79500
H  48.47600 -0.17400 47.97400
H  49.98200 4.19900 46.07700
H  49.77700 6.12800 48.30900
H  50.93400 4.26200 48.82800
H  51.14300 2.84300 47.73000
H  49.78800 2.91800 48.73500
H  50.51600 7.48500 46.00400
H  51.23000 5.90800 45.69400
H  51.96200 6.56300 48.35400
H  52.20600 7.99800 47.49400
H  52.92200 6.54200 46.82700
H  47.67800 10.60400 47.41900
H  46.03400 11.36400 47.15700
H  47.12000 10.99400 45.81400
H  41.69700 9.33700 45.07300
H  38.29800 10.72100 47.40000
H  39.38800 11.57200 48.25900
H  39.17700 9.76000 48.53800

