158

Mg 6.78200 54.15500 41.45400
C  5.85200 50.94900 40.50100
C  9.84300 53.63400 39.96300
C  7.32400 57.37500 41.83700
C  3.27500 54.79800 42.14400
N  7.69800 52.47100 40.18200
C  7.18000 51.27400 39.96900
C  8.17500 50.29600 39.25200
C  9.48400 51.14700 39.26800
C  9.00100 52.53000 39.75300
C  10.62400 50.58700 40.17000
C  7.61200 49.87000 37.86000
C  8.47900 50.03300 36.62500
H  7.91300 49.60200 35.22200
N  8.38100 55.36400 41.00200
C  9.52100 54.92300 40.47400
C  10.42700 56.11400 40.38300
C  9.70100 57.18600 40.76900
C  8.40100 56.68200 41.21400
C  11.80600 56.05000 39.68300
C  10.30500 58.55400 40.94400
O  11.45400 58.78400 40.65100
C  9.55300 59.75700 41.50700
N  5.45800 55.87700 41.89900
C  6.02900 57.12400 42.18300
C  4.98100 58.11700 42.72800
C  3.75100 57.18300 42.89800
C  4.14800 55.89200 42.19500
C  5.18400 58.90200 44.07600
C  2.48100 57.73200 42.29800
C  1.19900 57.77700 43.16600
N  4.96900 53.14800 41.41000
C  3.66900 53.55000 41.66200
C  2.80400 52.37800 41.55600
C  3.59600 51.32900 41.17900
C  4.91400 51.85700 41.02800
C  1.30000 52.37800 41.84200
C  3.60200 49.92000 40.87700
O  2.74400 49.04400 40.90600
C  5.17300 49.61800 40.66900
C  5.26800 48.74000 39.52900
O  4.69200 48.86600 38.43300
O  5.91800 47.59800 39.92000
C  5.70900 46.48700 38.94900
H  10.80400 53.49500 39.46500
H  7.51200 58.41700 42.10700
H  2.25300 54.92500 42.50800
H  8.33300 49.44400 39.91400
H  9.92800 51.46300 38.32400
H  10.71400 50.99800 41.17600
H  11.53700 50.92100 39.67900
H  10.56600 49.50200 40.07800
H  6.65800 50.38600 37.75200
H  7.37500 48.80600 37.85400
H  9.42800 49.55300 36.86400
H  8.62700 51.09500 36.42500
H  12.04800 55.03300 39.37300
H  12.68900 56.24100 40.29300
H  11.82200 56.62200 38.75500
H  9.34000 59.60800 42.56500
H  8.59900 59.82500 40.98300
H  10.10400 60.63300 41.16600
H  4.64600 58.74700 41.90500
H  3.73700 56.85300 43.93700
H  6.13200 58.62800 44.53900
H  4.49700 58.60300 44.86800
H  5.15800 59.97800 43.90400
H  2.27600 57.15300 41.39800
H  2.65300 58.75600 41.96800
H  1.46800 57.70600 44.22000
H  0.52500 56.98700 42.83400
H  0.71800 58.74200 43.01100
H  0.97900 51.33800 41.79200
H  0.80400 52.91700 41.03500
H  1.10000 52.81700 42.82000
H  5.68400 49.21800 41.54400
H  6.06400 45.64600 39.54400
H  6.30700 46.73500 38.07200
H  4.66900 46.28100 38.69700
Mg -6.23600 25.37500 25.68400
C  -4.80100 26.45000 28.62500
C  -8.30300 23.29800 27.48100
C  -7.27700 24.00700 22.81800
C  -3.68400 27.01700 23.93000
N  -6.37900 24.79000 27.74200
C  -5.78500 25.46000 28.81400
C  -6.44700 25.18900 30.18700
C  -7.19800 23.89400 29.81400
C  -7.37100 23.98100 28.25900
C  -6.63300 22.56700 30.19900
C  -7.40700 26.28800 30.77600
C  -7.62500 26.28000 32.31400
H  -6.84500 25.26800 33.19000
N  -7.61900 24.03600 25.22300
C  -8.47700 23.34800 26.10000
C  -9.55100 22.72400 25.35900
C  -9.15500 22.76600 23.98100
C  -8.00900 23.62200 23.97600
C  -10.75100 21.99800 25.98800
C  -9.87400 22.05300 22.79600
O  -9.44800 22.14300 21.63700
C  -11.02500 21.14300 23.04800
N  -5.58500 25.48800 23.64900
C  -6.12000 24.79000 22.63800
C  -5.40000 25.04100 21.27700
C  -4.35100 26.11800 21.65400
C  -4.54100 26.23900 23.18300
C  -4.90900 23.83500 20.43300
C  -4.59900 27.53300 21.02800
C  -3.67800 27.79000 19.86600
N  -4.51800 26.45500 26.14300
C  -3.61800 27.07100 25.31000
C  -2.70100 27.82800 26.08800
C  -3.17200 27.76400 27.45100
C  -4.23500 26.87600 27.40600
C  -1.54900 28.66900 25.60800
C  -2.93700 28.19700 28.75900
O  -2.15600 29.04800 29.20500
C  -3.96000 27.31900 29.65100
C  -3.23400 26.53900 30.67300
O  -2.65400 25.52600 30.37900
O  -3.14900 27.17500 31.87900
C  -2.14300 26.72500 32.86800
H  -9.15900 23.01600 28.09800
H  -7.69800 23.59500 21.89800
H  -2.88400 27.64100 23.52600
H  -5.56100 25.09800 30.81500
H  -8.18400 23.83000 30.27400
H  -6.28100 21.98400 29.34700
H  -7.34900 21.90400 30.68400
H  -5.83900 22.64200 30.94200
H  -8.40600 26.31000 30.34100
H  -6.98000 27.27400 30.59500
H  -8.66900 26.23400 32.62500
H  -7.29600 27.27000 32.62800
H  -10.80200 20.92600 25.79500
H  -11.65600 22.40600 25.53700
H  -10.90400 22.25800 27.03500
H  -11.49700 20.63300 22.20800
H  -11.83500 21.77300 23.41400
H  -10.76500 20.31900 23.71200
H  -6.05800 25.48500 20.53000
H  -3.36200 25.69000 21.49100
H  -5.44900 23.65100 19.50400
H  -4.95100 22.88100 20.95800
H  -3.85700 23.97300 20.18300
H  -4.36500 28.28500 21.78200
H  -5.64100 27.74800 20.79300
H  -4.34500 27.94100 19.01800
H  -2.94900 27.02900 19.59100
H  -2.97600 28.60800 20.03300
H  -1.88400 29.66400 25.31400
H  -0.99700 28.23900 24.77300
H  -0.88900 28.91200 26.44100
H  -4.69900 27.92500 30.17500
H  -2.52300 25.96500 33.55100
H  -1.92200 27.54500 33.55100
H  -1.26500 26.29500 32.38700

