158

Mg 5.99300 54.81500 40.53300
C  3.32800 52.49000 40.40800
C  8.05800 52.37900 39.38100
C  8.34600 57.10300 40.21300
C  3.56500 57.33900 41.21800
N  5.64300 52.73700 39.79400
C  4.55000 51.97700 39.80600
C  4.69300 50.58400 39.15500
C  6.27400 50.52900 39.09200
C  6.68800 51.96300 39.46700
C  7.09400 49.49000 39.85600
C  4.02200 50.53700 37.72200
C  3.32200 49.12500 37.43500
H  3.90400 48.25100 36.39200
N  8.09200 54.71700 40.09400
C  8.69900 53.63300 39.58500
C  10.05700 54.03200 39.41900
C  10.06400 55.44000 39.34100
C  8.80900 55.82600 39.88500
C  11.17800 53.04800 39.12800
C  11.23500 56.32100 38.84200
O  12.27700 55.75700 38.49200
C  11.19500 57.77000 38.86700
N  5.85700 56.92900 40.42600
C  7.07400 57.59300 40.56300
C  6.92400 59.08500 40.96100
C  5.36300 59.17600 41.05300
C  4.89600 57.70600 40.89300
C  7.60500 59.23000 42.30700
C  4.80500 60.27600 40.05900
C  4.00900 59.79500 38.82400
N  3.87600 54.96600 40.87500
C  3.10300 56.02000 41.25200
C  1.82600 55.51400 41.68000
C  1.88900 54.20500 41.35900
C  3.15400 53.85800 40.89600
C  0.71600 56.24200 42.21200
C  1.14800 52.93900 41.30100
O  -0.00100 52.64700 41.59500
C  2.06200 51.85700 40.68100
C  1.32800 51.15200 39.64300
O  0.98200 51.59800 38.58000
O  1.03200 49.89500 40.13100
C  0.03400 49.20800 39.28900
H  8.77500 51.64800 39.00100
H  9.17900 57.80700 40.26000
H  3.01100 58.22900 41.52300
H  4.29600 49.90500 39.91000
H  6.53700 50.38300 38.04500
H  7.58500 48.96900 39.03400
H  6.50800 48.81000 40.47400
H  7.74800 49.93100 40.61000
H  4.84900 50.73500 37.04000
H  3.28600 51.31700 37.52900
H  2.28700 49.31100 37.14500
H  3.34100 48.52400 38.34400
H  10.84400 52.01400 39.21900
H  11.94600 53.16900 39.89100
H  11.66500 53.27200 38.17900
H  10.32400 58.14900 38.33300
H  11.94200 58.17500 38.18400
H  11.22200 58.18100 39.87600
H  7.46100 59.64600 40.19800
H  4.93700 59.45900 42.01600
H  6.89900 59.81300 42.89800
H  8.51800 59.81700 42.20700
H  7.87600 58.29500 42.79800
H  5.55800 60.96900 39.68400
H  4.06100 60.90100 40.55500
H  2.94400 59.95300 38.99300
H  4.22200 58.75500 38.57900
H  4.27600 60.37000 37.93700
H  1.02700 56.77600 43.11000
H  -0.11000 55.53900 42.32100
H  0.44200 57.02200 41.50200
H  2.27500 51.20900 41.53100
H  -0.56000 48.45700 39.81000
H  0.53600 48.79400 38.41400
H  -0.82800 49.82200 39.02800
Mg 0.92300 42.38000 24.38800
C  1.81600 42.44400 27.76900
C  -2.11500 40.91000 25.25800
C  0.25700 41.72900 21.11100
C  4.09800 43.37300 23.48400
N  -0.03000 41.74800 26.45200
C  0.49400 41.91900 27.66700
C  -0.44200 41.45200 28.79100
C  -1.56200 40.78800 27.92300
C  -1.24400 41.09700 26.45800
C  -1.89300 39.26200 28.10200
C  -0.78500 42.68900 29.73100
C  -1.07600 42.36900 31.24500
H  -1.86900 41.07300 31.59200
N  -0.85500 41.74500 23.36600
C  -1.98100 41.21100 23.86900
C  -2.92200 40.87500 22.85700
C  -2.24100 41.14800 21.59700
C  -0.85900 41.59800 21.95300
C  -4.28500 40.27900 23.12200
C  -2.78400 40.75900 20.17900
O  -2.10400 40.87800 19.18400
C  -4.23800 40.26800 19.94700
N  2.08000 42.32200 22.70500
C  1.56300 42.03100 21.46200
C  2.65600 42.13300 20.47100
C  3.70900 43.02100 21.05900
C  3.30100 42.90300 22.47100
C  3.16000 40.67300 20.17100
C  3.62200 44.54400 20.57100
C  2.42000 45.32800 20.98500
N  2.66800 42.90200 25.42900
C  3.91600 43.37000 24.89900
C  4.79700 43.63500 26.05800
C  4.02800 43.29300 27.17800
C  2.71700 42.87800 26.76200
C  6.14400 44.26900 26.01800
C  4.06800 43.10500 28.64800
O  4.90900 43.25100 29.52800
C  2.64400 42.60000 29.01400
C  2.74400 41.32800 29.76800
O  3.32200 40.27400 29.44500
O  2.03500 41.50500 30.89400
C  1.92000 40.30600 31.67000
H  -3.01000 40.34300 25.52400
H  0.06700 41.58100 20.04600
H  5.03100 43.82800 23.14600
H  -0.00400 40.70400 29.45200
H  -2.52400 41.20100 28.22800
H  -1.99200 38.83200 27.10500
H  -2.75700 39.04400 28.72900
H  -1.01300 38.73100 28.46400
H  -1.62000 43.15700 29.20900
H  0.06500 43.36500 29.64000
H  -1.80000 43.10500 31.59300
H  -0.21300 42.55800 31.88400
H  -4.48900 40.15500 24.18500
H  -4.36800 39.30800 22.63300
H  -5.08800 40.91900 22.75700
H  -4.97000 41.00600 20.27700
H  -4.43500 39.28900 20.38500
H  -4.24500 40.27300 18.85700
H  2.17500 42.58600 19.60500
H  4.71600 42.61500 20.96500
H  2.93300 40.08700 21.06100
H  4.23400 40.69800 19.98500
H  2.54400 40.30000 19.35200
H  3.71600 44.60100 19.48700
H  4.54900 44.89700 21.02400
H  1.57900 44.67400 21.21600
H  2.10900 45.82000 20.06300
H  2.52400 46.12100 21.72500
H  6.44000 43.98500 27.02700
H  6.21400 45.34800 25.87900
H  6.92300 43.87900 25.36300
H  2.19000 43.29600 29.71900
H  1.86200 39.32600 31.19700
H  1.11600 40.26000 32.40500
H  2.83600 40.31100 32.26000

