158

Mg 9.05400 4.48900 28.02400
C  10.42100 2.74200 30.92200
C  7.44700 6.54800 29.98000
C  7.68200 5.75000 25.19400
C  10.65800 2.11800 26.07100
N  8.90300 4.60800 30.17600
C  9.58100 3.88000 31.18800
C  9.28300 4.49600 32.58900
C  8.17200 5.62200 32.18500
C  8.15100 5.62300 30.69000
C  6.84000 5.50300 32.94300
C  10.62900 5.12700 33.22300
C  11.18700 4.45000 34.52400
H  11.39400 5.25700 35.82500
N  7.66300 5.93100 27.68200
C  7.13400 6.69300 28.63800
C  6.24000 7.60600 27.98100
C  6.29500 7.37400 26.59400
C  7.25000 6.32500 26.46900
C  5.53500 8.68200 28.82800
C  5.44800 8.07300 25.57100
O  5.60500 7.80300 24.36100
C  4.43900 9.09300 25.90900
N  9.08500 4.01900 25.88400
C  8.57100 4.70300 24.89600
C  8.90500 4.14000 23.45500
C  9.95300 3.05900 23.86400
C  9.90400 3.06000 25.39800
C  7.67000 3.64500 22.66700
C  11.42500 3.36500 23.37000
C  12.14700 2.18700 22.66500
N  10.22000 2.73200 28.35100
C  10.86100 1.95000 27.48000
C  11.61100 0.84500 28.12400
C  11.48700 1.16100 29.45600
C  10.62600 2.28000 29.58700
C  12.41300 -0.29600 27.54400
C  11.87000 0.80200 30.83100
O  12.51100 -0.15300 31.25600
C  11.16600 1.85000 31.84400
C  10.28800 1.13500 32.73900
O  9.31100 0.53800 32.30900
O  10.73500 1.15800 33.99900
C  9.87800 0.50400 35.04100
H  6.92800 7.26400 30.62100
H  7.29500 6.33400 24.35700
H  11.17600 1.34500 25.50000
H  8.71200 3.70700 33.07700
H  8.57700 6.54900 32.59000
H  7.09900 5.35300 33.99100
H  6.39400 4.53200 32.72900
H  6.14200 6.33600 32.85000
H  10.49400 6.16900 33.51200
H  11.39000 4.94500 32.46400
H  12.15100 4.00900 34.27000
H  10.57000 3.60800 34.83900
H  5.51100 9.60100 28.24300
H  6.04500 8.84100 29.77800
H  4.48600 8.43300 28.98700
H  3.76400 9.38000 25.10300
H  4.75700 10.05500 26.31100
H  3.70300 8.66900 26.59200
H  9.37900 4.99000 22.96500
H  9.74200 2.07000 23.45800
H  6.81800 3.97500 23.26200
H  7.53500 2.56400 22.61600
H  7.58800 3.87200 21.60400
H  12.05200 3.58500 24.23400
H  11.37200 4.31400 22.83700
H  13.10600 2.00600 23.15200
H  12.37200 2.43200 21.62700
H  11.54700 1.27700 22.63600
H  13.36500 -0.50600 28.03100
H  12.74400 -0.10200 26.52300
H  11.78400 -1.18200 27.63100
H  11.94100 2.35200 32.42300
H  10.25600 -0.44600 35.42000
H  8.86400 0.18700 34.80000
H  9.67700 1.22800 35.83100
Mg 48.72600 44.99500 42.27400
C  45.67400 45.46400 40.82000
C  48.55100 41.68000 41.35700
C  52.02300 44.75000 42.98400
C  48.99700 48.60500 42.53500
N  47.24600 43.72300 41.31900
C  46.05000 44.12000 40.82200
C  45.34600 42.99400 40.11000
C  46.21700 41.73200 40.42100
C  47.37800 42.42100 41.14500
C  45.52300 40.81300 41.45100
C  45.04100 43.09600 38.56700
C  43.70000 42.48900 37.99300
H  43.54900 41.96300 36.56900
N  50.11300 43.42700 42.22600
C  49.81100 42.14400 41.86500
C  51.06400 41.40300 41.94900
C  52.09100 42.22700 42.49200
C  51.46800 43.51600 42.63600
C  51.14000 39.99500 41.47900
C  53.51800 41.82300 42.76200
O  53.90600 40.66700 42.54800
C  54.48300 42.78900 43.32100
N  50.29500 46.52400 42.72000
C  51.55700 46.09500 42.94000
C  52.48300 47.32200 43.28900
C  51.40200 48.45300 43.30900
C  50.16700 47.83500 42.80700
C  53.30900 47.23500 44.61000
C  51.89000 49.75500 42.71100
C  51.62600 50.99100 43.54400
N  47.58100 46.73000 41.82900
C  47.74800 48.08200 42.11400
C  46.46400 48.72800 41.95000
C  45.69200 47.73800 41.31800
C  46.34900 46.53600 41.36300
C  46.09100 50.10200 42.12700
C  44.42800 47.47800 40.60400
O  43.50500 48.25100 40.46700
C  44.41500 45.97300 40.20900
C  43.17200 45.46300 40.77400
O  42.18600 45.09900 40.17000
O  43.17400 45.55500 42.14500
C  41.92300 45.79600 42.87100
H  48.45200 40.62500 41.09400
H  53.09100 44.78600 43.21100
H  49.01000 49.68400 42.70600
H  44.45100 42.87600 40.72100
H  46.46800 41.17500 39.51900
H  46.02500 39.87100 41.67300
H  44.61400 40.46700 40.95900
H  45.24800 41.29900 42.38700
H  45.78300 42.55900 37.97700
H  45.06400 44.09100 38.12300
H  42.91400 43.22400 38.17200
H  43.45500 41.65300 38.64800
H  52.07800 39.65500 41.04000
H  50.37400 39.63800 40.79200
H  50.90200 39.45000 42.39300
H  54.74600 43.67200 42.73900
H  55.45900 42.30900 43.39800
H  54.19100 43.04300 44.34000
H  53.13800 47.48400 42.43200
H  51.03800 48.67800 44.31100
H  54.19700 47.84900 44.45800
H  53.65500 46.25300 44.93300
H  52.84900 47.79000 45.42700
H  51.56400 49.97300 41.69400
H  52.97500 49.70300 42.61500
H  52.02300 50.94100 44.55800
H  50.59700 51.34100 43.62000
H  52.16200 51.80300 43.05400
H  45.58800 50.23900 43.08400
H  45.45700 50.33100 41.27000
H  46.99400 50.71100 42.09100
H  44.29800 45.94500 39.12600
H  42.13500 45.85000 43.93900
H  41.08200 45.11900 42.72300
H  41.68800 46.84800 42.70800

