158

Mg 25.51100 1.87600 29.15900
C  27.63800 1.48200 31.85100
C  22.88500 2.17800 31.32000
C  23.35100 1.62500 26.58500
C  28.21800 1.13300 27.09400
N  25.33700 1.87400 31.26800
C  26.34200 1.76700 32.19200
C  25.87800 1.83800 33.66600
C  24.35000 2.09100 33.49600
C  24.17200 1.93700 31.94200
C  23.39800 1.07800 34.28600
C  26.55700 2.89600 34.63200
C  25.67400 3.58200 35.70700
H  26.24100 4.02100 37.07600
N  23.36500 2.06500 28.97300
C  22.41000 2.14900 30.01700
C  21.07900 2.21400 29.48300
C  21.24900 1.86100 28.09300
C  22.72300 1.83400 27.81800
C  19.84700 2.53100 30.38500
C  20.25100 1.58800 27.07800
O  20.42600 1.11200 25.92900
C  18.80000 1.87600 27.41500
N  25.78400 1.53600 27.07100
C  24.70900 1.56700 26.23100
C  25.17700 1.26300 24.77400
C  26.71800 1.27100 24.88900
C  26.92900 1.25300 26.41300
C  24.50600 -0.04000 24.15000
C  27.45200 2.47300 24.37300
C  28.12000 2.17000 22.97800
N  27.55300 1.40500 29.34800
C  28.50800 1.10700 28.46700
C  29.72400 0.86400 29.12900
C  29.43600 1.03700 30.47700
C  28.08900 1.30000 30.55300
C  31.05100 0.37600 28.56000
C  29.99700 0.92600 31.81100
O  31.10500 0.72000 32.21000
C  28.76100 1.24400 32.76500
C  28.62000 0.12500 33.72700
O  27.92900 -0.85300 33.42400
O  29.05200 0.40700 34.98700
C  28.85300 -0.53400 36.04800
H  22.12400 2.22300 32.10200
H  22.70500 1.50200 25.71400
H  29.08000 1.03100 26.43200
H  25.98300 0.81200 34.02100
H  23.98900 3.06100 33.83500
H  23.20000 0.16000 33.73300
H  22.42900 1.57500 34.23600
H  23.76400 0.82100 35.28000
H  27.11600 3.59400 34.01000
H  27.38000 2.46100 35.19900
H  24.86500 2.95900 36.08700
H  25.11700 4.46400 35.38900
H  20.06600 2.55500 31.45200
H  19.09900 1.74300 30.30300
H  19.38400 3.47200 30.08600
H  18.26800 2.16900 26.51000
H  18.80800 2.71200 28.11500
H  18.26800 1.04100 27.87000
H  24.73500 2.12900 24.28200
H  27.13500 0.31900 24.56000
H  25.31500 -0.56600 23.64400
H  23.87600 0.25300 23.31100
H  24.00400 -0.70500 24.85300
H  28.22000 2.76700 25.08800
H  26.81300 3.33800 24.19700
H  27.61100 2.69900 22.17200
H  27.96700 1.14400 22.64200
H  29.18000 2.42200 22.97800
H  30.80100 -0.35300 27.78900
H  31.61200 -0.22500 29.27500
H  31.59500 1.15900 28.03100
H  28.93000 2.15800 33.33500
H  28.96900 -1.57400 35.74100
H  27.89400 -0.33100 36.52400
H  29.62600 -0.45400 36.81300
Mg 47.11300 17.40900 28.02100
C  45.34200 16.93200 30.91700
C  49.38600 19.21600 29.85000
C  48.68700 18.17300 25.22200
C  44.69000 15.66000 26.28300
N  47.20800 18.06400 30.13900
C  46.49900 17.68300 31.18000
C  47.03800 18.21600 32.50200
C  48.17500 19.16800 32.00300
C  48.30500 18.75700 30.55400
C  47.83500 20.65300 32.26200
C  47.46800 17.19800 33.62800
C  46.57000 17.16700 34.90000
H  46.16400 18.52800 35.51200
N  48.85800 18.44400 27.60800
C  49.63900 19.11200 28.47800
C  50.87600 19.54500 27.82900
C  50.73100 19.11600 26.46900
C  49.37200 18.66400 26.36200
C  51.98400 20.21500 28.61100
C  51.67900 19.20300 25.30100
O  51.44800 18.90100 24.15100
C  52.89100 19.93800 25.53400
N  46.76000 16.84400 26.10700
C  47.50000 17.48300 25.06100
C  47.00700 17.08400 23.70300
C  45.99700 15.97400 24.09400
C  45.81600 16.08600 25.62100
C  46.41900 18.21500 22.67500
C  46.25500 14.53600 23.52500
C  45.25500 14.00200 22.49300
N  45.39200 16.32500 28.44800
C  44.39300 15.77000 27.66000
C  43.27000 15.38100 28.47600
C  43.66300 15.73500 29.77200
C  44.86700 16.37500 29.64500
C  41.99900 14.79400 28.02700
C  43.18600 15.70300 31.10600
O  42.12600 15.29300 31.52600
C  44.31500 16.46100 31.96800
C  43.65500 17.58500 32.70800
O  43.47400 18.71100 32.30800
O  43.01500 17.04200 33.84400
C  42.07200 17.94400 34.49000
H  49.99900 19.89700 30.44400
H  49.06900 18.60900 24.29700
H  43.93300 15.17000 25.66700
H  46.18600 18.79400 32.85800
H  49.07600 18.91600 32.56200
H  46.93300 20.84200 32.84300
H  47.66000 21.17100 31.31900
H  48.62300 21.15100 32.82700
H  48.52100 17.32500 33.88000
H  47.54200 16.18300 33.23800
H  47.04600 16.49200 35.61100
H  45.70900 16.59700 34.55200
H  52.31000 21.03200 27.96700
H  52.83200 19.56700 28.83700
H  51.68000 20.76600 29.50000
H  52.63500 20.88100 26.01600
H  53.14600 20.26900 24.52700
H  53.73000 19.38000 25.94900
H  47.80900 16.54600 23.19800
H  45.02500 16.25800 23.69100
H  46.99600 18.31500 21.75500
H  46.34700 19.21400 23.10400
H  45.44700 17.89200 22.30300
H  46.37400 13.84300 24.35800
H  47.21500 14.44900 23.01500
H  44.43000 14.71400 22.47600
H  44.77200 13.12200 22.91700
H  45.72700 13.76300 21.54000
H  42.14000 13.93300 27.37300
H  41.43900 15.55400 27.48100
H  41.29800 14.53300 28.82000
H  44.72600 15.75400 32.68900
H  42.51800 18.77400 35.03700
H  41.44000 17.31200 35.11400
H  41.37800 18.33500 33.74600

