158

Mg 35.47600 2.45000 29.19700
C  33.55800 3.80800 31.94700
C  38.20500 2.48200 31.15800
C  37.21500 1.77500 26.44700
C  32.56300 2.99900 27.22500
N  35.80600 3.10600 31.32900
C  34.85400 3.38900 32.27900
C  35.56700 3.41500 33.67200
C  37.09500 3.15200 33.38500
C  37.05400 2.91400 31.82000
C  38.14200 4.19700 33.77000
C  34.88800 2.59700 34.87200
C  35.66500 1.63400 35.78500
H  36.65300 2.19300 36.76300
N  37.48400 1.97500 28.91100
C  38.45300 2.03100 29.81300
C  39.67100 1.52100 29.24600
C  39.46000 1.32500 27.83600
C  38.00600 1.71300 27.65900
C  40.85500 1.25500 30.06200
C  40.27000 1.01000 26.66300
O  39.95100 0.99700 25.50100
C  41.66500 0.67900 26.96400
N  34.95900 2.43000 27.16000
C  35.81000 1.99700 26.24500
C  35.19100 1.90300 24.89100
C  33.68600 2.00000 25.16400
C  33.72300 2.48400 26.61700
C  35.76300 2.87900 23.86700
C  32.93900 0.62100 25.12700
C  32.99100 -0.36700 23.90800
N  33.41100 3.16000 29.50700
C  32.44800 3.42300 28.57600
C  31.25100 3.97700 29.27900
C  31.71000 4.13800 30.67000
C  32.99600 3.61900 30.73100
C  29.83700 4.33600 28.74100
C  31.26500 4.43100 31.96000
O  30.17000 4.77700 32.28800
C  32.42800 4.17300 32.88900
C  32.66000 5.39300 33.73000
O  33.44900 6.26200 33.53600
O  31.71500 5.39900 34.75100
C  31.58400 6.70400 35.40200
H  39.09000 2.32100 31.77800
H  37.66000 1.49000 25.49200
H  31.71700 3.04900 26.53600
H  35.57800 4.44700 34.02500
H  37.52900 2.28700 33.88500
H  38.51900 4.80400 32.94700
H  39.04200 3.66000 34.07100
H  37.76900 4.79400 34.60200
H  34.17800 1.97400 34.32700
H  34.21300 3.16700 35.51000
H  36.09300 0.84000 35.17300
H  34.94400 1.06400 36.37200
H  41.00600 0.17800 30.13200
H  40.76900 1.58200 31.09800
H  41.74800 1.71400 29.63600
H  41.79800 -0.10200 27.71300
H  42.21100 1.59600 27.18500
H  42.05200 0.24100 26.04400
H  35.40400 0.90700 24.50300
H  33.18200 2.81300 24.64000
H  36.74800 3.25200 24.14800
H  35.22600 3.82300 23.76500
H  35.99100 2.40900 22.91000
H  31.96000 1.06700 24.95300
H  33.10100 0.09900 26.07000
H  31.98900 -0.76500 23.74400
H  33.66700 -1.18600 24.15400
H  33.45400 0.15400 23.07100
H  29.28400 3.44500 28.44400
H  30.02200 4.94500 27.85700
H  29.21900 4.79000 29.51600
H  32.23400 3.27300 33.47300
H  31.12400 7.30100 34.61500
H  32.45500 7.10200 35.92300
H  30.86800 6.67500 36.22300
Mg 29.42800 57.89000 41.48000
C  26.57800 56.30600 40.07100
C  31.43400 55.61300 39.94800
C  31.97800 60.08100 41.79300
C  27.21200 60.42600 42.45800
N  29.06700 56.27200 40.03000
C  27.81700 55.74600 39.66200
C  27.98100 54.53900 38.77100
C  29.42200 54.08800 39.20700
C  30.03600 55.40300 39.75800
C  29.48600 52.92100 40.23900
C  27.92500 55.00500 37.25400
C  27.08700 54.09400 36.35900
H  26.97300 54.28600 34.83800
N  31.48000 57.86000 40.94000
C  32.10000 56.79700 40.41200
C  33.53200 57.12500 40.29200
C  33.66300 58.38700 40.89000
C  32.34100 58.82000 41.29900
C  34.52800 56.05900 39.90800
C  35.03400 59.08000 40.99200
O  35.96500 58.58200 40.47300
C  35.25300 60.44200 41.68100
N  29.59100 60.00000 41.91600
C  30.76400 60.64900 42.18700
C  30.57000 62.07900 42.84600
C  29.03800 61.99200 43.18900
C  28.52200 60.73700 42.43300
C  31.53700 62.22700 43.99100
C  28.26400 63.31100 42.66400
C  27.18000 63.89200 43.66500
N  27.24400 58.25500 41.48800
C  26.54500 59.30700 41.95400
C  25.17500 59.15600 41.71300
C  25.05900 57.89000 41.09700
C  26.39600 57.45500 40.82600
C  24.09400 60.10300 42.02800
C  24.12500 56.90500 40.57100
O  22.95400 56.90300 40.62100
C  25.09000 55.85200 39.83500
C  24.79700 54.52000 40.42400
O  25.44400 53.95700 41.34700
O  23.64000 54.08200 39.94100
C  23.09600 52.88600 40.57000
H  31.98400 54.72900 39.61900
H  32.76400 60.80000 42.03300
H  26.50900 61.12200 42.91900
H  27.25100 53.80200 39.10500
H  29.95800 53.72000 38.33200
H  30.02800 53.25300 41.12500
H  29.95500 52.14000 39.64100
H  28.46100 52.63300 40.47000
H  28.94000 55.10100 36.86700
H  27.52500 56.01900 37.24000
H  26.08500 54.21400 36.77100
H  27.46900 53.08100 36.48200
H  35.55400 56.26000 40.21400
H  34.47500 56.11300 38.82100
H  34.20700 55.09500 40.30300
H  34.81900 61.05700 40.89200
H  36.31300 60.66600 41.80100
H  34.67500 60.37500 42.60300
H  30.82000 62.69000 41.97900
H  28.90300 61.95800 44.27000
H  32.26900 62.98600 43.71400
H  32.06600 61.28100 44.10100
H  31.07000 62.55900 44.91800
H  27.98700 63.18900 41.61700
H  28.98800 64.10700 42.48800
H  27.69200 64.50600 44.40700
H  26.66900 63.09100 44.20000
H  26.42900 64.45500 43.11200
H  24.46700 60.94200 41.44100
H  24.06100 60.47700 43.05100
H  23.11100 59.81500 41.65600
H  24.90000 55.88300 38.76300
H  23.80900 52.22200 41.05800
H  22.42300 52.35400 39.89800
H  22.49900 53.21400 41.42200

