158

Mg 1.74400 -3.42000 44.39700
C  5.17500 -2.78500 44.13200
C  0.97700 -0.90100 42.27800
C  -1.42200 -4.67300 44.10900
C  2.74300 -6.41600 46.15700
N  2.98800 -2.08200 43.28700
C  4.36000 -1.91100 43.38700
C  4.76700 -0.70200 42.39900
C  3.38100 0.00900 42.24400
C  2.34900 -1.05900 42.58200
C  3.28900 1.40300 43.05200
C  5.46900 -1.32300 41.07000
C  7.03500 -1.08000 40.97300
H  7.53100 -0.58800 39.59900
N  -0.04000 -2.78400 43.48200
C  -0.15700 -1.71200 42.61900
C  -1.54700 -1.53200 42.14200
C  -2.30400 -2.54700 42.73600
C  -1.24600 -3.40300 43.51300
C  -1.93900 -0.47000 41.19900
C  -3.76200 -2.81500 42.52500
O  -4.40700 -2.05700 41.84800
C  -4.49000 -3.87800 43.17700
N  0.82600 -5.31700 44.94500
C  -0.54900 -5.41900 44.89800
C  -1.06100 -6.55200 45.74600
C  0.26300 -7.19600 46.37400
C  1.36200 -6.24000 45.81100
C  -2.14800 -6.32700 46.88200
C  0.58700 -8.67200 45.85900
C  0.99400 -9.69500 46.94100
N  3.62100 -4.49000 45.04500
C  3.82600 -5.57800 45.75900
C  5.22000 -5.78400 45.90200
C  5.79000 -4.60700 45.35400
C  4.75000 -3.89800 44.80200
C  5.87700 -6.94400 46.67300
C  7.03200 -3.96400 45.21000
O  8.16700 -4.15000 45.59800
C  6.71200 -2.71400 44.25500
C  7.12200 -1.51200 44.90300
O  8.19200 -0.92800 44.59800
O  6.24900 -0.95800 45.84900
C  6.77100 0.27200 46.46000
H  0.63400 0.02400 41.81100
H  -2.44000 -5.06900 44.10500
H  3.02600 -7.29900 46.73500
H  5.45400 0.05000 42.78600
H  3.32000 0.27500 41.18900
H  3.44900 2.19000 42.31500
H  4.05200 1.51300 43.82200
H  2.35600 1.36200 43.61300
H  4.92600 -0.98300 40.18700
H  5.21500 -2.38000 41.15500
H  7.52400 -2.04400 41.11400
H  7.46400 -0.44500 41.74800
H  -1.67200 -0.66900 40.16100
H  -1.46000 0.43300 41.57600
H  -2.97700 -0.14900 41.27900
H  -4.36600 -3.80400 44.25700
H  -4.09900 -4.82900 42.81300
H  -5.55600 -3.80900 42.96100
H  -1.53700 -7.20600 45.01500
H  0.28600 -7.13200 47.46100
H  -1.85200 -5.48900 47.51200
H  -2.50200 -7.11900 47.54100
H  -2.99500 -6.06800 46.24500
H  1.27900 -8.69700 45.01800
H  -0.36500 -8.96000 45.41400
H  0.71300 -9.33300 47.93000
H  2.05400 -9.93200 46.85700
H  0.58500 -10.69400 46.78700
H  6.91500 -6.90600 46.34400
H  5.37900 -7.87700 46.40900
H  5.71000 -6.58400 47.68800
H  7.17200 -2.71500 43.26700
H  6.20400 0.75000 47.25900
H  6.82700 1.08300 45.73300
H  7.81400 0.20000 46.76900
Mg 46.72100 25.25300 28.46900
C  47.75500 27.53500 31.00600
C  45.62500 23.14200 30.84800
C  45.97100 23.21600 25.96000
C  48.30000 27.51200 26.11200
N  46.79500 25.26900 30.71600
C  47.19900 26.32000 31.51600
C  46.96600 25.95600 32.99800
C  46.18800 24.54700 32.90700
C  46.19000 24.26600 31.35100
C  46.67600 23.28800 33.84800
C  46.38400 27.05000 33.93900
C  45.62000 26.63000 35.10200
H  46.37300 26.34700 36.44200
N  45.78800 23.56700 28.39600
C  45.43700 22.77000 29.48600
C  44.79200 21.61400 29.01400
C  44.89300 21.50300 27.59800
C  45.59700 22.81600 27.22400
C  44.24600 20.60200 29.83400
C  44.52100 20.41500 26.61500
O  44.83900 20.42000 25.46300
C  43.76600 19.25000 27.04600
N  46.97800 25.48500 26.38400
C  46.64200 24.40700 25.60800
C  47.03200 24.59800 24.13000
C  47.40000 26.09600 24.13000
C  47.62000 26.39600 25.65000
C  48.20500 23.70800 23.64900
C  46.42400 27.12800 23.48800
C  47.04600 28.35100 22.84400
N  47.84600 27.09200 28.51700
C  48.44100 27.85900 27.48900
C  48.90200 29.17400 27.98900
C  48.66400 29.07500 29.38500
C  47.99400 27.80700 29.63100
C  49.63100 30.14900 27.17500
C  48.82200 29.77100 30.62100
O  49.22300 30.91900 30.84900
C  48.40500 28.75600 31.73800
C  49.65500 28.38200 32.49300
O  50.70500 27.93500 32.05000
O  49.47500 28.56200 33.84000
C  50.45700 28.06800 34.81700
H  45.19200 22.34400 31.45600
H  45.67200 22.56300 25.13800
H  48.69600 28.30400 25.47200
H  48.00500 25.76500 33.26900
H  45.15900 24.69300 33.23500
H  47.30800 23.67500 34.64700
H  47.26500 22.65900 33.18100
H  45.85900 22.74400 34.32100
H  45.81300 27.78500 33.37100
H  47.28300 27.41100 34.43900
H  44.95400 25.80000 34.86600
H  45.04200 27.53500 35.28700
H  44.80500 19.66600 29.82800
H  43.23100 20.31000 29.56200
H  44.19100 20.98500 30.85300
H  42.88600 19.69100 27.51400
H  44.44600 18.59100 27.58600
H  43.38800 18.77800 26.14000
H  46.12700 24.31500 23.59200
H  48.43900 26.32400 23.88900
H  48.62900 23.05500 24.41200
H  48.94100 24.40300 23.24500
H  47.79800 23.16000 22.80000
H  45.65700 27.38500 24.21900
H  45.72900 26.67800 22.77900
H  46.66600 28.50100 21.83300
H  48.11900 28.19000 22.95000
H  46.84200 29.20100 23.49600
H  49.40300 31.15200 27.53400
H  49.32000 30.20700 26.13200
H  50.67900 30.01300 27.44300
H  47.65900 29.28300 32.33400
H  50.67700 28.92600 35.45200
H  51.43100 27.78700 34.41700
H  49.98400 27.23600 35.33800

