158

Mg 2.40300 42.16800 24.82000
C  3.35400 42.16600 28.21700
C  -0.67400 41.00100 25.80000
C  1.72200 41.51800 21.63200
C  5.64000 43.18500 23.94300
N  1.36200 41.78300 26.85100
C  1.97400 41.78000 28.11300
C  0.98600 41.59400 29.19900
C  -0.23500 41.03000 28.34200
C  0.14300 41.25800 26.90700
C  -0.85700 39.68400 28.74500
C  0.71500 42.91500 30.08100
C  0.64700 42.80300 31.63700
H  -0.40300 41.86400 32.30400
N  0.75300 41.48100 23.89100
C  -0.41100 40.97900 24.43400
C  -1.28900 40.46500 23.34400
C  -0.62800 40.62100 22.12100
C  0.64300 41.25200 22.49800
C  -2.71500 39.99600 23.62900
C  -1.03900 40.37300 20.74900
O  -0.34100 40.62500 19.76700
C  -2.47900 39.91200 20.49400
N  3.47300 42.37200 23.07500
C  3.02700 42.01600 21.88700
C  3.98900 42.28400 20.72700
C  5.01600 43.15400 21.53200
C  4.69400 42.91900 22.91000
C  4.67200 40.96100 20.28100
C  5.10700 44.64900 21.20200
C  3.83700 45.46700 20.97000
N  4.15600 42.54400 25.75700
C  5.39800 42.99600 25.29600
C  6.22100 43.31800 26.40900
C  5.52000 42.88700 27.61700
C  4.26600 42.43700 27.14300
C  7.60500 43.76500 26.39600
C  5.56300 42.68400 29.10100
O  6.44100 42.80900 29.89300
C  4.19900 42.20300 29.55400
C  4.29900 40.98400 30.27800
O  4.80000 40.01400 29.75400
O  3.66100 41.02400 31.45400
C  3.50300 39.74000 32.12000
H  -1.68700 40.78800 26.14600
H  1.74300 41.19700 20.58900
H  6.55000 43.72200 23.67100
H  1.26100 40.75200 29.83300
H  -0.98100 41.82500 28.37200
H  -1.86200 39.81300 29.14600
H  -0.16500 39.18400 29.42300
H  -0.99500 39.02500 27.88700
H  -0.20600 43.40000 29.76100
H  1.44800 43.70000 29.89300
H  0.76300 43.78700 32.09300
H  1.64000 42.47500 31.94300
H  -3.02300 39.03000 23.22800
H  -3.36300 40.79800 23.27700
H  -2.88300 39.97600 24.70600
H  -2.51500 38.84200 20.69700
H  -2.65900 39.91000 19.41900
H  -3.26100 40.56800 20.87700
H  3.39700 42.77800 19.95700
H  6.04700 42.80300 21.48600
H  5.30700 40.54000 21.06100
H  5.23900 41.28200 19.40700
H  3.98100 40.17300 19.98200
H  5.66200 44.67000 20.26400
H  5.77500 45.14600 21.90600
H  3.01500 44.78000 21.17200
H  3.86800 46.01300 20.02700
H  3.84100 46.14900 21.82000
H  7.91500 44.23900 27.32700
H  7.76800 44.40600 25.53000
H  8.18900 42.84700 26.32900
H  3.84700 42.99700 30.21300
H  4.41200 39.39400 32.61400
H  3.10100 38.94900 31.48700
H  2.75300 39.91100 32.89200
Mg -12.22700 16.75200 41.21800
C  -9.12400 14.99600 41.22300
C  -10.51400 19.66700 40.56700
C  -15.13700 18.09900 40.82700
C  -13.74300 13.56800 41.78700
N  -10.01800 17.19900 40.78300
C  -8.92800 16.35300 40.90400
C  -7.65000 17.13800 40.60500
C  -8.10700 18.68600 40.54700
C  -9.64100 18.53500 40.62900
C  -7.53800 19.43500 41.73400
C  -6.84500 16.59000 39.32600
C  -5.33700 16.94600 39.20600
H  -4.95000 17.57800 37.82900
N  -12.81000 18.69500 40.66500
C  -11.95400 19.83000 40.52400
C  -12.80500 20.93600 40.12200
C  -14.15300 20.44000 40.02000
C  -14.10300 19.02900 40.51300
C  -12.14500 22.29700 39.69600
C  -15.28800 21.20200 39.50200
O  -15.20200 22.38300 39.33600
C  -16.58600 20.49300 39.23000
N  -14.15100 15.96100 41.36100
C  -15.23200 16.79700 41.27700
C  -16.58000 16.04400 41.41500
C  -16.10700 14.61600 41.58900
C  -14.57800 14.69100 41.53800
C  -17.49500 16.78900 42.46300
C  -16.56400 13.52800 40.55200
C  -17.21900 12.30900 41.11600
N  -11.63700 14.63700 41.58000
C  -12.37700 13.48800 41.77300
C  -11.46100 12.37800 41.98600
C  -10.16700 12.95300 41.68300
C  -10.32600 14.31200 41.46500
C  -11.79500 11.04100 42.39500
C  -8.78100 12.62800 41.60100
O  -8.19700 11.54800 41.64900
C  -8.02200 13.95800 41.20200
C  -6.98600 14.26000 42.27100
O  -7.11800 13.98700 43.44700
O  -5.80300 14.82300 41.80900
C  -4.87000 15.26600 42.90000
H  -10.01800 20.63700 40.49100
H  -16.14700 18.50900 40.75800
H  -14.17700 12.59100 42.00900
H  -6.87500 17.01200 41.36200
H  -7.71700 19.16300 39.64800
H  -7.01800 20.35100 41.45400
H  -6.96500 18.79600 42.40600
H  -8.41100 19.71700 42.32500
H  -7.22400 17.06800 38.42300
H  -6.84300 15.51600 39.14000
H  -4.72700 16.07100 39.43100
H  -5.10200 17.66800 39.98800
H  -12.72500 22.76900 38.90300
H  -11.15000 22.10000 39.29700
H  -12.10900 22.95600 40.56400
H  -16.34900 19.48600 38.88700
H  -17.04400 20.96700 38.36200
H  -17.08000 20.44700 40.20100
H  -17.04000 16.12900 40.43000
H  -16.32700 14.32400 42.61600
H  -18.50200 16.91000 42.06300
H  -17.05000 17.74500 42.73700
H  -17.63300 16.12500 43.31700
H  -15.65100 13.19500 40.05700
H  -17.14900 13.95300 39.73600
H  -16.83400 12.18000 42.12700
H  -16.96000 11.40000 40.57300
H  -18.30500 12.39500 41.13200
H  -11.85100 10.43400 41.49100
H  -12.74700 10.86300 42.89600
H  -11.03600 10.55300 43.00600
H  -7.61300 13.78600 40.20700
H  -3.83400 15.48000 42.63800
H  -4.83900 14.57400 43.74200
H  -5.38300 16.11100 43.35900

