158

Mg 17.23700 -1.88500 27.60600
C  16.42000 0.01600 30.38100
C  19.02400 -3.99600 29.60100
C  18.32000 -3.34900 24.83000
C  15.66100 0.61000 25.63300
N  17.62500 -2.01500 29.74700
C  17.31500 -1.03100 30.68100
C  17.95300 -1.36400 32.04600
C  18.93800 -2.49600 31.64100
C  18.44600 -2.93600 30.28200
C  20.41700 -2.01700 31.68600
C  16.91400 -1.87800 33.08900
C  17.40300 -1.76800 34.68100
H  18.88400 -1.33000 34.88700
N  18.39200 -3.62100 27.25500
C  18.91600 -4.37300 28.21400
C  19.60600 -5.46300 27.57000
C  19.51100 -5.20800 26.14600
C  18.71400 -4.02700 26.02100
C  20.45900 -6.40300 28.40100
C  20.10100 -6.00000 25.05000
O  19.94300 -5.77800 23.86300
C  20.76000 -7.29000 25.45400
N  17.10100 -1.36500 25.53500
C  17.62600 -2.17200 24.60200
C  17.56300 -1.55000 23.18600
C  16.53600 -0.43300 23.37400
C  16.36900 -0.42500 24.94500
C  18.91800 -1.08700 22.63000
C  15.22400 -0.61700 22.68000
C  14.96900 0.47000 21.63800
N  16.15500 -0.10200 27.91900
C  15.49100 0.81000 27.06100
C  14.75100 1.75000 27.77800
C  15.11800 1.53400 29.14500
C  15.89600 0.33100 29.14900
C  13.90600 2.83000 27.20400
C  14.92200 1.93100 30.49000
O  14.22800 2.86200 30.92200
C  15.88400 1.09900 31.35100
C  16.92800 1.96500 31.87700
O  17.75700 2.55200 31.16700
O  16.99900 1.93600 33.21900
C  17.99200 2.89000 33.79700
H  19.62700 -4.63200 30.25200
H  18.66200 -3.80200 23.89700
H  15.08300 1.34800 25.07300
H  18.40100 -0.46300 32.46700
H  18.86200 -3.40000 32.24600
H  20.53300 -1.04900 32.17400
H  21.05800 -2.10400 30.80900
H  20.87000 -2.74700 32.35600
H  16.66500 -2.89900 32.80100
H  15.99100 -1.30400 33.00500
H  17.26500 -2.70000 35.22900
H  16.78100 -0.95200 35.05000
H  20.24300 -6.26200 29.46000
H  21.53100 -6.27700 28.24700
H  20.07100 -7.38900 28.14700
H  21.68200 -7.10700 26.00700
H  21.01600 -7.82300 24.53800
H  20.07000 -7.98600 25.93100
H  17.16900 -2.30900 22.51000
H  17.04600 0.48800 23.08900
H  19.50800 -0.89400 23.52600
H  18.81800 -0.12200 22.13300
H  19.40100 -1.73400 21.89700
H  14.37100 -0.66600 23.35600
H  15.21800 -1.53300 22.09000
H  14.17400 -0.00700 21.06500
H  15.80100 0.69900 20.97300
H  14.64400 1.40000 22.10500
H  12.90200 2.42100 27.09100
H  14.14000 3.17000 26.19500
H  13.81400 3.67300 27.89000
H  15.27700 0.86500 32.22600
H  18.92900 2.37600 34.00900
H  17.58300 3.19300 34.76000
H  18.19500 3.74700 33.15500
Mg -2.01900 34.44800 27.13700
C  -3.39700 32.61600 29.87400
C  -0.48500 36.57400 29.30800
C  -1.05500 36.30800 24.34200
C  -3.88700 32.40800 25.05800
N  -2.06200 34.60800 29.34500
C  -2.63400 33.75300 30.29900
C  -2.20200 34.16600 31.71400
C  -1.34500 35.46900 31.47900
C  -1.24600 35.58300 29.92300
C  -1.87900 36.75700 32.22100
C  -1.56900 33.03300 32.49800
C  -2.33300 32.58000 33.77600
H  -1.64700 32.28900 35.05600
N  -0.70000 36.11100 26.84400
C  -0.22000 36.86400 27.89200
C  0.57500 37.92700 27.27900
C  0.32900 37.90500 25.88200
C  -0.49000 36.70600 25.62300
C  1.37000 38.92600 28.19400
C  0.82300 38.75700 24.77700
O  0.60400 38.66300 23.59600
C  1.70600 39.86400 25.15600
N  -2.42300 34.41500 25.01100
C  -1.85100 35.16200 24.06000
C  -2.46600 34.87900 22.69600
C  -2.99200 33.44800 22.94700
C  -3.07600 33.33800 24.42300
C  -3.60700 35.92400 22.29500
C  -2.02100 32.29300 22.44900
C  -0.62400 32.10900 23.01200
N  -3.27100 32.80300 27.33000
C  -4.00800 32.12600 26.37800
C  -4.69900 31.06800 26.96100
C  -4.52400 31.22400 28.33900
C  -3.65900 32.27100 28.51700
C  -5.70000 30.03200 26.37900
C  -4.85100 30.72900 29.57800
O  -5.58400 29.78600 29.84800
C  -4.12500 31.56100 30.69700
C  -5.22000 32.08000 31.61500
O  -6.06500 32.92200 31.25900
O  -5.21700 31.45900 32.84300
C  -6.07900 32.14000 33.82600
H  0.02600 37.23100 30.01400
H  -0.88800 36.87300 23.42300
H  -4.31300 31.74700 24.30100
H  -3.10200 34.50200 32.22800
H  -0.34800 35.30000 31.88500
H  -2.38200 36.40900 33.12300
H  -2.70100 37.18200 31.64400
H  -1.07000 37.42000 32.52800
H  -0.54000 33.27700 32.76500
H  -1.56500 32.12500 31.89500
H  -2.90000 31.69100 33.49800
H  -3.03200 33.37000 34.05200
H  0.87800 39.88900 28.06100
H  2.39600 38.87600 27.82700
H  1.35600 38.59400 29.23200
H  1.25000 40.36900 26.00800
H  1.71500 40.67700 24.43000
H  2.74900 39.62800 25.36600
H  -1.67000 34.91400 21.95200
H  -3.93900 33.33600 22.41900
H  -3.65000 36.64800 23.10800
H  -4.60000 35.48800 22.18700
H  -3.31400 36.44800 21.38500
H  -2.00200 32.47500 21.37500
H  -2.48200 31.31700 22.60400
H  -0.17000 33.01900 23.40400
H  -0.05300 31.71000 22.17400
H  -0.66700 31.46500 23.89000
H  -5.43400 28.97600 26.43800
H  -5.97800 30.24500 25.34700
H  -6.54900 30.23300 27.03300
H  -3.45700 30.93300 31.28700
H  -5.98300 31.60900 34.77300
H  -7.08100 32.09500 33.39900
H  -5.76100 33.17400 33.95900

