158

Mg 29.38100 59.38700 40.60300
C  26.35200 57.70700 40.13200
C  30.98600 56.60300 39.22000
C  32.21200 61.08600 40.66400
C  27.55000 62.30800 41.42000
N  28.67000 57.48000 39.58700
C  27.42400 56.93900 39.63900
C  27.39200 55.63700 38.80800
C  28.93300 55.18700 38.78900
C  29.58000 56.47800 39.27500
C  29.28800 53.88600 39.60200
C  26.73800 55.75900 37.42900
C  25.80500 54.60800 37.00000
H  25.81000 54.04400 35.61400
N  31.34700 58.93000 39.96300
C  31.78100 57.69200 39.55800
C  33.19700 57.70800 39.46200
C  33.61700 59.04800 39.99000
C  32.39800 59.71800 40.29000
C  34.08400 56.62400 38.84600
C  34.96300 59.53600 40.16100
O  35.88800 58.82500 39.84900
C  35.27900 60.84500 40.81600
N  29.74900 61.46900 40.82200
C  31.05000 61.87100 40.90400
C  31.06700 63.35100 41.39400
C  29.58000 63.72800 41.55000
C  28.90600 62.44400 41.30400
C  32.09900 63.67400 42.51700
C  29.18000 64.98700 40.70300
C  28.46600 66.14600 41.47800
N  27.42100 59.94700 40.81300
C  26.75900 61.15300 41.17200
C  25.33600 60.91700 41.25600
C  25.13300 59.57400 40.97000
C  26.42000 59.06800 40.61700
C  24.33900 61.93300 41.64400
C  24.07100 58.47300 40.81800
O  22.86300 58.49700 41.06600
C  24.88900 57.29600 40.22700
C  24.71200 56.23400 41.19800
O  24.66600 56.33000 42.39200
O  24.63500 54.99800 40.57400
C  24.80100 53.83000 41.45900
H  31.51700 55.78600 38.72800
H  33.08400 61.73600 40.75600
H  27.08900 63.27800 41.61800
H  26.84200 54.96200 39.46400
H  29.26000 54.94800 37.77700
H  29.76800 54.06900 40.56400
H  29.96200 53.31300 38.96400
H  28.46000 53.18600 39.71000
H  27.56100 55.82600 36.71700
H  26.25600 56.73600 37.38400
H  24.74900 54.85300 37.11600
H  25.88100 53.77000 37.69300
H  33.65600 55.78400 38.29900
H  34.60400 56.21900 39.71300
H  34.89200 57.02400 38.23400
H  35.17100 61.62800 40.06500
H  36.33700 60.69700 41.03300
H  34.77800 60.93300 41.78000
H  31.54400 63.99700 40.65700
H  29.38300 63.94000 42.60100
H  32.39000 62.67500 42.84200
H  31.62500 64.17300 43.36300
H  32.97500 64.21600 42.16200
H  28.45100 64.69800 39.94600
H  29.98800 65.44600 40.13200
H  27.39500 66.15000 41.27200
H  29.02500 67.07600 41.37600
H  28.51500 65.87700 42.53300
H  24.68600 62.88900 41.25400
H  24.23200 61.92300 42.72900
H  23.40400 61.55600 41.23000
H  24.48800 56.86700 39.30900
H  24.46100 52.95500 40.90600
H  24.16700 53.91500 42.34100
H  25.84100 53.57900 41.66500
Mg -0.68500 43.30600 24.84100
C  1.52400 43.18100 27.69100
C  -3.15800 42.20900 26.92400
C  -2.61400 43.41000 22.13700
C  2.04700 44.30900 22.87500
N  -0.76600 42.82900 27.03300
C  0.18400 42.89500 27.99500
C  -0.36800 42.64400 29.36600
C  -1.80600 42.18100 29.05900
C  -1.94800 42.37700 27.58100
C  -2.23700 40.79700 29.57000
C  -0.13900 43.93100 30.24400
C  0.46600 43.85700 31.68100
H  0.05700 42.67700 32.58600
N  -2.66400 42.74100 24.53300
C  -3.46400 42.29000 25.53700
C  -4.79500 41.96600 24.88800
C  -4.64700 42.30200 23.47800
C  -3.23400 42.84200 23.29100
C  -5.90700 41.31300 25.62500
C  -5.68600 42.18700 22.24600
O  -5.36000 42.48200 21.09400
C  -7.05000 41.70200 22.52500
N  -0.29900 43.56000 22.74100
C  -1.33200 43.73400 21.82100
C  -0.88200 44.45300 20.49700
C  0.56000 44.96600 20.91500
C  0.75200 44.25700 22.24200
C  -0.92100 43.42800 19.27900
C  0.56000 46.55300 21.14800
C  0.72300 47.38100 19.90100
N  1.31600 43.64200 25.19800
C  2.32200 43.90000 24.21100
C  3.62000 43.83400 24.90700
C  3.33800 43.54300 26.25900
C  1.99400 43.47800 26.40100
C  4.96500 44.26700 24.37300
C  3.99600 43.26600 27.52900
O  5.20100 43.19900 27.80400
C  2.74000 43.02900 28.54700
C  2.96700 41.79200 29.29500
O  2.95200 40.65400 28.82600
O  3.31800 42.12500 30.63500
C  3.52500 40.96500 31.55900
H  -3.99800 42.08200 27.61000
H  -3.21600 43.64100 21.25600
H  2.79300 44.83800 22.27900
H  0.12900 41.80000 29.84500
H  -2.55500 42.85500 29.47500
H  -3.19900 40.88700 30.07300
H  -1.56100 40.35700 30.30300
H  -2.42600 40.08100 28.77000
H  -1.03400 44.55300 30.27900
H  0.63700 44.56900 29.82000
H  0.18600 44.84900 32.03600
H  1.55300 43.88200 31.60300
H  -5.91200 41.35800 26.71400
H  -5.93600 40.27100 25.30600
H  -6.87500 41.73100 25.34800
H  -7.15100 40.68800 22.91200
H  -7.43100 41.70600 21.50400
H  -7.57200 42.41800 23.16000
H  -1.47500 45.34900 20.31600
H  1.26600 44.66400 20.14200
H  -1.58200 42.58600 19.48300
H  0.12700 43.13700 19.20900
H  -1.18700 43.91100 18.33900
H  1.38300 46.84400 21.80100
H  -0.41800 46.77600 21.57500
H  1.00000 46.74900 19.05700
H  1.49100 48.07900 20.23300
H  -0.21400 47.90000 19.69600
H  4.76700 45.02100 23.61200
H  5.53100 43.45500 23.91400
H  5.56000 44.55500 25.24000
H  2.89100 43.85700 29.24000
H  3.09000 40.04800 31.16300
H  3.07000 41.32800 32.48100
H  4.56400 40.79800 31.84300

