158

Mg 17.23500 -2.15500 27.58800
C  16.26300 0.13300 29.96600
C  19.53800 -3.51500 29.72100
C  18.51500 -3.94600 24.98400
C  15.46000 -0.17500 25.21400
N  17.79300 -1.74900 29.59600
C  17.16100 -0.83400 30.42500
C  17.58300 -0.97900 31.94600
C  18.69700 -2.09600 31.85400
C  18.73000 -2.49600 30.33800
C  20.12900 -1.71300 32.34000
C  16.35700 -1.41600 32.80800
C  16.24400 -0.66900 34.11800
H  17.52700 -0.32000 34.81800
N  18.71000 -3.65400 27.46100
C  19.57900 -4.07900 28.43200
C  20.32200 -5.15200 27.88900
C  19.93900 -5.37300 26.54900
C  19.00300 -4.30400 26.26300
C  21.46000 -5.91400 28.65800
C  20.33000 -6.52400 25.61500
O  19.92100 -6.55300 24.44300
C  21.29100 -7.71600 26.09000
N  17.15300 -1.92500 25.35600
C  17.75000 -2.85500 24.55000
C  17.29600 -2.59100 23.08900
C  16.24300 -1.43800 23.17700
C  16.23500 -1.14800 24.67500
C  18.47800 -2.34800 22.12900
C  14.78800 -1.79800 22.66800
C  14.34600 -1.27000 21.34500
N  16.07900 -0.36300 27.55900
C  15.40400 0.26400 26.56200
C  14.65600 1.39800 27.02800
C  14.98000 1.44500 28.36400
C  15.82900 0.33800 28.67600
C  13.66500 2.25400 26.19700
C  14.89100 2.09800 29.55600
O  14.35400 3.12500 29.81300
C  15.57000 1.32300 30.68800
C  16.44300 2.24700 31.44700
O  17.53500 2.68000 31.10900
O  15.75300 2.59200 32.59400
C  16.39800 3.50100 33.60200
H  20.21700 -4.07200 30.37100
H  18.87900 -4.57200 24.16700
H  14.95500 0.40600 24.43900
H  17.90100 0.05200 32.10300
H  18.42300 -2.95800 32.46200
H  20.12000 -0.68800 32.71100
H  20.79300 -1.61100 31.48200
H  20.59700 -2.42800 33.01600
H  16.41000 -2.48600 33.00700
H  15.38500 -1.21500 32.35800
H  15.58500 -1.16500 34.83100
H  15.66100 0.23000 33.91700
H  22.34400 -5.90300 28.02000
H  21.21200 -6.93400 28.94900
H  21.95200 -5.27600 29.39200
H  21.04600 -8.15000 27.06000
H  22.28100 -7.26100 26.13300
H  21.23500 -8.46900 25.30400
H  16.79300 -3.51100 22.79100
H  16.62300 -0.56100 22.65400
H  18.16400 -1.65800 21.34700
H  18.91800 -3.23600 21.67400
H  19.32600 -1.87300 22.62400
H  13.99600 -1.50700 23.35700
H  14.69200 -2.87200 22.50600
H  13.56400 -1.84700 20.85000
H  15.17600 -1.07900 20.66500
H  13.88500 -0.33400 21.65900
H  12.81100 1.66600 25.86300
H  14.09600 2.54900 25.24100
H  13.32800 3.12500 26.75900
H  14.85900 0.91500 31.40600
H  17.13700 4.15900 33.14500
H  16.81500 2.95700 34.44900
H  15.62600 4.17200 33.97800
Mg -5.45500 24.86400 25.57200
C  -3.75000 26.36300 28.20800
C  -6.93500 22.80000 27.86600
C  -6.92800 23.35200 23.01500
C  -3.66800 27.09300 23.37200
N  -5.33200 24.64600 27.84000
C  -4.67600 25.49800 28.69500
C  -5.23500 25.31900 30.14600
C  -5.95400 23.89500 30.01900
C  -6.12300 23.74600 28.47700
C  -5.12600 22.76700 30.63900
C  -5.96800 26.60100 30.54400
C  -5.43300 27.32300 31.79000
H  -5.06900 26.50200 32.99500
N  -6.73200 23.26300 25.47300
C  -7.16700 22.51600 26.51800
C  -7.97000 21.47000 25.97400
C  -7.99400 21.61200 24.57300
C  -7.15600 22.78500 24.27800
C  -8.65100 20.41500 26.90000
C  -8.75700 20.77500 23.58800
O  -8.54100 20.79900 22.39200
C  -9.80600 19.72500 23.99900
N  -5.22000 25.06600 23.48900
C  -6.03200 24.40100 22.61100
C  -5.87400 24.97700 21.19200
C  -4.84100 26.07400 21.31300
C  -4.59600 26.13000 22.83400
C  -5.47100 23.99100 20.07100
C  -5.29400 27.42500 20.81400
C  -5.51300 27.51000 19.30100
N  -3.91200 26.32000 25.63800
C  -3.27200 27.09300 24.72100
C  -2.20600 27.89700 25.30500
C  -2.39700 27.64000 26.66300
C  -3.48200 26.75900 26.83300
C  -1.29300 28.78100 24.58800
C  -1.87300 27.98900 27.94800
O  -0.88700 28.66800 28.28900
C  -2.89800 27.35300 29.01400
C  -2.21200 26.64600 30.13600
O  -1.85600 25.49900 30.16500
O  -2.01600 27.53300 31.15500
C  -1.19700 27.16800 32.30600
H  -7.48100 22.20000 28.59700
H  -7.42200 22.85900 22.17500
H  -3.03800 27.64000 22.66700
H  -4.34000 25.33700 30.76700
H  -6.94200 23.91300 30.47800
H  -4.65000 23.13800 31.54600
H  -4.41600 22.36700 29.91400
H  -5.81500 21.96600 30.90500
H  -7.03900 26.52900 30.73400
H  -5.87400 27.34100 29.75000
H  -6.25300 27.95800 32.12400
H  -4.74300 28.13100 31.54600
H  -9.71900 20.63500 26.89400
H  -8.41800 20.39600 27.96500
H  -8.49100 19.46600 26.38900
H  -9.52700 18.82100 24.53900
H  -10.20100 19.26900 23.09100
H  -10.62600 20.20200 24.53500
H  -6.88400 25.25700 20.89200
H  -3.88000 25.89300 20.83200
H  -6.09400 24.28100 19.22500
H  -5.70300 22.95700 20.32500
H  -4.39500 24.14700 19.99100
H  -4.47600 28.10600 21.04900
H  -6.14600 27.69700 21.43800
H  -5.52200 26.47800 18.94900
H  -4.72300 28.08900 18.82400
H  -6.46900 28.03400 19.28500
H  -1.84600 29.10000 23.70500
H  -0.38200 28.31900 24.20600
H  -1.04000 29.58000 25.28500
H  -3.49500 28.18600 29.38600
H  -0.21600 27.07200 31.84100
H  -1.46100 26.21300 32.76000
H  -1.17200 27.91300 33.10100

