158

Mg -1.67600 17.76500 27.94000
C  -2.00100 15.62700 30.64300
C  -2.19900 20.44600 30.05900
C  -1.26900 19.89000 25.34700
C  -1.47000 15.03900 25.82200
N  -2.10100 17.96200 30.08500
C  -2.15600 16.94200 30.98700
C  -2.52800 17.41800 32.42500
C  -2.57100 18.97900 32.18500
C  -2.37800 19.15100 30.62400
C  -3.84600 19.66400 32.76900
C  -1.57300 17.01100 33.65800
C  -1.53800 17.82700 34.99300
H  -0.39000 17.40800 35.99000
N  -1.77000 19.86100 27.63600
C  -1.91700 20.78300 28.72300
C  -1.84300 22.09600 28.19400
C  -1.75000 21.98800 26.78400
C  -1.57600 20.54300 26.51800
C  -2.09800 23.36400 29.01500
C  -1.81800 23.10000 25.70500
O  -1.64000 22.87900 24.47500
C  -2.13800 24.51600 26.19600
N  -1.42500 17.48800 25.87000
C  -1.33900 18.51300 24.97100
C  -1.20200 17.96600 23.53300
C  -0.98600 16.39800 23.75100
C  -1.30100 16.26100 25.21800
C  -2.46400 18.41900 22.70500
C  0.27800 15.72200 23.29900
C  1.49500 15.85100 24.22500
N  -1.83200 15.77500 28.14300
C  -1.68300 14.77600 27.17900
C  -1.66900 13.58900 27.86300
C  -1.74200 13.81800 29.22100
C  -1.88400 15.20100 29.33000
C  -1.42500 12.27600 27.24800
C  -1.78900 13.19100 30.55200
O  -1.72400 11.97900 30.91200
C  -2.00400 14.37200 31.52100
C  -0.80200 14.30200 32.45600
O  0.27800 14.75100 32.25400
O  -1.29100 13.58900 33.57600
C  -0.23800 13.08700 34.54100
H  -2.46900 21.21300 30.78800
H  -1.00700 20.45700 24.45100
H  -1.27600 14.18900 25.16500
H  -3.52900 17.06200 32.67000
H  -1.69400 19.34300 32.71900
H  -3.72800 20.63700 33.24700
H  -4.43800 18.97900 33.37500
H  -4.47100 19.84200 31.89400
H  -0.58200 16.92900 33.21000
H  -1.76400 16.03600 34.10700
H  -2.40400 17.42300 35.51600
H  -1.76900 18.89200 35.01200
H  -2.33800 23.08800 30.04100
H  -2.92300 23.89500 28.54000
H  -1.20200 23.98400 28.99400
H  -3.18500 24.47300 26.49400
H  -2.13400 25.22800 25.37100
H  -1.36600 24.88300 26.87300
H  -0.35300 18.33800 22.96100
H  -1.71900 15.83900 23.16900
H  -2.94800 19.27900 23.16900
H  -3.17100 17.58900 22.70200
H  -2.07000 18.64800 21.71500
H  0.49000 15.98300 22.26200
H  -0.00800 14.68100 23.15100
H  1.38900 16.21200 25.24800
H  1.98200 16.62400 23.63200
H  2.15800 14.99100 24.12300
H  -0.73400 12.31600 26.40500
H  -2.41700 12.02300 26.87400
H  -1.01500 11.53700 27.93600
H  -2.98000 14.33500 32.00400
H  -0.24800 11.99800 34.51500
H  -0.49300 13.37900 35.56000
H  0.71700 13.57100 34.33600
Mg 48.47400 33.63100 26.72600
C  46.48500 32.23400 29.35400
C  48.80600 36.46400 28.63600
C  50.01000 34.94600 24.17600
C  47.48400 30.90100 24.73500
N  47.69500 34.24000 28.75300
C  47.10100 33.42900 29.71300
C  47.19200 34.14200 31.08500
C  47.57000 35.62400 30.67900
C  48.10300 35.42600 29.22700
C  46.35800 36.63700 30.75600
C  48.33200 33.52500 31.97100
C  48.15800 33.63900 33.56700
H  47.07900 34.46800 34.30600
N  49.26400 35.44100 26.36700
C  49.40400 36.42000 27.29200
C  50.17500 37.49000 26.70300
C  50.61300 37.03400 25.38000
C  49.98800 35.77000 25.25300
C  50.44300 38.77300 27.57700
C  51.35100 37.80500 24.29900
O  51.64000 37.27700 23.17600
C  51.84300 39.10700 24.52300
N  48.41200 33.18400 24.65600
C  49.30900 33.82600 23.88900
C  49.58500 33.10000 22.59100
C  48.86200 31.76300 22.83700
C  48.21500 31.92300 24.15600
C  49.11000 33.80200 21.31800
C  49.90100 30.54300 22.74600
C  49.93500 29.93200 21.37500
N  47.28000 31.96000 26.94400
C  46.97900 30.89500 26.04800
C  46.12700 29.82300 26.72100
C  45.90900 30.38800 27.99400
C  46.65200 31.65100 28.09600
C  45.58200 28.62800 26.09400
C  45.26100 30.11900 29.30600
O  44.64400 29.16800 29.71100
C  45.46400 31.42900 30.21700
C  45.93600 31.06500 31.63900
O  46.99800 30.60100 31.93700
O  44.93200 31.35500 32.55600
C  45.14200 30.64900 33.81300
H  48.98200 37.30300 29.31200
H  50.80600 35.08400 23.44200
H  47.42500 29.98200 24.14800
H  46.31300 34.15700 31.72900
H  48.35200 36.06800 31.29600
H  46.69600 37.55500 31.23700
H  45.54900 36.27200 31.38900
H  45.95800 36.87500 29.77100
H  49.35100 33.82900 31.73600
H  48.36400 32.46900 31.70300
H  49.17100 33.97800 33.78600
H  48.17100 32.62000 33.95200
H  49.57400 39.02100 28.18600
H  50.74800 39.64300 26.99600
H  51.29400 38.62100 28.24100
H  51.04600 39.78800 24.82300
H  52.23100 39.52300 23.59400
H  52.48800 38.96100 25.39000
H  50.67100 33.00700 22.62500
H  48.07900 31.45900 22.14200
H  48.04300 33.69600 21.12200
H  49.53000 33.56200 20.34100
H  49.19400 34.88100 21.44500
H  49.70300 29.72000 23.43300
H  50.93800 30.82500 22.92700
H  50.85400 30.25400 20.88600
H  49.06700 30.15500 20.75500
H  50.07800 28.85200 21.42900
H  46.34600 28.29900 25.38900
H  44.67200 28.92500 25.57300
H  45.30600 27.79700 26.74400
H  44.50700 31.94700 30.27300
H  45.87400 31.19000 34.41200
H  45.44700 29.62000 33.62500
H  44.19100 30.72200 34.34100

