158

Mg 17.59900 -1.76300 27.30800
C  16.26800 0.34300 29.78000
C  19.30400 -3.52100 29.63500
C  19.03000 -3.48400 24.79400
C  15.87500 0.27100 24.94200
N  17.91100 -1.40700 29.43800
C  17.16100 -0.61400 30.26800
C  17.40800 -1.01600 31.72600
C  18.62200 -2.09100 31.65400
C  18.63100 -2.38300 30.11600
C  20.02900 -1.66300 32.22800
C  16.07700 -1.54800 32.48500
C  15.84600 -0.88400 33.85200
H  17.02000 -0.14000 34.53400
N  18.92000 -3.40100 27.23000
C  19.46800 -3.98900 28.28000
C  20.21000 -5.22800 27.81600
C  20.20200 -5.16700 26.46300
C  19.39600 -3.98900 26.06700
C  20.99800 -6.21400 28.79700
C  20.86900 -6.06200 25.48100
O  20.96200 -5.84100 24.30700
C  21.44700 -7.32600 25.93400
N  17.46500 -1.65500 25.27200
C  18.19800 -2.44000 24.41200
C  18.03000 -1.95400 22.96400
C  16.99900 -0.87000 23.04600
C  16.70500 -0.76100 24.49800
C  19.38900 -1.51200 22.30100
C  15.76800 -1.01200 22.13600
C  14.35700 -1.43500 22.62700
N  16.26000 0.00900 27.26500
C  15.50800 0.61600 26.27700
C  14.64000 1.56000 26.79100
C  14.91500 1.53000 28.16500
C  15.89800 0.53300 28.40600
C  13.54200 2.28300 25.94800
C  14.56000 2.10200 29.46000
O  13.76400 3.02300 29.76700
C  15.36300 1.30800 30.52500
C  16.05200 2.27900 31.43700
O  17.04100 2.90300 31.15400
O  15.37000 2.39000 32.56600
C  15.83200 3.49200 33.47600
H  19.65000 -4.19300 30.42300
H  19.48100 -4.01500 23.95300
H  15.24000 0.83600 24.25700
H  17.68000 -0.01400 32.05800
H  18.24500 -2.94100 32.22300
H  20.53200 -2.41800 32.83200
H  19.99300 -0.65200 32.63600
H  20.66300 -1.73100 31.34500
H  16.11100 -2.58400 32.82200
H  15.19900 -1.39300 31.85800
H  15.55400 -1.63400 34.58700
H  15.02200 -0.18900 33.68600
H  22.07900 -6.21300 28.66100
H  20.70800 -7.26500 28.78000
H  20.80400 -5.92200 29.82900
H  22.48600 -7.24700 26.25300
H  21.40200 -8.03200 25.10500
H  20.76700 -7.91200 26.55300
H  17.71600 -2.81600 22.37500
H  17.39600 0.12300 22.83600
H  20.21500 -2.01200 22.80500
H  19.40900 -0.43900 22.49200
H  19.45200 -1.67300 21.22500
H  16.03800 -1.71300 21.34600
H  15.59600 -0.01900 21.72200
H  13.77200 -0.55900 22.90700
H  14.49400 -1.96200 23.57200
H  13.96500 -2.19000 21.94500
H  13.22500 1.57500 25.18300
H  13.99900 3.15200 25.47500
H  12.74500 2.65400 26.59300
H  14.64000 0.70500 31.07400
H  16.11400 4.41700 32.97400
H  16.65600 3.17000 34.11200
H  14.94900 3.60900 34.10500
Mg 40.66800 9.11000 29.61500
C  42.56100 10.31700 32.30900
C  38.41000 7.67800 31.80600
C  39.08600 7.98600 26.87300
C  43.27500 10.04900 27.48900
N  40.55800 8.95300 31.80900
C  41.41100 9.60800 32.73200
C  40.88300 9.42200 34.11100
C  39.51500 8.63700 33.94300
C  39.50000 8.36300 32.43000
C  39.22700 7.37900 34.81800
C  40.77200 10.76700 34.92000
C  39.47400 11.16700 35.72100
H  39.41700 12.05100 36.89600
N  39.04200 7.86900 29.36200
C  38.21000 7.40800 30.39400
C  37.12300 6.69000 29.80300
C  37.38100 6.72800 28.37700
C  38.49100 7.62200 28.13500
C  36.12400 5.93900 30.63500
C  36.56700 6.05000 27.25600
O  36.85500 6.04000 26.08500
C  35.44800 5.15100 27.56000
N  41.14500 8.97400 27.43000
C  40.25100 8.66500 26.49100
C  40.80500 8.72100 24.99900
C  42.24500 9.34800 25.26000
C  42.21900 9.55000 26.83000
C  40.81700 7.37700 24.22800
C  42.49900 10.70500 24.54700
C  41.75100 11.90700 25.08800
N  42.46000 10.05800 29.72800
C  43.43100 10.34800 28.82600
C  44.58900 10.92400 29.43900
C  44.29400 10.95500 30.78900
C  43.00300 10.41000 30.93600
C  45.82500 11.25500 28.65100
C  44.75900 11.28400 32.10200
O  45.79700 11.82000 32.43100
C  43.59700 11.00000 33.22000
C  44.25800 10.12800 34.15500
O  44.41000 8.90200 34.00800
O  44.70800 10.88000 35.13400
C  45.47800 10.33400 36.20100
H  37.61100 7.28800 32.43900
H  38.61200 7.61800 25.96000
H  44.21900 10.09200 26.94200
H  41.60100 8.74600 34.57600
H  38.68100 9.33800 33.90700
H  38.25300 7.38500 35.30900
H  40.06700 7.25400 35.50200
H  39.14800 6.55200 34.11200
H  40.92300 11.54900 34.17600
H  41.58900 10.93000 35.62300
H  39.08400 10.20700 36.05700
H  38.75600 11.58900 35.01800
H  35.95000 6.28700 31.65300
H  36.43400 4.90200 30.76800
H  35.23600 5.81900 30.01500
H  34.49200 5.59200 27.84300
H  35.72200 4.52900 28.41200
H  35.27700 4.35800 26.83200
H  40.07200 9.38500 24.54100
H  42.99600 8.60000 25.00700
H  40.02000 7.27200 23.49200
H  40.74200 6.63000 25.01800
H  41.74800 7.35100 23.66200
H  42.38000 10.69400 23.46300
H  43.55100 10.97800 24.63000
H  42.34100 12.62400 25.66000
H  40.91200 11.60700 25.71500
H  41.33300 12.47700 24.25800
H  46.22400 10.45000 28.03400
H  46.48900 11.55200 29.46300
H  45.62700 12.06100 27.94400
H  43.26000 11.97200 33.57900
H  46.14600 9.50900 35.95000
H  44.88100 9.85300 36.97500
H  46.12300 11.10300 36.62600

