158

Mg -0.08400 6.80600 25.90800
C  0.96900 9.29600 27.98200
C  -0.16900 4.61900 28.56700
C  -0.99700 4.33000 23.77400
C  0.66400 8.98200 23.13900
N  0.23600 7.02000 28.08900
C  0.66300 8.14600 28.69000
C  0.79400 7.80000 30.24200
C  0.69100 6.28600 30.30900
C  0.25000 5.87800 28.90100
C  2.02100 5.55500 30.69400
C  -0.14800 8.69500 31.09000
C  -0.45800 8.20400 32.50500
H  0.80800 7.81000 33.21500
N  -0.57900 4.69000 26.14900
C  -0.53000 4.00700 27.37200
C  -0.80800 2.62300 27.12500
C  -1.05400 2.49700 25.69800
C  -0.91600 3.89400 25.15400
C  -0.94500 1.62700 28.22900
C  -1.45000 1.24700 24.93600
O  -1.55700 1.39700 23.72000
C  -1.53700 -0.20500 25.63400
N  -0.03300 6.63500 23.73500
C  -0.63800 5.58000 23.15400
C  -0.99700 5.86000 21.64900
C  -0.47200 7.38400 21.47800
C  0.11400 7.68200 22.86300
C  -0.37700 4.79700 20.68700
C  -1.60000 8.52100 21.10600
C  -2.36200 9.36300 22.11300
N  0.52200 8.77200 25.59100
C  0.84800 9.48000 24.44600
C  1.19000 10.82800 24.77300
C  1.21400 10.82000 26.18600
C  0.92300 9.50500 26.60000
C  1.65000 11.90200 23.74500
C  1.48500 11.65200 27.44000
O  1.86700 12.79900 27.56000
C  1.37400 10.56800 28.63300
C  2.69500 10.69500 29.27900
O  3.64000 10.01600 28.96600
O  2.69900 11.58100 30.30700
C  3.96300 11.58800 31.00800
H  -0.26500 4.06300 29.50200
H  -1.44500 3.64500 23.05100
H  0.77400 9.53500 22.20300
H  1.79800 8.11200 30.53200
H  -0.09800 6.03000 31.01600
H  2.83600 6.24700 30.90500
H  2.36400 4.90300 29.89100
H  1.95900 4.95500 31.60100
H  -1.00600 8.96100 30.47200
H  0.34100 9.65000 31.28200
H  -1.22500 7.43200 32.56000
H  -0.92500 9.06900 32.97700
H  -1.99400 1.33000 28.22700
H  -0.70200 2.04100 29.20800
H  -0.31700 0.76000 28.02500
H  -1.87600 -0.81200 24.79500
H  -2.36500 -0.13900 26.34100
H  -0.61000 -0.53800 26.10200
H  -2.08400 5.84100 21.57700
H  0.34700 7.46700 20.76300
H  0.02600 3.85600 21.06100
H  0.43700 5.31100 20.17600
H  -1.16100 4.59800 19.95600
H  -2.20700 7.98000 20.38000
H  -1.03000 9.27400 20.56200
H  -2.11900 10.37900 21.80400
H  -2.11300 9.18300 23.15900
H  -3.45200 9.34300 22.10100
H  0.78200 12.27200 23.20100
H  2.53500 11.71000 23.13700
H  1.78800 12.72400 24.44700
H  0.53100 10.92200 29.22600
H  4.85700 11.33300 30.43800
H  3.91000 11.01200 31.93100
H  4.07900 12.59700 31.40500
Mg 49.32100 47.02500 42.53400
C  46.05500 47.61000 41.24800
C  49.24300 43.95900 40.71300
C  52.61900 46.62000 43.00300
C  49.41000 50.32200 43.54600
N  47.81400 45.96500 41.08800
C  46.56000 46.37600 40.75100
C  45.75100 45.34600 39.89200
C  46.80800 44.15700 39.93200
C  48.03800 44.66600 40.68800
C  46.29500 42.66800 40.18600
C  45.34400 45.81200 38.42400
C  44.20900 45.02500 37.72300
H  44.48600 43.88400 36.77200
N  50.70800 45.38200 42.12200
C  50.49800 44.28700 41.29300
C  51.75700 43.55700 41.10100
C  52.76100 44.35200 41.71100
C  52.04100 45.51500 42.32400
C  51.85400 42.28800 40.34300
C  54.31300 44.02300 41.72100
O  54.68300 42.89000 41.28700
C  55.36400 44.97300 42.35100
N  50.87200 48.29000 43.15100
C  52.08600 47.84500 43.49700
C  52.93600 49.08200 44.01800
C  51.87700 50.18000 44.19800
C  50.57800 49.54200 43.61700
C  53.83300 48.91900 45.29600
C  52.23100 51.47100 43.50100
C  52.12500 52.62000 44.48600
N  48.03400 48.62000 42.52700
C  48.14400 49.80200 43.12800
C  46.94900 50.59000 43.00100
C  46.06600 49.72600 42.32900
C  46.78000 48.57800 41.96400
C  46.85700 52.03000 43.32700
C  44.78800 49.56200 41.76800
O  43.86500 50.36200 41.94900
C  44.69300 48.29800 40.89900
C  43.57000 47.57200 41.40300
O  43.27600 47.42200 42.55500
O  43.01500 46.97600 40.31200
C  41.91300 46.03800 40.51200
H  49.14600 43.07000 40.08600
H  53.68900 46.65500 43.22100
H  49.46800 51.28800 44.05200
H  44.83200 45.07400 40.41200
H  47.12500 44.09900 38.89000
H  46.74100 42.26300 41.09400
H  46.59200 42.03000 39.35400
H  45.22300 42.82100 40.31500
H  46.26200 45.75500 37.83900
H  45.02500 46.85300 38.46900
H  43.54800 45.82400 37.38900
H  43.58100 44.68100 38.54500
H  51.97800 41.44400 41.02200
H  52.74800 42.33600 39.72200
H  51.04500 42.05700 39.65000
H  56.37900 44.57800 42.31900
H  55.03600 44.88200 43.38600
H  55.26300 45.99300 41.98200
H  53.51900 49.29500 43.12300
H  51.64700 50.40500 45.24000
H  54.02600 47.84700 45.28400
H  53.40800 49.30200 46.22400
H  54.81500 49.38500 45.20500
H  51.57600 51.63500 42.64500
H  53.23700 51.50400 43.08300
H  53.13600 52.88900 44.79200
H  51.43900 52.36600 45.29400
H  51.69900 53.48000 43.96900
H  47.13100 52.33500 44.33700
H  45.79900 52.29400 43.31400
H  47.30800 52.70700 42.60200
H  44.65100 48.53700 39.83600
H  41.91700 45.69900 41.54800
H  41.94200 45.16400 39.86200
H  40.99400 46.58800 40.31300

