158

Mg 6.72300 53.27700 40.73000
C  6.50300 49.89300 40.35000
C  9.87300 53.31000 39.54400
C  6.54600 56.69900 40.48800
C  3.30900 53.22100 41.75900
N  7.96400 51.77700 39.91500
C  7.72400 50.40400 39.82400
C  8.99900 49.62900 39.43200
C  10.11700 50.74100 39.72000
C  9.27800 52.06600 39.67900
C  11.00900 50.52700 41.02900
C  8.98800 49.07700 37.97900
C  8.24400 49.88100 36.96600
H  7.59000 49.10300 35.72600
N  8.07700 54.81200 40.05800
C  9.32000 54.55900 39.54300
C  9.93600 55.85100 39.21300
C  8.95300 56.86400 39.50800
C  7.79400 56.14800 40.03800
C  11.36900 56.01200 38.76000
C  9.12000 58.46400 39.33000
O  10.16600 58.87200 38.77400
C  8.08100 59.41400 39.81100
N  5.17300 54.70600 40.98400
C  5.40000 56.03900 40.90400
C  4.10900 56.83600 41.15500
C  3.11100 55.73300 41.68400
C  3.92300 54.44200 41.51200
C  4.13300 58.17400 42.08000
C  1.67200 55.67900 41.00800
C  0.44500 55.57500 41.80900
N  5.23800 51.87500 41.17400
C  3.91200 51.98600 41.49800
C  3.38000 50.67600 41.81700
C  4.34300 49.79700 41.27200
C  5.41500 50.59200 40.90000
C  1.99800 50.29200 42.37500
C  4.64800 48.41100 40.96600
O  3.97900 47.38700 41.10300
C  6.15900 48.41000 40.44900
C  6.10300 47.68300 39.13000
O  5.75600 48.14600 38.04400
O  6.38300 46.33700 39.26400
C  6.35700 45.41100 38.09400
H  10.92900 53.14900 39.32000
H  6.33200 57.76000 40.33800
H  2.29600 53.06400 42.13700
H  9.08100 48.80500 40.14100
H  10.82300 50.67200 38.89300
H  11.20400 51.45000 41.57500
H  11.94000 50.07100 40.69400
H  10.58900 49.89200 41.81000
H  8.53300 48.08700 37.97900
H  9.98900 48.97900 37.55700
H  8.95100 50.54400 36.46700
H  7.55600 50.61000 37.39500
H  11.30700 56.45300 37.76500
H  11.87800 55.05500 38.65000
H  11.96800 56.67100 39.38900
H  7.18000 59.22500 39.22700
H  8.35400 60.45000 39.60800
H  8.05500 59.25000 40.88800
H  3.65900 57.06900 40.19000
H  2.92900 55.74100 42.75800
H  3.94900 59.10100 41.53600
H  5.06700 58.16200 42.64200
H  3.36100 58.23700 42.84600
H  1.49800 54.84800 40.32400
H  1.71800 56.55200 40.35700
H  0.64700 55.30800 42.84600
H  -0.18100 54.80100 41.36500
H  -0.04400 56.54600 41.89000
H  1.59700 51.09300 42.99700
H  2.03900 49.38600 42.97900
H  1.31500 50.21800 41.52900
H  6.74800 47.83200 41.16100
H  6.08100 45.94800 37.18700
H  5.69300 44.56500 38.27000
H  7.38000 45.04500 37.99700
Mg 17.09600 52.00200 26.55000
C  19.42200 50.76000 28.90500
C  15.06400 52.82200 29.12100
C  14.89500 53.22700 24.32000
C  19.28900 50.89700 24.02600
N  17.22400 51.80000 28.78600
C  18.29000 51.31300 29.50500
C  18.10700 51.57300 30.94800
C  16.57800 51.86800 31.02900
C  16.26300 52.20800 29.60200
C  15.80300 50.61500 31.43600
C  18.94400 52.79600 31.45200
C  19.11000 52.88000 32.98800
H  18.07400 52.24100 33.87400
N  15.16300 52.81800 26.66800
C  14.55900 53.13900 27.82000
C  13.30200 53.89700 27.61800
C  13.19000 54.00000 26.15900
C  14.44300 53.32400 25.63000
C  12.43900 54.46000 28.68700
C  12.17900 54.70600 25.30900
O  12.15800 54.55200 24.07500
C  11.19200 55.65400 25.86400
N  16.96600 51.84400 24.48100
C  16.05300 52.63800 23.81800
C  16.20200 52.44300 22.25900
C  17.68200 51.88000 22.11900
C  18.04500 51.55700 23.61400
C  15.15800 51.43200 21.70100
C  18.74800 52.88200 21.50300
C  20.04800 52.23500 21.06500
N  18.91800 51.05400 26.42500
C  19.70700 50.59000 25.34400
C  20.95200 49.97400 25.78200
C  20.88600 50.08500 27.17800
C  19.61900 50.66500 27.49700
C  21.96200 49.35800 24.83400
C  21.64500 49.85500 28.41000
O  22.73900 49.39900 28.59300
C  20.64700 50.25600 29.63800
C  20.39300 49.14100 30.56100
O  19.93500 48.07300 30.28800
O  20.88200 49.58000 31.80100
C  20.66200 48.60700 32.87600
H  14.38300 53.13900 29.91400
H  14.31700 53.79100 23.58600
H  19.91000 50.54100 23.20200
H  18.37500 50.69900 31.54000
H  16.37200 52.71300 31.68600
H  14.79000 50.46400 31.06400
H  15.78200 50.51500 32.52200
H  16.30800 49.76400 30.97800
H  18.45000 53.70100 31.10000
H  19.90900 52.84800 30.94800
H  19.36200 53.91500 33.22000
H  20.03000 52.33200 33.19500
H  11.65500 53.75700 28.96700
H  12.13000 55.48600 28.48500
H  12.98900 54.61500 29.61500
H  10.58500 56.17300 25.12200
H  11.63000 56.43800 26.48100
H  10.52300 54.97000 26.38800
H  16.13200 53.34700 21.65400
H  17.67900 51.06600 21.39500
H  15.57800 50.51000 21.29900
H  14.71400 52.05200 20.92200
H  14.40500 51.34400 22.48400
H  19.12100 53.66400 22.16400
H  18.32300 53.27100 20.57800
H  20.84000 52.46300 21.77900
H  20.40500 52.71100 20.15100
H  19.83300 51.16800 21.02100
H  22.17400 50.10600 24.06900
H  21.44600 48.51300 24.37900
H  22.87200 49.10700 25.37800
H  21.13600 51.07800 30.15900
H  20.20600 47.64600 32.63600
H  20.08100 48.98200 33.71800
H  21.64100 48.37900 33.29600

