158

Mg 2.31100 -1.12800 44.39600
C  5.65800 -0.16600 44.16900
C  1.41800 1.99400 43.28900
C  -0.83600 -2.13200 43.98500
C  3.36500 -4.42200 44.92600
N  3.50200 0.69600 43.85000
C  4.84100 0.87800 43.82800
C  5.20100 2.30000 43.37200
C  3.80800 3.05600 43.62900
C  2.78500 1.89300 43.63500
C  3.78700 3.93000 44.95200
C  5.78500 2.43200 41.88700
C  4.80400 2.17700 40.71900
H  4.85000 3.07400 39.46000
N  0.57700 -0.23000 43.57900
C  0.38900 1.07300 43.14000
C  -0.92900 1.30200 42.60500
C  -1.52500 -0.03100 42.70400
C  -0.61700 -0.89000 43.47900
C  -1.42900 2.60800 42.10200
C  -2.86500 -0.39800 42.13800
O  -3.46600 0.48100 41.58500
C  -3.38600 -1.73500 42.14800
N  1.47300 -2.98700 44.36200
C  0.11300 -3.08800 44.43100
C  -0.37700 -4.47100 44.76700
C  1.00700 -5.31900 44.97900
C  2.02200 -4.17300 44.72100
C  -1.44400 -4.50800 45.88700
C  1.19600 -6.53800 44.01300
C  1.23100 -7.88400 44.67100
N  4.10200 -2.09500 44.75600
C  4.40500 -3.46700 44.91400
C  5.77400 -3.65600 44.95400
C  6.34700 -2.41600 44.70200
C  5.31000 -1.50800 44.52000
C  6.47100 -4.96700 45.25400
C  7.62200 -1.67500 44.56200
O  8.78700 -2.03800 44.58600
C  7.14500 -0.29000 44.04600
C  7.92500 0.73400 44.68900
O  8.75100 1.33800 44.12700
O  7.63300 0.84900 46.02600
C  8.16000 2.11500 46.58700
H  1.19700 3.01200 42.96000
H  -1.88400 -2.43400 44.03100
H  3.66300 -5.45400 45.12300
H  5.92800 2.58400 44.13300
H  3.47200 3.53100 42.70800
H  3.31000 3.35700 45.74700
H  3.24600 4.83900 44.69000
H  4.77000 4.30400 45.23800
H  6.74400 1.95200 41.69000
H  6.11900 3.46500 41.79600
H  3.76500 1.99800 40.99500
H  5.05800 1.17900 40.36100
H  -2.49000 2.84800 42.16500
H  -1.08500 2.83900 41.09400
H  -0.87200 3.30500 42.72700
H  -4.15400 -1.66400 41.37700
H  -3.87000 -1.95600 43.10000
H  -2.54700 -2.38400 41.89900
H  -0.86700 -5.05900 43.99200
H  1.14400 -5.62200 46.01700
H  -1.46000 -3.53300 46.37500
H  -1.21700 -5.25000 46.65200
H  -2.47100 -4.71400 45.58500
H  2.11000 -6.37000 43.44200
H  0.42500 -6.58100 43.24500
H  0.68000 -8.64900 44.12400
H  0.64700 -7.91000 45.59200
H  2.20700 -8.29200 44.93500
H  6.47100 -5.11500 46.33400
H  7.50600 -4.97400 44.91200
H  5.99000 -5.81500 44.76700
H  7.39600 -0.15100 42.99500
H  8.01000 2.02100 47.66200
H  7.74700 3.06300 46.24300
H  9.24200 2.10900 46.45900
Mg 25.61900 -0.23900 29.42500
C  27.44200 -0.76100 32.25000
C  22.78100 -0.09600 31.35400
C  23.62900 -0.27700 26.55500
C  28.43000 -0.82200 27.47300
N  25.19200 -0.61300 31.52600
C  26.15800 -0.56400 32.52400
C  25.59600 -0.29400 33.98900
C  24.03700 -0.27800 33.64300
C  23.95600 -0.42000 32.10800
C  23.14800 -1.25600 34.44500
C  26.19900 0.96200 34.69100
C  26.79000 0.64600 36.05400
H  26.47000 1.70300 37.13900
N  23.56300 -0.06700 29.01400
C  22.50900 0.13400 29.95800
C  21.28500 0.47800 29.28600
C  21.55000 0.37100 27.90600
C  22.96100 -0.06200 27.76100
C  20.04100 0.82800 30.00200
C  20.61700 0.57200 26.72900
O  20.87600 0.36400 25.53300
C  19.26400 1.24700 27.00500
N  25.91000 -0.40000 27.32900
C  25.00700 -0.38400 26.34200
C  25.69300 -0.51900 24.94500
C  27.19300 -0.41800 25.28000
C  27.22000 -0.54000 26.83500
C  25.28100 -1.73600 24.09900
C  27.85600 0.92700 24.87800
C  29.14500 0.98700 24.10700
N  27.59900 -0.57200 29.78600
C  28.59500 -0.84200 28.90200
C  29.76600 -1.12000 29.69800
C  29.50100 -0.93800 31.02600
C  28.08400 -0.79900 31.01700
C  31.12300 -1.49800 29.13400
C  29.95900 -0.92000 32.34700
O  31.06600 -0.90700 32.83500
C  28.62100 -0.96200 33.20800
C  28.44100 -2.21500 33.96000
O  27.66600 -3.14200 33.75400
O  29.36500 -2.08000 35.01200
C  29.11800 -2.97500 36.14900
H  21.93200 0.00900 32.03300
H  22.94200 -0.37700 25.71200
H  29.25400 -1.00500 26.78000
H  25.85300 -1.14900 34.61600
H  23.65100 0.72700 33.81400
H  23.34500 -1.43700 35.50200
H  23.10700 -2.19800 33.89900
H  22.15900 -0.80200 34.39400
H  25.34100 1.61600 34.84700
H  26.93300 1.41800 34.02600
H  27.84200 0.45700 35.84100
H  26.39200 -0.23900 36.55200
H  19.80300 1.86600 29.77300
H  20.30700 0.83000 31.05900
H  19.22500 0.10700 29.93800
H  19.40500 2.10400 27.66400
H  18.55400 0.49600 27.35200
H  18.87900 1.67200 26.07700
H  25.37200 0.36000 24.38600
H  27.73300 -1.27300 24.87400
H  24.79200 -2.48100 24.72600
H  26.16400 -2.21200 23.67200
H  24.57000 -1.44300 23.32500
H  28.14900 1.53900 25.73100
H  27.10300 1.42500 24.26700
H  29.06300 1.62900 23.22900
H  29.52600 0.01400 23.79500
H  29.85500 1.36000 24.84500
H  31.93100 -1.32600 29.84500
H  31.34600 -1.03700 28.17200
H  31.04000 -2.55100 28.86200
H  28.61100 -0.15700 33.94200
H  28.81500 -3.96300 35.80300
H  28.48600 -2.50200 36.90100
H  30.08100 -3.09100 36.64600

