158

Mg 50.17600 45.66400 42.28100
C  47.06900 46.41400 40.77600
C  49.72500 42.40500 40.91400
C  53.47900 45.10200 42.42900
C  50.66900 49.06800 42.87700
N  48.48800 44.50000 41.00700
C  47.33300 45.07300 40.49200
C  46.53700 44.07000 39.66400
C  47.31100 42.70800 40.03800
C  48.64800 43.17600 40.68700
C  46.44900 41.79500 41.00100
C  46.51900 44.50500 38.23200
C  45.16400 44.39900 37.46900
H  45.17500 43.91200 36.00400
N  51.46200 43.98600 41.89600
C  51.06100 42.75500 41.42800
C  52.18100 41.89100 41.49400
C  53.27000 42.63600 42.02200
C  52.73600 43.94800 42.13900
C  52.18100 40.33100 41.21900
C  54.61700 42.06800 42.31100
O  54.96100 40.94500 41.97900
C  55.60900 42.92900 42.96900
N  51.83500 46.97000 42.67800
C  53.12300 46.44200 42.65500
C  54.19300 47.56900 42.87600
C  53.26400 48.83200 43.09600
C  51.83000 48.27700 42.92500
C  55.17000 47.27700 44.04300
C  53.65900 50.11000 42.23600
C  54.66800 51.03600 42.91600
N  49.11500 47.43100 41.97500
C  49.45200 48.72700 42.27100
C  48.32100 49.59500 41.90400
C  47.38300 48.73800 41.29500
C  47.90800 47.39100 41.37300
C  48.27700 51.00200 42.02500
C  46.20100 48.70300 40.54600
O  45.42800 49.58900 40.12100
C  45.95300 47.25400 40.31600
C  44.69700 46.84200 40.89800
O  44.52600 46.59200 42.08900
O  43.67600 46.75500 39.96100
C  42.39200 46.38700 40.45000
H  49.57100 41.35300 40.66600
H  54.56500 45.07900 42.31900
H  50.86700 50.12700 43.05100
H  45.53600 44.01100 40.09100
H  47.44700 42.00000 39.22000
H  46.52400 40.76700 40.64700
H  45.41900 42.14200 41.07600
H  46.84500 41.73700 42.01500
H  47.23300 43.86700 37.71200
H  46.90300 45.51900 38.11200
H  44.62500 45.34600 37.49600
H  44.60000 43.65600 38.03200
H  52.64000 40.27000 40.23300
H  51.17100 39.92900 41.13700
H  52.74000 39.71100 41.92000
H  56.42900 42.42000 43.47600
H  55.13000 43.53900 43.73500
H  55.97200 43.64600 42.23200
H  54.68300 47.61000 41.90300
H  53.22400 49.15500 44.13700
H  54.93600 47.75500 44.99400
H  56.21600 47.31900 43.73900
H  55.01800 46.22500 44.28600
H  52.79400 50.62300 41.81700
H  54.15100 49.72500 41.34200
H  54.31100 52.04800 43.10400
H  55.51700 51.23200 42.26100
H  55.14200 50.73500 43.85000
H  47.94000 51.35000 43.00200
H  47.61600 51.52300 41.33300
H  49.31000 51.24700 41.77600
H  45.72100 47.18000 39.25400
H  42.00400 47.06300 41.21100
H  42.27700 45.42300 40.94600
H  41.70500 46.40400 39.60400
Mg -12.13600 38.02300 42.30600
C  -9.93100 35.37800 41.40700
C  -10.11500 40.12900 40.59400
C  -14.51400 40.33900 42.76400
C  -14.46000 35.55600 43.33400
N  -10.25100 37.71000 41.03600
C  -9.54800 36.55000 40.80700
C  -8.27100 36.83500 40.00900
C  -8.29200 38.42400 39.90200
C  -9.63000 38.83000 40.47800
C  -7.07700 39.05300 40.60100
C  -8.20400 36.02900 38.64200
C  -6.98600 35.22500 38.18000
H  -6.13500 36.04800 37.10200
N  -12.26100 40.03500 41.95400
C  -11.26800 40.70800 41.23000
C  -11.60900 42.16900 41.27300
C  -12.87200 42.21700 41.87800
C  -13.25900 40.86100 42.32900
C  -10.68100 43.25000 40.72500
C  -13.55400 43.54900 42.18700
O  -13.19500 44.61200 41.61200
C  -14.75000 43.52700 43.15100
N  -14.26100 37.88500 42.68700
C  -15.01600 39.01400 42.90300
C  -16.54700 38.67100 43.00900
C  -16.53100 37.14700 43.28300
C  -15.00300 36.79900 43.07600
C  -17.55600 39.49700 43.85800
C  -17.51300 36.25400 42.43500
C  -18.66400 35.64400 43.23800
N  -12.21500 35.91500 42.43200
C  -13.16000 35.10400 43.09300
C  -12.53100 33.71600 43.18800
C  -11.30500 33.79200 42.52100
C  -11.15400 35.13100 42.04000
C  -13.07700 32.45000 43.86000
C  -10.04000 33.05100 42.15700
O  -9.79100 31.82800 42.33500
C  -9.19000 34.04400 41.24500
C  -7.81900 34.12500 41.75400
O  -6.94700 33.35500 41.46400
O  -7.76300 34.96300 42.83500
C  -6.42100 35.12600 43.38600
H  -9.51800 40.90500 40.11000
H  -15.31300 41.06400 42.93100
H  -14.93500 34.66900 43.75900
H  -7.37200 36.59300 40.57600
H  -8.27100 38.74700 38.86100
H  -6.31100 38.35300 40.93400
H  -7.45200 39.71100 41.38500
H  -6.61000 39.67700 39.83900
H  -8.31700 36.69900 37.78900
H  -8.97700 35.26000 38.65300
H  -7.24900 34.30500 37.65700
H  -6.28000 35.07300 38.99700
H  -10.87600 43.40200 39.66300
H  -9.64900 42.91700 40.83300
H  -10.78500 44.23000 41.19200
H  -14.64400 42.79900 43.95600
H  -15.62600 43.31400 42.53900
H  -14.80300 44.47800 43.67900
H  -16.91700 38.85700 42.00100
H  -16.75100 36.95100 44.33200
H  -18.12700 38.70100 44.33600
H  -18.14400 40.08000 43.14800
H  -16.95300 40.13100 44.50700
H  -16.78700 35.58400 41.97400
H  -17.97100 36.91600 41.70000
H  -18.48900 34.59600 43.48000
H  -19.62500 35.70900 42.72800
H  -18.67000 36.15700 44.19900
H  -14.00600 32.36700 43.29600
H  -13.25300 32.59400 44.92600
H  -12.54200 31.50900 43.73800
H  -9.23600 33.59500 40.25300
H  -6.21500 34.16200 43.85200
H  -6.49700 35.92100 44.12700
H  -5.69700 35.36200 42.60500

