158

Mg 24.39600 -3.99700 45.01600
C  26.31900 -1.26000 43.48300
C  21.65700 -3.12800 43.21300
C  23.25500 -7.15700 45.37700
C  27.67300 -5.11800 46.03600
N  24.05700 -2.43600 43.46500
C  24.95300 -1.42600 43.01300
C  24.19200 -0.56000 41.96700
C  22.73900 -1.15300 42.05000
C  22.79700 -2.29300 42.97400
C  21.66300 -0.07200 42.43700
C  24.70800 -0.49800 40.50000
C  25.66900 -1.70400 40.15600
H  25.65600 -2.07100 38.65600
N  22.59400 -4.93300 44.55200
C  21.49500 -4.34700 43.87400
C  20.43100 -5.25300 43.87500
C  20.92000 -6.43800 44.57200
C  22.31600 -6.23100 44.87700
C  19.07700 -5.02200 43.14800
C  20.00400 -7.63600 44.72400
O  18.89200 -7.66200 44.32300
C  20.40000 -8.81800 45.66000
N  25.36400 -5.84900 45.59300
C  24.60400 -6.95100 45.78100
C  25.42400 -8.03300 46.43800
C  26.94800 -7.43500 46.60300
C  26.64700 -6.07000 46.02200
C  24.92600 -8.71300 47.76500
C  28.06100 -8.24800 45.76400
C  28.25800 -9.56500 46.28700
N  26.47600 -3.21900 45.10500
C  27.65700 -3.85400 45.50600
C  28.78200 -3.00200 45.25900
C  28.23300 -1.90400 44.55800
C  26.90100 -2.14300 44.34800
C  30.27000 -3.09200 45.65100
C  28.59500 -0.57500 44.00700
O  29.58900 0.15300 44.13900
C  27.34500 -0.12400 43.17500
C  27.00000 1.31100 43.63100
O  26.17900 1.65100 44.51300
O  27.87500 2.10000 42.90600
C  27.99000 3.50800 43.23400
H  20.77000 -2.81400 42.65800
H  22.86500 -8.16600 45.52700
H  28.63400 -5.62700 46.13100
H  24.21400 0.42700 42.42900
H  22.61100 -1.47300 41.01600
H  20.65500 -0.33000 42.11400
H  21.89500 0.90400 42.01000
H  21.63600 0.03800 43.52100
H  25.37300 0.35900 40.39100
H  23.91500 -0.46700 39.75400
H  25.32200 -2.56800 40.72300
H  26.66600 -1.38300 40.45500
H  18.86200 -5.52300 42.20400
H  18.86700 -3.97800 42.91100
H  18.29900 -5.29600 43.86000
H  19.45700 -9.29600 45.92600
H  20.98800 -8.53900 46.53400
H  20.96100 -9.50600 45.02800
H  25.51900 -8.83300 45.70400
H  27.24500 -7.35200 47.64900
H  25.70000 -8.83600 48.52300
H  24.51400 -9.67500 47.46000
H  24.11200 -8.04600 48.04900
H  28.98000 -7.67700 45.90100
H  27.92000 -8.21700 44.68400
H  29.27500 -9.67900 46.66200
H  28.08200 -10.28700 45.49000
H  27.52100 -9.78900 47.05800
H  30.39000 -2.24200 46.32200
H  30.94500 -2.86100 44.82700
H  30.40900 -4.00600 46.22900
H  27.67700 -0.19900 42.14000
H  28.18200 4.16700 42.38700
H  28.89800 3.53600 43.83600
H  27.19500 3.93800 43.84400
Mg 36.15400 49.40400 25.30800
C  36.58600 47.91500 28.52900
C  34.72600 52.18500 26.96600
C  35.56900 50.86200 22.23000
C  37.39300 46.62100 23.80300
N  35.68900 49.97600 27.47800
C  36.08900 49.24700 28.58300
C  35.74800 50.01500 29.84600
C  35.20100 51.32900 29.39800
C  35.08500 51.15200 27.80900
C  33.94700 51.81100 30.17000
C  36.87300 50.08100 30.96900
C  36.52000 49.79700 32.39500
H  35.09400 49.48500 32.87100
N  35.30200 51.31500 24.68900
C  34.80200 52.29600 25.55000
C  34.31700 53.43000 24.74400
C  34.58100 53.04500 23.38500
C  35.19900 51.69100 23.41700
C  33.74100 54.60100 25.38700
C  34.25400 53.81600 22.18900
O  34.41300 53.30100 21.08900
C  33.83100 55.22700 22.27800
N  36.30400 48.79000 23.35500
C  36.13900 49.55200 22.22000
C  36.41000 48.78200 20.91100
C  37.07100 47.48500 21.44800
C  36.91000 47.66400 22.99200
C  35.18500 48.55700 20.04100
C  38.57800 47.43500 21.04100
C  39.69900 48.17100 21.86300
N  36.81100 47.63800 25.95400
C  37.35200 46.58200 25.18500
C  37.71300 45.53700 26.09500
C  37.41400 45.94900 27.41100
C  36.88300 47.28400 27.24900
C  38.32200 44.20400 25.66400
C  37.47500 45.58900 28.77900
O  37.88300 44.57200 29.25100
C  36.85100 46.81400 29.55900
C  35.64800 46.23500 30.24200
O  34.52800 46.16300 29.78600
O  35.90200 45.64300 31.52400
C  34.80800 45.19200 32.41300
H  34.31900 53.00500 27.56000
H  35.35300 51.22700 21.22300
H  37.92700 45.82700 23.27700
H  34.92000 49.39700 30.19600
H  35.91700 52.13100 29.57100
H  33.37200 51.05600 30.70500
H  33.24500 52.30700 29.50000
H  34.14700 52.52100 30.97400
H  37.41700 51.01400 30.82000
H  37.50200 49.21800 30.75000
H  36.86500 50.71200 32.87500
H  37.18500 49.08300 32.88100
H  32.74400 54.71300 24.96100
H  34.25400 55.44700 24.92800
H  33.74900 54.68200 26.47400
H  34.66000 55.76600 22.73600
H  32.92600 55.33300 22.87500
H  33.77900 55.54400 21.23600
H  37.13800 49.40000 20.38600
H  36.62200 46.54400 21.13000
H  34.24100 48.88900 20.47300
H  35.04900 47.47900 19.96300
H  35.33600 49.02600 19.06800
H  38.54600 47.71100 19.98700
H  38.93900 46.40800 20.97800
H  40.18400 48.77800 21.09800
H  40.36100 47.45000 22.34200
H  39.33100 48.77300 22.69400
H  38.56600 44.13700 24.60400
H  37.63800 43.36800 25.81500
H  39.21900 44.04700 26.26400
H  37.60500 47.12700 30.28000
H  34.75700 44.10300 32.42200
H  33.82800 45.61400 32.18900
H  35.04400 45.44700 33.44600

