158

Mg 49.26900 44.76600 43.07800
C  45.92900 45.57000 42.11700
C  48.89200 41.64000 41.75100
C  52.61500 44.43700 43.37800
C  49.52400 48.19500 44.03000
N  47.62700 43.86900 41.92300
C  46.38500 44.36400 41.64100
C  45.51400 43.36900 40.79500
C  46.45000 42.05900 40.77100
C  47.73800 42.49000 41.60400
C  45.85800 40.77400 41.43100
C  45.17000 44.03800 39.41200
C  43.71600 43.73100 39.01000
H  43.55700 42.69700 37.85200
N  50.61100 43.19800 42.65700
C  50.21300 41.98000 42.14500
C  51.40400 41.16400 42.00900
C  52.50800 41.96000 42.39500
C  51.96800 43.26900 42.85800
C  51.40500 39.66000 41.69000
C  53.99900 41.65300 42.33500
O  54.37700 40.57900 41.83000
C  55.15000 42.54300 42.92300
N  50.79900 46.04300 43.75300
C  52.14700 45.69600 43.71200
C  53.11700 46.84000 44.15700
C  52.11900 47.89200 44.55500
C  50.71800 47.37500 44.05500
C  54.27900 46.41700 45.05000
C  52.34800 49.35700 44.09800
C  52.11300 50.54200 45.03700
N  48.06400 46.51000 43.23600
C  48.26200 47.82900 43.61200
C  47.11300 48.64600 43.45200
C  46.14700 47.78100 42.95300
C  46.75200 46.49700 42.83200
C  46.85900 50.06300 43.92000
C  44.77800 47.71700 42.55500
O  43.92500 48.55200 42.70600
C  44.58200 46.26100 42.01900
C  43.40400 45.56100 42.64400
O  43.41400 44.87900 43.66800
O  42.33600 45.92700 41.90500
C  41.10400 45.32600 42.39700
H  48.70000 40.64800 41.33700
H  53.70700 44.40800 43.40800
H  49.59400 49.26400 44.24600
H  44.59300 43.10300 41.31400
H  46.62400 41.83800 39.71800
H  45.46500 40.04800 40.71900
H  45.05800 41.11700 42.08700
H  46.45300 40.27400 42.19500
H  45.81900 43.52100 38.70500
H  45.48900 45.08000 39.40400
H  43.24400 44.64300 38.64500
H  43.05600 43.50100 39.84700
H  51.72000 39.40100 40.67900
H  50.34100 39.42700 41.64800
H  51.93000 39.12700 42.48200
H  54.95900 42.90700 43.93300
H  55.46700 43.35000 42.26300
H  56.03100 41.93000 43.11300
H  53.51400 47.14900 43.19000
H  52.23900 47.96600 45.63600
H  54.35400 45.33000 45.07900
H  54.16500 46.72000 46.09100
H  55.18900 46.79900 44.58700
H  51.74300 49.49500 43.20200
H  53.41500 49.29500 43.88100
H  51.79900 50.17700 46.01400
H  51.23900 51.10100 44.70300
H  52.96900 51.17100 45.28000
H  47.34500 50.19000 44.88700
H  45.77300 50.11000 43.99800
H  47.24900 50.78800 43.20600
H  44.24300 46.45500 41.00200
H  40.72800 45.99500 43.17000
H  41.32300 44.32800 42.77400
H  40.38400 45.12300 41.60500
Mg 0.78400 43.95400 24.46100
C  2.65100 43.82600 27.32100
C  -2.19000 43.95500 26.22600
C  -0.84100 43.33900 21.49500
C  3.81200 43.96100 22.50700
N  0.23600 43.64400 26.51000
C  1.21200 43.80800 27.54600
C  0.54600 43.92900 28.93400
C  -1.01900 44.00100 28.54800
C  -1.01700 43.84300 27.01600
C  -1.97000 43.02700 29.20800
C  0.96300 45.11100 29.86700
C  1.38700 44.82200 31.28400
H  0.93900 43.49700 31.95200
N  -1.20800 43.89200 23.93600
C  -2.29300 43.92200 24.78600
C  -3.47900 43.97300 23.98800
C  -3.07900 43.87800 22.61500
C  -1.62300 43.69700 22.64800
C  -4.80700 44.11400 24.66900
C  -3.95700 43.98500 21.36600
O  -3.41000 43.93300 20.22500
C  -5.46500 44.35500 21.55900
N  1.35900 43.83000 22.32200
C  0.51900 43.53600 21.31000
C  1.26800 43.00200 20.07800
C  2.59900 43.77700 20.33200
C  2.63100 43.88700 21.80300
C  1.39900 41.48400 20.05700
C  2.66000 45.24700 19.77000
C  4.03500 45.73700 19.25700
N  2.84300 43.90400 24.75000
C  3.96900 43.92400 23.97000
C  5.09300 43.80200 24.80500
C  4.66300 43.84900 26.12700
C  3.28000 43.86200 26.04100
C  6.56000 43.84100 24.25800
C  5.11800 43.75700 27.45100
O  6.28400 43.55600 27.86800
C  3.84300 43.89100 28.33300
C  3.80100 42.87500 29.34200
O  3.35900 41.73400 29.17400
O  4.42800 43.27200 30.48700
C  4.71300 42.24000 31.62200
H  -3.05500 43.99400 26.89100
H  -1.36200 42.94700 20.61900
H  4.77500 43.78800 22.02200
H  0.70300 42.96100 29.41000
H  -1.34500 45.02300 28.74000
H  -1.47200 42.49800 30.02100
H  -2.26500 42.31600 28.43600
H  -2.89200 43.44700 29.61000
H  0.16500 45.84400 29.98800
H  1.81500 45.59200 29.38700
H  0.86600 45.49900 31.96100
H  2.42400 45.05600 31.52600
H  -5.31700 45.06400 24.50800
H  -4.74000 44.00500 25.75200
H  -5.46800 43.28400 24.42100
H  -6.01200 43.60600 22.13200
H  -5.88100 44.47800 20.56000
H  -5.53900 45.30000 22.09800
H  0.76700 43.47200 19.23200
H  3.46700 43.22300 19.97600
H  2.40200 41.06400 19.98200
H  0.82200 41.06800 19.23100
H  0.90800 41.02600 20.91600
H  2.39200 46.07100 20.43100
H  1.91300 45.28500 18.97700
H  4.01300 45.95300 18.18900
H  4.76600 44.95100 19.44800
H  4.35800 46.62800 19.79500
H  6.66500 43.08400 23.48100
H  7.26600 43.60800 25.05500
H  6.86600 44.83700 23.93900
H  3.93300 44.90200 28.73200
H  5.79900 42.20600 31.54300
H  4.33900 41.21900 31.54100
H  4.46200 42.56500 32.63100

